MODEL 1
REMARK VINA RESULT:     -10.9      0.000      0.000
REMARK SMILES CCC(C)(C)NC(=O)[C@@H](C)Oc1ccc(C)nc1C(=O)OCCOC(=O)c1ccc(-c2c3nc(c(-c4cccc(S(=O)(=O)[O-])c4F)c4ccc([nH]4)c(-c4cccc(S(=O)(=O)[O-])c4F)c4nc(c(-c5cccc(S(=O)(=O)[O-])c5F)c5ccc2[nH]5)C=C4)C=C3)cc1
REMARK SMILES IDX 22 1 21 2 19 3 20 4 18 5 12 6 13 7 14 8 17 9 15 10 16 11
REMARK SMILES IDX 11 12 9 13 10 14 7 15 6 16 8 18 3 19 4 20 5 21 2 22 1 23
REMARK SMILES IDX 23 24 24 25 25 26 26 27 27 28 28 29 89 30 29 31 88 32 30 33
REMARK SMILES IDX 31 34 32 35 82 36 33 37 87 38 81 39 83 40 34 41 86 42 80 43
REMARK SMILES IDX 79 44 35 46 67 47 47 48 66 49 48 50 51 51 65 52 84 53 49 54
REMARK SMILES IDX 50 55 64 57 85 58 52 59 36 60 37 61 45 62 38 63 40 64 46 65
REMARK SMILES IDX 39 66 41 67 42 68 43 69 44 70 68 71 69 72 77 73 70 74 72 75
REMARK SMILES IDX 78 76 71 77 73 78 74 79 75 80 76 81 53 82 54 83 62 84 55 85
REMARK SMILES IDX 57 86 63 87 56 88 58 89 59 90 60 91 61 92
REMARK H PARENT 6 17 83 45 51 56
REMARK Flexibility Score: inf
ROOT
ATOM      1  C   UNL A   1      31.536  29.724  25.510  1.00  0.00     0.275 C 
ENDROOT
BRANCH   1   2
ATOM      2  O   UNL A   1      32.727  29.246  24.854  1.00  0.00    -0.457 OA
BRANCH   2   3
ATOM      3  C   UNL A   1      32.559  28.935  23.540  1.00  0.00     0.360 C 
ATOM      4  O   UNL A   1      33.444  28.926  22.701  1.00  0.00    -0.244 OA
BRANCH   3   5
ATOM      5  C   UNL A   1      31.153  28.543  23.217  1.00  0.00     0.190 A 
ATOM      6  C   UNL A   1      30.588  27.322  23.577  1.00  0.00     0.153 A 
ATOM      7  C   UNL A   1      29.198  27.258  23.576  1.00  0.00     0.051 A 
ATOM      8  C   UNL A   1      28.451  28.271  22.975  1.00  0.00     0.027 A 
ATOM      9  N   UNL A   1      30.439  29.531  22.602  1.00  0.00    -0.243 NA
ATOM     10  C   UNL A   1      29.118  29.344  22.412  1.00  0.00     0.039 A 
ATOM     11  C   UNL A   1      28.432  30.282  21.467  1.00  0.00     0.067 C 
BRANCH   6  12
ATOM     12  O   UNL A   1      31.368  26.280  23.958  1.00  0.00    -0.478 OA
BRANCH  12  13
ATOM     13  C   UNL A   1      31.686  25.273  23.000  1.00  0.00     0.259 C 
ATOM     14  C   UNL A   1      30.817  24.031  23.276  1.00  0.00     0.064 C 
BRANCH  13  15
ATOM     15  C   UNL A   1      33.099  24.857  22.455  1.00  0.00     0.261 C 
ATOM     16  N   UNL A   1      33.633  23.617  22.667  1.00  0.00    -0.348 N 
ATOM     17  H   UNL A   1      33.384  22.937  22.001  1.00  0.00     0.164 HD
ATOM     18  O   UNL A   1      33.685  25.586  21.643  1.00  0.00    -0.271 OA
BRANCH  16  19
ATOM     19  C   UNL A   1      34.535  23.133  23.753  1.00  0.00     0.034 C 
ATOM     20  C   UNL A   1      35.981  22.995  23.218  1.00  0.00     0.034 C 
ATOM     21  C   UNL A   1      34.060  21.700  24.102  1.00  0.00     0.034 C 
BRANCH  19  22
ATOM     22  C   UNL A   1      34.581  23.953  25.067  1.00  0.00     0.024 C 
ATOM     23  C   UNL A   1      35.931  24.209  25.707  1.00  0.00     0.006 C 
ENDBRANCH  19  22
ENDBRANCH  16  19
ENDBRANCH  13  15
ENDBRANCH  12  13
ENDBRANCH   6  12
ENDBRANCH   3   5
ENDBRANCH   2   3
ENDBRANCH   1   2
BRANCH   1  24
ATOM     24  C   UNL A   1      31.884  30.886  26.435  1.00  0.00     0.275 C 
BRANCH  24  25
ATOM     25  O   UNL A   1      33.294  30.875  26.714  1.00  0.00    -0.458 OA
BRANCH  25  26
ATOM     26  C   UNL A   1      33.754  31.914  27.440  1.00  0.00     0.338 C 
ATOM     27  O   UNL A   1      33.260  33.032  27.528  1.00  0.00    -0.246 OA
BRANCH  26  28
ATOM     28  C   UNL A   1      34.995  31.526  28.128  1.00  0.00     0.060 A 
ATOM     29  C   UNL A   1      35.104  30.271  28.728  1.00  0.00     0.016 A 
ATOM     30  C   UNL A   1      36.024  32.458  28.254  1.00  0.00     0.016 A 
ATOM     31  C   UNL A   1      36.230  29.958  29.493  1.00  0.00     0.010 A 
ATOM     32  C   UNL A   1      37.173  32.124  28.978  1.00  0.00     0.010 A 
ATOM     33  C   UNL A   1      37.276  30.883  29.632  1.00  0.00    -0.014 A 
BRANCH  33  34
ATOM     34  C   UNL A   1      38.457  30.589  30.492  1.00  0.00     0.031 A 
ATOM     35  C   UNL A   1      39.524  29.641  30.001  1.00  0.00     0.074 A 
ATOM     36  C   UNL A   1      38.556  31.123  31.725  1.00  0.00     0.049 A 
ATOM     37  N   UNL A   1      40.550  29.145  30.646  1.00  0.00    -0.248 NA
ATOM     38  C   UNL A   1      39.418  29.182  28.607  1.00  0.00     0.031 C 
ATOM     39  C   UNL A   1      37.598  32.052  32.325  1.00  0.00     0.029 A 
ATOM     40  N   UNL A   1      39.499  30.937  32.708  1.00  0.00    -0.354 N 
ATOM     41  C   UNL A   1      41.166  28.264  29.764  1.00  0.00     0.074 A 
ATOM     42  C   UNL A   1      40.410  28.305  28.531  1.00  0.00     0.031 C 
ATOM     43  C   UNL A   1      37.993  32.345  33.574  1.00  0.00     0.029 A 
ATOM     44  C   UNL A   1      39.203  31.590  33.884  1.00  0.00     0.049 A 
ATOM     45  H   UNL A   1      40.308  30.390  32.584  1.00  0.00     0.167 HD
ATOM     46  C   UNL A   1      42.264  27.496  29.959  1.00  0.00     0.034 A 
ATOM     47  C   UNL A   1      39.815  31.558  35.085  1.00  0.00     0.034 A 
ATOM     48  C   UNL A   1      43.061  27.509  31.157  1.00  0.00     0.049 A 
ATOM     49  C   UNL A   1      41.047  30.709  35.262  1.00  0.00     0.074 A 
ATOM     50  C   UNL A   1      44.239  26.828  31.412  1.00  0.00     0.029 A 
ATOM     51  N   UNL A   1      42.765  28.237  32.298  1.00  0.00    -0.354 N 
ATOM     52  N   UNL A   1      41.679  29.973  34.381  1.00  0.00    -0.248 NA
ATOM     53  C   UNL A   1      41.664  30.704  36.599  1.00  0.00     0.031 C 
ATOM     54  C   UNL A   1      44.646  27.129  32.715  1.00  0.00     0.029 A 
ATOM     55  C   UNL A   1      43.732  28.013  33.264  1.00  0.00     0.049 A 
ATOM     56  H   UNL A   1      41.984  28.826  32.406  1.00  0.00     0.167 HD
ATOM     57  C   UNL A   1      42.781  29.446  35.044  1.00  0.00     0.074 A 
ATOM     58  C   UNL A   1      42.746  29.966  36.395  1.00  0.00     0.031 C 
ATOM     59  C   UNL A   1      43.726  28.589  34.583  1.00  0.00     0.034 A 
BRANCH  46  60
ATOM     60  C   UNL A   1      42.703  26.585  28.843  1.00  0.00     0.023 A 
ATOM     61  C   UNL A   1      42.045  25.356  28.642  1.00  0.00     0.012 A 
ATOM     62  C   UNL A   1      43.704  26.991  27.938  1.00  0.00     0.148 A 
ATOM     63  C   UNL A   1      42.391  24.534  27.570  1.00  0.00     0.002 A 
ATOM     64  C   UNL A   1      44.017  26.185  26.849  1.00  0.00     0.091 A 
ATOM     65  F   UNL A   1      44.331  28.155  28.159  1.00  0.00    -0.205 F 
ATOM     66  C   UNL A   1      43.367  24.953  26.668  1.00  0.00     0.022 A 
BRANCH  64  67
ATOM     67  S   UNL A   1      45.202  26.673  25.590  1.00  0.00     0.127 S 
ATOM     68  O   UNL A   1      44.562  27.860  25.027  1.00  0.00    -0.237 OA
ATOM     69  O   UNL A   1      46.400  26.945  26.384  1.00  0.00    -0.237 OA
ATOM     70  O   UNL A   1      45.318  25.537  24.685  1.00  0.00    -0.744 OA
ENDBRANCH  64  67
ENDBRANCH  46  60
BRANCH  47  71
ATOM     71  C   UNL A   1      39.293  32.378  36.217  1.00  0.00     0.023 A 
ATOM     72  C   UNL A   1      39.754  33.698  36.381  1.00  0.00     0.012 A 
ATOM     73  C   UNL A   1      38.349  31.864  37.125  1.00  0.00     0.148 A 
ATOM     74  C   UNL A   1      39.308  34.481  37.448  1.00  0.00     0.002 A 
ATOM     75  C   UNL A   1      37.865  32.669  38.151  1.00  0.00     0.091 A 
ATOM     76  F   UNL A   1      37.942  30.596  36.973  1.00  0.00    -0.205 F 
ATOM     77  C   UNL A   1      38.356  33.971  38.325  1.00  0.00     0.022 A 
BRANCH  75  78
ATOM     78  S   UNL A   1      36.543  32.126  39.239  1.00  0.00     0.127 S 
ATOM     79  O   UNL A   1      37.025  32.573  40.543  1.00  0.00    -0.237 OA
ATOM     80  O   UNL A   1      35.392  32.868  38.721  1.00  0.00    -0.237 OA
ATOM     81  O   UNL A   1      36.455  30.684  39.048  1.00  0.00    -0.744 OA
ENDBRANCH  75  78
ENDBRANCH  47  71
BRANCH  59  82
ATOM     82  C   UNL A   1      44.829  28.188  35.526  1.00  0.00     0.023 A 
ATOM     83  C   UNL A   1      46.064  28.864  35.485  1.00  0.00     0.012 A 
ATOM     84  C   UNL A   1      44.616  27.196  36.503  1.00  0.00     0.148 A 
ATOM     85  C   UNL A   1      47.082  28.537  36.380  1.00  0.00     0.002 A 
ATOM     86  C   UNL A   1      45.619  26.907  37.422  1.00  0.00     0.091 A 
ATOM     87  F   UNL A   1      43.442  26.549  36.514  1.00  0.00    -0.205 F 
ATOM     88  C   UNL A   1      46.855  27.569  37.355  1.00  0.00     0.022 A 
BRANCH  86  89
ATOM     89  S   UNL A   1      45.377  25.742  38.769  1.00  0.00     0.127 S 
ATOM     90  O   UNL A   1      46.712  25.688  39.361  1.00  0.00    -0.237 OA
ATOM     91  O   UNL A   1      44.371  26.416  39.591  1.00  0.00    -0.237 OA
ATOM     92  O   UNL A   1      44.914  24.507  38.148  1.00  0.00    -0.744 OA
ENDBRANCH  86  89
ENDBRANCH  59  82
ENDBRANCH  33  34
ENDBRANCH  26  28
ENDBRANCH  25  26
ENDBRANCH  24  25
ENDBRANCH   1  24
TORSDOF 19
ENDMDL
MODEL 2
REMARK VINA RESULT:     -10.8      1.500      2.066
REMARK SMILES CCC(C)(C)NC(=O)[C@@H](C)Oc1ccc(C)nc1C(=O)OCCOC(=O)c1ccc(-c2c3nc(c(-c4cccc(S(=O)(=O)[O-])c4F)c4ccc([nH]4)c(-c4cccc(S(=O)(=O)[O-])c4F)c4nc(c(-c5cccc(S(=O)(=O)[O-])c5F)c5ccc2[nH]5)C=C4)C=C3)cc1
REMARK SMILES IDX 22 1 21 2 19 3 20 4 18 5 12 6 13 7 14 8 17 9 15 10 16 11
REMARK SMILES IDX 11 12 9 13 10 14 7 15 6 16 8 18 3 19 4 20 5 21 2 22 1 23
REMARK SMILES IDX 23 24 24 25 25 26 26 27 27 28 28 29 89 30 29 31 88 32 30 33
REMARK SMILES IDX 31 34 32 35 82 36 33 37 87 38 81 39 83 40 34 41 86 42 80 43
REMARK SMILES IDX 79 44 35 46 67 47 47 48 66 49 48 50 51 51 65 52 84 53 49 54
REMARK SMILES IDX 50 55 64 57 85 58 52 59 36 60 37 61 45 62 38 63 40 64 46 65
REMARK SMILES IDX 39 66 41 67 42 68 43 69 44 70 68 71 69 72 77 73 70 74 72 75
REMARK SMILES IDX 78 76 71 77 73 78 74 79 75 80 76 81 53 82 54 83 62 84 55 85
REMARK SMILES IDX 57 86 63 87 56 88 58 89 59 90 60 91 61 92
REMARK H PARENT 6 17 83 45 51 56
REMARK Flexibility Score: inf
ROOT
ATOM      1  C   UNL A   1      31.992  31.048  26.748  1.00  0.00     0.275 C 
ENDROOT
BRANCH   1   2
ATOM      2  O   UNL A   1      32.067  29.610  26.825  1.00  0.00    -0.457 OA
BRANCH   2   3
ATOM      3  C   UNL A   1      32.633  29.018  25.738  1.00  0.00     0.360 C 
ATOM      4  O   UNL A   1      33.831  28.926  25.533  1.00  0.00    -0.244 OA
BRANCH   3   5
ATOM      5  C   UNL A   1      31.619  28.428  24.812  1.00  0.00     0.190 A 
ATOM      6  C   UNL A   1      31.205  27.100  24.863  1.00  0.00     0.153 A 
ATOM      7  C   UNL A   1      29.999  26.802  24.236  1.00  0.00     0.051 A 
ATOM      8  C   UNL A   1      29.410  27.728  23.376  1.00  0.00     0.027 A 
ATOM      9  N   UNL A   1      31.069  29.337  23.954  1.00  0.00    -0.243 NA
ATOM     10  C   UNL A   1      30.031  28.950  23.188  1.00  0.00     0.039 A 
ATOM     11  C   UNL A   1      29.661  29.848  22.048  1.00  0.00     0.067 C 
BRANCH   6  12
ATOM     12  O   UNL A   1      31.926  26.172  25.540  1.00  0.00    -0.478 OA
BRANCH  12  13
ATOM     13  C   UNL A   1      31.745  24.794  25.221  1.00  0.00     0.259 C 
ATOM     14  C   UNL A   1      31.263  24.050  26.480  1.00  0.00     0.064 C 
BRANCH  13  15
ATOM     15  C   UNL A   1      32.661  23.869  24.340  1.00  0.00     0.261 C 
ATOM     16  N   UNL A   1      33.261  22.745  24.834  1.00  0.00    -0.348 N 
ATOM     17  H   UNL A   1      32.714  21.928  24.790  1.00  0.00     0.164 HD
ATOM     18  O   UNL A   1      32.701  24.031  23.114  1.00  0.00    -0.271 OA
BRANCH  16  19
ATOM     19  C   UNL A   1      34.617  22.563  25.431  1.00  0.00     0.034 C 
ATOM     20  C   UNL A   1      35.010  21.066  25.404  1.00  0.00     0.034 C 
ATOM     21  C   UNL A   1      34.487  22.954  26.924  1.00  0.00     0.034 C 
BRANCH  19  22
ATOM     22  C   UNL A   1      35.784  23.381  24.824  1.00  0.00     0.024 C 
ATOM     23  C   UNL A   1      36.337  22.955  23.478  1.00  0.00     0.006 C 
ENDBRANCH  19  22
ENDBRANCH  16  19
ENDBRANCH  13  15
ENDBRANCH  12  13
ENDBRANCH   6  12
ENDBRANCH   3   5
ENDBRANCH   2   3
ENDBRANCH   1   2
BRANCH   1  24
ATOM     24  C   UNL A   1      33.129  31.672  27.551  1.00  0.00     0.275 C 
BRANCH  24  25
ATOM     25  O   UNL A   1      33.212  33.076  27.259  1.00  0.00    -0.458 OA
BRANCH  25  26
ATOM     26  C   UNL A   1      33.282  33.893  28.330  1.00  0.00     0.338 C 
ATOM     27  O   UNL A   1      32.513  34.803  28.619  1.00  0.00    -0.246 OA
BRANCH  26  28
ATOM     28  C   UNL A   1      34.465  33.554  29.134  1.00  0.00     0.060 A 
ATOM     29  C   UNL A   1      35.729  34.004  28.751  1.00  0.00     0.016 A 
ATOM     30  C   UNL A   1      34.324  32.703  30.230  1.00  0.00     0.016 A 
ATOM     31  C   UNL A   1      36.864  33.569  29.441  1.00  0.00     0.010 A 
ATOM     32  C   UNL A   1      35.457  32.311  30.949  1.00  0.00     0.010 A 
ATOM     33  C   UNL A   1      36.742  32.713  30.545  1.00  0.00    -0.014 A 
BRANCH  33  34
ATOM     34  C   UNL A   1      37.944  32.193  31.255  1.00  0.00     0.031 A 
ATOM     35  C   UNL A   1      38.755  31.078  30.642  1.00  0.00     0.074 A 
ATOM     36  C   UNL A   1      38.286  32.677  32.466  1.00  0.00     0.049 A 
ATOM     37  N   UNL A   1      39.743  30.391  31.159  1.00  0.00    -0.248 NA
ATOM     38  C   UNL A   1      38.401  30.672  29.272  1.00  0.00     0.031 C 
ATOM     39  C   UNL A   1      37.592  33.752  33.175  1.00  0.00     0.029 A 
ATOM     40  N   UNL A   1      39.290  32.305  33.328  1.00  0.00    -0.354 N 
ATOM     41  C   UNL A   1      40.078  29.431  30.212  1.00  0.00     0.074 A 
ATOM     42  C   UNL A   1      39.200  29.632  29.080  1.00  0.00     0.031 C 
ATOM     43  C   UNL A   1      38.181  33.945  34.367  1.00  0.00     0.029 A 
ATOM     44  C   UNL A   1      39.261  32.977  34.530  1.00  0.00     0.049 A 
ATOM     45  H   UNL A   1      39.965  31.623  33.108  1.00  0.00     0.167 HD
ATOM     46  C   UNL A   1      41.033  28.473  30.274  1.00  0.00     0.034 A 
ATOM     47  C   UNL A   1      39.996  32.812  35.647  1.00  0.00     0.034 A 
ATOM     48  C   UNL A   1      41.957  28.319  31.367  1.00  0.00     0.049 A 
ATOM     49  C   UNL A   1      41.065  31.751  35.677  1.00  0.00     0.074 A 
ATOM     50  C   UNL A   1      43.013  27.431  31.478  1.00  0.00     0.029 A 
ATOM     51  N   UNL A   1      41.937  29.066  32.533  1.00  0.00    -0.354 N 
ATOM     52  N   UNL A   1      41.443  30.930  34.727  1.00  0.00    -0.248 NA
ATOM     53  C   UNL A   1      41.826  31.608  36.928  1.00  0.00     0.031 C 
ATOM     54  C   UNL A   1      43.621  27.628  32.722  1.00  0.00     0.029 A 
ATOM     55  C   UNL A   1      42.955  28.652  33.375  1.00  0.00     0.049 A 
ATOM     56  H   UNL A   1      41.295  29.784  32.733  1.00  0.00     0.167 HD
ATOM     57  C   UNL A   1      42.501  30.199  35.253  1.00  0.00     0.074 A 
ATOM     58  C   UNL A   1      42.724  30.690  36.597  1.00  0.00     0.031 C 
ATOM     59  C   UNL A   1      43.212  29.194  34.684  1.00  0.00     0.034 A 
BRANCH  46  60
ATOM     60  C   UNL A   1      41.162  27.520  29.116  1.00  0.00     0.023 A 
ATOM     61  C   UNL A   1      40.395  26.338  29.092  1.00  0.00     0.012 A 
ATOM     62  C   UNL A   1      41.973  27.841  28.009  1.00  0.00     0.148 A 
ATOM     63  C   UNL A   1      40.449  25.481  27.993  1.00  0.00     0.002 A 
ATOM     64  C   UNL A   1      41.991  27.002  26.901  1.00  0.00     0.091 A 
ATOM     65  F   UNL A   1      42.709  28.960  28.060  1.00  0.00    -0.205 F 
ATOM     66  C   UNL A   1      41.236  25.818  26.895  1.00  0.00     0.022 A 
BRANCH  64  67
ATOM     67  S   UNL A   1      42.912  27.388  25.407  1.00  0.00     0.127 S 
ATOM     68  O   UNL A   1      44.260  27.592  25.935  1.00  0.00    -0.237 OA
ATOM     69  O   UNL A   1      42.745  26.167  24.618  1.00  0.00    -0.237 OA
ATOM     70  O   UNL A   1      42.278  28.569  24.838  1.00  0.00    -0.744 OA
ENDBRANCH  64  67
ENDBRANCH  46  60
BRANCH  47  71
ATOM     71  C   UNL A   1      39.772  33.691  36.832  1.00  0.00     0.023 A 
ATOM     72  C   UNL A   1      40.229  35.022  36.798  1.00  0.00     0.012 A 
ATOM     73  C   UNL A   1      39.111  33.221  37.983  1.00  0.00     0.148 A 
ATOM     74  C   UNL A   1      40.062  35.861  37.902  1.00  0.00     0.002 A 
ATOM     75  C   UNL A   1      38.896  34.080  39.056  1.00  0.00     0.091 A 
ATOM     76  F   UNL A   1      38.708  31.944  38.011  1.00  0.00    -0.205 F 
ATOM     77  C   UNL A   1      39.385  35.394  39.025  1.00  0.00     0.022 A 
BRANCH  75  78
ATOM     78  S   UNL A   1      37.920  33.589  40.482  1.00  0.00     0.127 S 
ATOM     79  O   UNL A   1      36.699  33.093  39.853  1.00  0.00    -0.237 OA
ATOM     80  O   UNL A   1      38.761  32.558  41.093  1.00  0.00    -0.237 OA
ATOM     81  O   UNL A   1      37.782  34.796  41.287  1.00  0.00    -0.744 OA
ENDBRANCH  75  78
ENDBRANCH  47  71
BRANCH  59  82
ATOM     82  C   UNL A   1      44.329  28.582  35.487  1.00  0.00     0.023 A 
ATOM     83  C   UNL A   1      45.641  29.072  35.346  1.00  0.00     0.012 A 
ATOM     84  C   UNL A   1      44.065  27.575  36.437  1.00  0.00     0.148 A 
ATOM     85  C   UNL A   1      46.681  28.548  36.114  1.00  0.00     0.002 A 
ATOM     86  C   UNL A   1      45.097  27.090  37.232  1.00  0.00     0.091 A 
ATOM     87  F   UNL A   1      42.813  27.106  36.543  1.00  0.00    -0.205 F 
ATOM     88  C   UNL A   1      46.407  27.567  37.064  1.00  0.00     0.022 A 
BRANCH  86  89
ATOM     89  S   UNL A   1      44.814  25.895  38.544  1.00  0.00     0.127 S 
ATOM     90  O   UNL A   1      44.042  26.682  39.503  1.00  0.00    -0.237 OA
ATOM     91  O   UNL A   1      44.053  24.850  37.859  1.00  0.00    -0.237 OA
ATOM     92  O   UNL A   1      46.136  25.477  38.993  1.00  0.00    -0.744 OA
ENDBRANCH  86  89
ENDBRANCH  59  82
ENDBRANCH  33  34
ENDBRANCH  26  28
ENDBRANCH  25  26
ENDBRANCH  24  25
ENDBRANCH   1  24
TORSDOF 19
ENDMDL
MODEL 3
REMARK VINA RESULT:     -10.7      2.112      7.661
REMARK SMILES CCC(C)(C)NC(=O)[C@@H](C)Oc1ccc(C)nc1C(=O)OCCOC(=O)c1ccc(-c2c3nc(c(-c4cccc(S(=O)(=O)[O-])c4F)c4ccc([nH]4)c(-c4cccc(S(=O)(=O)[O-])c4F)c4nc(c(-c5cccc(S(=O)(=O)[O-])c5F)c5ccc2[nH]5)C=C4)C=C3)cc1
REMARK SMILES IDX 22 1 21 2 19 3 20 4 18 5 12 6 13 7 14 8 17 9 15 10 16 11
REMARK SMILES IDX 11 12 9 13 10 14 7 15 6 16 8 18 3 19 4 20 5 21 2 22 1 23
REMARK SMILES IDX 23 24 24 25 25 26 26 27 27 28 28 29 89 30 29 31 88 32 30 33
REMARK SMILES IDX 31 34 32 35 82 36 33 37 87 38 81 39 83 40 34 41 86 42 80 43
REMARK SMILES IDX 79 44 35 46 67 47 47 48 66 49 48 50 51 51 65 52 84 53 49 54
REMARK SMILES IDX 50 55 64 57 85 58 52 59 36 60 37 61 45 62 38 63 40 64 46 65
REMARK SMILES IDX 39 66 41 67 42 68 43 69 44 70 68 71 69 72 77 73 70 74 72 75
REMARK SMILES IDX 78 76 71 77 73 78 74 79 75 80 76 81 53 82 54 83 62 84 55 85
REMARK SMILES IDX 57 86 63 87 56 88 58 89 59 90 60 91 61 92
REMARK H PARENT 6 17 83 45 51 56
REMARK Flexibility Score: inf
ROOT
ATOM      1  C   UNL A   1      31.832  29.041  26.175  1.00  0.00     0.275 C 
ENDROOT
BRANCH   1   2
ATOM      2  O   UNL A   1      32.926  28.682  25.308  1.00  0.00    -0.457 OA
BRANCH   2   3
ATOM      3  C   UNL A   1      32.626  28.712  23.981  1.00  0.00     0.360 C 
ATOM      4  O   UNL A   1      33.243  29.337  23.135  1.00  0.00    -0.244 OA
BRANCH   3   5
ATOM      5  C   UNL A   1      31.461  27.841  23.635  1.00  0.00     0.190 A 
ATOM      6  C   UNL A   1      31.554  26.465  23.445  1.00  0.00     0.153 A 
ATOM      7  C   UNL A   1      30.366  25.746  23.532  1.00  0.00     0.051 A 
ATOM      8  C   UNL A   1      29.142  26.413  23.526  1.00  0.00     0.027 A 
ATOM      9  N   UNL A   1      30.271  28.509  23.602  1.00  0.00    -0.243 NA
ATOM     10  C   UNL A   1      29.138  27.795  23.461  1.00  0.00     0.039 A 
ATOM     11  C   UNL A   1      27.898  28.557  23.110  1.00  0.00     0.067 C 
BRANCH   6  12
ATOM     12  O   UNL A   1      32.756  25.871  23.240  1.00  0.00    -0.478 OA
BRANCH  12  13
ATOM     13  C   UNL A   1      33.020  24.619  23.870  1.00  0.00     0.259 C 
ATOM     14  C   UNL A   1      33.681  24.879  25.237  1.00  0.00     0.064 C 
BRANCH  13  15
ATOM     15  C   UNL A   1      33.574  23.299  23.223  1.00  0.00     0.261 C 
ATOM     16  N   UNL A   1      32.905  22.108  23.295  1.00  0.00    -0.348 N 
ATOM     17  H   UNL A   1      32.245  21.959  22.582  1.00  0.00     0.164 HD
ATOM     18  O   UNL A   1      34.544  23.349  22.456  1.00  0.00    -0.271 OA
BRANCH  16  19
ATOM     19  C   UNL A   1      33.021  21.001  24.289  1.00  0.00     0.034 C 
ATOM     20  C   UNL A   1      32.301  21.392  25.602  1.00  0.00     0.034 C 
ATOM     21  C   UNL A   1      34.526  20.886  24.633  1.00  0.00     0.034 C 
BRANCH  19  22
ATOM     22  C   UNL A   1      32.521  19.599  23.862  1.00  0.00     0.024 C 
ATOM     23  C   UNL A   1      32.656  18.456  24.848  1.00  0.00     0.006 C 
ENDBRANCH  19  22
ENDBRANCH  16  19
ENDBRANCH  13  15
ENDBRANCH  12  13
ENDBRANCH   6  12
ENDBRANCH   3   5
ENDBRANCH   2   3
ENDBRANCH   1   2
BRANCH   1  24
ATOM     24  C   UNL A   1      31.790  30.555  26.359  1.00  0.00     0.275 C 
BRANCH  24  25
ATOM     25  O   UNL A   1      33.116  31.092  26.232  1.00  0.00    -0.458 OA
BRANCH  25  26
ATOM     26  C   UNL A   1      33.522  31.892  27.241  1.00  0.00     0.338 C 
ATOM     27  O   UNL A   1      33.008  32.943  27.603  1.00  0.00    -0.246 OA
BRANCH  26  28
ATOM     28  C   UNL A   1      34.728  31.328  27.865  1.00  0.00     0.060 A 
ATOM     29  C   UNL A   1      34.785  29.971  28.188  1.00  0.00     0.016 A 
ATOM     30  C   UNL A   1      35.775  32.179  28.215  1.00  0.00     0.016 A 
ATOM     31  C   UNL A   1      35.877  29.469  28.900  1.00  0.00     0.010 A 
ATOM     32  C   UNL A   1      36.889  31.663  28.884  1.00  0.00     0.010 A 
ATOM     33  C   UNL A   1      36.940  30.309  29.262  1.00  0.00    -0.014 A 
BRANCH  33  34
ATOM     34  C   UNL A   1      38.083  29.803  30.072  1.00  0.00     0.031 A 
ATOM     35  C   UNL A   1      38.286  30.306  31.481  1.00  0.00     0.074 A 
ATOM     36  C   UNL A   1      38.968  28.937  29.540  1.00  0.00     0.049 A 
ATOM     37  N   UNL A   1      39.290  30.103  32.296  1.00  0.00    -0.248 NA
ATOM     38  C   UNL A   1      37.226  31.159  32.043  1.00  0.00     0.031 C 
ATOM     39  C   UNL A   1      38.895  28.371  28.193  1.00  0.00     0.029 A 
ATOM     40  N   UNL A   1      40.122  28.402  30.063  1.00  0.00    -0.354 N 
ATOM     41  C   UNL A   1      39.019  30.857  33.432  1.00  0.00     0.074 A 
ATOM     42  C   UNL A   1      37.747  31.511  33.210  1.00  0.00     0.031 C 
ATOM     43  C   UNL A   1      39.960  27.580  27.990  1.00  0.00     0.029 A 
ATOM     44  C   UNL A   1      40.819  27.620  29.169  1.00  0.00     0.049 A 
ATOM     45  H   UNL A   1      40.422  28.564  30.986  1.00  0.00     0.167 HD
ATOM     46  C   UNL A   1      39.757  30.989  34.559  1.00  0.00     0.034 A 
ATOM     47  C   UNL A   1      42.026  27.029  29.274  1.00  0.00     0.034 A 
ATOM     48  C   UNL A   1      40.984  30.283  34.813  1.00  0.00     0.049 A 
ATOM     49  C   UNL A   1      42.813  27.179  30.550  1.00  0.00     0.074 A 
ATOM     50  C   UNL A   1      41.757  30.289  35.962  1.00  0.00     0.029 A 
ATOM     51  N   UNL A   1      41.619  29.446  33.910  1.00  0.00    -0.354 N 
ATOM     52  N   UNL A   1      42.485  27.803  31.656  1.00  0.00    -0.248 NA
ATOM     53  C   UNL A   1      44.129  26.524  30.600  1.00  0.00     0.031 C 
ATOM     54  C   UNL A   1      42.869  29.471  35.747  1.00  0.00     0.029 A 
ATOM     55  C   UNL A   1      42.779  28.939  34.471  1.00  0.00     0.049 A 
ATOM     56  H   UNL A   1      41.293  29.242  33.003  1.00  0.00     0.167 HD
ATOM     57  C   UNL A   1      43.536  27.588  32.540  1.00  0.00     0.074 A 
ATOM     58  C   UNL A   1      44.500  26.756  31.852  1.00  0.00     0.031 C 
ATOM     59  C   UNL A   1      43.699  28.057  33.802  1.00  0.00     0.034 A 
BRANCH  46  60
ATOM     60  C   UNL A   1      39.253  31.914  35.635  1.00  0.00     0.023 A 
ATOM     61  C   UNL A   1      38.356  31.434  36.610  1.00  0.00     0.012 A 
ATOM     62  C   UNL A   1      39.739  33.233  35.733  1.00  0.00     0.148 A 
ATOM     63  C   UNL A   1      37.936  32.257  37.654  1.00  0.00     0.002 A 
ATOM     64  C   UNL A   1      39.347  34.036  36.798  1.00  0.00     0.091 A 
ATOM     65  F   UNL A   1      40.576  33.677  34.784  1.00  0.00    -0.205 F 
ATOM     66  C   UNL A   1      38.440  33.552  37.754  1.00  0.00     0.022 A 
BRANCH  64  67
ATOM     67  S   UNL A   1      40.000  35.689  37.058  1.00  0.00     0.127 S 
ATOM     68  O   UNL A   1      39.313  36.088  38.285  1.00  0.00    -0.237 OA
ATOM     69  O   UNL A   1      41.432  35.433  37.218  1.00  0.00    -0.237 OA
ATOM     70  O   UNL A   1      39.650  36.453  35.869  1.00  0.00    -0.744 OA
ENDBRANCH  64  67
ENDBRANCH  46  60
BRANCH  47  71
ATOM     71  C   UNL A   1      42.564  26.213  28.147  1.00  0.00     0.023 A 
ATOM     72  C   UNL A   1      43.536  26.772  27.294  1.00  0.00     0.012 A 
ATOM     73  C   UNL A   1      42.124  24.896  27.915  1.00  0.00     0.148 A 
ATOM     74  C   UNL A   1      44.037  26.045  26.213  1.00  0.00     0.002 A 
ATOM     75  C   UNL A   1      42.670  24.157  26.870  1.00  0.00     0.091 A 
ATOM     76  F   UNL A   1      41.177  24.389  28.716  1.00  0.00    -0.205 F 
ATOM     77  C   UNL A   1      43.613  24.735  26.008  1.00  0.00     0.022 A 
BRANCH  75  78
ATOM     78  S   UNL A   1      42.271  22.423  26.625  1.00  0.00     0.127 S 
ATOM     79  O   UNL A   1      43.197  22.050  25.560  1.00  0.00    -0.237 OA
ATOM     80  O   UNL A   1      42.576  21.847  27.936  1.00  0.00    -0.237 OA
ATOM     81  O   UNL A   1      40.855  22.400  26.280  1.00  0.00    -0.744 OA
ENDBRANCH  75  78
ENDBRANCH  47  71
BRANCH  59  82
ATOM     82  C   UNL A   1      44.943  27.650  34.546  1.00  0.00     0.023 A 
ATOM     83  C   UNL A   1      46.044  28.527  34.599  1.00  0.00     0.012 A 
ATOM     84  C   UNL A   1      44.993  26.433  35.255  1.00  0.00     0.148 A 
ATOM     85  C   UNL A   1      47.187  28.186  35.321  1.00  0.00     0.002 A 
ATOM     86  C   UNL A   1      46.118  26.121  36.010  1.00  0.00     0.091 A 
ATOM     87  F   UNL A   1      43.944  25.602  35.176  1.00  0.00    -0.205 F 
ATOM     88  C   UNL A   1      47.219  26.991  36.035  1.00  0.00     0.022 A 
BRANCH  86  89
ATOM     89  S   UNL A   1      46.204  24.648  37.035  1.00  0.00     0.127 S 
ATOM     90  O   UNL A   1      46.138  23.584  36.036  1.00  0.00    -0.237 OA
ATOM     91  O   UNL A   1      47.507  24.794  37.686  1.00  0.00    -0.237 OA
ATOM     92  O   UNL A   1      45.067  24.728  37.944  1.00  0.00    -0.744 OA
ENDBRANCH  86  89
ENDBRANCH  59  82
ENDBRANCH  33  34
ENDBRANCH  26  28
ENDBRANCH  25  26
ENDBRANCH  24  25
ENDBRANCH   1  24
TORSDOF 19
ENDMDL
