MODEL 1
REMARK VINA RESULT:     -13.2      0.000      0.000
REMARK SMILES O=C(OCCOC(=O)[C@H]1[C@H]2CC[C@H](CC2)[C@H]1C(=O)Nc1ccc(C(=O)N2CCCC2)cc1)c1ccc(-c2c3nc(c(-c4cccc(S(=O)(=O)[O-])c4F)c4ccc([nH]4)c(-c4cccc(S(=O)(=O)[O-])c4F)c4nc(c(-c5cccc(S(=O)(=O)[O-])c5F)c5ccc2[nH]5)C=C4)C=C3)cc1
REMARK SMILES IDX 4 1 3 2 2 3 1 4 33 5 34 6 95 7 35 8 94 9 36 10 37 11 38 12
REMARK SMILES IDX 88 13 39 14 93 15 87 16 89 17 40 18 92 19 86 20 85 21 41 23
REMARK SMILES IDX 73 24 53 25 72 26 54 27 57 28 71 29 90 30 55 31 56 32 70 34
REMARK SMILES IDX 91 35 58 36 42 37 43 38 51 39 44 40 46 41 52 42 45 43 47 44
REMARK SMILES IDX 48 45 49 46 50 47 74 48 75 49 83 50 76 51 78 52 84 53 77 54
REMARK SMILES IDX 79 55 80 56 81 57 82 58 59 59 60 60 68 61 61 62 63 63 69 64
REMARK SMILES IDX 62 65 64 66 65 67 66 68 67 69 5 70 6 71 7 72 8 73 9 74 10 75
REMARK SMILES IDX 16 76 15 77 11 78 13 79 14 80 12 81 17 82 18 83 19 84 20 86
REMARK SMILES IDX 21 87 32 88 22 89 31 90 23 91 24 92 25 93 26 94 27 95 30 96
REMARK SMILES IDX 28 97 29 98
REMARK H PARENT 89 22 57 33 19 85
REMARK Flexibility Score: inf
ROOT
ATOM      1  C   UNL A   1      32.251  30.506  26.047  1.00  0.00     0.275 C 
ENDROOT
BRANCH   1   2
ATOM      2  O   UNL A   1      32.259  31.356  27.218  1.00  0.00    -0.458 OA
BRANCH   2   3
ATOM      3  C   UNL A   1      33.207  32.271  27.549  1.00  0.00     0.338 C 
ATOM      4  O   UNL A   1      32.912  33.464  27.573  1.00  0.00    -0.246 OA
BRANCH   3   5
ATOM      5  C   UNL A   1      34.571  31.843  28.023  1.00  0.00     0.060 A 
ATOM      6  C   UNL A   1      34.886  30.560  28.461  1.00  0.00     0.016 A 
ATOM      7  C   UNL A   1      35.618  32.793  28.011  1.00  0.00     0.016 A 
ATOM      8  C   UNL A   1      36.214  30.219  28.771  1.00  0.00     0.010 A 
ATOM      9  C   UNL A   1      36.945  32.457  28.385  1.00  0.00     0.010 A 
ATOM     10  C   UNL A   1      37.268  31.149  28.751  1.00  0.00    -0.014 A 
BRANCH  10  11
ATOM     11  C   UNL A   1      38.559  30.724  29.395  1.00  0.00     0.031 A 
ATOM     12  C   UNL A   1      38.756  31.150  30.806  1.00  0.00     0.074 A 
ATOM     13  C   UNL A   1      39.450  29.847  28.882  1.00  0.00     0.049 A 
ATOM     14  N   UNL A   1      39.597  30.682  31.683  1.00  0.00    -0.248 NA
ATOM     15  C   UNL A   1      37.894  32.239  31.290  1.00  0.00     0.031 C 
ATOM     16  C   UNL A   1      39.501  29.467  27.499  1.00  0.00     0.029 A 
ATOM     17  N   UNL A   1      40.460  29.083  29.431  1.00  0.00    -0.354 N 
ATOM     18  C   UNL A   1      39.357  31.402  32.832  1.00  0.00     0.074 A 
ATOM     19  C   UNL A   1      38.313  32.362  32.537  1.00  0.00     0.031 C 
ATOM     20  C   UNL A   1      40.300  28.411  27.312  1.00  0.00     0.029 A 
ATOM     21  C   UNL A   1      40.987  28.142  28.556  1.00  0.00     0.049 A 
ATOM     22  H   UNL A   1      40.777  29.196  30.356  1.00  0.00     0.167 HD
ATOM     23  C   UNL A   1      39.948  31.265  34.034  1.00  0.00     0.034 A 
ATOM     24  C   UNL A   1      41.941  27.197  28.702  1.00  0.00     0.034 A 
ATOM     25  C   UNL A   1      41.033  30.373  34.310  1.00  0.00     0.049 A 
ATOM     26  C   UNL A   1      42.650  27.151  30.020  1.00  0.00     0.074 A 
ATOM     27  C   UNL A   1      41.726  30.217  35.494  1.00  0.00     0.029 A 
ATOM     28  N   UNL A   1      41.619  29.523  33.383  1.00  0.00    -0.354 N 
ATOM     29  N   UNL A   1      42.365  27.805  31.119  1.00  0.00    -0.248 NA
ATOM     30  C   UNL A   1      43.829  26.280  30.117  1.00  0.00     0.031 C 
ATOM     31  C   UNL A   1      42.758  29.299  35.274  1.00  0.00     0.029 A 
ATOM     32  C   UNL A   1      42.672  28.841  33.969  1.00  0.00     0.049 A 
ATOM     33  H   UNL A   1      41.329  29.421  32.448  1.00  0.00     0.167 HD
ATOM     34  C   UNL A   1      43.327  27.424  32.040  1.00  0.00     0.074 A 
ATOM     35  C   UNL A   1      44.176  26.450  31.386  1.00  0.00     0.031 C 
ATOM     36  C   UNL A   1      43.497  27.861  33.310  1.00  0.00     0.034 A 
BRANCH  23  37
ATOM     37  C   UNL A   1      39.429  32.163  35.108  1.00  0.00     0.023 A 
ATOM     38  C   UNL A   1      38.305  31.771  35.863  1.00  0.00     0.012 A 
ATOM     39  C   UNL A   1      40.004  33.429  35.299  1.00  0.00     0.148 A 
ATOM     40  C   UNL A   1      37.740  32.652  36.781  1.00  0.00     0.002 A 
ATOM     41  C   UNL A   1      39.458  34.283  36.241  1.00  0.00     0.091 A 
ATOM     42  F   UNL A   1      41.038  33.783  34.523  1.00  0.00    -0.205 F 
ATOM     43  C   UNL A   1      38.320  33.904  36.975  1.00  0.00     0.022 A 
BRANCH  41  44
ATOM     44  S   UNL A   1      40.150  35.902  36.577  1.00  0.00     0.127 S 
ATOM     45  O   UNL A   1      39.855  36.610  35.332  1.00  0.00    -0.237 OA
ATOM     46  O   UNL A   1      39.360  36.333  37.730  1.00  0.00    -0.237 OA
ATOM     47  O   UNL A   1      41.564  35.688  36.850  1.00  0.00    -0.744 OA
ENDBRANCH  41  44
ENDBRANCH  23  37
BRANCH  24  48
ATOM     48  C   UNL A   1      42.331  26.259  27.593  1.00  0.00     0.023 A 
ATOM     49  C   UNL A   1      43.219  26.688  26.584  1.00  0.00     0.012 A 
ATOM     50  C   UNL A   1      41.805  24.953  27.505  1.00  0.00     0.148 A 
ATOM     51  C   UNL A   1      43.548  25.854  25.507  1.00  0.00     0.002 A 
ATOM     52  C   UNL A   1      42.201  24.100  26.478  1.00  0.00     0.091 A 
ATOM     53  F   UNL A   1      40.914  24.562  28.427  1.00  0.00    -0.205 F 
ATOM     54  C   UNL A   1      43.052  24.555  25.462  1.00  0.00     0.022 A 
BRANCH  52  55
ATOM     55  S   UNL A   1      41.735  22.364  26.451  1.00  0.00     0.127 S 
ATOM     56  O   UNL A   1      42.402  21.892  25.241  1.00  0.00    -0.237 OA
ATOM     57  O   UNL A   1      42.307  21.873  27.705  1.00  0.00    -0.237 OA
ATOM     58  O   UNL A   1      40.277  22.358  26.420  1.00  0.00    -0.744 OA
ENDBRANCH  52  55
ENDBRANCH  24  48
BRANCH  36  59
ATOM     59  C   UNL A   1      44.615  27.243  34.096  1.00  0.00     0.023 A 
ATOM     60  C   UNL A   1      45.905  27.810  34.079  1.00  0.00     0.012 A 
ATOM     61  C   UNL A   1      44.361  26.114  34.894  1.00  0.00     0.148 A 
ATOM     62  C   UNL A   1      46.934  27.237  34.823  1.00  0.00     0.002 A 
ATOM     63  C   UNL A   1      45.373  25.587  35.682  1.00  0.00     0.091 A 
ATOM     64  F   UNL A   1      43.133  25.574  34.865  1.00  0.00    -0.205 F 
ATOM     65  C   UNL A   1      46.664  26.137  35.637  1.00  0.00     0.022 A 
BRANCH  63  66
ATOM     66  S   UNL A   1      45.076  24.251  36.839  1.00  0.00     0.127 S 
ATOM     67  O   UNL A   1      44.043  24.825  37.699  1.00  0.00    -0.237 OA
ATOM     68  O   UNL A   1      44.615  23.178  35.959  1.00  0.00    -0.237 OA
ATOM     69  O   UNL A   1      46.355  23.991  37.487  1.00  0.00    -0.744 OA
ENDBRANCH  63  66
ENDBRANCH  36  59
ENDBRANCH  10  11
ENDBRANCH   3   5
ENDBRANCH   2   3
ENDBRANCH   1   2
BRANCH   1  70
ATOM     70  C   UNL A   1      32.528  29.028  26.287  1.00  0.00     0.274 C 
BRANCH  70  71
ATOM     71  O   UNL A   1      33.563  28.550  25.419  1.00  0.00    -0.462 OA
BRANCH  71  72
ATOM     72  C   UNL A   1      33.604  27.205  25.309  1.00  0.00     0.310 C 
ATOM     73  O   UNL A   1      34.085  26.469  26.174  1.00  0.00    -0.252 OA
BRANCH  72  74
ATOM     74  C   UNL A   1      32.945  26.662  24.064  1.00  0.00     0.115 C 
ATOM     75  C   UNL A   1      33.557  25.565  23.164  1.00  0.00     0.004 C 
ATOM     76  C   UNL A   1      31.503  26.239  24.318  1.00  0.00     0.096 C 
ATOM     77  C   UNL A   1      32.966  24.175  23.486  1.00  0.00     0.005 C 
ATOM     78  C   UNL A   1      33.127  25.953  21.739  1.00  0.00     0.005 C 
ATOM     79  C   UNL A   1      30.981  25.435  23.054  1.00  0.00     0.002 C 
ATOM     80  C   UNL A   1      31.502  24.010  23.137  1.00  0.00     0.005 C 
ATOM     81  C   UNL A   1      31.585  25.976  21.705  1.00  0.00     0.005 C 
BRANCH  76  82
ATOM     82  C   UNL A   1      31.155  25.680  25.760  1.00  0.00     0.228 C 
ATOM     83  O   UNL A   1      30.304  26.355  26.379  1.00  0.00    -0.274 OA
ATOM     84  N   UNL A   1      31.503  24.545  26.455  1.00  0.00    -0.326 N 
ATOM     85  H   UNL A   1      30.958  24.513  27.275  1.00  0.00     0.169 HD
BRANCH  84  86
ATOM     86  C   UNL A   1      32.352  23.394  26.442  1.00  0.00     0.041 A 
ATOM     87  C   UNL A   1      31.772  22.179  26.069  1.00  0.00     0.027 A 
ATOM     88  C   UNL A   1      33.730  23.351  26.658  1.00  0.00     0.027 A 
ATOM     89  C   UNL A   1      32.571  21.070  25.692  1.00  0.00     0.016 A 
ATOM     90  C   UNL A   1      34.538  22.257  26.268  1.00  0.00     0.016 A 
ATOM     91  C   UNL A   1      33.978  21.119  25.712  1.00  0.00     0.040 A 
BRANCH  91  92
ATOM     92  C   UNL A   1      34.750  20.069  24.949  1.00  0.00     0.253 C 
ATOM     93  O   UNL A   1      35.978  20.189  24.933  1.00  0.00    -0.269 OA
ATOM     94  N   UNL A   1      34.142  18.922  24.429  1.00  0.00    -0.339 N 
ATOM     95  C   UNL A   1      33.049  18.842  23.475  1.00  0.00     0.120 C 
ATOM     96  C   UNL A   1      34.937  17.698  24.339  1.00  0.00     0.120 C 
ATOM     97  C   UNL A   1      32.741  17.351  23.375  1.00  0.00     0.023 C 
ATOM     98  C   UNL A   1      34.085  16.675  23.596  1.00  0.00     0.023 C 
ENDBRANCH  91  92
ENDBRANCH  84  86
ENDBRANCH  76  82
ENDBRANCH  72  74
ENDBRANCH  71  72
ENDBRANCH  70  71
ENDBRANCH   1  70
TORSDOF 17
ENDMDL
MODEL 2
REMARK VINA RESULT:     -13.2      1.338      2.009
REMARK SMILES O=C(OCCOC(=O)[C@H]1[C@H]2CC[C@H](CC2)[C@H]1C(=O)Nc1ccc(C(=O)N2CCCC2)cc1)c1ccc(-c2c3nc(c(-c4cccc(S(=O)(=O)[O-])c4F)c4ccc([nH]4)c(-c4cccc(S(=O)(=O)[O-])c4F)c4nc(c(-c5cccc(S(=O)(=O)[O-])c5F)c5ccc2[nH]5)C=C4)C=C3)cc1
REMARK SMILES IDX 4 1 3 2 2 3 1 4 33 5 34 6 95 7 35 8 94 9 36 10 37 11 38 12
REMARK SMILES IDX 88 13 39 14 93 15 87 16 89 17 40 18 92 19 86 20 85 21 41 23
REMARK SMILES IDX 73 24 53 25 72 26 54 27 57 28 71 29 90 30 55 31 56 32 70 34
REMARK SMILES IDX 91 35 58 36 42 37 43 38 51 39 44 40 46 41 52 42 45 43 47 44
REMARK SMILES IDX 48 45 49 46 50 47 74 48 75 49 83 50 76 51 78 52 84 53 77 54
REMARK SMILES IDX 79 55 80 56 81 57 82 58 59 59 60 60 68 61 61 62 63 63 69 64
REMARK SMILES IDX 62 65 64 66 65 67 66 68 67 69 5 70 6 71 7 72 8 73 9 74 10 75
REMARK SMILES IDX 16 76 15 77 11 78 13 79 14 80 12 81 17 82 18 83 19 84 20 86
REMARK SMILES IDX 21 87 32 88 22 89 31 90 23 91 24 92 25 93 26 94 27 95 30 96
REMARK SMILES IDX 28 97 29 98
REMARK H PARENT 89 22 57 33 19 85
REMARK Flexibility Score: inf
ROOT
ATOM      1  C   UNL A   1      31.686  29.908  26.799  1.00  0.00     0.275 C 
ENDROOT
BRANCH   1   2
ATOM      2  O   UNL A   1      32.901  30.627  26.481  1.00  0.00    -0.458 OA
BRANCH   2   3
ATOM      3  C   UNL A   1      33.598  31.448  27.309  1.00  0.00     0.338 C 
ATOM      4  O   UNL A   1      33.059  32.461  27.748  1.00  0.00    -0.246 OA
BRANCH   3   5
ATOM      5  C   UNL A   1      34.965  31.068  27.812  1.00  0.00     0.060 A 
ATOM      6  C   UNL A   1      35.369  29.766  28.091  1.00  0.00     0.016 A 
ATOM      7  C   UNL A   1      35.923  32.091  28.001  1.00  0.00     0.016 A 
ATOM      8  C   UNL A   1      36.703  29.492  28.441  1.00  0.00     0.010 A 
ATOM      9  C   UNL A   1      37.251  31.814  28.415  1.00  0.00     0.010 A 
ATOM     10  C   UNL A   1      37.669  30.498  28.620  1.00  0.00    -0.014 A 
BRANCH  10  11
ATOM     11  C   UNL A   1      38.954  30.091  29.286  1.00  0.00     0.031 A 
ATOM     12  C   UNL A   1      39.093  30.462  30.720  1.00  0.00     0.074 A 
ATOM     13  C   UNL A   1      39.892  29.270  28.765  1.00  0.00     0.049 A 
ATOM     14  N   UNL A   1      39.924  29.986  31.602  1.00  0.00    -0.248 NA
ATOM     15  C   UNL A   1      38.178  31.498  31.221  1.00  0.00     0.031 C 
ATOM     16  C   UNL A   1      40.000  28.952  27.370  1.00  0.00     0.029 A 
ATOM     17  N   UNL A   1      40.913  28.519  29.313  1.00  0.00    -0.354 N 
ATOM     18  C   UNL A   1      39.623  30.647  32.772  1.00  0.00     0.074 A 
ATOM     19  C   UNL A   1      38.553  31.581  32.485  1.00  0.00     0.031 C 
ATOM     20  C   UNL A   1      40.842  27.934  27.163  1.00  0.00     0.029 A 
ATOM     21  C   UNL A   1      41.501  27.636  28.416  1.00  0.00     0.049 A 
ATOM     22  H   UNL A   1      41.197  28.603  30.252  1.00  0.00     0.167 HD
ATOM     23  C   UNL A   1      40.182  30.479  33.986  1.00  0.00     0.034 A 
ATOM     24  C   UNL A   1      42.484  26.720  28.552  1.00  0.00     0.034 A 
ATOM     25  C   UNL A   1      41.291  29.614  34.258  1.00  0.00     0.049 A 
ATOM     26  C   UNL A   1      43.154  26.642  29.889  1.00  0.00     0.074 A 
ATOM     27  C   UNL A   1      41.953  29.432  35.456  1.00  0.00     0.029 A 
ATOM     28  N   UNL A   1      41.935  28.827  33.315  1.00  0.00    -0.354 N 
ATOM     29  N   UNL A   1      42.812  27.237  31.005  1.00  0.00    -0.248 NA
ATOM     30  C   UNL A   1      44.360  25.810  29.986  1.00  0.00     0.031 C 
ATOM     31  C   UNL A   1      43.023  28.561  35.230  1.00  0.00     0.029 A 
ATOM     32  C   UNL A   1      42.994  28.158  33.904  1.00  0.00     0.049 A 
ATOM     33  H   UNL A   1      41.677  28.755  32.368  1.00  0.00     0.167 HD
ATOM     34  C   UNL A   1      43.758  26.851  31.939  1.00  0.00     0.074 A 
ATOM     35  C   UNL A   1      44.663  25.937  31.271  1.00  0.00     0.031 C 
ATOM     36  C   UNL A   1      43.875  27.237  33.231  1.00  0.00     0.034 A 
BRANCH  23  37
ATOM     37  C   UNL A   1      39.598  31.310  35.080  1.00  0.00     0.023 A 
ATOM     38  C   UNL A   1      38.556  30.788  35.873  1.00  0.00     0.012 A 
ATOM     39  C   UNL A   1      40.025  32.635  35.254  1.00  0.00     0.148 A 
ATOM     40  C   UNL A   1      37.923  31.597  36.812  1.00  0.00     0.002 A 
ATOM     41  C   UNL A   1      39.414  33.420  36.217  1.00  0.00     0.091 A 
ATOM     42  F   UNL A   1      40.981  33.109  34.443  1.00  0.00    -0.205 F 
ATOM     43  C   UNL A   1      38.356  32.909  36.989  1.00  0.00     0.022 A 
BRANCH  41  44
ATOM     44  S   UNL A   1      39.920  35.110  36.533  1.00  0.00     0.127 S 
ATOM     45  O   UNL A   1      39.107  35.445  37.700  1.00  0.00    -0.237 OA
ATOM     46  O   UNL A   1      41.348  34.950  36.805  1.00  0.00    -0.237 OA
ATOM     47  O   UNL A   1      39.608  35.858  35.323  1.00  0.00    -0.744 OA
ENDBRANCH  41  44
ENDBRANCH  23  37
BRANCH  24  48
ATOM     48  C   UNL A   1      42.942  25.846  27.417  1.00  0.00     0.023 A 
ATOM     49  C   UNL A   1      43.855  26.344  26.465  1.00  0.00     0.012 A 
ATOM     50  C   UNL A   1      42.456  24.532  27.248  1.00  0.00     0.148 A 
ATOM     51  C   UNL A   1      44.248  25.571  25.364  1.00  0.00     0.002 A 
ATOM     52  C   UNL A   1      42.914  23.739  26.199  1.00  0.00     0.091 A 
ATOM     53  F   UNL A   1      41.541  24.075  28.115  1.00  0.00    -0.205 F 
ATOM     54  C   UNL A   1      43.790  24.263  25.240  1.00  0.00     0.022 A 
BRANCH  52  55
ATOM     55  S   UNL A   1      42.497  21.995  26.074  1.00  0.00     0.127 S 
ATOM     56  O   UNL A   1      43.383  21.550  25.003  1.00  0.00    -0.237 OA
ATOM     57  O   UNL A   1      42.841  21.501  27.407  1.00  0.00    -0.237 OA
ATOM     58  O   UNL A   1      41.069  21.961  25.778  1.00  0.00    -0.744 OA
ENDBRANCH  52  55
ENDBRANCH  24  48
BRANCH  36  59
ATOM     59  C   UNL A   1      44.990  26.625  34.026  1.00  0.00     0.023 A 
ATOM     60  C   UNL A   1      46.265  27.225  34.053  1.00  0.00     0.012 A 
ATOM     61  C   UNL A   1      44.747  25.469  34.786  1.00  0.00     0.148 A 
ATOM     62  C   UNL A   1      47.291  26.657  34.805  1.00  0.00     0.002 A 
ATOM     63  C   UNL A   1      45.754  24.946  35.582  1.00  0.00     0.091 A 
ATOM     64  F   UNL A   1      43.534  24.900  34.715  1.00  0.00    -0.205 F 
ATOM     65  C   UNL A   1      47.032  25.529  35.582  1.00  0.00     0.022 A 
BRANCH  63  66
ATOM     66  S   UNL A   1      45.466  23.571  36.696  1.00  0.00     0.127 S 
ATOM     67  O   UNL A   1      46.808  23.328  37.223  1.00  0.00    -0.237 OA
ATOM     68  O   UNL A   1      44.525  24.145  37.657  1.00  0.00    -0.237 OA
ATOM     69  O   UNL A   1      44.913  22.501  35.877  1.00  0.00    -0.744 OA
ENDBRANCH  63  66
ENDBRANCH  36  59
ENDBRANCH  10  11
ENDBRANCH   3   5
ENDBRANCH   2   3
ENDBRANCH   1   2
BRANCH   1  70
ATOM     70  C   UNL A   1      31.851  28.645  27.633  1.00  0.00     0.274 C 
BRANCH  70  71
ATOM     71  O   UNL A   1      30.948  27.619  27.199  1.00  0.00    -0.462 OA
BRANCH  71  72
ATOM     72  C   UNL A   1      31.527  26.677  26.424  1.00  0.00     0.310 C 
ATOM     73  O   UNL A   1      31.535  25.478  26.709  1.00  0.00    -0.252 OA
BRANCH  72  74
ATOM     74  C   UNL A   1      32.109  27.204  25.136  1.00  0.00     0.115 C 
ATOM     75  C   UNL A   1      33.397  26.660  24.476  1.00  0.00     0.004 C 
ATOM     76  C   UNL A   1      31.067  27.274  24.024  1.00  0.00     0.096 C 
ATOM     77  C   UNL A   1      33.073  25.659  23.345  1.00  0.00     0.005 C 
ATOM     78  C   UNL A   1      34.060  27.898  23.849  1.00  0.00     0.005 C 
ATOM     79  C   UNL A   1      31.810  27.566  22.652  1.00  0.00     0.002 C 
ATOM     80  C   UNL A   1      32.397  26.266  22.133  1.00  0.00     0.005 C 
ATOM     81  C   UNL A   1      33.065  28.498  22.834  1.00  0.00     0.005 C 
BRANCH  76  82
ATOM     82  C   UNL A   1      29.918  26.184  24.039  1.00  0.00     0.228 C 
ATOM     83  O   UNL A   1      28.772  26.645  23.847  1.00  0.00    -0.274 OA
ATOM     84  N   UNL A   1      29.903  24.810  24.111  1.00  0.00    -0.326 N 
ATOM     85  H   UNL A   1      28.980  24.508  23.952  1.00  0.00     0.169 HD
BRANCH  84  86
ATOM     86  C   UNL A   1      30.717  23.653  24.328  1.00  0.00     0.041 A 
ATOM     87  C   UNL A   1      31.436  23.167  23.233  1.00  0.00     0.027 A 
ATOM     88  C   UNL A   1      30.966  23.003  25.536  1.00  0.00     0.027 A 
ATOM     89  C   UNL A   1      32.515  22.264  23.408  1.00  0.00     0.016 A 
ATOM     90  C   UNL A   1      32.051  22.116  25.726  1.00  0.00     0.016 A 
ATOM     91  C   UNL A   1      32.891  21.782  24.676  1.00  0.00     0.040 A 
BRANCH  91  92
ATOM     92  C   UNL A   1      34.253  21.150  24.837  1.00  0.00     0.253 C 
ATOM     93  O   UNL A   1      34.328  19.936  24.626  1.00  0.00    -0.269 OA
ATOM     94  N   UNL A   1      35.411  21.907  25.040  1.00  0.00    -0.339 N 
ATOM     95  C   UNL A   1      35.693  22.839  26.119  1.00  0.00     0.120 C 
ATOM     96  C   UNL A   1      36.676  21.390  24.522  1.00  0.00     0.120 C 
ATOM     97  C   UNL A   1      37.046  23.442  25.754  1.00  0.00     0.023 C 
ATOM     98  C   UNL A   1      37.772  22.322  25.025  1.00  0.00     0.023 C 
ENDBRANCH  91  92
ENDBRANCH  84  86
ENDBRANCH  76  82
ENDBRANCH  72  74
ENDBRANCH  71  72
ENDBRANCH  70  71
ENDBRANCH   1  70
TORSDOF 17
ENDMDL
MODEL 3
REMARK VINA RESULT:     -13.1      1.266      1.575
REMARK SMILES O=C(OCCOC(=O)[C@H]1[C@H]2CC[C@H](CC2)[C@H]1C(=O)Nc1ccc(C(=O)N2CCCC2)cc1)c1ccc(-c2c3nc(c(-c4cccc(S(=O)(=O)[O-])c4F)c4ccc([nH]4)c(-c4cccc(S(=O)(=O)[O-])c4F)c4nc(c(-c5cccc(S(=O)(=O)[O-])c5F)c5ccc2[nH]5)C=C4)C=C3)cc1
REMARK SMILES IDX 4 1 3 2 2 3 1 4 33 5 34 6 95 7 35 8 94 9 36 10 37 11 38 12
REMARK SMILES IDX 88 13 39 14 93 15 87 16 89 17 40 18 92 19 86 20 85 21 41 23
REMARK SMILES IDX 73 24 53 25 72 26 54 27 57 28 71 29 90 30 55 31 56 32 70 34
REMARK SMILES IDX 91 35 58 36 42 37 43 38 51 39 44 40 46 41 52 42 45 43 47 44
REMARK SMILES IDX 48 45 49 46 50 47 74 48 75 49 83 50 76 51 78 52 84 53 77 54
REMARK SMILES IDX 79 55 80 56 81 57 82 58 59 59 60 60 68 61 61 62 63 63 69 64
REMARK SMILES IDX 62 65 64 66 65 67 66 68 67 69 5 70 6 71 7 72 8 73 9 74 10 75
REMARK SMILES IDX 16 76 15 77 11 78 13 79 14 80 12 81 17 82 18 83 19 84 20 86
REMARK SMILES IDX 21 87 32 88 22 89 31 90 23 91 24 92 25 93 26 94 27 95 30 96
REMARK SMILES IDX 28 97 29 98
REMARK H PARENT 89 22 57 33 19 85
REMARK Flexibility Score: inf
ROOT
ATOM      1  C   UNL A   1      31.706  30.822  25.933  1.00  0.00     0.275 C 
ENDROOT
BRANCH   1   2
ATOM      2  O   UNL A   1      32.258  31.053  27.250  1.00  0.00    -0.458 OA
BRANCH   2   3
ATOM      3  C   UNL A   1      33.192  31.981  27.586  1.00  0.00     0.338 C 
ATOM      4  O   UNL A   1      32.873  33.167  27.636  1.00  0.00    -0.246 OA
BRANCH   3   5
ATOM      5  C   UNL A   1      34.570  31.573  28.035  1.00  0.00     0.060 A 
ATOM      6  C   UNL A   1      34.940  30.270  28.358  1.00  0.00     0.016 A 
ATOM      7  C   UNL A   1      35.573  32.565  28.123  1.00  0.00     0.016 A 
ATOM      8  C   UNL A   1      36.280  29.962  28.651  1.00  0.00     0.010 A 
ATOM      9  C   UNL A   1      36.911  32.257  28.481  1.00  0.00     0.010 A 
ATOM     10  C   UNL A   1      37.291  30.936  28.729  1.00  0.00    -0.014 A 
BRANCH  10  11
ATOM     11  C   UNL A   1      38.594  30.512  29.347  1.00  0.00     0.031 A 
ATOM     12  C   UNL A   1      38.828  30.953  30.748  1.00  0.00     0.074 A 
ATOM     13  C   UNL A   1      39.469  29.625  28.822  1.00  0.00     0.049 A 
ATOM     14  N   UNL A   1      39.687  30.490  31.609  1.00  0.00    -0.248 NA
ATOM     15  C   UNL A   1      37.983  32.051  31.239  1.00  0.00     0.031 C 
ATOM     16  C   UNL A   1      39.485  29.229  27.443  1.00  0.00     0.029 A 
ATOM     17  N   UNL A   1      40.488  28.862  29.355  1.00  0.00    -0.354 N 
ATOM     18  C   UNL A   1      39.478  31.224  32.756  1.00  0.00     0.074 A 
ATOM     19  C   UNL A   1      38.431  32.186  32.475  1.00  0.00     0.031 C 
ATOM     20  C   UNL A   1      40.275  28.167  27.249  1.00  0.00     0.029 A 
ATOM     21  C   UNL A   1      40.990  27.909  28.479  1.00  0.00     0.049 A 
ATOM     22  H   UNL A   1      40.827  28.984  30.272  1.00  0.00     0.167 HD
ATOM     23  C   UNL A   1      40.097  31.097  33.945  1.00  0.00     0.034 A 
ATOM     24  C   UNL A   1      41.943  26.960  28.613  1.00  0.00     0.034 A 
ATOM     25  C   UNL A   1      41.184  30.203  34.205  1.00  0.00     0.049 A 
ATOM     26  C   UNL A   1      42.683  26.926  29.914  1.00  0.00     0.074 A 
ATOM     27  C   UNL A   1      41.905  30.057  35.374  1.00  0.00     0.029 A 
ATOM     28  N   UNL A   1      41.744  29.340  33.274  1.00  0.00    -0.354 N 
ATOM     29  N   UNL A   1      42.427  27.593  31.012  1.00  0.00    -0.248 NA
ATOM     30  C   UNL A   1      43.859  26.050  29.993  1.00  0.00     0.031 C 
ATOM     31  C   UNL A   1      42.926  29.131  35.140  1.00  0.00     0.029 A 
ATOM     32  C   UNL A   1      42.807  28.659  33.842  1.00  0.00     0.049 A 
ATOM     33  H   UNL A   1      41.431  29.229  32.347  1.00  0.00     0.167 HD
ATOM     34  C   UNL A   1      43.408  27.218  31.914  1.00  0.00     0.074 A 
ATOM     35  C   UNL A   1      44.238  26.232  31.251  1.00  0.00     0.031 C 
ATOM     36  C   UNL A   1      43.612  27.668  33.174  1.00  0.00     0.034 A 
BRANCH  23  37
ATOM     37  C   UNL A   1      39.607  32.010  35.020  1.00  0.00     0.023 A 
ATOM     38  C   UNL A   1      40.046  33.349  35.054  1.00  0.00     0.012 A 
ATOM     39  C   UNL A   1      38.786  31.508  36.042  1.00  0.00     0.148 A 
ATOM     40  C   UNL A   1      39.693  34.172  36.119  1.00  0.00     0.002 A 
ATOM     41  C   UNL A   1      38.409  32.346  37.078  1.00  0.00     0.091 A 
ATOM     42  F   UNL A   1      38.435  30.215  36.000  1.00  0.00    -0.205 F 
ATOM     43  C   UNL A   1      38.870  33.673  37.126  1.00  0.00     0.022 A 
BRANCH  41  44
ATOM     44  S   UNL A   1      37.333  31.801  38.403  1.00  0.00     0.127 S 
ATOM     45  O   UNL A   1      38.168  32.048  39.578  1.00  0.00    -0.237 OA
ATOM     46  O   UNL A   1      36.195  32.707  38.258  1.00  0.00    -0.237 OA
ATOM     47  O   UNL A   1      37.038  30.401  38.134  1.00  0.00    -0.744 OA
ENDBRANCH  41  44
ENDBRANCH  23  37
BRANCH  24  48
ATOM     48  C   UNL A   1      42.301  26.008  27.505  1.00  0.00     0.023 A 
ATOM     49  C   UNL A   1      43.122  26.439  26.441  1.00  0.00     0.012 A 
ATOM     50  C   UNL A   1      41.811  24.686  27.474  1.00  0.00     0.148 A 
ATOM     51  C   UNL A   1      43.418  25.590  25.367  1.00  0.00     0.002 A 
ATOM     52  C   UNL A   1      42.178  23.821  26.446  1.00  0.00     0.091 A 
ATOM     53  F   UNL A   1      40.982  24.291  28.451  1.00  0.00    -0.205 F 
ATOM     54  C   UNL A   1      42.960  24.276  25.377  1.00  0.00     0.022 A 
BRANCH  52  55
ATOM     55  S   UNL A   1      41.763  22.072  26.483  1.00  0.00     0.127 S 
ATOM     56  O   UNL A   1      42.210  21.684  27.818  1.00  0.00    -0.237 OA
ATOM     57  O   UNL A   1      40.312  22.097  26.300  1.00  0.00    -0.237 OA
ATOM     58  O   UNL A   1      42.493  21.481  25.368  1.00  0.00    -0.744 OA
ENDBRANCH  52  55
ENDBRANCH  24  48
BRANCH  36  59
ATOM     59  C   UNL A   1      44.745  27.053  33.941  1.00  0.00     0.023 A 
ATOM     60  C   UNL A   1      46.037  27.613  33.885  1.00  0.00     0.012 A 
ATOM     61  C   UNL A   1      44.504  25.935  34.758  1.00  0.00     0.148 A 
ATOM     62  C   UNL A   1      47.080  27.043  34.612  1.00  0.00     0.002 A 
ATOM     63  C   UNL A   1      45.532  25.412  35.527  1.00  0.00     0.091 A 
ATOM     64  F   UNL A   1      43.273  25.402  34.766  1.00  0.00    -0.205 F 
ATOM     65  C   UNL A   1      46.825  25.954  35.444  1.00  0.00     0.022 A 
BRANCH  63  66
ATOM     66  S   UNL A   1      45.257  24.091  36.708  1.00  0.00     0.127 S 
ATOM     67  O   UNL A   1      44.897  22.978  35.831  1.00  0.00    -0.237 OA
ATOM     68  O   UNL A   1      46.567  23.970  37.346  1.00  0.00    -0.237 OA
ATOM     69  O   UNL A   1      44.197  24.558  37.592  1.00  0.00    -0.744 OA
ENDBRANCH  63  66
ENDBRANCH  36  59
ENDBRANCH  10  11
ENDBRANCH   3   5
ENDBRANCH   2   3
ENDBRANCH   1   2
BRANCH   1  70
ATOM     70  C   UNL A   1      31.843  29.408  25.386  1.00  0.00     0.274 C 
BRANCH  70  71
ATOM     71  O   UNL A   1      33.189  28.932  25.516  1.00  0.00    -0.462 OA
BRANCH  71  72
ATOM     72  C   UNL A   1      33.293  27.586  25.527  1.00  0.00     0.310 C 
ATOM     73  O   UNL A   1      33.701  26.946  26.499  1.00  0.00    -0.252 OA
BRANCH  72  74
ATOM     74  C   UNL A   1      32.800  26.915  24.268  1.00  0.00     0.115 C 
ATOM     75  C   UNL A   1      33.626  25.903  23.442  1.00  0.00     0.004 C 
ATOM     76  C   UNL A   1      31.428  26.278  24.459  1.00  0.00     0.096 C 
ATOM     77  C   UNL A   1      33.239  24.446  23.780  1.00  0.00     0.005 C 
ATOM     78  C   UNL A   1      33.227  26.181  21.983  1.00  0.00     0.005 C 
ATOM     79  C   UNL A   1      31.112  25.369  23.197  1.00  0.00     0.002 C 
ATOM     80  C   UNL A   1      31.841  24.046  23.359  1.00  0.00     0.005 C 
ATOM     81  C   UNL A   1      31.704  25.962  21.865  1.00  0.00     0.005 C 
BRANCH  76  82
ATOM     82  C   UNL A   1      31.087  25.711  25.898  1.00  0.00     0.228 C 
ATOM     83  O   UNL A   1      30.250  26.390  26.532  1.00  0.00    -0.274 OA
ATOM     84  N   UNL A   1      31.426  24.565  26.580  1.00  0.00    -0.326 N 
ATOM     85  H   UNL A   1      30.889  24.532  27.405  1.00  0.00     0.169 HD
BRANCH  84  86
ATOM     86  C   UNL A   1      32.262  23.404  26.548  1.00  0.00     0.041 A 
ATOM     87  C   UNL A   1      31.676  22.210  26.120  1.00  0.00     0.027 A 
ATOM     88  C   UNL A   1      33.632  23.334  26.798  1.00  0.00     0.027 A 
ATOM     89  C   UNL A   1      32.470  21.104  25.725  1.00  0.00     0.016 A 
ATOM     90  C   UNL A   1      34.436  22.244  26.390  1.00  0.00     0.016 A 
ATOM     91  C   UNL A   1      33.876  21.133  25.782  1.00  0.00     0.040 A 
BRANCH  91  92
ATOM     92  C   UNL A   1      34.655  20.099  25.002  1.00  0.00     0.253 C 
ATOM     93  O   UNL A   1      35.881  20.230  24.984  1.00  0.00    -0.269 OA
ATOM     94  N   UNL A   1      34.054  18.954  24.471  1.00  0.00    -0.339 N 
ATOM     95  C   UNL A   1      32.958  18.876  23.520  1.00  0.00     0.120 C 
ATOM     96  C   UNL A   1      34.859  17.738  24.362  1.00  0.00     0.120 C 
ATOM     97  C   UNL A   1      32.662  17.384  23.404  1.00  0.00     0.023 C 
ATOM     98  C   UNL A   1      34.013  16.716  23.610  1.00  0.00     0.023 C 
ENDBRANCH  91  92
ENDBRANCH  84  86
ENDBRANCH  76  82
ENDBRANCH  72  74
ENDBRANCH  71  72
ENDBRANCH  70  71
ENDBRANCH   1  70
TORSDOF 17
ENDMDL
