MODEL 1
REMARK VINA RESULT:     -12.1      0.000      0.000
REMARK SMILES C[NH+]1CCC(NC(=O)N[C@@H]2C=C[C@H](C(=O)OCCOC(=O)c3ccc(-c4c5nc(c(-c6cccc(S(=O)(=O)[O-])c6F)c6ccc([nH]6)c(-c6cccc(S(=O)(=O)[O-])c6F)c6nc(c(-c7cccc(S(=O)(=O)[O-])c7F)c7ccc4[nH]7)C=C6)C=C5)cc3)C2)CC1
REMARK SMILES IDX 18 1 17 2 16 3 14 4 15 5 13 6 10 7 11 8 85 9 12 10 9 11 6 12
REMARK SMILES IDX 7 13 8 15 5 17 1 18 2 19 3 20 87 21 4 23 86 24 19 25 20 26
REMARK SMILES IDX 21 27 22 28 23 29 84 30 24 31 83 32 25 33 26 34 27 35 77 36
REMARK SMILES IDX 28 37 82 38 76 39 78 40 29 41 81 42 75 43 74 44 30 46 62 47
REMARK SMILES IDX 42 48 61 49 43 50 46 51 60 52 79 53 44 54 45 55 59 57 80 58
REMARK SMILES IDX 47 59 31 60 32 61 40 62 33 63 35 64 41 65 34 66 36 67 37 68
REMARK SMILES IDX 38 69 39 70 63 71 64 72 72 73 65 74 67 75 73 76 66 77 68 78
REMARK SMILES IDX 69 79 70 80 71 81 48 82 49 83 57 84 50 85 52 86 58 87 51 88
REMARK SMILES IDX 53 89 54 90 55 91 56 92
REMARK H PARENT 6 14 9 16 2 22 78 45 46 56
REMARK Flexibility Score: inf
ROOT
ATOM      1  C   UNL A   1      31.517  29.757  25.887  1.00  0.00     0.275 C 
ENDROOT
BRANCH   1   2
ATOM      2  C   UNL A   1      30.894  29.894  24.500  1.00  0.00     0.274 C 
BRANCH   2   3
ATOM      3  O   UNL A   1      31.432  28.901  23.603  1.00  0.00    -0.462 OA
BRANCH   3   4
ATOM      4  C   UNL A   1      31.237  27.590  23.932  1.00  0.00     0.312 C 
ATOM      5  O   UNL A   1      30.170  27.090  24.249  1.00  0.00    -0.252 OA
BRANCH   4   6
ATOM      6  C   UNL A   1      32.555  26.837  23.807  1.00  0.00     0.124 C 
ATOM      7  C   UNL A   1      32.657  24.622  24.890  1.00  0.00     0.107 C 
ATOM      8  C   UNL A   1      33.483  25.639  25.610  1.00  0.00    -0.006 C 
ATOM      9  C   UNL A   1      32.322  25.342  23.574  1.00  0.00     0.048 C 
ATOM     10  C   UNL A   1      33.385  26.854  25.055  1.00  0.00    -0.014 C 
BRANCH   7  11
ATOM     11  N   UNL A   1      31.545  24.344  25.775  1.00  0.00    -0.332 N 
ATOM     12  N   UNL A   1      31.794  22.113  26.560  1.00  0.00    -0.335 N 
ATOM     13  C   UNL A   1      31.174  23.303  26.543  1.00  0.00     0.315 C 
ATOM     14  H   UNL A   1      31.253  21.370  26.913  1.00  0.00     0.165 HD
ATOM     15  O   UNL A   1      30.185  23.450  27.261  1.00  0.00    -0.249 OA
ATOM     16  H   UNL A   1      30.908  25.093  25.824  1.00  0.00     0.165 HD
BRANCH  12  17
ATOM     17  C   UNL A   1      33.123  21.746  26.144  1.00  0.00     0.095 C 
ATOM     18  C   UNL A   1      36.909  20.749  24.857  1.00  0.00     0.332 C 
ATOM     19  N   UNL A   1      35.752  20.654  25.754  1.00  0.00    -0.337 N 
ATOM     20  C   UNL A   1      34.595  20.133  25.002  1.00  0.00     0.264 C 
ATOM     21  C   UNL A   1      35.538  21.950  26.422  1.00  0.00     0.264 C 
ATOM     22  H   UNL A   1      35.912  19.986  26.508  1.00  0.00     0.347 HD
ATOM     23  C   UNL A   1      33.254  20.291  25.721  1.00  0.00     0.086 C 
ATOM     24  C   UNL A   1      34.204  22.041  27.170  1.00  0.00     0.086 C 
ENDBRANCH  12  17
ENDBRANCH   7  11
ENDBRANCH   4   6
ENDBRANCH   3   4
ENDBRANCH   2   3
ENDBRANCH   1   2
BRANCH   1  25
ATOM     25  O   UNL A   1      32.845  30.308  25.877  1.00  0.00    -0.458 OA
BRANCH  25  26
ATOM     26  C   UNL A   1      33.113  31.233  26.821  1.00  0.00     0.338 C 
ATOM     27  O   UNL A   1      32.360  32.101  27.249  1.00  0.00    -0.246 OA
BRANCH  26  28
ATOM     28  C   UNL A   1      34.441  30.976  27.388  1.00  0.00     0.060 A 
ATOM     29  C   UNL A   1      34.738  29.668  27.741  1.00  0.00     0.016 A 
ATOM     30  C   UNL A   1      35.330  32.005  27.701  1.00  0.00     0.016 A 
ATOM     31  C   UNL A   1      35.863  29.400  28.505  1.00  0.00     0.010 A 
ATOM     32  C   UNL A   1      36.523  31.706  28.382  1.00  0.00     0.010 A 
ATOM     33  C   UNL A   1      36.787  30.399  28.819  1.00  0.00    -0.014 A 
BRANCH  33  34
ATOM     34  C   UNL A   1      37.981  30.024  29.628  1.00  0.00     0.031 A 
ATOM     35  C   UNL A   1      39.079  29.195  29.024  1.00  0.00     0.074 A 
ATOM     36  C   UNL A   1      38.136  30.510  30.878  1.00  0.00     0.049 A 
ATOM     37  N   UNL A   1      40.156  28.715  29.591  1.00  0.00    -0.248 NA
ATOM     38  C   UNL A   1      38.963  28.872  27.593  1.00  0.00     0.031 C 
ATOM     39  C   UNL A   1      37.202  31.412  31.555  1.00  0.00     0.029 A 
ATOM     40  N   UNL A   1      39.146  30.338  31.796  1.00  0.00    -0.354 N 
ATOM     41  C   UNL A   1      40.797  27.964  28.616  1.00  0.00     0.074 A 
ATOM     42  C   UNL A   1      40.017  28.092  27.404  1.00  0.00     0.031 C 
ATOM     43  C   UNL A   1      37.698  31.745  32.755  1.00  0.00     0.029 A 
ATOM     44  C   UNL A   1      38.937  31.011  32.978  1.00  0.00     0.049 A 
ATOM     45  H   UNL A   1      39.942  29.785  31.623  1.00  0.00     0.167 HD
ATOM     46  C   UNL A   1      41.925  27.224  28.727  1.00  0.00     0.034 A 
ATOM     47  C   UNL A   1      39.638  31.013  34.129  1.00  0.00     0.034 A 
ATOM     48  C   UNL A   1      42.734  27.145  29.913  1.00  0.00     0.049 A 
ATOM     49  C   UNL A   1      40.878  30.168  34.228  1.00  0.00     0.074 A 
ATOM     50  C   UNL A   1      43.889  26.408  30.115  1.00  0.00     0.029 A 
ATOM     51  N   UNL A   1      42.482  27.824  31.094  1.00  0.00    -0.354 N 
ATOM     52  N   UNL A   1      41.478  29.471  33.294  1.00  0.00    -0.248 NA
ATOM     53  C   UNL A   1      41.536  30.102  35.541  1.00  0.00     0.031 C 
ATOM     54  C   UNL A   1      44.322  26.624  31.428  1.00  0.00     0.029 A 
ATOM     55  C   UNL A   1      43.449  27.512  32.035  1.00  0.00     0.049 A 
ATOM     56  H   UNL A   1      41.727  28.439  31.242  1.00  0.00     0.167 HD
ATOM     57  C   UNL A   1      42.582  28.889  33.903  1.00  0.00     0.074 A 
ATOM     58  C   UNL A   1      42.596  29.351  35.276  1.00  0.00     0.031 C 
ATOM     59  C   UNL A   1      43.482  28.018  33.383  1.00  0.00     0.034 A 
BRANCH  46  60
ATOM     60  C   UNL A   1      42.335  26.400  27.541  1.00  0.00     0.023 A 
ATOM     61  C   UNL A   1      43.164  26.948  26.543  1.00  0.00     0.012 A 
ATOM     62  C   UNL A   1      41.942  25.049  27.454  1.00  0.00     0.148 A 
ATOM     63  C   UNL A   1      43.581  26.167  25.465  1.00  0.00     0.002 A 
ATOM     64  C   UNL A   1      42.389  24.268  26.397  1.00  0.00     0.091 A 
ATOM     65  F   UNL A   1      41.131  24.559  28.402  1.00  0.00    -0.205 F 
ATOM     66  C   UNL A   1      43.203  24.826  25.398  1.00  0.00     0.022 A 
BRANCH  64  67
ATOM     67  S   UNL A   1      42.006  22.519  26.263  1.00  0.00     0.127 S 
ATOM     68  O   UNL A   1      40.545  22.539  26.216  1.00  0.00    -0.237 OA
ATOM     69  O   UNL A   1      42.652  22.156  25.001  1.00  0.00    -0.237 OA
ATOM     70  O   UNL A   1      42.585  21.889  27.442  1.00  0.00    -0.744 OA
ENDBRANCH  64  67
ENDBRANCH  46  60
BRANCH  47  71
ATOM     71  C   UNL A   1      39.174  31.826  35.293  1.00  0.00     0.023 A 
ATOM     72  C   UNL A   1      38.261  31.272  36.211  1.00  0.00     0.012 A 
ATOM     73  C   UNL A   1      39.638  33.140  35.503  1.00  0.00     0.148 A 
ATOM     74  C   UNL A   1      37.803  32.018  37.299  1.00  0.00     0.002 A 
ATOM     75  C   UNL A   1      39.230  33.853  36.624  1.00  0.00     0.091 A 
ATOM     76  F   UNL A   1      40.473  33.676  34.601  1.00  0.00    -0.205 F 
ATOM     77  C   UNL A   1      38.298  33.302  37.514  1.00  0.00     0.022 A 
BRANCH  75  78
ATOM     78  S   UNL A   1      39.940  35.453  37.034  1.00  0.00     0.127 S 
ATOM     79  O   UNL A   1      39.262  35.773  38.286  1.00  0.00    -0.237 OA
ATOM     80  O   UNL A   1      41.364  35.137  37.170  1.00  0.00    -0.237 OA
ATOM     81  O   UNL A   1      39.630  36.310  35.897  1.00  0.00    -0.744 OA
ENDBRANCH  75  78
ENDBRANCH  47  71
BRANCH  59  82
ATOM     82  C   UNL A   1      44.562  27.501  34.296  1.00  0.00     0.023 A 
ATOM     83  C   UNL A   1      45.780  28.201  34.392  1.00  0.00     0.012 A 
ATOM     84  C   UNL A   1      44.343  26.378  35.118  1.00  0.00     0.148 A 
ATOM     85  C   UNL A   1      46.774  27.779  35.273  1.00  0.00     0.002 A 
ATOM     86  C   UNL A   1      45.320  25.989  36.027  1.00  0.00     0.091 A 
ATOM     87  F   UNL A   1      43.184  25.712  34.998  1.00  0.00    -0.205 F 
ATOM     88  C   UNL A   1      46.540  26.683  36.099  1.00  0.00     0.022 A 
BRANCH  86  89
ATOM     89  S   UNL A   1      45.067  24.647  37.194  1.00  0.00     0.127 S 
ATOM     90  O   UNL A   1      46.287  24.715  37.997  1.00  0.00    -0.237 OA
ATOM     91  O   UNL A   1      43.853  25.068  37.895  1.00  0.00    -0.237 OA
ATOM     92  O   UNL A   1      44.912  23.443  36.390  1.00  0.00    -0.744 OA
ENDBRANCH  86  89
ENDBRANCH  59  82
ENDBRANCH  33  34
ENDBRANCH  26  28
ENDBRANCH  25  26
ENDBRANCH   1  25
TORSDOF 16
ENDMDL
MODEL 2
REMARK VINA RESULT:     -12.0      1.266      1.576
REMARK SMILES C[NH+]1CCC(NC(=O)N[C@@H]2C=C[C@H](C(=O)OCCOC(=O)c3ccc(-c4c5nc(c(-c6cccc(S(=O)(=O)[O-])c6F)c6ccc([nH]6)c(-c6cccc(S(=O)(=O)[O-])c6F)c6nc(c(-c7cccc(S(=O)(=O)[O-])c7F)c7ccc4[nH]7)C=C6)C=C5)cc3)C2)CC1
REMARK SMILES IDX 18 1 17 2 16 3 14 4 15 5 13 6 10 7 11 8 85 9 12 10 9 11 6 12
REMARK SMILES IDX 7 13 8 15 5 17 1 18 2 19 3 20 87 21 4 23 86 24 19 25 20 26
REMARK SMILES IDX 21 27 22 28 23 29 84 30 24 31 83 32 25 33 26 34 27 35 77 36
REMARK SMILES IDX 28 37 82 38 76 39 78 40 29 41 81 42 75 43 74 44 30 46 62 47
REMARK SMILES IDX 42 48 61 49 43 50 46 51 60 52 79 53 44 54 45 55 59 57 80 58
REMARK SMILES IDX 47 59 31 60 32 61 40 62 33 63 35 64 41 65 34 66 36 67 37 68
REMARK SMILES IDX 38 69 39 70 63 71 64 72 72 73 65 74 67 75 73 76 66 77 68 78
REMARK SMILES IDX 69 79 70 80 71 81 48 82 49 83 57 84 50 85 52 86 58 87 51 88
REMARK SMILES IDX 53 89 54 90 55 91 56 92
REMARK H PARENT 6 14 9 16 2 22 78 45 46 56
REMARK Flexibility Score: inf
ROOT
ATOM      1  C   UNL A   1      31.788  30.277  26.655  1.00  0.00     0.275 C 
ENDROOT
BRANCH   1   2
ATOM      2  C   UNL A   1      31.156  30.223  25.266  1.00  0.00     0.274 C 
BRANCH   2   3
ATOM      3  O   UNL A   1      31.898  29.334  24.407  1.00  0.00    -0.462 OA
BRANCH   3   4
ATOM      4  C   UNL A   1      31.577  28.008  24.452  1.00  0.00     0.312 C 
ATOM      5  O   UNL A   1      30.448  27.555  24.540  1.00  0.00    -0.252 OA
BRANCH   4   6
ATOM      6  C   UNL A   1      32.849  27.176  24.339  1.00  0.00     0.124 C 
ATOM      7  C   UNL A   1      32.719  24.858  25.175  1.00  0.00     0.107 C 
ATOM      8  C   UNL A   1      33.550  25.730  26.061  1.00  0.00    -0.006 C 
ATOM      9  C   UNL A   1      32.538  25.736  23.927  1.00  0.00     0.048 C 
ATOM     10  C   UNL A   1      33.576  27.000  25.639  1.00  0.00    -0.014 C 
BRANCH   7  11
ATOM     11  N   UNL A   1      31.524  24.572  25.941  1.00  0.00    -0.332 N 
ATOM     12  N   UNL A   1      31.524  22.243  26.424  1.00  0.00    -0.335 N 
ATOM     13  C   UNL A   1      31.010  23.478  26.534  1.00  0.00     0.315 C 
ATOM     14  H   UNL A   1      30.897  21.514  26.637  1.00  0.00     0.165 HD
ATOM     15  O   UNL A   1      29.985  23.621  27.202  1.00  0.00    -0.249 OA
ATOM     16  H   UNL A   1      30.951  25.364  26.054  1.00  0.00     0.165 HD
BRANCH  12  17
ATOM     17  C   UNL A   1      32.844  21.811  26.045  1.00  0.00     0.095 C 
ATOM     18  C   UNL A   1      36.614  20.634  24.869  1.00  0.00     0.332 C 
ATOM     19  N   UNL A   1      35.410  20.564  25.703  1.00  0.00    -0.337 N 
ATOM     20  C   UNL A   1      34.259  20.176  24.864  1.00  0.00     0.264 C 
ATOM     21  C   UNL A   1      35.250  21.825  26.448  1.00  0.00     0.264 C 
ATOM     22  H   UNL A   1      35.486  19.838  26.416  1.00  0.00     0.347 HD
ATOM     23  C   UNL A   1      32.898  20.381  25.530  1.00  0.00     0.086 C 
ATOM     24  C   UNL A   1      33.889  21.961  27.139  1.00  0.00     0.086 C 
ENDBRANCH  12  17
ENDBRANCH   7  11
ENDBRANCH   4   6
ENDBRANCH   3   4
ENDBRANCH   2   3
ENDBRANCH   1   2
BRANCH   1  25
ATOM     25  O   UNL A   1      33.194  30.552  26.535  1.00  0.00    -0.458 OA
BRANCH  25  26
ATOM     26  C   UNL A   1      33.670  31.560  27.294  1.00  0.00     0.338 C 
ATOM     27  O   UNL A   1      33.081  32.580  27.634  1.00  0.00    -0.246 OA
BRANCH  26  28
ATOM     28  C   UNL A   1      35.005  31.206  27.790  1.00  0.00     0.060 A 
ATOM     29  C   UNL A   1      35.210  29.888  28.172  1.00  0.00     0.016 A 
ATOM     30  C   UNL A   1      35.997  32.162  28.010  1.00  0.00     0.016 A 
ATOM     31  C   UNL A   1      36.354  29.547  28.876  1.00  0.00     0.010 A 
ATOM     32  C   UNL A   1      37.201  31.781  28.629  1.00  0.00     0.010 A 
ATOM     33  C   UNL A   1      37.378  30.470  29.097  1.00  0.00    -0.014 A 
BRANCH  33  34
ATOM     34  C   UNL A   1      38.584  30.017  29.846  1.00  0.00     0.031 A 
ATOM     35  C   UNL A   1      39.577  29.091  29.201  1.00  0.00     0.074 A 
ATOM     36  C   UNL A   1      38.849  30.513  31.074  1.00  0.00     0.049 A 
ATOM     37  N   UNL A   1      40.644  28.538  29.718  1.00  0.00    -0.248 NA
ATOM     38  C   UNL A   1      39.353  28.751  27.787  1.00  0.00     0.031 C 
ATOM     39  C   UNL A   1      38.030  31.500  31.780  1.00  0.00     0.029 A 
ATOM     40  N   UNL A   1      39.894  30.279  31.936  1.00  0.00    -0.354 N 
ATOM     41  C   UNL A   1      41.167  27.720  28.726  1.00  0.00     0.074 A 
ATOM     42  C   UNL A   1      40.330  27.886  27.557  1.00  0.00     0.031 C 
ATOM     43  C   UNL A   1      38.620  31.816  32.941  1.00  0.00     0.029 A 
ATOM     44  C   UNL A   1      39.808  30.990  33.112  1.00  0.00     0.049 A 
ATOM     45  H   UNL A   1      40.633  29.662  31.732  1.00  0.00     0.167 HD
ATOM     46  C   UNL A   1      42.238  26.895  28.791  1.00  0.00     0.034 A 
ATOM     47  C   UNL A   1      40.573  30.958  34.221  1.00  0.00     0.034 A 
ATOM     48  C   UNL A   1      43.106  26.775  29.931  1.00  0.00     0.049 A 
ATOM     49  C   UNL A   1      41.747  30.019  34.270  1.00  0.00     0.074 A 
ATOM     50  C   UNL A   1      44.210  25.953  30.085  1.00  0.00     0.029 A 
ATOM     51  N   UNL A   1      42.977  27.495  31.108  1.00  0.00    -0.354 N 
ATOM     52  N   UNL A   1      42.235  29.259  33.320  1.00  0.00    -0.248 NA
ATOM     53  C   UNL A   1      42.473  29.928  35.545  1.00  0.00     0.031 C 
ATOM     54  C   UNL A   1      44.734  26.159  31.365  1.00  0.00     0.029 A 
ATOM     55  C   UNL A   1      43.970  27.125  31.999  1.00  0.00     0.049 A 
ATOM     56  H   UNL A   1      42.283  28.170  31.283  1.00  0.00     0.167 HD
ATOM     57  C   UNL A   1      43.324  28.603  33.880  1.00  0.00     0.074 A 
ATOM     58  C   UNL A   1      43.454  29.090  35.238  1.00  0.00     0.031 C 
ATOM     59  C   UNL A   1      44.121  27.653  33.331  1.00  0.00     0.034 A 
BRANCH  46  60
ATOM     60  C   UNL A   1      42.513  26.018  27.603  1.00  0.00     0.023 A 
ATOM     61  C   UNL A   1      43.302  26.488  26.537  1.00  0.00     0.012 A 
ATOM     62  C   UNL A   1      42.031  24.694  27.582  1.00  0.00     0.148 A 
ATOM     63  C   UNL A   1      43.594  25.656  25.456  1.00  0.00     0.002 A 
ATOM     64  C   UNL A   1      42.354  23.860  26.520  1.00  0.00     0.091 A 
ATOM     65  F   UNL A   1      41.259  24.279  28.597  1.00  0.00    -0.205 F 
ATOM     66  C   UNL A   1      43.129  24.341  25.453  1.00  0.00     0.022 A 
BRANCH  64  67
ATOM     67  S   UNL A   1      41.854  22.136  26.463  1.00  0.00     0.127 S 
ATOM     68  O   UNL A   1      42.526  21.675  25.248  1.00  0.00    -0.237 OA
ATOM     69  O   UNL A   1      42.415  21.610  27.708  1.00  0.00    -0.237 OA
ATOM     70  O   UNL A   1      40.399  22.141  26.409  1.00  0.00    -0.744 OA
ENDBRANCH  64  67
ENDBRANCH  46  60
BRANCH  47  71
ATOM     71  C   UNL A   1      40.242  31.828  35.389  1.00  0.00     0.023 A 
ATOM     72  C   UNL A   1      41.004  32.987  35.634  1.00  0.00     0.012 A 
ATOM     73  C   UNL A   1      39.171  31.521  36.253  1.00  0.00     0.148 A 
ATOM     74  C   UNL A   1      40.721  33.808  36.728  1.00  0.00     0.002 A 
ATOM     75  C   UNL A   1      38.853  32.379  37.300  1.00  0.00     0.091 A 
ATOM     76  F   UNL A   1      38.478  30.394  36.038  1.00  0.00    -0.205 F 
ATOM     77  C   UNL A   1      39.637  33.513  37.552  1.00  0.00     0.022 A 
BRANCH  75  78
ATOM     78  S   UNL A   1      37.385  32.131  38.307  1.00  0.00     0.127 S 
ATOM     79  O   UNL A   1      37.211  30.684  38.236  1.00  0.00    -0.237 OA
ATOM     80  O   UNL A   1      37.813  32.635  39.613  1.00  0.00    -0.237 OA
ATOM     81  O   UNL A   1      36.347  32.934  37.673  1.00  0.00    -0.744 OA
ENDBRANCH  75  78
ENDBRANCH  47  71
BRANCH  59  82
ATOM     82  C   UNL A   1      45.208  27.070  34.194  1.00  0.00     0.023 A 
ATOM     83  C   UNL A   1      46.480  27.676  34.208  1.00  0.00     0.012 A 
ATOM     84  C   UNL A   1      44.952  25.981  35.049  1.00  0.00     0.148 A 
ATOM     85  C   UNL A   1      47.487  27.194  35.041  1.00  0.00     0.002 A 
ATOM     86  C   UNL A   1      45.947  25.533  35.911  1.00  0.00     0.091 A 
ATOM     87  F   UNL A   1      43.741  25.403  35.007  1.00  0.00    -0.205 F 
ATOM     88  C   UNL A   1      47.217  26.132  35.901  1.00  0.00     0.022 A 
BRANCH  86  89
ATOM     89  S   UNL A   1      45.659  24.233  37.117  1.00  0.00     0.127 S 
ATOM     90  O   UNL A   1      44.567  24.797  37.909  1.00  0.00    -0.237 OA
ATOM     91  O   UNL A   1      45.277  23.101  36.272  1.00  0.00    -0.237 OA
ATOM     92  O   UNL A   1      46.921  24.058  37.824  1.00  0.00    -0.744 OA
ENDBRANCH  86  89
ENDBRANCH  59  82
ENDBRANCH  33  34
ENDBRANCH  26  28
ENDBRANCH  25  26
ENDBRANCH   1  25
TORSDOF 16
ENDMDL
MODEL 3
REMARK VINA RESULT:     -12.0      5.208     10.256
REMARK SMILES C[NH+]1CCC(NC(=O)N[C@@H]2C=C[C@H](C(=O)OCCOC(=O)c3ccc(-c4c5nc(c(-c6cccc(S(=O)(=O)[O-])c6F)c6ccc([nH]6)c(-c6cccc(S(=O)(=O)[O-])c6F)c6nc(c(-c7cccc(S(=O)(=O)[O-])c7F)c7ccc4[nH]7)C=C6)C=C5)cc3)C2)CC1
REMARK SMILES IDX 18 1 17 2 16 3 14 4 15 5 13 6 10 7 11 8 85 9 12 10 9 11 6 12
REMARK SMILES IDX 7 13 8 15 5 17 1 18 2 19 3 20 87 21 4 23 86 24 19 25 20 26
REMARK SMILES IDX 21 27 22 28 23 29 84 30 24 31 83 32 25 33 26 34 27 35 77 36
REMARK SMILES IDX 28 37 82 38 76 39 78 40 29 41 81 42 75 43 74 44 30 46 62 47
REMARK SMILES IDX 42 48 61 49 43 50 46 51 60 52 79 53 44 54 45 55 59 57 80 58
REMARK SMILES IDX 47 59 31 60 32 61 40 62 33 63 35 64 41 65 34 66 36 67 37 68
REMARK SMILES IDX 38 69 39 70 63 71 64 72 72 73 65 74 67 75 73 76 66 77 68 78
REMARK SMILES IDX 69 79 70 80 71 81 48 82 49 83 57 84 50 85 52 86 58 87 51 88
REMARK SMILES IDX 53 89 54 90 55 91 56 92
REMARK H PARENT 6 14 9 16 2 22 78 45 46 56
REMARK Flexibility Score: inf
ROOT
ATOM      1  C   UNL A   1      37.226  21.025  24.633  1.00  0.00     0.275 C 
ENDROOT
BRANCH   1   2
ATOM      2  C   UNL A   1      35.941  20.287  24.998  1.00  0.00     0.274 C 
BRANCH   2   3
ATOM      3  O   UNL A   1      35.029  21.167  25.685  1.00  0.00    -0.462 OA
BRANCH   3   4
ATOM      4  C   UNL A   1      34.194  21.927  24.917  1.00  0.00     0.312 C 
ATOM      5  O   UNL A   1      33.788  21.631  23.804  1.00  0.00    -0.252 OA
BRANCH   4   6
ATOM      6  C   UNL A   1      33.816  23.191  25.679  1.00  0.00     0.124 C 
ATOM      7  C   UNL A   1      32.920  25.055  24.334  1.00  0.00     0.107 C 
ATOM      8  C   UNL A   1      34.295  25.341  24.845  1.00  0.00    -0.006 C 
ATOM      9  C   UNL A   1      32.524  23.805  25.135  1.00  0.00     0.048 C 
ATOM     10  C   UNL A   1      34.804  24.309  25.529  1.00  0.00    -0.014 C 
BRANCH   7  11
ATOM     11  N   UNL A   1      33.076  24.882  22.904  1.00  0.00    -0.332 N 
ATOM     12  N   UNL A   1      32.352  26.890  21.856  1.00  0.00    -0.335 N 
ATOM     13  C   UNL A   1      32.893  25.662  21.823  1.00  0.00     0.315 C 
ATOM     14  H   UNL A   1      31.998  27.209  20.994  1.00  0.00     0.165 HD
ATOM     15  O   UNL A   1      33.224  25.206  20.729  1.00  0.00    -0.249 OA
ATOM     16  H   UNL A   1      33.390  23.980  22.668  1.00  0.00     0.165 HD
BRANCH  12  17
ATOM     17  C   UNL A   1      32.204  27.816  22.948  1.00  0.00     0.095 C 
ATOM     18  C   UNL A   1      31.747  30.387  26.137  1.00  0.00     0.332 C 
ATOM     19  N   UNL A   1      31.960  30.064  24.722  1.00  0.00    -0.337 N 
ATOM     20  C   UNL A   1      30.764  29.381  24.193  1.00  0.00     0.264 C 
ATOM     21  C   UNL A   1      33.226  29.325  24.569  1.00  0.00     0.264 C 
ATOM     22  H   UNL A   1      32.069  30.904  24.155  1.00  0.00     0.347 HD
ATOM     23  C   UNL A   1      30.973  28.704  22.838  1.00  0.00     0.086 C 
ATOM     24  C   UNL A   1      33.413  28.709  23.179  1.00  0.00     0.086 C 
ENDBRANCH  12  17
ENDBRANCH   7  11
ENDBRANCH   4   6
ENDBRANCH   3   4
ENDBRANCH   2   3
ENDBRANCH   1   2
BRANCH   1  25
ATOM     25  O   UNL A   1      37.693  21.771  25.770  1.00  0.00    -0.458 OA
BRANCH  25  26
ATOM     26  C   UNL A   1      38.958  21.522  26.166  1.00  0.00     0.338 C 
ATOM     27  O   UNL A   1      39.615  20.506  25.968  1.00  0.00    -0.246 OA
BRANCH  26  28
ATOM     28  C   UNL A   1      39.519  22.729  26.785  1.00  0.00     0.060 A 
ATOM     29  C   UNL A   1      39.039  23.952  26.339  1.00  0.00     0.016 A 
ATOM     30  C   UNL A   1      40.587  22.680  27.681  1.00  0.00     0.016 A 
ATOM     31  C   UNL A   1      39.696  25.119  26.695  1.00  0.00     0.010 A 
ATOM     32  C   UNL A   1      41.177  23.878  28.121  1.00  0.00     0.010 A 
ATOM     33  C   UNL A   1      40.755  25.112  27.606  1.00  0.00    -0.014 A 
BRANCH  33  34
ATOM     34  C   UNL A   1      41.394  26.413  27.950  1.00  0.00     0.031 A 
ATOM     35  C   UNL A   1      40.653  27.432  28.770  1.00  0.00     0.074 A 
ATOM     36  C   UNL A   1      42.682  26.648  27.616  1.00  0.00     0.049 A 
ATOM     37  N   UNL A   1      41.019  28.642  29.108  1.00  0.00    -0.248 NA
ATOM     38  C   UNL A   1      39.334  27.039  29.290  1.00  0.00     0.031 C 
ATOM     39  C   UNL A   1      43.557  25.709  26.914  1.00  0.00     0.029 A 
ATOM     40  N   UNL A   1      43.490  27.738  27.845  1.00  0.00    -0.354 N 
ATOM     41  C   UNL A   1      39.947  29.184  29.802  1.00  0.00     0.074 A 
ATOM     42  C   UNL A   1      38.932  28.155  29.882  1.00  0.00     0.031 C 
ATOM     43  C   UNL A   1      44.783  26.240  26.806  1.00  0.00     0.029 A 
ATOM     44  C   UNL A   1      44.764  27.594  27.344  1.00  0.00     0.049 A 
ATOM     45  H   UNL A   1      43.186  28.543  28.322  1.00  0.00     0.167 HD
ATOM     46  C   UNL A   1      39.816  30.431  30.311  1.00  0.00     0.034 A 
ATOM     47  C   UNL A   1      45.793  28.461  27.286  1.00  0.00     0.034 A 
ATOM     48  C   UNL A   1      40.845  31.435  30.286  1.00  0.00     0.049 A 
ATOM     49  C   UNL A   1      45.612  29.845  27.846  1.00  0.00     0.074 A 
ATOM     50  C   UNL A   1      40.791  32.731  30.770  1.00  0.00     0.029 A 
ATOM     51  N   UNL A   1      42.113  31.259  29.755  1.00  0.00    -0.354 N 
ATOM     52  N   UNL A   1      44.595  30.340  28.508  1.00  0.00    -0.248 NA
ATOM     53  C   UNL A   1      46.716  30.794  27.645  1.00  0.00     0.031 C 
ATOM     54  C   UNL A   1      42.020  33.347  30.510  1.00  0.00     0.029 A 
ATOM     55  C   UNL A   1      42.845  32.427  29.883  1.00  0.00     0.049 A 
ATOM     56  H   UNL A   1      42.443  30.427  29.346  1.00  0.00     0.167 HD
ATOM     57  C   UNL A   1      44.937  31.654  28.805  1.00  0.00     0.074 A 
ATOM     58  C   UNL A   1      46.275  31.864  28.292  1.00  0.00     0.031 C 
ATOM     59  C   UNL A   1      44.195  32.611  29.414  1.00  0.00     0.034 A 
BRANCH  46  60
ATOM     60  C   UNL A   1      38.488  30.802  30.909  1.00  0.00     0.023 A 
ATOM     61  C   UNL A   1      38.232  30.574  32.274  1.00  0.00     0.012 A 
ATOM     62  C   UNL A   1      37.514  31.439  30.115  1.00  0.00     0.148 A 
ATOM     63  C   UNL A   1      37.016  30.960  32.837  1.00  0.00     0.002 A 
ATOM     64  C   UNL A   1      36.320  31.852  30.690  1.00  0.00     0.091 A 
ATOM     65  F   UNL A   1      37.772  31.620  28.812  1.00  0.00    -0.205 F 
ATOM     66  C   UNL A   1      36.066  31.608  32.049  1.00  0.00     0.022 A 
BRANCH  64  67
ATOM     67  S   UNL A   1      35.067  32.750  29.767  1.00  0.00     0.127 S 
ATOM     68  O   UNL A   1      34.142  33.140  30.830  1.00  0.00    -0.237 OA
ATOM     69  O   UNL A   1      35.838  33.854  29.193  1.00  0.00    -0.237 OA
ATOM     70  O   UNL A   1      34.537  31.809  28.790  1.00  0.00    -0.744 OA
ENDBRANCH  64  67
ENDBRANCH  46  60
BRANCH  47  71
ATOM     71  C   UNL A   1      47.085  28.056  26.654  1.00  0.00     0.023 A 
ATOM     72  C   UNL A   1      48.192  27.747  27.467  1.00  0.00     0.012 A 
ATOM     73  C   UNL A   1      47.221  27.966  25.254  1.00  0.00     0.148 A 
ATOM     74  C   UNL A   1      49.413  27.378  26.898  1.00  0.00     0.002 A 
ATOM     75  C   UNL A   1      48.419  27.534  24.697  1.00  0.00     0.091 A 
ATOM     76  F   UNL A   1      46.175  28.305  24.486  1.00  0.00    -0.205 F 
ATOM     77  C   UNL A   1      49.523  27.257  25.515  1.00  0.00     0.022 A 
BRANCH  75  78
ATOM     78  S   UNL A   1      48.579  27.220  22.934  1.00  0.00     0.127 S 
ATOM     79  O   UNL A   1      47.626  28.171  22.371  1.00  0.00    -0.237 OA
ATOM     80  O   UNL A   1      49.986  27.540  22.686  1.00  0.00    -0.237 OA
ATOM     81  O   UNL A   1      48.254  25.810  22.766  1.00  0.00    -0.744 OA
ENDBRANCH  75  78
ENDBRANCH  47  71
BRANCH  59  82
ATOM     82  C   UNL A   1      44.805  33.979  29.562  1.00  0.00     0.023 A 
ATOM     83  C   UNL A   1      45.519  34.294  30.735  1.00  0.00     0.012 A 
ATOM     84  C   UNL A   1      44.745  34.919  28.515  1.00  0.00     0.148 A 
ATOM     85  C   UNL A   1      46.144  35.532  30.874  1.00  0.00     0.002 A 
ATOM     86  C   UNL A   1      45.409  36.134  28.641  1.00  0.00     0.091 A 
ATOM     87  F   UNL A   1      44.043  34.609  27.414  1.00  0.00    -0.205 F 
ATOM     88  C   UNL A   1      46.101  36.445  29.823  1.00  0.00     0.022 A 
BRANCH  86  89
ATOM     89  S   UNL A   1      45.484  37.331  27.304  1.00  0.00     0.127 S 
ATOM     90  O   UNL A   1      46.278  38.402  27.906  1.00  0.00    -0.237 OA
ATOM     91  O   UNL A   1      46.173  36.582  26.252  1.00  0.00    -0.237 OA
ATOM     92  O   UNL A   1      44.103  37.672  26.995  1.00  0.00    -0.744 OA
ENDBRANCH  86  89
ENDBRANCH  59  82
ENDBRANCH  33  34
ENDBRANCH  26  28
ENDBRANCH  25  26
ENDBRANCH   1  25
TORSDOF 16
ENDMDL
