MODEL 1
REMARK VINA RESULT:     -10.4      0.000      0.000
REMARK SMILES O=C(CCCCCn1cc(Cl)c(I)n1)OCCOC(=O)c1ccc(-c2c3nc(c(-c4cccc(S(=O)(=O)[O-])c4F)c4ccc([nH]4)c(-c4cccc(S(=O)(=O)[O-])c4F)c4nc(c(-c5cccc(S(=O)(=O)[O-])c5F)c5ccc2[nH]5)C=C4)C=C3)cc1
REMARK SMILES IDX 16 1 15 2 2 3 1 4 3 5 4 6 5 7 6 8 7 9 8 10 9 11 14 12 10 13
REMARK SMILES IDX 12 14 11 15 13 16 17 17 18 18 19 19 20 20 21 21 22 22 83 23
REMARK SMILES IDX 23 24 82 25 24 26 25 27 26 28 76 29 27 30 81 31 75 32 77 33
REMARK SMILES IDX 28 34 80 35 74 36 73 37 29 39 61 40 41 41 60 42 42 43 45 44
REMARK SMILES IDX 59 45 78 46 43 47 44 48 58 50 79 51 46 52 30 53 31 54 39 55
REMARK SMILES IDX 32 56 34 57 40 58 33 59 35 60 36 61 37 62 38 63 62 64 63 65
REMARK SMILES IDX 71 66 64 67 66 68 72 69 65 70 67 71 68 72 69 73 70 74 47 75
REMARK SMILES IDX 48 76 56 77 49 78 51 79 57 80 50 81 52 82 53 83 54 84 55 85
REMARK H PARENT 77 38 45 49
REMARK Flexibility Score: inf
ROOT
ATOM      1  C   UNL A   1      39.110  21.781  26.130  1.00  0.00     0.274 C 
ENDROOT
BRANCH   1   2
ATOM      2  O   UNL A   1      37.728  21.818  25.723  1.00  0.00    -0.462 OA
BRANCH   2   3
ATOM      3  C   UNL A   1      37.085  22.817  25.075  1.00  0.00     0.305 C 
ATOM      4  O   UNL A   1      37.357  23.986  25.348  1.00  0.00    -0.252 OA
BRANCH   3   5
ATOM      5  C   UNL A   1      35.981  22.516  24.081  1.00  0.00     0.123 C 
BRANCH   5   6
ATOM      6  C   UNL A   1      34.560  22.558  24.632  1.00  0.00     0.012 C 
BRANCH   6   7
ATOM      7  C   UNL A   1      33.462  22.359  23.588  1.00  0.00     0.002 C 
BRANCH   7   8
ATOM      8  C   UNL A   1      32.265  21.496  24.036  1.00  0.00     0.024 C 
BRANCH   8   9
ATOM      9  C   UNL A   1      32.476  20.694  25.318  1.00  0.00     0.144 C 
BRANCH   9  10
ATOM     10  N   UNL A   1      32.947  19.348  25.058  1.00  0.00    -0.270 N 
ATOM     11  C   UNL A   1      33.802  18.962  24.061  1.00  0.00     0.130 A 
ATOM     12  N   UNL A   1      32.408  18.316  25.729  1.00  0.00    -0.165 NA
ATOM     13  C   UNL A   1      33.766  17.589  24.043  1.00  0.00     0.092 A 
ATOM     14  C   UNL A   1      32.920  17.245  25.119  1.00  0.00     0.141 A 
ATOM     15  Cl  UNL A   1      34.552  16.579  22.933  1.00  0.00    -0.080 Cl
ATOM     16  I   UNL A   1      32.437  15.353  25.709  1.00  0.00    -0.018 I 
ENDBRANCH   9  10
ENDBRANCH   8   9
ENDBRANCH   7   8
ENDBRANCH   6   7
ENDBRANCH   5   6
ENDBRANCH   3   5
ENDBRANCH   2   3
ENDBRANCH   1   2
BRANCH   1  17
ATOM     17  C   UNL A   1      39.724  20.391  26.147  1.00  0.00     0.275 C 
BRANCH  17  18
ATOM     18  O   UNL A   1      40.850  20.323  25.294  1.00  0.00    -0.458 OA
BRANCH  18  19
ATOM     19  C   UNL A   1      42.001  19.877  25.858  1.00  0.00     0.338 C 
ATOM     20  O   UNL A   1      42.424  18.747  25.873  1.00  0.00    -0.246 OA
BRANCH  19  21
ATOM     21  C   UNL A   1      42.585  21.024  26.569  1.00  0.00     0.060 A 
ATOM     22  C   UNL A   1      42.448  21.030  27.956  1.00  0.00     0.016 A 
ATOM     23  C   UNL A   1      42.994  22.159  25.850  1.00  0.00     0.016 A 
ATOM     24  C   UNL A   1      42.478  22.246  28.596  1.00  0.00     0.010 A 
ATOM     25  C   UNL A   1      42.989  23.372  26.481  1.00  0.00     0.010 A 
ATOM     26  C   UNL A   1      42.643  23.403  27.827  1.00  0.00    -0.014 A 
BRANCH  26  27
ATOM     27  C   UNL A   1      42.586  24.682  28.493  1.00  0.00     0.031 A 
ATOM     28  C   UNL A   1      41.340  25.395  28.157  1.00  0.00     0.074 A 
ATOM     29  C   UNL A   1      43.529  25.072  29.371  1.00  0.00     0.049 A 
ATOM     30  N   UNL A   1      41.209  26.376  27.327  1.00  0.00    -0.248 NA
ATOM     31  C   UNL A   1      40.064  24.781  28.563  1.00  0.00     0.031 C 
ATOM     32  C   UNL A   1      44.619  24.263  29.926  1.00  0.00     0.029 A 
ATOM     33  N   UNL A   1      43.628  26.235  30.068  1.00  0.00    -0.354 N 
ATOM     34  C   UNL A   1      39.857  26.696  27.384  1.00  0.00     0.074 A 
ATOM     35  C   UNL A   1      39.197  25.517  27.866  1.00  0.00     0.031 C 
ATOM     36  C   UNL A   1      45.094  24.867  31.039  1.00  0.00     0.029 A 
ATOM     37  C   UNL A   1      44.424  26.145  31.207  1.00  0.00     0.049 A 
ATOM     38  H   UNL A   1      43.178  27.067  29.792  1.00  0.00     0.167 HD
ATOM     39  C   UNL A   1      39.481  28.004  27.449  1.00  0.00     0.034 A 
ATOM     40  C   UNL A   1      44.443  27.016  32.250  1.00  0.00     0.034 A 
ATOM     41  C   UNL A   1      40.559  28.860  26.993  1.00  0.00     0.049 A 
ATOM     42  C   UNL A   1      43.853  28.287  31.769  1.00  0.00     0.074 A 
ATOM     43  C   UNL A   1      41.338  28.948  25.856  1.00  0.00     0.029 A 
ATOM     44  N   UNL A   1      41.233  29.550  27.970  1.00  0.00    -0.354 N 
ATOM     45  N   UNL A   1      44.421  29.051  30.880  1.00  0.00    -0.248 NA
ATOM     46  C   UNL A   1      42.424  28.483  31.943  1.00  0.00     0.031 C 
ATOM     47  C   UNL A   1      42.634  29.332  26.316  1.00  0.00     0.029 A 
ATOM     48  C   UNL A   1      42.569  29.534  27.696  1.00  0.00     0.049 A 
ATOM     49  H   UNL A   1      40.818  29.989  28.747  1.00  0.00     0.167 HD
ATOM     50  C   UNL A   1      43.375  29.442  30.056  1.00  0.00     0.074 A 
ATOM     51  C   UNL A   1      42.163  29.175  30.831  1.00  0.00     0.031 C 
ATOM     52  C   UNL A   1      43.584  29.643  28.720  1.00  0.00     0.034 A 
BRANCH  39  53
ATOM     53  C   UNL A   1      38.410  28.538  28.400  1.00  0.00     0.023 A 
ATOM     54  C   UNL A   1      37.493  29.458  27.842  1.00  0.00     0.012 A 
ATOM     55  C   UNL A   1      38.442  28.466  29.815  1.00  0.00     0.148 A 
ATOM     56  C   UNL A   1      36.773  30.356  28.635  1.00  0.00     0.002 A 
ATOM     57  C   UNL A   1      37.689  29.327  30.603  1.00  0.00     0.091 A 
ATOM     58  F   UNL A   1      39.257  27.623  30.442  1.00  0.00    -0.205 F 
ATOM     59  C   UNL A   1      36.883  30.303  30.018  1.00  0.00     0.022 A 
BRANCH  57  60
ATOM     60  S   UNL A   1      37.777  29.288  32.402  1.00  0.00     0.127 S 
ATOM     61  O   UNL A   1      39.081  29.903  32.638  1.00  0.00    -0.237 OA
ATOM     62  O   UNL A   1      36.623  30.108  32.767  1.00  0.00    -0.237 OA
ATOM     63  O   UNL A   1      37.665  27.886  32.784  1.00  0.00    -0.744 OA
ENDBRANCH  57  60
ENDBRANCH  39  53
BRANCH  40  64
ATOM     64  C   UNL A   1      44.662  26.770  33.698  1.00  0.00     0.023 A 
ATOM     65  C   UNL A   1      45.902  27.105  34.282  1.00  0.00     0.012 A 
ATOM     66  C   UNL A   1      43.583  26.485  34.562  1.00  0.00     0.148 A 
ATOM     67  C   UNL A   1      46.051  27.193  35.672  1.00  0.00     0.002 A 
ATOM     68  C   UNL A   1      43.736  26.560  35.944  1.00  0.00     0.091 A 
ATOM     69  F   UNL A   1      42.378  26.233  34.034  1.00  0.00    -0.205 F 
ATOM     70  C   UNL A   1      44.966  26.930  36.504  1.00  0.00     0.022 A 
BRANCH  68  71
ATOM     71  S   UNL A   1      42.372  26.249  37.073  1.00  0.00     0.127 S 
ATOM     72  O   UNL A   1      41.961  24.899  36.685  1.00  0.00    -0.237 OA
ATOM     73  O   UNL A   1      43.027  26.339  38.375  1.00  0.00    -0.237 OA
ATOM     74  O   UNL A   1      41.379  27.279  36.793  1.00  0.00    -0.744 OA
ENDBRANCH  68  71
ENDBRANCH  40  64
BRANCH  52  75
ATOM     75  C   UNL A   1      45.003  29.789  28.243  1.00  0.00     0.023 A 
ATOM     76  C   UNL A   1      45.844  28.692  27.962  1.00  0.00     0.012 A 
ATOM     77  C   UNL A   1      45.452  31.086  27.943  1.00  0.00     0.148 A 
ATOM     78  C   UNL A   1      47.117  28.891  27.419  1.00  0.00     0.002 A 
ATOM     79  C   UNL A   1      46.697  31.276  27.361  1.00  0.00     0.091 A 
ATOM     80  F   UNL A   1      44.639  32.116  28.218  1.00  0.00    -0.205 F 
ATOM     81  C   UNL A   1      47.539  30.183  27.106  1.00  0.00     0.022 A 
BRANCH  79  82
ATOM     82  S   UNL A   1      47.235  32.904  26.838  1.00  0.00     0.127 S 
ATOM     83  O   UNL A   1      46.116  33.342  26.006  1.00  0.00    -0.237 OA
ATOM     84  O   UNL A   1      47.368  33.616  28.110  1.00  0.00    -0.237 OA
ATOM     85  O   UNL A   1      48.498  32.703  26.137  1.00  0.00    -0.744 OA
ENDBRANCH  79  82
ENDBRANCH  52  75
ENDBRANCH  26  27
ENDBRANCH  19  21
ENDBRANCH  18  19
ENDBRANCH  17  18
ENDBRANCH   1  17
TORSDOF 19
ENDMDL
MODEL 2
REMARK VINA RESULT:     -10.2      4.953      9.641
REMARK SMILES O=C(CCCCCn1cc(Cl)c(I)n1)OCCOC(=O)c1ccc(-c2c3nc(c(-c4cccc(S(=O)(=O)[O-])c4F)c4ccc([nH]4)c(-c4cccc(S(=O)(=O)[O-])c4F)c4nc(c(-c5cccc(S(=O)(=O)[O-])c5F)c5ccc2[nH]5)C=C4)C=C3)cc1
REMARK SMILES IDX 16 1 15 2 2 3 1 4 3 5 4 6 5 7 6 8 7 9 8 10 9 11 14 12 10 13
REMARK SMILES IDX 12 14 11 15 13 16 17 17 18 18 19 19 20 20 21 21 22 22 83 23
REMARK SMILES IDX 23 24 82 25 24 26 25 27 26 28 76 29 27 30 81 31 75 32 77 33
REMARK SMILES IDX 28 34 80 35 74 36 73 37 29 39 61 40 41 41 60 42 42 43 45 44
REMARK SMILES IDX 59 45 78 46 43 47 44 48 58 50 79 51 46 52 30 53 31 54 39 55
REMARK SMILES IDX 32 56 34 57 40 58 33 59 35 60 36 61 37 62 38 63 62 64 63 65
REMARK SMILES IDX 71 66 64 67 66 68 72 69 65 70 67 71 68 72 69 73 70 74 47 75
REMARK SMILES IDX 48 76 56 77 49 78 51 79 57 80 50 81 52 82 53 83 54 84 55 85
REMARK H PARENT 77 38 45 49
REMARK Flexibility Score: inf
ROOT
ATOM      1  C   UNL A   1      31.679  31.102  26.289  1.00  0.00     0.274 C 
ENDROOT
BRANCH   1   2
ATOM      2  O   UNL A   1      31.754  30.076  27.298  1.00  0.00    -0.462 OA
BRANCH   2   3
ATOM      3  C   UNL A   1      31.904  28.743  27.110  1.00  0.00     0.305 C 
ATOM      4  O   UNL A   1      31.478  27.963  27.962  1.00  0.00    -0.252 OA
BRANCH   3   5
ATOM      5  C   UNL A   1      32.658  28.207  25.911  1.00  0.00     0.123 C 
BRANCH   5   6
ATOM      6  C   UNL A   1      33.347  26.861  26.105  1.00  0.00     0.012 C 
BRANCH   6   7
ATOM      7  C   UNL A   1      33.652  26.103  24.814  1.00  0.00     0.002 C 
BRANCH   7   8
ATOM      8  C   UNL A   1      33.693  26.961  23.532  1.00  0.00     0.024 C 
BRANCH   8   9
ATOM      9  C   UNL A   1      32.627  26.635  22.488  1.00  0.00     0.144 C 
BRANCH   9  10
ATOM     10  N   UNL A   1      31.308  27.089  22.884  1.00  0.00    -0.270 N 
ATOM     11  C   UNL A   1      30.369  26.367  23.568  1.00  0.00     0.130 A 
ATOM     12  N   UNL A   1      30.851  28.268  22.431  1.00  0.00    -0.165 NA
ATOM     13  C   UNL A   1      29.208  27.097  23.498  1.00  0.00     0.092 A 
ATOM     14  C   UNL A   1      29.574  28.278  22.820  1.00  0.00     0.141 A 
ATOM     15  Cl  UNL A   1      27.689  26.625  24.083  1.00  0.00    -0.080 Cl
ATOM     16  I   UNL A   1      28.344  29.848  22.391  1.00  0.00    -0.018 I 
ENDBRANCH   9  10
ENDBRANCH   8   9
ENDBRANCH   7   8
ENDBRANCH   6   7
ENDBRANCH   5   6
ENDBRANCH   3   5
ENDBRANCH   2   3
ENDBRANCH   1   2
BRANCH   1  17
ATOM     17  C   UNL A   1      31.813  32.519  26.820  1.00  0.00     0.275 C 
BRANCH  17  18
ATOM     18  O   UNL A   1      32.729  32.572  27.897  1.00  0.00    -0.458 OA
BRANCH  18  19
ATOM     19  C   UNL A   1      33.021  33.810  28.372  1.00  0.00     0.338 C 
ATOM     20  O   UNL A   1      32.372  34.818  28.247  1.00  0.00    -0.246 OA
BRANCH  19  21
ATOM     21  C   UNL A   1      34.362  33.718  28.969  1.00  0.00     0.060 A 
ATOM     22  C   UNL A   1      35.411  34.258  28.228  1.00  0.00     0.016 A 
ATOM     23  C   UNL A   1      34.577  32.884  30.079  1.00  0.00     0.016 A 
ATOM     24  C   UNL A   1      36.672  33.758  28.447  1.00  0.00     0.010 A 
ATOM     25  C   UNL A   1      35.826  32.360  30.273  1.00  0.00     0.010 A 
ATOM     26  C   UNL A   1      36.834  32.741  29.395  1.00  0.00    -0.014 A 
BRANCH  26  27
ATOM     27  C   UNL A   1      38.144  32.158  29.557  1.00  0.00     0.031 A 
ATOM     28  C   UNL A   1      38.144  30.742  29.149  1.00  0.00     0.074 A 
ATOM     29  C   UNL A   1      39.207  32.890  29.940  1.00  0.00     0.049 A 
ATOM     30  N   UNL A   1      38.131  29.712  29.928  1.00  0.00    -0.248 NA
ATOM     31  C   UNL A   1      37.844  30.431  27.740  1.00  0.00     0.031 C 
ATOM     32  C   UNL A   1      39.283  34.348  30.077  1.00  0.00     0.029 A 
ATOM     33  N   UNL A   1      40.492  32.497  30.149  1.00  0.00    -0.354 N 
ATOM     34  C   UNL A   1      38.157  28.625  29.060  1.00  0.00     0.074 A 
ATOM     35  C   UNL A   1      37.653  29.113  27.809  1.00  0.00     0.031 C 
ATOM     36  C   UNL A   1      40.583  34.723  30.089  1.00  0.00     0.029 A 
ATOM     37  C   UNL A   1      41.419  33.535  30.075  1.00  0.00     0.049 A 
ATOM     38  H   UNL A   1      40.745  31.564  30.336  1.00  0.00     0.167 HD
ATOM     39  C   UNL A   1      38.983  27.575  29.326  1.00  0.00     0.034 A 
ATOM     40  C   UNL A   1      42.762  33.408  29.914  1.00  0.00     0.034 A 
ATOM     41  C   UNL A   1      39.368  27.581  30.724  1.00  0.00     0.049 A 
ATOM     42  C   UNL A   1      43.120  32.024  30.301  1.00  0.00     0.074 A 
ATOM     43  C   UNL A   1      38.702  27.604  31.934  1.00  0.00     0.029 A 
ATOM     44  N   UNL A   1      40.654  27.982  30.992  1.00  0.00    -0.354 N 
ATOM     45  N   UNL A   1      43.039  31.576  31.522  1.00  0.00    -0.248 NA
ATOM     46  C   UNL A   1      43.141  31.009  29.261  1.00  0.00     0.031 C 
ATOM     47  C   UNL A   1      39.507  28.411  32.793  1.00  0.00     0.029 A 
ATOM     48  C   UNL A   1      40.659  28.781  32.097  1.00  0.00     0.049 A 
ATOM     49  H   UNL A   1      41.449  27.732  30.468  1.00  0.00     0.167 HD
ATOM     50  C   UNL A   1      42.500  30.304  31.378  1.00  0.00     0.074 A 
ATOM     51  C   UNL A   1      42.709  29.963  29.970  1.00  0.00     0.031 C 
ATOM     52  C   UNL A   1      41.663  29.795  32.330  1.00  0.00     0.034 A 
BRANCH  39  53
ATOM     53  C   UNL A   1      39.861  26.892  28.278  1.00  0.00     0.023 A 
ATOM     54  C   UNL A   1      39.958  25.485  28.376  1.00  0.00     0.012 A 
ATOM     55  C   UNL A   1      40.820  27.530  27.453  1.00  0.00     0.148 A 
ATOM     56  C   UNL A   1      41.029  24.779  27.821  1.00  0.00     0.002 A 
ATOM     57  C   UNL A   1      41.857  26.819  26.861  1.00  0.00     0.091 A 
ATOM     58  F   UNL A   1      40.810  28.849  27.278  1.00  0.00    -0.205 F 
ATOM     59  C   UNL A   1      41.990  25.448  27.075  1.00  0.00     0.022 A 
BRANCH  57  60
ATOM     60  S   UNL A   1      43.120  27.634  25.867  1.00  0.00     0.127 S 
ATOM     61  O   UNL A   1      44.035  26.526  25.603  1.00  0.00    -0.237 OA
ATOM     62  O   UNL A   1      42.337  28.086  24.718  1.00  0.00    -0.237 OA
ATOM     63  O   UNL A   1      43.656  28.708  26.692  1.00  0.00    -0.744 OA
ENDBRANCH  57  60
ENDBRANCH  39  53
BRANCH  40  64
ATOM     64  C   UNL A   1      43.725  34.277  29.190  1.00  0.00     0.023 A 
ATOM     65  C   UNL A   1      44.376  35.321  29.881  1.00  0.00     0.012 A 
ATOM     66  C   UNL A   1      44.224  33.915  27.920  1.00  0.00     0.148 A 
ATOM     67  C   UNL A   1      45.506  35.952  29.345  1.00  0.00     0.002 A 
ATOM     68  C   UNL A   1      45.339  34.552  27.384  1.00  0.00     0.091 A 
ATOM     69  F   UNL A   1      43.668  32.881  27.275  1.00  0.00    -0.205 F 
ATOM     70  C   UNL A   1      45.994  35.562  28.100  1.00  0.00     0.022 A 
BRANCH  68  71
ATOM     71  S   UNL A   1      46.030  34.087  25.790  1.00  0.00     0.127 S 
ATOM     72  O   UNL A   1      47.056  35.111  25.594  1.00  0.00    -0.237 OA
ATOM     73  O   UNL A   1      46.544  32.747  26.060  1.00  0.00    -0.237 OA
ATOM     74  O   UNL A   1      44.926  34.160  24.841  1.00  0.00    -0.744 OA
ENDBRANCH  68  71
ENDBRANCH  40  64
BRANCH  52  75
ATOM     75  C   UNL A   1      41.634  30.469  33.675  1.00  0.00     0.023 A 
ATOM     76  C   UNL A   1      42.568  30.200  34.697  1.00  0.00     0.012 A 
ATOM     77  C   UNL A   1      40.706  31.507  33.857  1.00  0.00     0.148 A 
ATOM     78  C   UNL A   1      42.555  30.936  35.886  1.00  0.00     0.002 A 
ATOM     79  C   UNL A   1      40.726  32.266  35.018  1.00  0.00     0.091 A 
ATOM     80  F   UNL A   1      39.825  31.747  32.874  1.00  0.00    -0.205 F 
ATOM     81  C   UNL A   1      41.641  31.978  36.041  1.00  0.00     0.022 A 
BRANCH  79  82
ATOM     82  S   UNL A   1      39.649  33.686  35.215  1.00  0.00     0.127 S 
ATOM     83  O   UNL A   1      38.323  33.076  35.132  1.00  0.00    -0.237 OA
ATOM     84  O   UNL A   1      40.015  34.177  36.544  1.00  0.00    -0.237 OA
ATOM     85  O   UNL A   1      39.989  34.599  34.131  1.00  0.00    -0.744 OA
ENDBRANCH  79  82
ENDBRANCH  52  75
ENDBRANCH  26  27
ENDBRANCH  19  21
ENDBRANCH  18  19
ENDBRANCH  17  18
ENDBRANCH   1  17
TORSDOF 19
ENDMDL
MODEL 3
REMARK VINA RESULT:     -10.0      5.578     10.318
REMARK SMILES O=C(CCCCCn1cc(Cl)c(I)n1)OCCOC(=O)c1ccc(-c2c3nc(c(-c4cccc(S(=O)(=O)[O-])c4F)c4ccc([nH]4)c(-c4cccc(S(=O)(=O)[O-])c4F)c4nc(c(-c5cccc(S(=O)(=O)[O-])c5F)c5ccc2[nH]5)C=C4)C=C3)cc1
REMARK SMILES IDX 16 1 15 2 2 3 1 4 3 5 4 6 5 7 6 8 7 9 8 10 9 11 14 12 10 13
REMARK SMILES IDX 12 14 11 15 13 16 17 17 18 18 19 19 20 20 21 21 22 22 83 23
REMARK SMILES IDX 23 24 82 25 24 26 25 27 26 28 76 29 27 30 81 31 75 32 77 33
REMARK SMILES IDX 28 34 80 35 74 36 73 37 29 39 61 40 41 41 60 42 42 43 45 44
REMARK SMILES IDX 59 45 78 46 43 47 44 48 58 50 79 51 46 52 30 53 31 54 39 55
REMARK SMILES IDX 32 56 34 57 40 58 33 59 35 60 36 61 37 62 38 63 62 64 63 65
REMARK SMILES IDX 71 66 64 67 66 68 72 69 65 70 67 71 68 72 69 73 70 74 47 75
REMARK SMILES IDX 48 76 56 77 49 78 51 79 57 80 50 81 52 82 53 83 54 84 55 85
REMARK H PARENT 77 38 45 49
REMARK Flexibility Score: inf
ROOT
ATOM      1  C   UNL A   1      33.845  34.227  29.780  1.00  0.00     0.274 C 
ENDROOT
BRANCH   1   2
ATOM      2  O   UNL A   1      34.254  33.271  30.778  1.00  0.00    -0.462 OA
BRANCH   2   3
ATOM      3  C   UNL A   1      34.566  33.512  32.073  1.00  0.00     0.305 C 
ATOM      4  O   UNL A   1      33.665  33.763  32.875  1.00  0.00    -0.252 OA
BRANCH   3   5
ATOM      5  C   UNL A   1      36.010  33.559  32.529  1.00  0.00     0.123 C 
BRANCH   5   6
ATOM      6  C   UNL A   1      36.609  32.232  32.980  1.00  0.00     0.012 C 
BRANCH   6   7
ATOM      7  C   UNL A   1      38.118  32.104  32.770  1.00  0.00     0.002 C 
BRANCH   7   8
ATOM      8  C   UNL A   1      38.827  33.371  32.250  1.00  0.00     0.024 C 
BRANCH   8   9
ATOM      9  C   UNL A   1      40.200  33.652  32.856  1.00  0.00     0.144 C 
BRANCH   9  10
ATOM     10  N   UNL A   1      41.122  34.227  31.896  1.00  0.00    -0.270 N 
ATOM     11  C   UNL A   1      41.141  33.998  30.547  1.00  0.00     0.130 A 
ATOM     12  N   UNL A   1      42.174  34.938  32.332  1.00  0.00    -0.165 NA
ATOM     13  C   UNL A   1      42.316  34.542  30.089  1.00  0.00     0.092 A 
ATOM     14  C   UNL A   1      42.894  35.143  31.226  1.00  0.00     0.141 A 
ATOM     15  Cl  UNL A   1      42.912  34.454  28.505  1.00  0.00    -0.080 Cl
ATOM     16  I   UNL A   1      44.652  36.177  31.278  1.00  0.00    -0.018 I 
ENDBRANCH   9  10
ENDBRANCH   8   9
ENDBRANCH   7   8
ENDBRANCH   6   7
ENDBRANCH   5   6
ENDBRANCH   3   5
ENDBRANCH   2   3
ENDBRANCH   1   2
BRANCH   1  17
ATOM     17  C   UNL A   1      34.010  33.750  28.347  1.00  0.00     0.275 C 
BRANCH  17  18
ATOM     18  O   UNL A   1      35.263  33.119  28.163  1.00  0.00    -0.458 OA
BRANCH  18  19
ATOM     19  C   UNL A   1      35.230  31.781  27.939  1.00  0.00     0.338 C 
ATOM     20  O   UNL A   1      34.394  31.155  27.337  1.00  0.00    -0.246 OA
BRANCH  19  21
ATOM     21  C   UNL A   1      36.358  31.209  28.690  1.00  0.00     0.060 A 
ATOM     22  C   UNL A   1      37.451  32.047  28.906  1.00  0.00     0.016 A 
ATOM     23  C   UNL A   1      36.419  29.823  28.914  1.00  0.00     0.016 A 
ATOM     24  C   UNL A   1      38.678  31.460  29.103  1.00  0.00     0.010 A 
ATOM     25  C   UNL A   1      37.645  29.239  29.076  1.00  0.00     0.010 A 
ATOM     26  C   UNL A   1      38.763  30.064  29.078  1.00  0.00    -0.014 A 
BRANCH  26  27
ATOM     27  C   UNL A   1      40.067  29.456  29.198  1.00  0.00     0.031 A 
ATOM     28  C   UNL A   1      40.477  29.365  30.611  1.00  0.00     0.074 A 
ATOM     29  C   UNL A   1      40.726  28.966  28.131  1.00  0.00     0.049 A 
ATOM     30  N   UNL A   1      41.322  30.127  31.222  1.00  0.00    -0.248 NA
ATOM     31  C   UNL A   1      39.665  28.528  31.512  1.00  0.00     0.031 C 
ATOM     32  C   UNL A   1      40.212  28.795  26.768  1.00  0.00     0.029 A 
ATOM     33  N   UNL A   1      41.950  28.379  28.071  1.00  0.00    -0.354 N 
ATOM     34  C   UNL A   1      41.369  29.619  32.516  1.00  0.00     0.074 A 
ATOM     35  C   UNL A   1      40.138  28.906  32.700  1.00  0.00     0.031 C 
ATOM     36  C   UNL A   1      41.011  27.930  26.101  1.00  0.00     0.029 A 
ATOM     37  C   UNL A   1      42.139  27.579  26.946  1.00  0.00     0.049 A 
ATOM     38  H   UNL A   1      42.642  28.508  28.760  1.00  0.00     0.167 HD
ATOM     39  C   UNL A   1      42.574  29.467  33.132  1.00  0.00     0.034 A 
ATOM     40  C   UNL A   1      43.099  26.632  26.780  1.00  0.00     0.034 A 
ATOM     41  C   UNL A   1      43.577  30.289  32.483  1.00  0.00     0.049 A 
ATOM     42  C   UNL A   1      44.170  26.917  27.763  1.00  0.00     0.074 A 
ATOM     43  C   UNL A   1      43.702  31.626  32.160  1.00  0.00     0.029 A 
ATOM     44  N   UNL A   1      44.486  29.623  31.698  1.00  0.00    -0.354 N 
ATOM     45  N   UNL A   1      44.937  27.969  27.705  1.00  0.00    -0.248 NA
ATOM     46  C   UNL A   1      44.093  26.270  29.062  1.00  0.00     0.031 C 
ATOM     47  C   UNL A   1      44.383  31.650  30.906  1.00  0.00     0.029 A 
ATOM     48  C   UNL A   1      44.709  30.338  30.558  1.00  0.00     0.049 A 
ATOM     49  H   UNL A   1      44.910  28.763  31.921  1.00  0.00     0.167 HD
ATOM     50  C   UNL A   1      45.024  28.396  29.023  1.00  0.00     0.074 A 
ATOM     51  C   UNL A   1      44.600  27.245  29.821  1.00  0.00     0.031 C 
ATOM     52  C   UNL A   1      45.123  29.727  29.315  1.00  0.00     0.034 A 
BRANCH  39  53
ATOM     53  C   UNL A   1      42.978  28.222  33.922  1.00  0.00     0.023 A 
ATOM     54  C   UNL A   1      43.628  27.207  33.183  1.00  0.00     0.012 A 
ATOM     55  C   UNL A   1      42.489  27.852  35.199  1.00  0.00     0.148 A 
ATOM     56  C   UNL A   1      43.650  25.878  33.617  1.00  0.00     0.002 A 
ATOM     57  C   UNL A   1      42.555  26.539  35.649  1.00  0.00     0.091 A 
ATOM     58  F   UNL A   1      41.876  28.734  35.983  1.00  0.00    -0.205 F 
ATOM     59  C   UNL A   1      43.098  25.540  34.845  1.00  0.00     0.022 A 
BRANCH  57  60
ATOM     60  S   UNL A   1      41.873  26.048  37.243  1.00  0.00     0.127 S 
ATOM     61  O   UNL A   1      40.701  26.915  37.333  1.00  0.00    -0.237 OA
ATOM     62  O   UNL A   1      41.589  24.632  37.013  1.00  0.00    -0.237 OA
ATOM     63  O   UNL A   1      42.918  26.301  38.227  1.00  0.00    -0.744 OA
ENDBRANCH  57  60
ENDBRANCH  39  53
BRANCH  40  64
ATOM     64  C   UNL A   1      43.052  25.340  26.049  1.00  0.00     0.023 A 
ATOM     65  C   UNL A   1      44.080  25.018  25.137  1.00  0.00     0.012 A 
ATOM     66  C   UNL A   1      42.177  24.306  26.447  1.00  0.00     0.148 A 
ATOM     67  C   UNL A   1      44.254  23.709  24.671  1.00  0.00     0.002 A 
ATOM     68  C   UNL A   1      42.344  23.008  25.973  1.00  0.00     0.091 A 
ATOM     69  F   UNL A   1      41.237  24.569  27.365  1.00  0.00    -0.205 F 
ATOM     70  C   UNL A   1      43.392  22.701  25.096  1.00  0.00     0.022 A 
BRANCH  68  71
ATOM     71  S   UNL A   1      41.277  21.658  26.493  1.00  0.00     0.127 S 
ATOM     72  O   UNL A   1      41.829  20.529  25.743  1.00  0.00    -0.237 OA
ATOM     73  O   UNL A   1      41.519  21.615  27.933  1.00  0.00    -0.237 OA
ATOM     74  O   UNL A   1      39.928  22.038  26.091  1.00  0.00    -0.744 OA
ENDBRANCH  68  71
ENDBRANCH  40  64
BRANCH  52  75
ATOM     75  C   UNL A   1      45.501  30.666  28.201  1.00  0.00     0.023 A 
ATOM     76  C   UNL A   1      44.556  31.352  27.411  1.00  0.00     0.012 A 
ATOM     77  C   UNL A   1      46.865  30.961  28.041  1.00  0.00     0.148 A 
ATOM     78  C   UNL A   1      44.968  32.293  26.463  1.00  0.00     0.002 A 
ATOM     79  C   UNL A   1      47.267  31.929  27.133  1.00  0.00     0.091 A 
ATOM     80  F   UNL A   1      47.749  30.297  28.800  1.00  0.00    -0.205 F 
ATOM     81  C   UNL A   1      46.325  32.591  26.332  1.00  0.00     0.022 A 
BRANCH  79  82
ATOM     82  S   UNL A   1      48.986  32.426  27.010  1.00  0.00     0.127 S 
ATOM     83  O   UNL A   1      49.643  31.167  26.665  1.00  0.00    -0.237 OA
ATOM     84  O   UNL A   1      48.951  33.414  25.931  1.00  0.00    -0.237 OA
ATOM     85  O   UNL A   1      49.335  32.982  28.311  1.00  0.00    -0.744 OA
ENDBRANCH  79  82
ENDBRANCH  52  75
ENDBRANCH  26  27
ENDBRANCH  19  21
ENDBRANCH  18  19
ENDBRANCH  17  18
ENDBRANCH   1  17
TORSDOF 19
ENDMDL
