MODEL 1
REMARK VINA RESULT:     -14.1      0.000      0.000
REMARK SMILES O=C(OCCOC(=O)c1ccc(-c2c3nc(c(-c4cccc(S(=O)(=O)[O-])c4F)c4ccc([nH]4)c(-c4cccc(S(=O)(=O)[O-])c4F)c4nc(c(-c5cccc(S(=O)(=O)[O-])c5F)c5ccc2[nH]5)C=C4)C=C3)cc1)C1=Cc2cc(Cl)c(Cl)cc2O[C@@H]1C(F)(F)F
REMARK SMILES IDX 5 1 4 2 3 3 2 4 1 5 72 6 73 7 83 8 74 9 82 10 75 11 81 12
REMARK SMILES IDX 76 13 80 14 77 15 78 16 79 17 84 18 85 19 86 20 87 21 6 22
REMARK SMILES IDX 7 23 8 24 9 25 10 26 71 27 11 28 70 29 12 30 13 31 14 32
REMARK SMILES IDX 64 33 15 34 69 35 63 36 65 37 16 38 68 39 62 40 61 41 17 43
REMARK SMILES IDX 49 44 29 45 48 46 30 47 33 48 47 49 66 50 31 51 32 52 46 54
REMARK SMILES IDX 67 55 34 56 18 57 19 58 27 59 20 60 22 61 28 62 21 63 23 64
REMARK SMILES IDX 24 65 25 66 26 67 50 68 51 69 59 70 52 71 54 72 60 73 53 74
REMARK SMILES IDX 55 75 56 76 57 77 58 78 35 79 36 80 44 81 37 82 39 83 45 84
REMARK SMILES IDX 38 85 40 86 41 87 42 88 43 89
REMARK H PARENT 65 42 33 53
REMARK Flexibility Score: inf
ROOT
ATOM      1  C   UNL A   1      31.477  31.174  26.289  1.00  0.00     0.275 C 
ENDROOT
BRANCH   1   2
ATOM      2  C   UNL A   1      31.500  29.089  25.635  1.00  0.00     0.275 C 
BRANCH   2   3
ATOM      3  O   UNL A   1      31.143  28.561  24.262  1.00  0.00    -0.459 OA
BRANCH   3   4
ATOM      4  C   UNL A   1      31.266  27.233  24.188  1.00  0.00     0.338 C 
ATOM      5  O   UNL A   1      30.393  26.404  24.261  1.00  0.00    -0.246 OA
BRANCH   4   6
ATOM      6  C   UNL A   1      32.691  27.162  24.496  1.00  0.00     0.087 C 
ATOM      7  C   UNL A   1      33.057  26.274  25.579  1.00  0.00     0.027 C 
ATOM      8  C   UNL A   1      33.148  26.896  22.649  1.00  0.00     0.316 C 
ATOM      9  C   UNL A   1      33.763  24.658  25.359  1.00  0.00     0.019 A 
ATOM     10  O   UNL A   1      33.811  25.088  22.352  1.00  0.00    -0.475 OA
ATOM     11  C   UNL A   1      33.886  23.875  26.467  1.00  0.00     0.034 A 
ATOM     12  C   UNL A   1      34.050  23.973  23.794  1.00  0.00     0.129 A 
ATOM     13  C   UNL A   1      34.162  22.524  26.204  1.00  0.00     0.060 A 
ATOM     14  C   UNL A   1      34.310  22.645  23.614  1.00  0.00     0.069 A 
ATOM     15  Cl  UNL A   1      34.235  21.533  27.639  1.00  0.00    -0.083 Cl
ATOM     16  C   UNL A   1      34.334  21.939  24.857  1.00  0.00     0.063 A 
ATOM     17  Cl  UNL A   1      34.518  20.206  24.743  1.00  0.00    -0.083 Cl
BRANCH   8  18
ATOM     18  C   UNL A   1      33.801  28.409  22.628  1.00  0.00     0.430 C 
ATOM     19  F   UNL A   1      34.534  28.630  23.724  1.00  0.00    -0.167 F 
ATOM     20  F   UNL A   1      34.737  28.511  21.629  1.00  0.00    -0.167 F 
ATOM     21  F   UNL A   1      33.002  29.449  22.350  1.00  0.00    -0.167 F 
ENDBRANCH   8  18
ENDBRANCH   4   6
ENDBRANCH   3   4
ENDBRANCH   2   3
ENDBRANCH   1   2
BRANCH   1  22
ATOM     22  O   UNL A   1      32.602  31.826  27.470  1.00  0.00    -0.458 OA
BRANCH  22  23
ATOM     23  C   UNL A   1      33.549  32.822  27.652  1.00  0.00     0.338 C 
ATOM     24  O   UNL A   1      33.402  33.984  27.985  1.00  0.00    -0.246 OA
BRANCH  23  25
ATOM     25  C   UNL A   1      34.864  32.127  27.834  1.00  0.00     0.060 A 
ATOM     26  C   UNL A   1      36.021  32.908  28.047  1.00  0.00     0.016 A 
ATOM     27  C   UNL A   1      34.868  30.775  28.176  1.00  0.00     0.016 A 
ATOM     28  C   UNL A   1      37.098  32.377  28.784  1.00  0.00     0.010 A 
ATOM     29  C   UNL A   1      35.923  30.263  28.937  1.00  0.00     0.010 A 
ATOM     30  C   UNL A   1      37.024  31.071  29.290  1.00  0.00    -0.014 A 
BRANCH  30  31
ATOM     31  C   UNL A   1      38.228  30.412  29.856  1.00  0.00     0.031 A 
ATOM     32  C   UNL A   1      38.524  30.810  31.272  1.00  0.00     0.074 A 
ATOM     33  C   UNL A   1      39.061  29.590  29.183  1.00  0.00     0.049 A 
ATOM     34  N   UNL A   1      39.512  30.471  32.050  1.00  0.00    -0.248 NA
ATOM     35  C   UNL A   1      37.577  31.769  31.874  1.00  0.00     0.031 C 
ATOM     36  C   UNL A   1      38.916  29.151  27.794  1.00  0.00     0.029 A 
ATOM     37  N   UNL A   1      40.230  28.983  29.593  1.00  0.00    -0.354 N 
ATOM     38  C   UNL A   1      39.316  31.203  33.213  1.00  0.00     0.074 A 
ATOM     39  C   UNL A   1      38.175  32.057  33.010  1.00  0.00     0.031 C 
ATOM     40  C   UNL A   1      39.952  28.349  27.471  1.00  0.00     0.029 A 
ATOM     41  C   UNL A   1      40.846  28.220  28.621  1.00  0.00     0.049 A 
ATOM     42  H   UNL A   1      40.594  29.085  30.502  1.00  0.00     0.167 HD
ATOM     43  C   UNL A   1      39.999  31.147  34.374  1.00  0.00     0.034 A 
ATOM     44  C   UNL A   1      41.991  27.503  28.675  1.00  0.00     0.034 A 
ATOM     45  C   UNL A   1      41.139  30.311  34.569  1.00  0.00     0.049 A 
ATOM     46  C   UNL A   1      42.763  27.468  29.980  1.00  0.00     0.074 A 
ATOM     47  C   UNL A   1      41.900  30.144  35.708  1.00  0.00     0.029 A 
ATOM     48  N   UNL A   1      41.701  29.521  33.578  1.00  0.00    -0.354 N 
ATOM     49  N   UNL A   1      42.491  28.058  31.121  1.00  0.00    -0.248 NA
ATOM     50  C   UNL A   1      43.978  26.637  30.018  1.00  0.00     0.031 C 
ATOM     51  C   UNL A   1      42.959  29.290  35.389  1.00  0.00     0.029 A 
ATOM     52  C   UNL A   1      42.811  28.870  34.074  1.00  0.00     0.049 A 
ATOM     53  H   UNL A   1      41.359  29.437  32.659  1.00  0.00     0.167 HD
ATOM     54  C   UNL A   1      43.459  27.623  32.024  1.00  0.00     0.074 A 
ATOM     55  C   UNL A   1      44.326  26.718  31.297  1.00  0.00     0.031 C 
ATOM     56  C   UNL A   1      43.619  27.934  33.335  1.00  0.00     0.034 A 
BRANCH  43  57
ATOM     57  C   UNL A   1      39.508  32.042  35.474  1.00  0.00     0.023 A 
ATOM     58  C   UNL A   1      38.464  31.615  36.326  1.00  0.00     0.012 A 
ATOM     59  C   UNL A   1      40.016  33.345  35.600  1.00  0.00     0.148 A 
ATOM     60  C   UNL A   1      37.883  32.500  37.231  1.00  0.00     0.002 A 
ATOM     61  C   UNL A   1      39.477  34.198  36.552  1.00  0.00     0.091 A 
ATOM     62  F   UNL A   1      40.979  33.742  34.756  1.00  0.00    -0.205 F 
ATOM     63  C   UNL A   1      38.395  33.789  37.349  1.00  0.00     0.022 A 
BRANCH  61  64
ATOM     64  S   UNL A   1      40.121  35.847  36.835  1.00  0.00     0.127 S 
ATOM     65  O   UNL A   1      39.734  36.532  35.602  1.00  0.00    -0.237 OA
ATOM     66  O   UNL A   1      39.374  36.260  38.023  1.00  0.00    -0.237 OA
ATOM     67  O   UNL A   1      41.554  35.693  37.038  1.00  0.00    -0.744 OA
ENDBRANCH  61  64
ENDBRANCH  43  57
BRANCH  44  68
ATOM     68  C   UNL A   1      42.463  26.687  27.508  1.00  0.00     0.023 A 
ATOM     69  C   UNL A   1      43.173  27.317  26.462  1.00  0.00     0.012 A 
ATOM     70  C   UNL A   1      42.177  25.312  27.396  1.00  0.00     0.148 A 
ATOM     71  C   UNL A   1      43.554  26.608  25.319  1.00  0.00     0.002 A 
ATOM     72  C   UNL A   1      42.601  24.599  26.275  1.00  0.00     0.091 A 
ATOM     73  F   UNL A   1      41.489  24.726  28.385  1.00  0.00    -0.205 F 
ATOM     74  C   UNL A   1      43.274  25.249  25.228  1.00  0.00     0.022 A 
BRANCH  72  75
ATOM     75  S   UNL A   1      42.364  22.826  26.096  1.00  0.00     0.127 S 
ATOM     76  O   UNL A   1      42.945  22.575  24.778  1.00  0.00    -0.237 OA
ATOM     77  O   UNL A   1      43.143  22.306  27.220  1.00  0.00    -0.237 OA
ATOM     78  O   UNL A   1      40.928  22.605  26.196  1.00  0.00    -0.744 OA
ENDBRANCH  72  75
ENDBRANCH  44  68
BRANCH  56  79
ATOM     79  C   UNL A   1      44.707  27.235  34.107  1.00  0.00     0.023 A 
ATOM     80  C   UNL A   1      46.003  27.778  34.177  1.00  0.00     0.012 A 
ATOM     81  C   UNL A   1      44.394  26.085  34.861  1.00  0.00     0.148 A 
ATOM     82  C   UNL A   1      46.982  27.165  34.958  1.00  0.00     0.002 A 
ATOM     83  C   UNL A   1      45.354  25.520  35.687  1.00  0.00     0.091 A 
ATOM     84  F   UNL A   1      43.155  25.579  34.771  1.00  0.00    -0.205 F 
ATOM     85  C   UNL A   1      46.654  26.048  35.725  1.00  0.00     0.022 A 
BRANCH  83  86
ATOM     86  S   UNL A   1      44.981  24.159  36.797  1.00  0.00     0.127 S 
ATOM     87  O   UNL A   1      46.253  23.989  37.496  1.00  0.00    -0.237 OA
ATOM     88  O   UNL A   1      43.904  24.715  37.617  1.00  0.00    -0.237 OA
ATOM     89  O   UNL A   1      44.581  23.044  35.951  1.00  0.00    -0.744 OA
ENDBRANCH  83  86
ENDBRANCH  56  79
ENDBRANCH  30  31
ENDBRANCH  23  25
ENDBRANCH  22  23
ENDBRANCH   1  22
TORSDOF 15
ENDMDL
MODEL 2
REMARK VINA RESULT:     -13.8      5.336     10.298
REMARK SMILES O=C(OCCOC(=O)c1ccc(-c2c3nc(c(-c4cccc(S(=O)(=O)[O-])c4F)c4ccc([nH]4)c(-c4cccc(S(=O)(=O)[O-])c4F)c4nc(c(-c5cccc(S(=O)(=O)[O-])c5F)c5ccc2[nH]5)C=C4)C=C3)cc1)C1=Cc2cc(Cl)c(Cl)cc2O[C@@H]1C(F)(F)F
REMARK SMILES IDX 5 1 4 2 3 3 2 4 1 5 72 6 73 7 83 8 74 9 82 10 75 11 81 12
REMARK SMILES IDX 76 13 80 14 77 15 78 16 79 17 84 18 85 19 86 20 87 21 6 22
REMARK SMILES IDX 7 23 8 24 9 25 10 26 71 27 11 28 70 29 12 30 13 31 14 32
REMARK SMILES IDX 64 33 15 34 69 35 63 36 65 37 16 38 68 39 62 40 61 41 17 43
REMARK SMILES IDX 49 44 29 45 48 46 30 47 33 48 47 49 66 50 31 51 32 52 46 54
REMARK SMILES IDX 67 55 34 56 18 57 19 58 27 59 20 60 22 61 28 62 21 63 23 64
REMARK SMILES IDX 24 65 25 66 26 67 50 68 51 69 59 70 52 71 54 72 60 73 53 74
REMARK SMILES IDX 55 75 56 76 57 77 58 78 35 79 36 80 44 81 37 82 39 83 45 84
REMARK SMILES IDX 38 85 40 86 41 87 42 88 43 89
REMARK H PARENT 65 42 33 53
REMARK Flexibility Score: inf
ROOT
ATOM      1  C   UNL A   1      36.613  20.757  25.231  1.00  0.00     0.275 C 
ENDROOT
BRANCH   1   2
ATOM      2  C   UNL A   1      35.028  21.628  26.458  1.00  0.00     0.275 C 
BRANCH   2   3
ATOM      3  O   UNL A   1      33.731  22.237  25.973  1.00  0.00    -0.459 OA
BRANCH   3   4
ATOM      4  C   UNL A   1      32.850  21.306  25.594  1.00  0.00     0.338 C 
ATOM      5  O   UNL A   1      33.019  20.114  25.523  1.00  0.00    -0.246 OA
BRANCH   4   6
ATOM      6  C   UNL A   1      31.936  22.194  24.884  1.00  0.00     0.087 C 
ATOM      7  C   UNL A   1      31.401  23.296  25.655  1.00  0.00     0.027 C 
ATOM      8  C   UNL A   1      33.145  22.369  23.402  1.00  0.00     0.316 C 
ATOM      9  C   UNL A   1      31.970  24.975  25.537  1.00  0.00     0.019 A 
ATOM     10  O   UNL A   1      33.884  24.170  23.319  1.00  0.00    -0.475 OA
ATOM     11  C   UNL A   1      31.493  25.861  26.455  1.00  0.00     0.034 A 
ATOM     12  C   UNL A   1      33.267  25.446  24.490  1.00  0.00     0.129 A 
ATOM     13  C   UNL A   1      32.187  27.081  26.509  1.00  0.00     0.060 A 
ATOM     14  C   UNL A   1      33.899  26.651  24.605  1.00  0.00     0.069 A 
ATOM     15  Cl  UNL A   1      31.601  28.163  27.747  1.00  0.00    -0.083 Cl
ATOM     16  C   UNL A   1      33.339  27.442  25.657  1.00  0.00     0.063 A 
ATOM     17  Cl  UNL A   1      34.157  28.947  25.992  1.00  0.00    -0.083 Cl
BRANCH   8  18
ATOM     18  C   UNL A   1      32.101  21.480  22.488  1.00  0.00     0.430 C 
ATOM     19  F   UNL A   1      30.865  21.987  22.543  1.00  0.00    -0.167 F 
ATOM     20  F   UNL A   1      32.407  21.607  21.155  1.00  0.00    -0.167 F 
ATOM     21  F   UNL A   1      32.096  20.147  22.633  1.00  0.00    -0.167 F 
ENDBRANCH   8  18
ENDBRANCH   4   6
ENDBRANCH   3   4
ENDBRANCH   2   3
ENDBRANCH   1   2
BRANCH   1  22
ATOM     22  O   UNL A   1      38.298  21.238  25.349  1.00  0.00    -0.458 OA
BRANCH  22  23
ATOM     23  C   UNL A   1      39.435  21.078  26.125  1.00  0.00     0.338 C 
ATOM     24  O   UNL A   1      40.339  20.267  26.024  1.00  0.00    -0.246 OA
BRANCH  23  25
ATOM     25  C   UNL A   1      39.636  22.372  26.853  1.00  0.00     0.060 A 
ATOM     26  C   UNL A   1      40.709  22.477  27.764  1.00  0.00     0.016 A 
ATOM     27  C   UNL A   1      39.039  23.526  26.347  1.00  0.00     0.016 A 
ATOM     28  C   UNL A   1      41.302  23.733  28.005  1.00  0.00     0.010 A 
ATOM     29  C   UNL A   1      39.652  24.764  26.561  1.00  0.00     0.010 A 
ATOM     30  C   UNL A   1      40.816  24.874  27.350  1.00  0.00    -0.014 A 
BRANCH  30  31
ATOM     31  C   UNL A   1      41.261  26.229  27.764  1.00  0.00     0.031 A 
ATOM     32  C   UNL A   1      42.667  26.553  27.354  1.00  0.00     0.074 A 
ATOM     33  C   UNL A   1      40.543  27.095  28.511  1.00  0.00     0.049 A 
ATOM     34  N   UNL A   1      43.387  27.613  27.588  1.00  0.00    -0.248 NA
ATOM     35  C   UNL A   1      43.370  25.495  26.602  1.00  0.00     0.031 C 
ATOM     36  C   UNL A   1      39.183  26.894  29.010  1.00  0.00     0.029 A 
ATOM     37  N   UNL A   1      40.886  28.339  28.999  1.00  0.00    -0.354 N 
ATOM     38  C   UNL A   1      44.630  27.327  27.041  1.00  0.00     0.074 A 
ATOM     39  C   UNL A   1      44.593  25.977  26.542  1.00  0.00     0.031 C 
ATOM     40  C   UNL A   1      38.810  27.973  29.730  1.00  0.00     0.029 A 
ATOM     41  C   UNL A   1      39.904  28.942  29.758  1.00  0.00     0.049 A 
ATOM     42  H   UNL A   1      41.758  28.761  28.820  1.00  0.00     0.167 HD
ATOM     43  C   UNL A   1      45.707  28.129  26.922  1.00  0.00     0.034 A 
ATOM     44  C   UNL A   1      39.903  30.140  30.385  1.00  0.00     0.034 A 
ATOM     45  C   UNL A   1      45.748  29.461  27.432  1.00  0.00     0.049 A 
ATOM     46  C   UNL A   1      41.131  31.022  30.265  1.00  0.00     0.074 A 
ATOM     47  C   UNL A   1      46.771  30.383  27.350  1.00  0.00     0.029 A 
ATOM     48  N   UNL A   1      44.719  30.050  28.150  1.00  0.00    -0.354 N 
ATOM     49  N   UNL A   1      42.255  30.797  29.625  1.00  0.00    -0.248 NA
ATOM     50  C   UNL A   1      41.077  32.341  30.918  1.00  0.00     0.031 C 
ATOM     51  C   UNL A   1      46.380  31.516  28.069  1.00  0.00     0.029 A 
ATOM     52  C   UNL A   1      45.086  31.323  28.532  1.00  0.00     0.049 A 
ATOM     53  H   UNL A   1      43.857  29.623  28.357  1.00  0.00     0.167 HD
ATOM     54  C   UNL A   1      43.011  31.961  29.745  1.00  0.00     0.074 A 
ATOM     55  C   UNL A   1      42.217  32.891  30.520  1.00  0.00     0.031 C 
ATOM     56  C   UNL A   1      44.246  32.242  29.258  1.00  0.00     0.034 A 
BRANCH  43  57
ATOM     57  C   UNL A   1      46.901  27.535  26.234  1.00  0.00     0.023 A 
ATOM     58  C   UNL A   1      47.867  26.819  26.977  1.00  0.00     0.012 A 
ATOM     59  C   UNL A   1      47.115  27.772  24.867  1.00  0.00     0.148 A 
ATOM     60  C   UNL A   1      49.062  26.418  26.384  1.00  0.00     0.002 A 
ATOM     61  C   UNL A   1      48.278  27.310  24.267  1.00  0.00     0.091 A 
ATOM     62  F   UNL A   1      46.205  28.488  24.190  1.00  0.00    -0.205 F 
ATOM     63  C   UNL A   1      49.263  26.658  25.028  1.00  0.00     0.022 A 
BRANCH  61  64
ATOM     64  S   UNL A   1      48.592  27.496  22.513  1.00  0.00     0.127 S 
ATOM     65  O   UNL A   1      49.900  28.150  22.515  1.00  0.00    -0.237 OA
ATOM     66  O   UNL A   1      48.605  26.105  22.062  1.00  0.00    -0.237 OA
ATOM     67  O   UNL A   1      47.496  28.298  21.988  1.00  0.00    -0.744 OA
ENDBRANCH  61  64
ENDBRANCH  43  57
BRANCH  44  68
ATOM     68  C   UNL A   1      38.695  30.641  31.121  1.00  0.00     0.023 A 
ATOM     69  C   UNL A   1      38.567  30.379  32.504  1.00  0.00     0.012 A 
ATOM     70  C   UNL A   1      37.654  31.327  30.466  1.00  0.00     0.148 A 
ATOM     71  C   UNL A   1      37.418  30.755  33.205  1.00  0.00     0.002 A 
ATOM     72  C   UNL A   1      36.531  31.740  31.181  1.00  0.00     0.091 A 
ATOM     73  F   UNL A   1      37.778  31.556  29.151  1.00  0.00    -0.205 F 
ATOM     74  C   UNL A   1      36.403  31.440  32.546  1.00  0.00     0.022 A 
BRANCH  72  75
ATOM     75  S   UNL A   1      35.203  32.703  30.445  1.00  0.00     0.127 S 
ATOM     76  O   UNL A   1      35.899  33.925  30.046  1.00  0.00    -0.237 OA
ATOM     77  O   UNL A   1      34.789  31.842  29.337  1.00  0.00    -0.237 OA
ATOM     78  O   UNL A   1      34.205  32.869  31.493  1.00  0.00    -0.744 OA
ENDBRANCH  72  75
ENDBRANCH  44  68
BRANCH  56  79
ATOM     79  C   UNL A   1      44.792  33.632  29.457  1.00  0.00     0.023 A 
ATOM     80  C   UNL A   1      45.541  33.952  30.604  1.00  0.00     0.012 A 
ATOM     81  C   UNL A   1      44.648  34.587  28.431  1.00  0.00     0.148 A 
ATOM     82  C   UNL A   1      46.109  35.219  30.742  1.00  0.00     0.002 A 
ATOM     83  C   UNL A   1      45.271  35.822  28.546  1.00  0.00     0.091 A 
ATOM     84  F   UNL A   1      43.921  34.263  27.352  1.00  0.00    -0.205 F 
ATOM     85  C   UNL A   1      45.988  36.146  29.708  1.00  0.00     0.022 A 
BRANCH  83  86
ATOM     86  S   UNL A   1      45.269  37.023  27.212  1.00  0.00     0.127 S 
ATOM     87  O   UNL A   1      46.016  38.129  27.807  1.00  0.00    -0.237 OA
ATOM     88  O   UNL A   1      45.978  36.308  26.151  1.00  0.00    -0.237 OA
ATOM     89  O   UNL A   1      43.869  37.302  26.920  1.00  0.00    -0.744 OA
ENDBRANCH  83  86
ENDBRANCH  56  79
ENDBRANCH  30  31
ENDBRANCH  23  25
ENDBRANCH  22  23
ENDBRANCH   1  22
TORSDOF 15
ENDMDL
MODEL 3
REMARK VINA RESULT:     -13.8      5.104     10.303
REMARK SMILES O=C(OCCOC(=O)c1ccc(-c2c3nc(c(-c4cccc(S(=O)(=O)[O-])c4F)c4ccc([nH]4)c(-c4cccc(S(=O)(=O)[O-])c4F)c4nc(c(-c5cccc(S(=O)(=O)[O-])c5F)c5ccc2[nH]5)C=C4)C=C3)cc1)C1=Cc2cc(Cl)c(Cl)cc2O[C@@H]1C(F)(F)F
REMARK SMILES IDX 5 1 4 2 3 3 2 4 1 5 72 6 73 7 83 8 74 9 82 10 75 11 81 12
REMARK SMILES IDX 76 13 80 14 77 15 78 16 79 17 84 18 85 19 86 20 87 21 6 22
REMARK SMILES IDX 7 23 8 24 9 25 10 26 71 27 11 28 70 29 12 30 13 31 14 32
REMARK SMILES IDX 64 33 15 34 69 35 63 36 65 37 16 38 68 39 62 40 61 41 17 43
REMARK SMILES IDX 49 44 29 45 48 46 30 47 33 48 47 49 66 50 31 51 32 52 46 54
REMARK SMILES IDX 67 55 34 56 18 57 19 58 27 59 20 60 22 61 28 62 21 63 23 64
REMARK SMILES IDX 24 65 25 66 26 67 50 68 51 69 59 70 52 71 54 72 60 73 53 74
REMARK SMILES IDX 55 75 56 76 57 77 58 78 35 79 36 80 44 81 37 82 39 83 45 84
REMARK SMILES IDX 38 85 40 86 41 87 42 88 43 89
REMARK H PARENT 65 42 33 53
REMARK Flexibility Score: inf
ROOT
ATOM      1  C   UNL A   1      37.380  20.734  24.995  1.00  0.00     0.275 C 
ENDROOT
BRANCH   1   2
ATOM      2  C   UNL A   1      36.194  22.256  23.970  1.00  0.00     0.275 C 
BRANCH   2   3
ATOM      3  O   UNL A   1      35.644  23.535  24.564  1.00  0.00    -0.459 OA
BRANCH   3   4
ATOM      4  C   UNL A   1      34.608  24.007  23.864  1.00  0.00     0.338 C 
ATOM      5  O   UNL A   1      34.620  24.490  22.759  1.00  0.00    -0.246 OA
BRANCH   4   6
ATOM      6  C   UNL A   1      33.696  24.196  24.988  1.00  0.00     0.087 C 
ATOM      7  C   UNL A   1      33.566  25.553  25.472  1.00  0.00     0.027 C 
ATOM      8  C   UNL A   1      32.305  23.197  24.117  1.00  0.00     0.316 C 
ATOM      9  C   UNL A   1      32.192  26.621  25.115  1.00  0.00     0.019 A 
ATOM     10  O   UNL A   1      30.833  24.365  23.601  1.00  0.00    -0.475 OA
ATOM     11  C   UNL A   1      32.300  27.925  25.493  1.00  0.00     0.034 A 
ATOM     12  C   UNL A   1      30.872  26.132  24.105  1.00  0.00     0.129 A 
ATOM     13  C   UNL A   1      31.338  28.781  24.933  1.00  0.00     0.060 A 
ATOM     14  C   UNL A   1      29.975  27.024  23.592  1.00  0.00     0.069 A 
ATOM     15  Cl  UNL A   1      31.551  30.456  25.374  1.00  0.00    -0.083 Cl
ATOM     16  C   UNL A   1      30.259  28.361  24.014  1.00  0.00     0.063 A 
ATOM     17  Cl  UNL A   1      29.262  29.608  23.308  1.00  0.00    -0.083 Cl
BRANCH   8  18
ATOM     18  C   UNL A   1      32.523  21.994  25.222  1.00  0.00     0.430 C 
ATOM     19  F   UNL A   1      32.678  22.495  26.452  1.00  0.00    -0.167 F 
ATOM     20  F   UNL A   1      31.375  21.253  25.354  1.00  0.00    -0.167 F 
ATOM     21  F   UNL A   1      33.427  21.038  24.961  1.00  0.00    -0.167 F 
ENDBRANCH   8  18
ENDBRANCH   4   6
ENDBRANCH   3   4
ENDBRANCH   2   3
ENDBRANCH   1   2
BRANCH   1  22
ATOM     22  O   UNL A   1      39.075  20.945  25.404  1.00  0.00    -0.458 OA
BRANCH  22  23
ATOM     23  C   UNL A   1      39.984  20.785  26.438  1.00  0.00     0.338 C 
ATOM     24  O   UNL A   1      40.824  19.919  26.609  1.00  0.00    -0.246 OA
BRANCH  23  25
ATOM     25  C   UNL A   1      40.104  22.121  27.106  1.00  0.00     0.060 A 
ATOM     26  C   UNL A   1      41.108  22.303  28.082  1.00  0.00     0.016 A 
ATOM     27  C   UNL A   1      39.517  23.230  26.499  1.00  0.00     0.016 A 
ATOM     28  C   UNL A   1      41.654  23.585  28.293  1.00  0.00     0.010 A 
ATOM     29  C   UNL A   1      40.085  24.494  26.686  1.00  0.00     0.010 A 
ATOM     30  C   UNL A   1      41.188  24.676  27.546  1.00  0.00    -0.014 A 
BRANCH  30  31
ATOM     31  C   UNL A   1      41.571  26.062  27.915  1.00  0.00     0.031 A 
ATOM     32  C   UNL A   1      42.972  26.426  27.519  1.00  0.00     0.074 A 
ATOM     33  C   UNL A   1      40.806  26.928  28.613  1.00  0.00     0.049 A 
ATOM     34  N   UNL A   1      43.645  27.522  27.726  1.00  0.00    -0.248 NA
ATOM     35  C   UNL A   1      43.731  25.368  26.822  1.00  0.00     0.031 C 
ATOM     36  C   UNL A   1      39.444  26.693  29.094  1.00  0.00     0.029 A 
ATOM     37  N   UNL A   1      41.090  28.202  29.059  1.00  0.00    -0.354 N 
ATOM     38  C   UNL A   1      44.909  27.265  27.214  1.00  0.00     0.074 A 
ATOM     39  C   UNL A   1      44.935  25.896  26.767  1.00  0.00     0.031 C 
ATOM     40  C   UNL A   1      39.015  27.783  29.764  1.00  0.00     0.029 A 
ATOM     41  C   UNL A   1      40.070  28.795  29.775  1.00  0.00     0.049 A 
ATOM     42  H   UNL A   1      41.949  28.651  28.881  1.00  0.00     0.167 HD
ATOM     43  C   UNL A   1      45.957  28.103  27.084  1.00  0.00     0.034 A 
ATOM     44  C   UNL A   1      40.010  30.015  30.355  1.00  0.00     0.034 A 
ATOM     45  C   UNL A   1      45.936  29.455  27.542  1.00  0.00     0.049 A 
ATOM     46  C   UNL A   1      41.205  30.940  30.224  1.00  0.00     0.074 A 
ATOM     47  C   UNL A   1      46.924  30.413  27.443  1.00  0.00     0.029 A 
ATOM     48  N   UNL A   1      44.871  30.029  28.217  1.00  0.00    -0.354 N 
ATOM     49  N   UNL A   1      42.350  30.734  29.614  1.00  0.00    -0.248 NA
ATOM     50  C   UNL A   1      41.086  32.279  30.824  1.00  0.00     0.031 C 
ATOM     51  C   UNL A   1      46.475  31.556  28.109  1.00  0.00     0.029 A 
ATOM     52  C   UNL A   1      45.180  31.330  28.555  1.00  0.00     0.049 A 
ATOM     53  H   UNL A   1      44.021  29.577  28.424  1.00  0.00     0.167 HD
ATOM     54  C   UNL A   1      43.058  31.931  29.703  1.00  0.00     0.074 A 
ATOM     55  C   UNL A   1      42.212  32.859  30.426  1.00  0.00     0.031 C 
ATOM     56  C   UNL A   1      44.290  32.242  29.228  1.00  0.00     0.034 A 
BRANCH  43  57
ATOM     57  C   UNL A   1      47.187  27.531  26.442  1.00  0.00     0.023 A 
ATOM     58  C   UNL A   1      47.390  27.665  25.050  1.00  0.00     0.012 A 
ATOM     59  C   UNL A   1      48.093  26.776  27.205  1.00  0.00     0.148 A 
ATOM     60  C   UNL A   1      48.431  26.989  24.418  1.00  0.00     0.002 A 
ATOM     61  C   UNL A   1      49.167  26.162  26.578  1.00  0.00     0.091 A 
ATOM     62  F   UNL A   1      47.859  26.630  28.517  1.00  0.00    -0.205 F 
ATOM     63  C   UNL A   1      49.324  26.244  25.184  1.00  0.00     0.022 A 
BRANCH  61  64
ATOM     64  S   UNL A   1      50.414  25.250  27.486  1.00  0.00     0.127 S 
ATOM     65  O   UNL A   1      51.401  24.978  26.442  1.00  0.00    -0.237 OA
ATOM     66  O   UNL A   1      50.835  26.232  28.484  1.00  0.00    -0.237 OA
ATOM     67  O   UNL A   1      49.743  24.077  28.028  1.00  0.00    -0.744 OA
ENDBRANCH  61  64
ENDBRANCH  43  57
BRANCH  44  68
ATOM     68  C   UNL A   1      38.769  30.495  31.048  1.00  0.00     0.023 A 
ATOM     69  C   UNL A   1      38.588  30.216  32.421  1.00  0.00     0.012 A 
ATOM     70  C   UNL A   1      37.748  31.180  30.359  1.00  0.00     0.148 A 
ATOM     71  C   UNL A   1      37.408  30.572  33.080  1.00  0.00     0.002 A 
ATOM     72  C   UNL A   1      36.593  31.574  31.033  1.00  0.00     0.091 A 
ATOM     73  F   UNL A   1      37.922  31.426  29.053  1.00  0.00    -0.205 F 
ATOM     74  C   UNL A   1      36.413  31.256  32.388  1.00  0.00     0.022 A 
BRANCH  72  75
ATOM     75  S   UNL A   1      35.286  32.533  30.256  1.00  0.00     0.127 S 
ATOM     76  O   UNL A   1      34.331  32.687  31.352  1.00  0.00    -0.237 OA
ATOM     77  O   UNL A   1      35.996  33.758  29.883  1.00  0.00    -0.237 OA
ATOM     78  O   UNL A   1      34.821  31.733  29.132  1.00  0.00    -0.744 OA
ENDBRANCH  72  75
ENDBRANCH  44  68
BRANCH  56  79
ATOM     79  C   UNL A   1      44.778  33.659  29.384  1.00  0.00     0.023 A 
ATOM     80  C   UNL A   1      45.497  34.051  30.528  1.00  0.00     0.012 A 
ATOM     81  C   UNL A   1      44.612  34.570  28.321  1.00  0.00     0.148 A 
ATOM     82  C   UNL A   1      46.012  35.343  30.626  1.00  0.00     0.002 A 
ATOM     83  C   UNL A   1      45.184  35.832  28.399  1.00  0.00     0.091 A 
ATOM     84  F   UNL A   1      43.914  34.177  27.245  1.00  0.00    -0.205 F 
ATOM     85  C   UNL A   1      45.870  36.227  29.557  1.00  0.00     0.022 A 
BRANCH  83  86
ATOM     86  S   UNL A   1      45.154  36.982  27.021  1.00  0.00     0.127 S 
ATOM     87  O   UNL A   1      45.831  36.214  25.978  1.00  0.00    -0.237 OA
ATOM     88  O   UNL A   1      43.719  37.171  26.806  1.00  0.00    -0.237 OA
ATOM     89  O   UNL A   1      45.858  38.174  27.474  1.00  0.00    -0.744 OA
ENDBRANCH  83  86
ENDBRANCH  56  79
ENDBRANCH  30  31
ENDBRANCH  23  25
ENDBRANCH  22  23
ENDBRANCH   1  22
TORSDOF 15
ENDMDL
