MODEL 1
REMARK VINA RESULT:     -12.0      0.000      0.000
REMARK SMILES CC[C@@H](C)[C@@H](NC(=O)Cn1ncc2ccccc2c1=O)C(=O)OCCOC(=O)c1ccc(-c2c3nc(c(-c4cccc(S(=O)(=O)[O-])c4F)c4ccc([nH]4)c(-c4cccc(S(=O)(=O)[O-])c4F)c4nc(c(-c5cccc(S(=O)(=O)[O-])c5F)c5ccc2[nH]5)C=C4)C=C3)cc1
REMARK SMILES IDX 24 1 23 2 21 3 22 4 5 5 3 6 4 7 2 8 1 9 6 10 7 11 8 13 9 14
REMARK SMILES IDX 10 15 11 16 19 17 12 18 18 19 20 20 13 21 17 22 14 23 16 24
REMARK SMILES IDX 15 25 25 26 26 27 27 28 28 29 29 30 30 31 91 32 31 33 90 34
REMARK SMILES IDX 32 35 33 36 34 37 84 38 35 39 89 40 83 41 85 42 36 43 88 44
REMARK SMILES IDX 82 45 81 46 37 48 69 49 49 50 68 51 50 52 53 53 67 54 86 55
REMARK SMILES IDX 51 56 52 57 66 59 87 60 54 61 38 62 39 63 47 64 40 65 42 66
REMARK SMILES IDX 48 67 41 68 43 69 44 70 45 71 46 72 70 73 71 74 79 75 72 76
REMARK SMILES IDX 74 77 80 78 73 79 75 80 76 81 77 82 78 83 55 84 56 85 64 86
REMARK SMILES IDX 57 87 59 88 65 89 58 90 60 91 61 92 62 93 63 94
REMARK H PARENT 6 12 85 47 53 58
REMARK Flexibility Score: inf
ROOT
ATOM      1  C   UNL A   1      32.070  29.677  24.634  1.00  0.00     0.274 C 
ENDROOT
BRANCH   1   2
ATOM      2  O   UNL A   1      30.746  29.509  24.065  1.00  0.00    -0.461 OA
BRANCH   2   3
ATOM      3  C   UNL A   1      30.682  28.742  22.948  1.00  0.00     0.329 C 
ATOM      4  O   UNL A   1      30.320  29.173  21.855  1.00  0.00    -0.250 OA
BRANCH   3   5
ATOM      5  C   UNL A   1      30.974  27.237  23.145  1.00  0.00     0.195 C 
BRANCH   5   6
ATOM      6  C   UNL A   1      30.064  26.222  23.900  1.00  0.00     0.019 C 
ATOM      7  C   UNL A   1      28.569  26.481  23.742  1.00  0.00     0.010 C 
BRANCH   6   8
ATOM      8  C   UNL A   1      30.441  26.186  25.411  1.00  0.00     0.002 C 
ATOM      9  C   UNL A   1      31.938  26.285  25.689  1.00  0.00     0.004 C 
ENDBRANCH   6   8
ENDBRANCH   5   6
BRANCH   5  10
ATOM     10  N   UNL A   1      31.555  26.668  21.910  1.00  0.00    -0.341 N 
ATOM     11  C   UNL A   1      32.741  26.056  21.631  1.00  0.00     0.242 C 
ATOM     12  H   UNL A   1      30.963  26.749  21.128  1.00  0.00     0.164 HD
ATOM     13  O   UNL A   1      32.981  25.858  20.432  1.00  0.00    -0.273 OA
BRANCH  11  14
ATOM     14  C   UNL A   1      33.646  25.427  22.701  1.00  0.00     0.248 C 
BRANCH  14  15
ATOM     15  N   UNL A   1      33.294  24.143  23.290  1.00  0.00    -0.220 N 
ATOM     16  N   UNL A   1      32.030  23.661  23.084  1.00  0.00    -0.177 NA
ATOM     17  C   UNL A   1      34.237  23.490  24.087  1.00  0.00     0.275 A 
ATOM     18  C   UNL A   1      31.801  22.413  23.350  1.00  0.00     0.142 A 
ATOM     19  C   UNL A   1      33.989  22.053  24.331  1.00  0.00     0.050 A 
ATOM     20  O   UNL A   1      35.285  23.995  24.483  1.00  0.00    -0.267 OA
ATOM     21  C   UNL A   1      32.808  21.500  23.865  1.00  0.00     0.007 A 
ATOM     22  C   UNL A   1      34.979  21.221  24.865  1.00  0.00     0.014 A 
ATOM     23  C   UNL A   1      32.604  20.121  23.859  1.00  0.00     0.010 A 
ATOM     24  C   UNL A   1      34.784  19.837  24.874  1.00  0.00     0.001 A 
ATOM     25  C   UNL A   1      33.607  19.288  24.355  1.00  0.00     0.001 A 
ENDBRANCH  14  15
ENDBRANCH  11  14
ENDBRANCH   5  10
ENDBRANCH   3   5
ENDBRANCH   2   3
ENDBRANCH   1   2
BRANCH   1  26
ATOM     26  C   UNL A   1      31.991  30.130  26.089  1.00  0.00     0.275 C 
BRANCH  26  27
ATOM     27  O   UNL A   1      33.320  30.143  26.623  1.00  0.00    -0.458 OA
BRANCH  27  28
ATOM     28  C   UNL A   1      33.681  31.309  27.210  1.00  0.00     0.338 C 
ATOM     29  O   UNL A   1      33.023  32.316  27.329  1.00  0.00    -0.246 OA
BRANCH  28  30
ATOM     30  C   UNL A   1      34.959  31.041  27.882  1.00  0.00     0.060 A 
ATOM     31  C   UNL A   1      35.174  29.804  28.480  1.00  0.00     0.016 A 
ATOM     32  C   UNL A   1      35.911  32.064  27.959  1.00  0.00     0.016 A 
ATOM     33  C   UNL A   1      36.360  29.595  29.170  1.00  0.00     0.010 A 
ATOM     34  C   UNL A   1      37.104  31.850  28.638  1.00  0.00     0.010 A 
ATOM     35  C   UNL A   1      37.330  30.611  29.244  1.00  0.00    -0.014 A 
BRANCH  35  36
ATOM     36  C   UNL A   1      38.631  30.299  29.858  1.00  0.00     0.031 A 
ATOM     37  C   UNL A   1      38.991  30.825  31.209  1.00  0.00     0.074 A 
ATOM     38  C   UNL A   1      39.441  29.467  29.178  1.00  0.00     0.049 A 
ATOM     39  N   UNL A   1      39.967  30.445  31.987  1.00  0.00    -0.248 NA
ATOM     40  C   UNL A   1      38.162  31.907  31.763  1.00  0.00     0.031 C 
ATOM     41  C   UNL A   1      39.181  28.970  27.823  1.00  0.00     0.029 A 
ATOM     42  N   UNL A   1      40.614  28.864  29.536  1.00  0.00    -0.354 N 
ATOM     43  C   UNL A   1      39.874  31.237  33.123  1.00  0.00     0.074 A 
ATOM     44  C   UNL A   1      38.759  32.136  32.928  1.00  0.00     0.031 C 
ATOM     45  C   UNL A   1      40.133  28.087  27.490  1.00  0.00     0.029 A 
ATOM     46  C   UNL A   1      41.069  27.965  28.601  1.00  0.00     0.049 A 
ATOM     47  H   UNL A   1      41.086  29.055  30.379  1.00  0.00     0.167 HD
ATOM     48  C   UNL A   1      40.646  31.185  34.232  1.00  0.00     0.034 A 
ATOM     49  C   UNL A   1      42.103  27.107  28.657  1.00  0.00     0.034 A 
ATOM     50  C   UNL A   1      41.732  30.259  34.403  1.00  0.00     0.049 A 
ATOM     51  C   UNL A   1      42.913  27.049  29.918  1.00  0.00     0.074 A 
ATOM     52  C   UNL A   1      42.534  30.074  35.513  1.00  0.00     0.029 A 
ATOM     53  N   UNL A   1      42.171  29.371  33.433  1.00  0.00    -0.354 N 
ATOM     54  N   UNL A   1      42.724  27.698  31.041  1.00  0.00    -0.248 NA
ATOM     55  C   UNL A   1      44.057  26.131  29.933  1.00  0.00     0.031 C 
ATOM     56  C   UNL A   1      43.471  29.085  35.209  1.00  0.00     0.029 A 
ATOM     57  C   UNL A   1      43.243  28.643  33.914  1.00  0.00     0.049 A 
ATOM     58  H   UNL A   1      41.778  29.274  32.536  1.00  0.00     0.167 HD
ATOM     59  C   UNL A   1      43.714  27.254  31.906  1.00  0.00     0.074 A 
ATOM     60  C   UNL A   1      44.490  26.268  31.181  1.00  0.00     0.031 C 
ATOM     61  C   UNL A   1      43.967  27.640  33.179  1.00  0.00     0.034 A 
BRANCH  48  62
ATOM     62  C   UNL A   1      40.326  32.098  35.382  1.00  0.00     0.023 A 
ATOM     63  C   UNL A   1      40.954  33.357  35.451  1.00  0.00     0.012 A 
ATOM     64  C   UNL A   1      39.300  31.781  36.292  1.00  0.00     0.148 A 
ATOM     65  C   UNL A   1      40.559  34.293  36.405  1.00  0.00     0.002 A 
ATOM     66  C   UNL A   1      38.893  32.730  37.223  1.00  0.00     0.091 A 
ATOM     67  F   UNL A   1      38.723  30.575  36.206  1.00  0.00    -0.205 F 
ATOM     68  C   UNL A   1      39.522  33.985  37.281  1.00  0.00     0.022 A 
BRANCH  66  69
ATOM     69  S   UNL A   1      37.528  32.460  38.360  1.00  0.00     0.127 S 
ATOM     70  O   UNL A   1      37.919  33.297  39.495  1.00  0.00    -0.237 OA
ATOM     71  O   UNL A   1      36.390  32.963  37.595  1.00  0.00    -0.237 OA
ATOM     72  O   UNL A   1      37.506  31.030  38.634  1.00  0.00    -0.744 OA
ENDBRANCH  66  69
ENDBRANCH  48  62
BRANCH  49  73
ATOM     73  C   UNL A   1      42.348  26.176  27.524  1.00  0.00     0.023 A 
ATOM     74  C   UNL A   1      43.147  26.598  26.445  1.00  0.00     0.012 A 
ATOM     75  C   UNL A   1      41.858  24.856  27.547  1.00  0.00     0.148 A 
ATOM     76  C   UNL A   1      43.443  25.725  25.398  1.00  0.00     0.002 A 
ATOM     77  C   UNL A   1      42.188  23.979  26.521  1.00  0.00     0.091 A 
ATOM     78  F   UNL A   1      41.099  24.481  28.586  1.00  0.00    -0.205 F 
ATOM     79  C   UNL A   1      42.972  24.414  25.441  1.00  0.00     0.022 A 
BRANCH  77  80
ATOM     80  S   UNL A   1      41.714  22.248  26.542  1.00  0.00     0.127 S 
ATOM     81  O   UNL A   1      40.258  22.338  26.498  1.00  0.00    -0.237 OA
ATOM     82  O   UNL A   1      42.340  21.748  25.318  1.00  0.00    -0.237 OA
ATOM     83  O   UNL A   1      42.275  21.700  27.770  1.00  0.00    -0.744 OA
ENDBRANCH  77  80
ENDBRANCH  49  73
BRANCH  61  84
ATOM     84  C   UNL A   1      45.130  27.001  33.881  1.00  0.00     0.023 A 
ATOM     85  C   UNL A   1      46.381  27.645  33.862  1.00  0.00     0.012 A 
ATOM     86  C   UNL A   1      44.945  25.846  34.663  1.00  0.00     0.148 A 
ATOM     87  C   UNL A   1      47.440  27.142  34.614  1.00  0.00     0.002 A 
ATOM     88  C   UNL A   1      45.994  25.372  35.438  1.00  0.00     0.091 A 
ATOM     89  F   UNL A   1      43.741  25.253  34.653  1.00  0.00    -0.205 F 
ATOM     90  C   UNL A   1      47.244  26.015  35.410  1.00  0.00     0.022 A 
BRANCH  88  91
ATOM     91  S   UNL A   1      45.818  23.977  36.555  1.00  0.00     0.127 S 
ATOM     92  O   UNL A   1      44.796  24.466  37.481  1.00  0.00    -0.237 OA
ATOM     93  O   UNL A   1      45.369  22.917  35.654  1.00  0.00    -0.237 OA
ATOM     94  O   UNL A   1      47.132  23.761  37.145  1.00  0.00    -0.744 OA
ENDBRANCH  88  91
ENDBRANCH  61  84
ENDBRANCH  35  36
ENDBRANCH  28  30
ENDBRANCH  27  28
ENDBRANCH  26  27
ENDBRANCH   1  26
TORSDOF 19
ENDMDL
MODEL 2
REMARK VINA RESULT:     -11.8      1.130      1.920
REMARK SMILES CC[C@@H](C)[C@@H](NC(=O)Cn1ncc2ccccc2c1=O)C(=O)OCCOC(=O)c1ccc(-c2c3nc(c(-c4cccc(S(=O)(=O)[O-])c4F)c4ccc([nH]4)c(-c4cccc(S(=O)(=O)[O-])c4F)c4nc(c(-c5cccc(S(=O)(=O)[O-])c5F)c5ccc2[nH]5)C=C4)C=C3)cc1
REMARK SMILES IDX 24 1 23 2 21 3 22 4 5 5 3 6 4 7 2 8 1 9 6 10 7 11 8 13 9 14
REMARK SMILES IDX 10 15 11 16 19 17 12 18 18 19 20 20 13 21 17 22 14 23 16 24
REMARK SMILES IDX 15 25 25 26 26 27 27 28 28 29 29 30 30 31 91 32 31 33 90 34
REMARK SMILES IDX 32 35 33 36 34 37 84 38 35 39 89 40 83 41 85 42 36 43 88 44
REMARK SMILES IDX 82 45 81 46 37 48 69 49 49 50 68 51 50 52 53 53 67 54 86 55
REMARK SMILES IDX 51 56 52 57 66 59 87 60 54 61 38 62 39 63 47 64 40 65 42 66
REMARK SMILES IDX 48 67 41 68 43 69 44 70 45 71 46 72 70 73 71 74 79 75 72 76
REMARK SMILES IDX 74 77 80 78 73 79 75 80 76 81 77 82 78 83 55 84 56 85 64 86
REMARK SMILES IDX 57 87 59 88 65 89 58 90 60 91 61 92 62 93 63 94
REMARK H PARENT 6 12 85 47 53 58
REMARK Flexibility Score: inf
ROOT
ATOM      1  C   UNL A   1      31.876  29.595  24.753  1.00  0.00     0.274 C 
ENDROOT
BRANCH   1   2
ATOM      2  O   UNL A   1      30.685  28.781  24.602  1.00  0.00    -0.461 OA
BRANCH   2   3
ATOM      3  C   UNL A   1      30.723  27.870  23.598  1.00  0.00     0.329 C 
ATOM      4  O   UNL A   1      30.182  28.046  22.508  1.00  0.00    -0.250 OA
BRANCH   3   5
ATOM      5  C   UNL A   1      31.388  26.517  23.938  1.00  0.00     0.195 C 
BRANCH   5   6
ATOM      6  C   UNL A   1      32.874  26.136  23.663  1.00  0.00     0.019 C 
ATOM      7  C   UNL A   1      33.855  26.628  24.721  1.00  0.00     0.010 C 
BRANCH   6   8
ATOM      8  C   UNL A   1      33.306  26.651  22.256  1.00  0.00     0.002 C 
ATOM      9  C   UNL A   1      32.879  25.753  21.099  1.00  0.00     0.004 C 
ENDBRANCH   6   8
ENDBRANCH   5   6
BRANCH   5  10
ATOM     10  N   UNL A   1      30.915  26.037  25.254  1.00  0.00    -0.341 N 
ATOM     11  C   UNL A   1      30.450  24.834  25.698  1.00  0.00     0.242 C 
ATOM     12  H   UNL A   1      30.940  26.728  25.953  1.00  0.00     0.164 HD
ATOM     13  O   UNL A   1      29.964  24.826  26.837  1.00  0.00    -0.273 OA
BRANCH  11  14
ATOM     14  C   UNL A   1      30.698  23.505  24.969  1.00  0.00     0.248 C 
BRANCH  14  15
ATOM     15  N   UNL A   1      32.058  23.085  24.660  1.00  0.00    -0.220 N 
ATOM     16  N   UNL A   1      32.337  22.685  23.382  1.00  0.00    -0.177 NA
ATOM     17  C   UNL A   1      33.000  23.052  25.691  1.00  0.00     0.275 A 
ATOM     18  C   UNL A   1      33.580  22.590  23.030  1.00  0.00     0.142 A 
ATOM     19  C   UNL A   1      34.415  23.002  25.268  1.00  0.00     0.050 A 
ATOM     20  O   UNL A   1      32.732  23.177  26.884  1.00  0.00    -0.267 OA
ATOM     21  C   UNL A   1      34.695  22.875  23.918  1.00  0.00     0.007 A 
ATOM     22  C   UNL A   1      35.456  23.247  26.170  1.00  0.00     0.014 A 
ATOM     23  C   UNL A   1      35.987  23.043  23.425  1.00  0.00     0.010 A 
ATOM     24  C   UNL A   1      36.759  23.409  25.691  1.00  0.00     0.001 A 
ATOM     25  C   UNL A   1      37.020  23.326  24.319  1.00  0.00     0.001 A 
ENDBRANCH  14  15
ENDBRANCH  11  14
ENDBRANCH   5  10
ENDBRANCH   3   5
ENDBRANCH   2   3
ENDBRANCH   1   2
BRANCH   1  26
ATOM     26  C   UNL A   1      32.187  29.849  26.226  1.00  0.00     0.275 C 
BRANCH  26  27
ATOM     27  O   UNL A   1      33.544  30.297  26.323  1.00  0.00    -0.458 OA
BRANCH  27  28
ATOM     28  C   UNL A   1      33.741  31.316  27.193  1.00  0.00     0.338 C 
ATOM     29  O   UNL A   1      32.966  32.191  27.501  1.00  0.00    -0.246 OA
BRANCH  28  30
ATOM     30  C   UNL A   1      35.010  31.026  27.871  1.00  0.00     0.060 A 
ATOM     31  C   UNL A   1      35.213  29.773  28.441  1.00  0.00     0.016 A 
ATOM     32  C   UNL A   1      35.967  32.040  27.982  1.00  0.00     0.016 A 
ATOM     33  C   UNL A   1      36.391  29.541  29.137  1.00  0.00     0.010 A 
ATOM     34  C   UNL A   1      37.152  31.804  28.668  1.00  0.00     0.010 A 
ATOM     35  C   UNL A   1      37.366  30.550  29.245  1.00  0.00    -0.014 A 
BRANCH  35  36
ATOM     36  C   UNL A   1      38.658  30.215  29.865  1.00  0.00     0.031 A 
ATOM     37  C   UNL A   1      39.007  30.705  31.232  1.00  0.00     0.074 A 
ATOM     38  C   UNL A   1      39.472  29.397  29.172  1.00  0.00     0.049 A 
ATOM     39  N   UNL A   1      39.973  30.301  32.010  1.00  0.00    -0.248 NA
ATOM     40  C   UNL A   1      38.178  31.778  31.805  1.00  0.00     0.031 C 
ATOM     41  C   UNL A   1      39.223  28.935  27.802  1.00  0.00     0.029 A 
ATOM     42  N   UNL A   1      40.638  28.779  29.527  1.00  0.00    -0.354 N 
ATOM     43  C   UNL A   1      39.873  31.065  33.165  1.00  0.00     0.074 A 
ATOM     44  C   UNL A   1      38.764  31.974  32.981  1.00  0.00     0.031 C 
ATOM     45  C   UNL A   1      40.175  28.056  27.457  1.00  0.00     0.029 A 
ATOM     46  C   UNL A   1      41.099  27.902  28.574  1.00  0.00     0.049 A 
ATOM     47  H   UNL A   1      41.103  28.946  30.379  1.00  0.00     0.167 HD
ATOM     48  C   UNL A   1      40.633  30.981  34.280  1.00  0.00     0.034 A 
ATOM     49  C   UNL A   1      42.128  27.038  28.619  1.00  0.00     0.034 A 
ATOM     50  C   UNL A   1      41.712  30.045  34.438  1.00  0.00     0.049 A 
ATOM     51  C   UNL A   1      42.924  26.944  29.886  1.00  0.00     0.074 A 
ATOM     52  C   UNL A   1      42.502  29.828  35.552  1.00  0.00     0.029 A 
ATOM     53  N   UNL A   1      42.158  29.180  33.451  1.00  0.00    -0.354 N 
ATOM     54  N   UNL A   1      42.727  27.565  31.024  1.00  0.00    -0.248 NA
ATOM     55  C   UNL A   1      44.064  26.019  29.890  1.00  0.00     0.031 C 
ATOM     56  C   UNL A   1      43.438  28.842  35.232  1.00  0.00     0.029 A 
ATOM     57  C   UNL A   1      43.221  28.435  33.925  1.00  0.00     0.049 A 
ATOM     58  H   UNL A   1      41.774  29.107  32.548  1.00  0.00     0.167 HD
ATOM     59  C   UNL A   1      43.706  27.095  31.887  1.00  0.00     0.074 A 
ATOM     60  C   UNL A   1      44.485  26.124  31.145  1.00  0.00     0.031 C 
ATOM     61  C   UNL A   1      43.948  27.447  33.172  1.00  0.00     0.034 A 
BRANCH  48  62
ATOM     62  C   UNL A   1      40.306  31.866  35.449  1.00  0.00     0.023 A 
ATOM     63  C   UNL A   1      40.967  33.103  35.576  1.00  0.00     0.012 A 
ATOM     64  C   UNL A   1      39.244  31.551  36.319  1.00  0.00     0.148 A 
ATOM     65  C   UNL A   1      40.570  34.020  36.549  1.00  0.00     0.002 A 
ATOM     66  C   UNL A   1      38.838  32.481  37.269  1.00  0.00     0.091 A 
ATOM     67  F   UNL A   1      38.636  30.365  36.179  1.00  0.00    -0.205 F 
ATOM     68  C   UNL A   1      39.500  33.715  37.385  1.00  0.00     0.022 A 
BRANCH  66  69
ATOM     69  S   UNL A   1      37.434  32.215  38.358  1.00  0.00     0.127 S 
ATOM     70  O   UNL A   1      37.214  30.776  38.212  1.00  0.00    -0.237 OA
ATOM     71  O   UNL A   1      37.971  32.622  39.654  1.00  0.00    -0.237 OA
ATOM     72  O   UNL A   1      36.359  33.052  37.843  1.00  0.00    -0.744 OA
ENDBRANCH  66  69
ENDBRANCH  48  62
BRANCH  49  73
ATOM     73  C   UNL A   1      42.380  26.134  27.466  1.00  0.00     0.023 A 
ATOM     74  C   UNL A   1      43.166  26.591  26.391  1.00  0.00     0.012 A 
ATOM     75  C   UNL A   1      41.910  24.807  27.463  1.00  0.00     0.148 A 
ATOM     76  C   UNL A   1      43.469  25.744  25.324  1.00  0.00     0.002 A 
ATOM     77  C   UNL A   1      42.247  23.957  26.417  1.00  0.00     0.091 A 
ATOM     78  F   UNL A   1      41.162  24.399  28.498  1.00  0.00    -0.205 F 
ATOM     79  C   UNL A   1      43.018  24.426  25.342  1.00  0.00     0.022 A 
BRANCH  77  80
ATOM     80  S   UNL A   1      41.798  22.218  26.405  1.00  0.00     0.127 S 
ATOM     81  O   UNL A   1      40.350  22.286  26.231  1.00  0.00    -0.237 OA
ATOM     82  O   UNL A   1      42.538  21.724  25.242  1.00  0.00    -0.237 OA
ATOM     83  O   UNL A   1      42.256  21.683  27.680  1.00  0.00    -0.744 OA
ENDBRANCH  77  80
ENDBRANCH  49  73
BRANCH  61  84
ATOM     84  C   UNL A   1      45.100  26.784  33.869  1.00  0.00     0.023 A 
ATOM     85  C   UNL A   1      46.360  27.412  33.860  1.00  0.00     0.012 A 
ATOM     86  C   UNL A   1      44.898  25.624  34.638  1.00  0.00     0.148 A 
ATOM     87  C   UNL A   1      47.411  26.886  34.608  1.00  0.00     0.002 A 
ATOM     88  C   UNL A   1      45.939  25.127  35.410  1.00  0.00     0.091 A 
ATOM     89  F   UNL A   1      43.687  25.048  34.619  1.00  0.00    -0.205 F 
ATOM     90  C   UNL A   1      47.197  25.754  35.392  1.00  0.00     0.022 A 
BRANCH  88  91
ATOM     91  S   UNL A   1      45.741  23.723  36.511  1.00  0.00     0.127 S 
ATOM     92  O   UNL A   1      47.128  23.433  36.874  1.00  0.00    -0.237 OA
ATOM     93  O   UNL A   1      44.933  24.290  37.590  1.00  0.00    -0.237 OA
ATOM     94  O   UNL A   1      45.077  22.687  35.732  1.00  0.00    -0.744 OA
ENDBRANCH  88  91
ENDBRANCH  61  84
ENDBRANCH  35  36
ENDBRANCH  28  30
ENDBRANCH  27  28
ENDBRANCH  26  27
ENDBRANCH   1  26
TORSDOF 19
ENDMDL
MODEL 3
REMARK VINA RESULT:     -11.7      5.095     10.088
REMARK SMILES CC[C@@H](C)[C@@H](NC(=O)Cn1ncc2ccccc2c1=O)C(=O)OCCOC(=O)c1ccc(-c2c3nc(c(-c4cccc(S(=O)(=O)[O-])c4F)c4ccc([nH]4)c(-c4cccc(S(=O)(=O)[O-])c4F)c4nc(c(-c5cccc(S(=O)(=O)[O-])c5F)c5ccc2[nH]5)C=C4)C=C3)cc1
REMARK SMILES IDX 24 1 23 2 21 3 22 4 5 5 3 6 4 7 2 8 1 9 6 10 7 11 8 13 9 14
REMARK SMILES IDX 10 15 11 16 19 17 12 18 18 19 20 20 13 21 17 22 14 23 16 24
REMARK SMILES IDX 15 25 25 26 26 27 27 28 28 29 29 30 30 31 91 32 31 33 90 34
REMARK SMILES IDX 32 35 33 36 34 37 84 38 35 39 89 40 83 41 85 42 36 43 88 44
REMARK SMILES IDX 82 45 81 46 37 48 69 49 49 50 68 51 50 52 53 53 67 54 86 55
REMARK SMILES IDX 51 56 52 57 66 59 87 60 54 61 38 62 39 63 47 64 40 65 42 66
REMARK SMILES IDX 48 67 41 68 43 69 44 70 45 71 46 72 70 73 71 74 79 75 72 76
REMARK SMILES IDX 74 77 80 78 73 79 75 80 76 81 77 82 78 83 55 84 56 85 64 86
REMARK SMILES IDX 57 87 59 88 65 89 58 90 60 91 61 92 62 93 63 94
REMARK H PARENT 6 12 85 47 53 58
REMARK Flexibility Score: inf
ROOT
ATOM      1  C   UNL A   1      35.116  20.959  25.231  1.00  0.00     0.274 C 
ENDROOT
BRANCH   1   2
ATOM      2  O   UNL A   1      34.120  20.062  24.675  1.00  0.00    -0.461 OA
BRANCH   2   3
ATOM      3  C   UNL A   1      32.838  20.310  25.045  1.00  0.00     0.329 C 
ATOM      4  O   UNL A   1      32.099  19.455  25.528  1.00  0.00    -0.250 OA
BRANCH   3   5
ATOM      5  C   UNL A   1      32.299  21.719  24.708  1.00  0.00     0.195 C 
BRANCH   5   6
ATOM      6  C   UNL A   1      31.960  22.249  23.282  1.00  0.00     0.019 C 
ATOM      7  C   UNL A   1      31.931  21.173  22.202  1.00  0.00     0.010 C 
BRANCH   6   8
ATOM      8  C   UNL A   1      32.957  23.379  22.881  1.00  0.00     0.002 C 
ATOM      9  C   UNL A   1      33.020  23.660  21.382  1.00  0.00     0.004 C 
ENDBRANCH   6   8
ENDBRANCH   5   6
BRANCH   5  10
ATOM     10  N   UNL A   1      31.304  22.135  25.718  1.00  0.00    -0.341 N 
ATOM     11  C   UNL A   1      31.265  23.148  26.631  1.00  0.00     0.242 C 
ATOM     12  H   UNL A   1      30.503  21.563  25.736  1.00  0.00     0.164 HD
ATOM     13  O   UNL A   1      30.344  23.101  27.457  1.00  0.00    -0.273 OA
BRANCH  11  14
ATOM     14  C   UNL A   1      32.141  24.407  26.541  1.00  0.00     0.248 C 
BRANCH  14  15
ATOM     15  N   UNL A   1      31.548  25.683  26.166  1.00  0.00    -0.220 N 
ATOM     16  N   UNL A   1      31.815  26.775  26.946  1.00  0.00    -0.177 NA
ATOM     17  C   UNL A   1      30.687  25.725  25.067  1.00  0.00     0.275 A 
ATOM     18  C   UNL A   1      31.539  27.948  26.470  1.00  0.00     0.142 A 
ATOM     19  C   UNL A   1      30.430  27.066  24.502  1.00  0.00     0.050 A 
ATOM     20  O   UNL A   1      30.242  24.734  24.492  1.00  0.00    -0.267 OA
ATOM     21  C   UNL A   1      30.951  28.168  25.159  1.00  0.00     0.007 A 
ATOM     22  C   UNL A   1      29.826  27.228  23.251  1.00  0.00     0.014 A 
ATOM     23  C   UNL A   1      30.942  29.434  24.575  1.00  0.00     0.010 A 
ATOM     24  C   UNL A   1      29.802  28.493  22.657  1.00  0.00     0.001 A 
ATOM     25  C   UNL A   1      30.375  29.590  23.310  1.00  0.00     0.001 A 
ENDBRANCH  14  15
ENDBRANCH  11  14
ENDBRANCH   5  10
ENDBRANCH   3   5
ENDBRANCH   2   3
ENDBRANCH   1   2
BRANCH   1  26
ATOM     26  C   UNL A   1      36.527  20.424  25.003  1.00  0.00     0.275 C 
BRANCH  26  27
ATOM     27  O   UNL A   1      37.455  21.463  25.333  1.00  0.00    -0.458 OA
BRANCH  27  28
ATOM     28  C   UNL A   1      38.648  21.027  25.801  1.00  0.00     0.338 C 
ATOM     29  O   UNL A   1      39.147  19.934  25.661  1.00  0.00    -0.246 OA
BRANCH  28  30
ATOM     30  C   UNL A   1      39.333  22.214  26.326  1.00  0.00     0.060 A 
ATOM     31  C   UNL A   1      40.344  22.063  27.270  1.00  0.00     0.016 A 
ATOM     32  C   UNL A   1      38.909  23.481  25.909  1.00  0.00     0.016 A 
ATOM     33  C   UNL A   1      40.932  23.200  27.804  1.00  0.00     0.010 A 
ATOM     34  C   UNL A   1      39.507  24.620  26.435  1.00  0.00     0.010 A 
ATOM     35  C   UNL A   1      40.522  24.479  27.384  1.00  0.00    -0.014 A 
BRANCH  35  36
ATOM     36  C   UNL A   1      41.270  25.651  27.867  1.00  0.00     0.031 A 
ATOM     37  C   UNL A   1      42.684  25.890  27.448  1.00  0.00     0.074 A 
ATOM     38  C   UNL A   1      40.600  26.523  28.643  1.00  0.00     0.049 A 
ATOM     39  N   UNL A   1      43.388  26.981  27.573  1.00  0.00    -0.248 NA
ATOM     40  C   UNL A   1      43.403  24.777  26.808  1.00  0.00     0.031 C 
ATOM     41  C   UNL A   1      39.238  26.318  29.147  1.00  0.00     0.029 A 
ATOM     42  N   UNL A   1      40.946  27.761  29.108  1.00  0.00    -0.354 N 
ATOM     43  C   UNL A   1      44.632  26.693  27.030  1.00  0.00     0.074 A 
ATOM     44  C   UNL A   1      44.598  25.316  26.591  1.00  0.00     0.031 C 
ATOM     45  C   UNL A   1      38.841  27.421  29.797  1.00  0.00     0.029 A 
ATOM     46  C   UNL A   1      39.920  28.401  29.761  1.00  0.00     0.049 A 
ATOM     47  H   UNL A   1      41.841  28.155  28.988  1.00  0.00     0.167 HD
ATOM     48  C   UNL A   1      45.688  27.526  26.896  1.00  0.00     0.034 A 
ATOM     49  C   UNL A   1      39.847  29.656  30.239  1.00  0.00     0.034 A 
ATOM     50  C   UNL A   1      45.678  28.899  27.320  1.00  0.00     0.049 A 
ATOM     51  C   UNL A   1      41.023  30.564  30.036  1.00  0.00     0.074 A 
ATOM     52  C   UNL A   1      46.668  29.850  27.169  1.00  0.00     0.029 A 
ATOM     53  N   UNL A   1      44.627  29.511  27.987  1.00  0.00    -0.354 N 
ATOM     54  N   UNL A   1      42.139  30.325  29.390  1.00  0.00    -0.248 NA
ATOM     55  C   UNL A   1      40.927  31.915  30.602  1.00  0.00     0.031 C 
ATOM     56  C   UNL A   1      46.224  31.035  27.760  1.00  0.00     0.029 A 
ATOM     57  C   UNL A   1      44.950  30.825  28.266  1.00  0.00     0.049 A 
ATOM     58  H   UNL A   1      43.778  29.074  28.225  1.00  0.00     0.167 HD
ATOM     59  C   UNL A   1      42.872  31.501  29.454  1.00  0.00     0.074 A 
ATOM     60  C   UNL A   1      42.067  32.456  30.187  1.00  0.00     0.031 C 
ATOM     61  C   UNL A   1      44.108  31.760  28.963  1.00  0.00     0.034 A 
BRANCH  48  62
ATOM     62  C   UNL A   1      46.928  27.021  26.213  1.00  0.00     0.023 A 
ATOM     63  C   UNL A   1      47.116  27.297  24.845  1.00  0.00     0.012 A 
ATOM     64  C   UNL A   1      47.967  26.423  26.952  1.00  0.00     0.148 A 
ATOM     65  C   UNL A   1      48.325  26.992  24.221  1.00  0.00     0.002 A 
ATOM     66  C   UNL A   1      49.179  26.147  26.330  1.00  0.00     0.091 A 
ATOM     67  F   UNL A   1      47.759  26.168  28.251  1.00  0.00    -0.205 F 
ATOM     68  C   UNL A   1      49.359  26.430  24.965  1.00  0.00     0.022 A 
BRANCH  66  69
ATOM     69  S   UNL A   1      50.597  25.477  27.207  1.00  0.00     0.127 S 
ATOM     70  O   UNL A   1      50.911  26.565  28.134  1.00  0.00    -0.237 OA
ATOM     71  O   UNL A   1      50.032  24.285  27.835  1.00  0.00    -0.237 OA
ATOM     72  O   UNL A   1      51.614  25.222  26.197  1.00  0.00    -0.744 OA
ENDBRANCH  66  69
ENDBRANCH  48  62
BRANCH  49  73
ATOM     73  C   UNL A   1      38.581  30.137  30.851  1.00  0.00     0.023 A 
ATOM     74  C   UNL A   1      38.368  29.953  32.230  1.00  0.00     0.012 A 
ATOM     75  C   UNL A   1      37.625  30.840  30.092  1.00  0.00     0.148 A 
ATOM     76  C   UNL A   1      37.216  30.449  32.842  1.00  0.00     0.002 A 
ATOM     77  C   UNL A   1      36.499  31.365  30.714  1.00  0.00     0.091 A 
ATOM     78  F   UNL A   1      37.852  31.000  28.781  1.00  0.00    -0.205 F 
ATOM     79  C   UNL A   1      36.288  31.162  32.087  1.00  0.00     0.022 A 
BRANCH  77  80
ATOM     80  S   UNL A   1      35.303  32.383  29.844  1.00  0.00     0.127 S 
ATOM     81  O   UNL A   1      36.155  33.426  29.280  1.00  0.00    -0.237 OA
ATOM     82  O   UNL A   1      34.755  31.438  28.870  1.00  0.00    -0.237 OA
ATOM     83  O   UNL A   1      34.351  32.824  30.854  1.00  0.00    -0.744 OA
ENDBRANCH  77  80
ENDBRANCH  49  73
BRANCH  61  84
ATOM     84  C   UNL A   1      44.675  33.130  29.198  1.00  0.00     0.023 A 
ATOM     85  C   UNL A   1      45.418  33.373  30.368  1.00  0.00     0.012 A 
ATOM     86  C   UNL A   1      44.587  34.120  28.203  1.00  0.00     0.148 A 
ATOM     87  C   UNL A   1      46.065  34.594  30.548  1.00  0.00     0.002 A 
ATOM     88  C   UNL A   1      45.264  35.320  28.372  1.00  0.00     0.091 A 
ATOM     89  F   UNL A   1      43.865  33.858  27.103  1.00  0.00    -0.205 F 
ATOM     90  C   UNL A   1      45.999  35.560  29.546  1.00  0.00     0.022 A 
BRANCH  88  91
ATOM     91  S   UNL A   1      45.305  36.593  27.107  1.00  0.00     0.127 S 
ATOM     92  O   UNL A   1      46.072  37.647  27.771  1.00  0.00    -0.237 OA
ATOM     93  O   UNL A   1      46.009  35.921  26.016  1.00  0.00    -0.237 OA
ATOM     94  O   UNL A   1      43.916  36.927  26.822  1.00  0.00    -0.744 OA
ENDBRANCH  88  91
ENDBRANCH  61  84
ENDBRANCH  35  36
ENDBRANCH  28  30
ENDBRANCH  27  28
ENDBRANCH  26  27
ENDBRANCH   1  26
TORSDOF 19
ENDMDL
