MODEL 1
REMARK VINA RESULT:     -14.0      0.000      0.000
REMARK SMILES CC[C@@](C)(NC(=O)Nc1c(C)cccc1Cl)C(=O)OCCOC(=O)c1ccc(-c2c3nc(c(-c4cccc(S(=O)(=O)[O-])c4F)c4ccc([nH]4)c(-c4cccc(S(=O)(=O)[O-])c4F)c4nc(c(-c5cccc(S(=O)(=O)[O-])c5F)c5ccc2[nH]5)C=C4)C=C3)cc1
REMARK SMILES IDX 21 1 20 2 19 3 17 4 18 5 3 6 4 7 2 8 1 9 5 10 6 11 7 13 8 14
REMARK SMILES IDX 9 16 10 17 15 18 11 19 12 20 14 21 16 22 13 23 22 24 23 25
REMARK SMILES IDX 24 26 25 27 26 28 87 29 27 30 86 31 28 32 29 33 30 34 80 35
REMARK SMILES IDX 31 36 85 37 79 38 81 39 32 40 84 41 78 42 77 43 33 45 65 46
REMARK SMILES IDX 45 47 64 48 46 49 49 50 63 51 82 52 47 53 48 54 62 56 83 57
REMARK SMILES IDX 50 58 34 59 35 60 43 61 36 62 38 63 44 64 37 65 39 66 40 67
REMARK SMILES IDX 41 68 42 69 66 70 67 71 75 72 68 73 70 74 76 75 69 76 71 77
REMARK SMILES IDX 72 78 73 79 74 80 51 81 52 82 60 83 53 84 55 85 61 86 54 87
REMARK SMILES IDX 56 88 57 89 58 90 59 91
REMARK H PARENT 5 12 8 15 81 44 49 55
REMARK Flexibility Score: inf
ROOT
ATOM      1  C   UNL A   1      32.103  28.364  24.365  1.00  0.00     0.275 C 
ENDROOT
BRANCH   1   2
ATOM      2  C   UNL A   1      33.153  27.085  23.561  1.00  0.00     0.274 C 
BRANCH   2   3
ATOM      3  O   UNL A   1      32.956  25.610  22.703  1.00  0.00    -0.460 OA
BRANCH   3   4
ATOM      4  C   UNL A   1      33.358  24.184  22.768  1.00  0.00     0.331 C 
ATOM      5  O   UNL A   1      34.489  23.859  22.381  1.00  0.00    -0.249 OA
BRANCH   4   6
ATOM      6  C   UNL A   1      32.216  22.898  23.087  1.00  0.00     0.136 C 
ATOM      7  C   UNL A   1      32.287  21.887  21.923  1.00  0.00     0.047 C 
BRANCH   6   8
ATOM      8  C   UNL A   1      31.804  21.925  24.304  1.00  0.00     0.037 C 
ATOM      9  C   UNL A   1      32.157  20.452  24.437  1.00  0.00     0.007 C 
ENDBRANCH   6   8
BRANCH   6  10
ATOM     10  N   UNL A   1      31.080  23.748  23.003  1.00  0.00    -0.322 N 
ATOM     11  C   UNL A   1      30.799  24.490  24.096  1.00  0.00     0.320 C 
ATOM     12  H   UNL A   1      30.526  23.794  22.191  1.00  0.00     0.166 HD
ATOM     13  O   UNL A   1      29.836  25.237  24.098  1.00  0.00    -0.248 OA
ATOM     14  N   UNL A   1      31.641  24.408  25.201  1.00  0.00    -0.306 N 
ATOM     15  H   UNL A   1      31.457  25.171  25.796  1.00  0.00     0.171 HD
BRANCH  14  16
ATOM     16  C   UNL A   1      32.736  23.563  25.814  1.00  0.00     0.064 A 
ATOM     17  C   UNL A   1      34.207  23.508  25.867  1.00  0.00    -0.026 A 
ATOM     18  C   UNL A   1      32.124  22.899  26.835  1.00  0.00     0.064 A 
ATOM     19  C   UNL A   1      35.380  24.247  25.230  1.00  0.00     0.046 C 
ATOM     20  C   UNL A   1      34.872  22.693  26.840  1.00  0.00     0.005 A 
ATOM     21  C   UNL A   1      32.901  22.581  28.000  1.00  0.00     0.023 A 
ATOM     22  Cl  UNL A   1      30.227  22.889  26.590  1.00  0.00    -0.082 Cl
ATOM     23  C   UNL A   1      34.242  22.351  27.983  1.00  0.00     0.002 A 
ENDBRANCH  14  16
ENDBRANCH   6  10
ENDBRANCH   4   6
ENDBRANCH   3   4
ENDBRANCH   2   3
ENDBRANCH   1   2
BRANCH   1  24
ATOM     24  O   UNL A   1      32.480  29.653  25.234  1.00  0.00    -0.458 OA
BRANCH  24  25
ATOM     25  C   UNL A   1      32.694  29.902  26.640  1.00  0.00     0.338 C 
ATOM     26  O   UNL A   1      31.752  29.836  27.425  1.00  0.00    -0.246 OA
BRANCH  25  27
ATOM     27  C   UNL A   1      34.248  30.227  27.265  1.00  0.00     0.060 A 
ATOM     28  C   UNL A   1      35.216  29.276  27.585  1.00  0.00     0.016 A 
ATOM     29  C   UNL A   1      34.785  31.473  27.610  1.00  0.00     0.016 A 
ATOM     30  C   UNL A   1      36.305  29.313  28.429  1.00  0.00     0.010 A 
ATOM     31  C   UNL A   1      36.089  31.608  28.299  1.00  0.00     0.010 A 
ATOM     32  C   UNL A   1      36.852  30.498  28.723  1.00  0.00    -0.014 A 
BRANCH  32  33
ATOM     33  C   UNL A   1      38.114  30.347  29.489  1.00  0.00     0.031 A 
ATOM     34  C   UNL A   1      39.221  29.572  28.864  1.00  0.00     0.074 A 
ATOM     35  C   UNL A   1      38.398  31.096  30.589  1.00  0.00     0.049 A 
ATOM     36  N   UNL A   1      40.257  29.027  29.429  1.00  0.00    -0.248 NA
ATOM     37  C   UNL A   1      39.155  29.399  27.402  1.00  0.00     0.031 C 
ATOM     38  C   UNL A   1      37.581  32.191  31.147  1.00  0.00     0.029 A 
ATOM     39  N   UNL A   1      39.465  31.039  31.460  1.00  0.00    -0.354 N 
ATOM     40  C   UNL A   1      40.884  28.311  28.424  1.00  0.00     0.074 A 
ATOM     41  C   UNL A   1      40.169  28.571  27.193  1.00  0.00     0.031 C 
ATOM     42  C   UNL A   1      38.123  32.623  32.296  1.00  0.00     0.029 A 
ATOM     43  C   UNL A   1      39.251  31.767  32.614  1.00  0.00     0.049 A 
ATOM     44  H   UNL A   1      40.290  30.532  31.281  1.00  0.00     0.167 HD
ATOM     45  C   UNL A   1      41.932  27.471  28.560  1.00  0.00     0.034 A 
ATOM     46  C   UNL A   1      39.814  31.661  33.834  1.00  0.00     0.034 A 
ATOM     47  C   UNL A   1      42.629  27.289  29.803  1.00  0.00     0.049 A 
ATOM     48  C   UNL A   1      40.888  30.625  34.017  1.00  0.00     0.074 A 
ATOM     49  C   UNL A   1      43.667  26.426  30.096  1.00  0.00     0.029 A 
ATOM     50  N   UNL A   1      42.358  28.001  30.965  1.00  0.00    -0.354 N 
ATOM     51  N   UNL A   1      41.418  29.826  33.121  1.00  0.00    -0.248 NA
ATOM     52  C   UNL A   1      41.445  30.474  35.366  1.00  0.00     0.031 C 
ATOM     53  C   UNL A   1      44.005  26.598  31.442  1.00  0.00     0.029 A 
ATOM     54  C   UNL A   1      43.207  27.598  31.977  1.00  0.00     0.049 A 
ATOM     55  H   UNL A   1      41.663  28.693  31.053  1.00  0.00     0.167 HD
ATOM     56  C   UNL A   1      42.399  29.104  33.787  1.00  0.00     0.074 A 
ATOM     57  C   UNL A   1      42.399  29.577  35.159  1.00  0.00     0.031 C 
ATOM     58  C   UNL A   1      43.219  28.133  33.316  1.00  0.00     0.034 A 
BRANCH  45  59
ATOM     59  C   UNL A   1      42.311  26.637  27.371  1.00  0.00     0.023 A 
ATOM     60  C   UNL A   1      42.993  27.206  26.280  1.00  0.00     0.012 A 
ATOM     61  C   UNL A   1      41.986  25.265  27.347  1.00  0.00     0.148 A 
ATOM     62  C   UNL A   1      43.324  26.428  25.171  1.00  0.00     0.002 A 
ATOM     63  C   UNL A   1      42.362  24.486  26.263  1.00  0.00     0.091 A 
ATOM     64  F   UNL A   1      41.301  24.753  28.381  1.00  0.00    -0.205 F 
ATOM     65  C   UNL A   1      43.021  25.068  25.168  1.00  0.00     0.022 A 
BRANCH  63  66
ATOM     66  S   UNL A   1      42.083  22.713  26.201  1.00  0.00     0.127 S 
ATOM     67  O   UNL A   1      40.623  22.643  26.196  1.00  0.00    -0.237 OA
ATOM     68  O   UNL A   1      42.716  22.350  24.933  1.00  0.00    -0.237 OA
ATOM     69  O   UNL A   1      42.727  22.161  27.384  1.00  0.00    -0.744 OA
ENDBRANCH  63  66
ENDBRANCH  45  59
BRANCH  46  70
ATOM     70  C   UNL A   1      39.315  32.471  34.988  1.00  0.00     0.023 A 
ATOM     71  C   UNL A   1      38.276  31.968  35.794  1.00  0.00     0.012 A 
ATOM     72  C   UNL A   1      39.855  33.742  35.289  1.00  0.00     0.148 A 
ATOM     73  C   UNL A   1      37.763  32.723  36.851  1.00  0.00     0.002 A 
ATOM     74  C   UNL A   1      39.380  34.461  36.382  1.00  0.00     0.091 A 
ATOM     75  F   UNL A   1      40.826  34.224  34.500  1.00  0.00    -0.205 F 
ATOM     76  C   UNL A   1      38.321  33.962  37.152  1.00  0.00     0.022 A 
BRANCH  74  77
ATOM     77  S   UNL A   1      40.127  36.005  36.923  1.00  0.00     0.127 S 
ATOM     78  O   UNL A   1      41.481  35.580  37.266  1.00  0.00    -0.237 OA
ATOM     79  O   UNL A   1      40.027  36.827  35.716  1.00  0.00    -0.237 OA
ATOM     80  O   UNL A   1      39.307  36.472  38.033  1.00  0.00    -0.744 OA
ENDBRANCH  74  77
ENDBRANCH  46  70
BRANCH  58  81
ATOM     81  C   UNL A   1      44.235  27.570  34.272  1.00  0.00     0.023 A 
ATOM     82  C   UNL A   1      45.419  28.280  34.548  1.00  0.00     0.012 A 
ATOM     83  C   UNL A   1      43.974  26.361  34.945  1.00  0.00     0.148 A 
ATOM     84  C   UNL A   1      46.348  27.774  35.455  1.00  0.00     0.002 A 
ATOM     85  C   UNL A   1      44.877  25.892  35.889  1.00  0.00     0.091 A 
ATOM     86  F   UNL A   1      42.849  25.694  34.651  1.00  0.00    -0.205 F 
ATOM     87  C   UNL A   1      46.071  26.589  36.134  1.00  0.00     0.022 A 
BRANCH  85  88
ATOM     88  S   UNL A   1      44.556  24.432  36.881  1.00  0.00     0.127 S 
ATOM     89  O   UNL A   1      43.516  24.913  37.789  1.00  0.00    -0.237 OA
ATOM     90  O   UNL A   1      44.095  23.472  35.878  1.00  0.00    -0.237 OA
ATOM     91  O   UNL A   1      45.823  24.086  37.511  1.00  0.00    -0.744 OA
ENDBRANCH  85  88
ENDBRANCH  58  81
ENDBRANCH  32  33
ENDBRANCH  25  27
ENDBRANCH  24  25
ENDBRANCH   1  24
TORSDOF 17
ENDMDL
MODEL 2
REMARK VINA RESULT:     -14.0      4.908      9.635
REMARK SMILES CC[C@@](C)(NC(=O)Nc1c(C)cccc1Cl)C(=O)OCCOC(=O)c1ccc(-c2c3nc(c(-c4cccc(S(=O)(=O)[O-])c4F)c4ccc([nH]4)c(-c4cccc(S(=O)(=O)[O-])c4F)c4nc(c(-c5cccc(S(=O)(=O)[O-])c5F)c5ccc2[nH]5)C=C4)C=C3)cc1
REMARK SMILES IDX 21 1 20 2 19 3 17 4 18 5 3 6 4 7 2 8 1 9 5 10 6 11 7 13 8 14
REMARK SMILES IDX 9 16 10 17 15 18 11 19 12 20 14 21 16 22 13 23 22 24 23 25
REMARK SMILES IDX 24 26 25 27 26 28 87 29 27 30 86 31 28 32 29 33 30 34 80 35
REMARK SMILES IDX 31 36 85 37 79 38 81 39 32 40 84 41 78 42 77 43 33 45 65 46
REMARK SMILES IDX 45 47 64 48 46 49 49 50 63 51 82 52 47 53 48 54 62 56 83 57
REMARK SMILES IDX 50 58 34 59 35 60 43 61 36 62 38 63 44 64 37 65 39 66 40 67
REMARK SMILES IDX 41 68 42 69 66 70 67 71 75 72 68 73 70 74 76 75 69 76 71 77
REMARK SMILES IDX 72 78 73 79 74 80 51 81 52 82 60 83 53 84 55 85 61 86 54 87
REMARK SMILES IDX 56 88 57 89 58 90 59 91
REMARK H PARENT 5 12 8 15 81 44 49 55
REMARK Flexibility Score: inf
ROOT
ATOM      1  C   UNL A   1      35.052  20.141  24.988  1.00  0.00     0.275 C 
ENDROOT
BRANCH   1   2
ATOM      2  C   UNL A   1      33.378  20.783  24.574  1.00  0.00     0.274 C 
BRANCH   2   3
ATOM      3  O   UNL A   1      32.644  22.269  24.124  1.00  0.00    -0.460 OA
BRANCH   3   4
ATOM      4  C   UNL A   1      32.825  23.398  23.179  1.00  0.00     0.331 C 
ATOM      5  O   UNL A   1      33.937  23.579  22.664  1.00  0.00    -0.249 OA
BRANCH   4   6
ATOM      6  C   UNL A   1      31.631  24.659  22.979  1.00  0.00     0.136 C 
ATOM      7  C   UNL A   1      30.234  24.046  23.212  1.00  0.00     0.047 C 
BRANCH   6   8
ATOM      8  C   UNL A   1      31.379  26.172  23.475  1.00  0.00     0.037 C 
ATOM      9  C   UNL A   1      30.092  26.722  24.068  1.00  0.00     0.007 C 
ENDBRANCH   6   8
BRANCH   6  10
ATOM     10  N   UNL A   1      31.918  24.854  21.600  1.00  0.00    -0.322 N 
ATOM     11  C   UNL A   1      32.897  25.736  21.307  1.00  0.00     0.320 C 
ATOM     12  H   UNL A   1      31.429  24.371  20.896  1.00  0.00     0.166 HD
ATOM     13  O   UNL A   1      33.193  25.959  20.145  1.00  0.00    -0.248 OA
ATOM     14  N   UNL A   1      33.576  26.362  22.348  1.00  0.00    -0.306 N 
ATOM     15  H   UNL A   1      34.400  26.765  21.992  1.00  0.00     0.171 HD
BRANCH  14  16
ATOM     16  C   UNL A   1      33.497  26.643  23.833  1.00  0.00     0.064 A 
ATOM     17  C   UNL A   1      33.882  26.020  25.111  1.00  0.00    -0.026 A 
ATOM     18  C   UNL A   1      33.305  27.991  23.914  1.00  0.00     0.064 A 
ATOM     19  C   UNL A   1      34.483  24.697  25.575  1.00  0.00     0.046 C 
ATOM     20  C   UNL A   1      33.892  26.785  26.322  1.00  0.00     0.005 A 
ATOM     21  C   UNL A   1      33.850  28.686  25.047  1.00  0.00     0.023 A 
ATOM     22  Cl  UNL A   1      32.653  28.680  22.254  1.00  0.00    -0.082 Cl
ATOM     23  C   UNL A   1      34.020  28.127  26.276  1.00  0.00     0.002 A 
ENDBRANCH  14  16
ENDBRANCH   6  10
ENDBRANCH   4   6
ENDBRANCH   3   4
ENDBRANCH   2   3
ENDBRANCH   1   2
BRANCH   1  24
ATOM     24  O   UNL A   1      36.393  20.888  25.438  1.00  0.00    -0.458 OA
BRANCH  24  25
ATOM     25  C   UNL A   1      37.138  22.023  24.945  1.00  0.00     0.338 C 
ATOM     26  O   UNL A   1      36.949  22.431  23.802  1.00  0.00    -0.246 OA
BRANCH  25  27
ATOM     27  C   UNL A   1      38.240  22.868  25.936  1.00  0.00     0.060 A 
ATOM     28  C   UNL A   1      38.230  24.239  26.185  1.00  0.00     0.016 A 
ATOM     29  C   UNL A   1      39.354  22.349  26.606  1.00  0.00     0.016 A 
ATOM     30  C   UNL A   1      39.214  25.111  26.600  1.00  0.00     0.010 A 
ATOM     31  C   UNL A   1      40.331  23.217  27.303  1.00  0.00     0.010 A 
ATOM     32  C   UNL A   1      40.257  24.627  27.284  1.00  0.00    -0.014 A 
BRANCH  32  33
ATOM     33  C   UNL A   1      41.123  25.711  27.807  1.00  0.00     0.031 A 
ATOM     34  C   UNL A   1      40.520  26.691  28.753  1.00  0.00     0.074 A 
ATOM     35  C   UNL A   1      42.478  25.693  27.683  1.00  0.00     0.049 A 
ATOM     36  N   UNL A   1      40.942  27.876  29.080  1.00  0.00    -0.248 NA
ATOM     37  C   UNL A   1      39.281  26.271  29.429  1.00  0.00     0.031 C 
ATOM     38  C   UNL A   1      43.297  24.610  27.103  1.00  0.00     0.029 A 
ATOM     39  N   UNL A   1      43.423  26.636  28.028  1.00  0.00    -0.354 N 
ATOM     40  C   UNL A   1      39.942  28.411  29.875  1.00  0.00     0.074 A 
ATOM     41  C   UNL A   1      38.939  27.385  30.062  1.00  0.00     0.031 C 
ATOM     42  C   UNL A   1      44.582  24.990  27.050  1.00  0.00     0.029 A 
ATOM     43  C   UNL A   1      44.663  26.375  27.480  1.00  0.00     0.049 A 
ATOM     44  H   UNL A   1      43.234  27.413  28.603  1.00  0.00     0.167 HD
ATOM     45  C   UNL A   1      39.869  29.674  30.345  1.00  0.00     0.034 A 
ATOM     46  C   UNL A   1      45.702  27.196  27.230  1.00  0.00     0.034 A 
ATOM     47  C   UNL A   1      40.921  30.636  30.163  1.00  0.00     0.049 A 
ATOM     48  C   UNL A   1      45.559  28.638  27.632  1.00  0.00     0.074 A 
ATOM     49  C   UNL A   1      40.952  31.967  30.533  1.00  0.00     0.029 A 
ATOM     50  N   UNL A   1      42.141  30.358  29.560  1.00  0.00    -0.354 N 
ATOM     51  N   UNL A   1      44.568  29.219  28.265  1.00  0.00    -0.248 NA
ATOM     52  C   UNL A   1      46.670  29.536  27.294  1.00  0.00     0.031 C 
ATOM     53  C   UNL A   1      42.182  32.498  30.131  1.00  0.00     0.029 A 
ATOM     54  C   UNL A   1      42.933  31.489  29.548  1.00  0.00     0.049 A 
ATOM     55  H   UNL A   1      42.404  29.481  29.197  1.00  0.00     0.167 HD
ATOM     56  C   UNL A   1      44.951  30.543  28.438  1.00  0.00     0.074 A 
ATOM     57  C   UNL A   1      46.274  30.669  27.856  1.00  0.00     0.031 C 
ATOM     58  C   UNL A   1      44.271  31.564  29.013  1.00  0.00     0.034 A 
BRANCH  45  59
ATOM     59  C   UNL A   1      38.589  30.095  31.006  1.00  0.00     0.023 A 
ATOM     60  C   UNL A   1      38.319  29.744  32.342  1.00  0.00     0.012 A 
ATOM     61  C   UNL A   1      37.647  30.856  30.285  1.00  0.00     0.148 A 
ATOM     62  C   UNL A   1      37.118  30.123  32.942  1.00  0.00     0.002 A 
ATOM     63  C   UNL A   1      36.477  31.271  30.903  1.00  0.00     0.091 A 
ATOM     64  F   UNL A   1      37.907  31.145  29.001  1.00  0.00    -0.205 F 
ATOM     65  C   UNL A   1      36.205  30.895  32.229  1.00  0.00     0.022 A 
BRANCH  63  66
ATOM     66  S   UNL A   1      35.276  32.331  30.092  1.00  0.00     0.127 S 
ATOM     67  O   UNL A   1      36.103  33.473  29.702  1.00  0.00    -0.237 OA
ATOM     68  O   UNL A   1      34.832  31.492  28.979  1.00  0.00    -0.237 OA
ATOM     69  O   UNL A   1      34.251  32.617  31.086  1.00  0.00    -0.744 OA
ENDBRANCH  63  66
ENDBRANCH  45  59
BRANCH  46  70
ATOM     70  C   UNL A   1      46.906  26.714  26.486  1.00  0.00     0.023 A 
ATOM     71  C   UNL A   1      46.920  26.760  25.079  1.00  0.00     0.012 A 
ATOM     72  C   UNL A   1      48.037  26.202  27.161  1.00  0.00     0.148 A 
ATOM     73  C   UNL A   1      48.015  26.276  24.360  1.00  0.00     0.002 A 
ATOM     74  C   UNL A   1      49.149  25.780  26.439  1.00  0.00     0.091 A 
ATOM     75  F   UNL A   1      48.005  26.138  28.500  1.00  0.00    -0.205 F 
ATOM     76  C   UNL A   1      49.133  25.798  25.037  1.00  0.00     0.022 A 
BRANCH  74  77
ATOM     77  S   UNL A   1      50.682  25.272  27.230  1.00  0.00     0.127 S 
ATOM     78  O   UNL A   1      51.052  26.475  27.970  1.00  0.00    -0.237 OA
ATOM     79  O   UNL A   1      50.235  24.152  28.061  1.00  0.00    -0.237 OA
ATOM     80  O   UNL A   1      51.578  24.891  26.147  1.00  0.00    -0.744 OA
ENDBRANCH  74  77
ENDBRANCH  46  70
BRANCH  58  81
ATOM     81  C   UNL A   1      44.976  32.889  29.109  1.00  0.00     0.023 A 
ATOM     82  C   UNL A   1      45.843  33.155  30.187  1.00  0.00     0.012 A 
ATOM     83  C   UNL A   1      44.823  33.844  28.086  1.00  0.00     0.148 A 
ATOM     84  C   UNL A   1      46.520  34.371  30.262  1.00  0.00     0.002 A 
ATOM     85  C   UNL A   1      45.543  35.029  28.140  1.00  0.00     0.091 A 
ATOM     86  F   UNL A   1      43.976  33.576  27.081  1.00  0.00    -0.205 F 
ATOM     87  C   UNL A   1      46.380  35.301  29.234  1.00  0.00     0.022 A 
BRANCH  85  88
ATOM     88  S   UNL A   1      45.503  36.237  26.813  1.00  0.00     0.127 S 
ATOM     89  O   UNL A   1      46.040  35.467  25.693  1.00  0.00    -0.237 OA
ATOM     90  O   UNL A   1      44.074  36.541  26.716  1.00  0.00    -0.237 OA
ATOM     91  O   UNL A   1      46.328  37.351  27.257  1.00  0.00    -0.744 OA
ENDBRANCH  85  88
ENDBRANCH  58  81
ENDBRANCH  32  33
ENDBRANCH  25  27
ENDBRANCH  24  25
ENDBRANCH   1  24
TORSDOF 17
ENDMDL
MODEL 3
REMARK VINA RESULT:     -13.6      1.367      2.404
REMARK SMILES CC[C@@](C)(NC(=O)Nc1c(C)cccc1Cl)C(=O)OCCOC(=O)c1ccc(-c2c3nc(c(-c4cccc(S(=O)(=O)[O-])c4F)c4ccc([nH]4)c(-c4cccc(S(=O)(=O)[O-])c4F)c4nc(c(-c5cccc(S(=O)(=O)[O-])c5F)c5ccc2[nH]5)C=C4)C=C3)cc1
REMARK SMILES IDX 21 1 20 2 19 3 17 4 18 5 3 6 4 7 2 8 1 9 5 10 6 11 7 13 8 14
REMARK SMILES IDX 9 16 10 17 15 18 11 19 12 20 14 21 16 22 13 23 22 24 23 25
REMARK SMILES IDX 24 26 25 27 26 28 87 29 27 30 86 31 28 32 29 33 30 34 80 35
REMARK SMILES IDX 31 36 85 37 79 38 81 39 32 40 84 41 78 42 77 43 33 45 65 46
REMARK SMILES IDX 45 47 64 48 46 49 49 50 63 51 82 52 47 53 48 54 62 56 83 57
REMARK SMILES IDX 50 58 34 59 35 60 43 61 36 62 38 63 44 64 37 65 39 66 40 67
REMARK SMILES IDX 41 68 42 69 66 70 67 71 75 72 68 73 70 74 76 75 69 76 71 77
REMARK SMILES IDX 72 78 73 79 74 80 51 81 52 82 60 83 53 84 55 85 61 86 54 87
REMARK SMILES IDX 56 88 57 89 58 90 59 91
REMARK H PARENT 5 12 8 15 81 44 49 55
REMARK Flexibility Score: inf
ROOT
ATOM      1  C   UNL A   1      30.822  31.318  25.470  1.00  0.00     0.275 C 
ENDROOT
BRANCH   1   2
ATOM      2  C   UNL A   1      30.150  30.107  24.259  1.00  0.00     0.274 C 
BRANCH   2   3
ATOM      3  O   UNL A   1      30.648  29.317  22.817  1.00  0.00    -0.460 OA
BRANCH   3   4
ATOM      4  C   UNL A   1      31.248  28.041  22.358  1.00  0.00     0.331 C 
ATOM      5  O   UNL A   1      30.566  27.265  21.675  1.00  0.00    -0.249 OA
BRANCH   4   6
ATOM      6  C   UNL A   1      32.771  27.442  22.975  1.00  0.00     0.136 C 
ATOM      7  C   UNL A   1      33.602  28.645  23.465  1.00  0.00     0.047 C 
BRANCH   6   8
ATOM      8  C   UNL A   1      33.300  26.288  23.969  1.00  0.00     0.037 C 
ATOM      9  C   UNL A   1      34.043  26.500  25.278  1.00  0.00     0.007 C 
ENDBRANCH   6   8
BRANCH   6  10
ATOM     10  N   UNL A   1      33.207  26.954  21.713  1.00  0.00    -0.322 N 
ATOM     11  C   UNL A   1      32.843  25.694  21.394  1.00  0.00     0.320 C 
ATOM     12  H   UNL A   1      33.747  27.507  21.103  1.00  0.00     0.166 HD
ATOM     13  O   UNL A   1      33.187  25.208  20.330  1.00  0.00    -0.248 OA
ATOM     14  N   UNL A   1      32.049  24.976  22.283  1.00  0.00    -0.306 N 
ATOM     15  H   UNL A   1      31.669  24.200  21.811  1.00  0.00     0.171 HD
BRANCH  14  16
ATOM     16  C   UNL A   1      31.564  24.963  23.716  1.00  0.00     0.064 A 
ATOM     17  C   UNL A   1      30.460  25.505  24.527  1.00  0.00    -0.026 A 
ATOM     18  C   UNL A   1      32.173  23.878  24.272  1.00  0.00     0.064 A 
ATOM     19  C   UNL A   1      29.283  26.454  24.325  1.00  0.00     0.046 C 
ATOM     20  C   UNL A   1      30.197  24.990  25.837  1.00  0.00     0.005 A 
ATOM     21  C   UNL A   1      31.481  23.169  25.311  1.00  0.00     0.023 A 
ATOM     22  Cl  UNL A   1      33.689  23.350  23.232  1.00  0.00    -0.082 Cl
ATOM     23  C   UNL A   1      30.598  23.746  26.171  1.00  0.00     0.002 A 
ENDBRANCH  14  16
ENDBRANCH   6  10
ENDBRANCH   4   6
ENDBRANCH   3   4
ENDBRANCH   2   3
ENDBRANCH   1   2
BRANCH   1  24
ATOM     24  O   UNL A   1      31.922  31.166  26.622  1.00  0.00    -0.458 OA
BRANCH  24  25
ATOM     25  C   UNL A   1      32.734  30.078  27.114  1.00  0.00     0.338 C 
ATOM     26  O   UNL A   1      32.277  28.938  27.145  1.00  0.00    -0.246 OA
BRANCH  25  27
ATOM     27  C   UNL A   1      34.351  30.317  27.600  1.00  0.00     0.060 A 
ATOM     28  C   UNL A   1      35.216  29.334  28.078  1.00  0.00     0.016 A 
ATOM     29  C   UNL A   1      35.054  31.527  27.655  1.00  0.00     0.016 A 
ATOM     30  C   UNL A   1      36.352  29.400  28.855  1.00  0.00     0.010 A 
ATOM     31  C   UNL A   1      36.406  31.627  28.252  1.00  0.00     0.010 A 
ATOM     32  C   UNL A   1      37.055  30.538  28.873  1.00  0.00    -0.014 A 
BRANCH  32  33
ATOM     33  C   UNL A   1      38.335  30.383  29.607  1.00  0.00     0.031 A 
ATOM     34  C   UNL A   1      39.418  29.591  28.962  1.00  0.00     0.074 A 
ATOM     35  C   UNL A   1      38.655  31.141  30.692  1.00  0.00     0.049 A 
ATOM     36  N   UNL A   1      40.463  29.042  29.506  1.00  0.00    -0.248 NA
ATOM     37  C   UNL A   1      39.313  29.404  27.504  1.00  0.00     0.031 C 
ATOM     38  C   UNL A   1      37.862  32.249  31.259  1.00  0.00     0.029 A 
ATOM     39  N   UNL A   1      39.743  31.082  31.536  1.00  0.00    -0.354 N 
ATOM     40  C   UNL A   1      41.058  28.310  28.492  1.00  0.00     0.074 A 
ATOM     41  C   UNL A   1      40.313  28.564  27.277  1.00  0.00     0.031 C 
ATOM     42  C   UNL A   1      38.438  32.688  32.389  1.00  0.00     0.029 A 
ATOM     43  C   UNL A   1      39.566  31.824  32.687  1.00  0.00     0.049 A 
ATOM     44  H   UNL A   1      40.559  30.566  31.340  1.00  0.00     0.167 HD
ATOM     45  C   UNL A   1      42.101  27.462  28.610  1.00  0.00     0.034 A 
ATOM     46  C   UNL A   1      40.159  31.726  33.893  1.00  0.00     0.034 A 
ATOM     47  C   UNL A   1      42.829  27.286  29.836  1.00  0.00     0.049 A 
ATOM     48  C   UNL A   1      41.228  30.682  34.058  1.00  0.00     0.074 A 
ATOM     49  C   UNL A   1      43.866  26.416  30.112  1.00  0.00     0.029 A 
ATOM     50  N   UNL A   1      42.595  28.013  30.997  1.00  0.00    -0.354 N 
ATOM     51  N   UNL A   1      41.728  29.868  33.157  1.00  0.00    -0.248 NA
ATOM     52  C   UNL A   1      41.819  30.539  35.394  1.00  0.00     0.031 C 
ATOM     53  C   UNL A   1      44.241  26.599  31.446  1.00  0.00     0.029 A 
ATOM     54  C   UNL A   1      43.466  27.612  31.991  1.00  0.00     0.049 A 
ATOM     55  H   UNL A   1      41.909  28.712  31.096  1.00  0.00     0.167 HD
ATOM     56  C   UNL A   1      42.720  29.145  33.806  1.00  0.00     0.074 A 
ATOM     57  C   UNL A   1      42.759  29.631  35.172  1.00  0.00     0.031 C 
ATOM     58  C   UNL A   1      43.518  28.161  33.324  1.00  0.00     0.034 A 
BRANCH  45  59
ATOM     59  C   UNL A   1      42.441  26.612  27.420  1.00  0.00     0.023 A 
ATOM     60  C   UNL A   1      43.150  27.150  26.330  1.00  0.00     0.012 A 
ATOM     61  C   UNL A   1      42.053  25.257  27.395  1.00  0.00     0.148 A 
ATOM     62  C   UNL A   1      43.445  26.357  25.220  1.00  0.00     0.002 A 
ATOM     63  C   UNL A   1      42.393  24.462  26.311  1.00  0.00     0.091 A 
ATOM     64  F   UNL A   1      41.344  24.776  28.428  1.00  0.00    -0.205 F 
ATOM     65  C   UNL A   1      43.078  25.014  25.216  1.00  0.00     0.022 A 
BRANCH  63  66
ATOM     66  S   UNL A   1      42.031  22.704  26.247  1.00  0.00     0.127 S 
ATOM     67  O   UNL A   1      42.596  22.333  24.950  1.00  0.00    -0.237 OA
ATOM     68  O   UNL A   1      42.772  22.199  27.403  1.00  0.00    -0.237 OA
ATOM     69  O   UNL A   1      40.584  22.585  26.351  1.00  0.00    -0.744 OA
ENDBRANCH  63  66
ENDBRANCH  45  59
BRANCH  46  70
ATOM     70  C   UNL A   1      39.698  32.553  35.051  1.00  0.00     0.023 A 
ATOM     71  C   UNL A   1      38.795  32.005  35.981  1.00  0.00     0.012 A 
ATOM     72  C   UNL A   1      40.140  33.882  35.234  1.00  0.00     0.148 A 
ATOM     73  C   UNL A   1      38.315  32.770  37.046  1.00  0.00     0.002 A 
ATOM     74  C   UNL A   1      39.706  34.617  36.332  1.00  0.00     0.091 A 
ATOM     75  F   UNL A   1      40.980  34.404  34.328  1.00  0.00    -0.205 F 
ATOM     76  C   UNL A   1      38.778  34.070  37.230  1.00  0.00     0.022 A 
BRANCH  74  77
ATOM     77  S   UNL A   1      40.350  36.251  36.720  1.00  0.00     0.127 S 
ATOM     78  O   UNL A   1      41.765  35.971  36.946  1.00  0.00    -0.237 OA
ATOM     79  O   UNL A   1      40.057  36.989  35.491  1.00  0.00    -0.237 OA
ATOM     80  O   UNL A   1      39.599  36.705  37.883  1.00  0.00    -0.744 OA
ENDBRANCH  74  77
ENDBRANCH  46  70
BRANCH  58  81
ATOM     81  C   UNL A   1      44.553  27.599  34.259  1.00  0.00     0.023 A 
ATOM     82  C   UNL A   1      45.833  28.181  34.333  1.00  0.00     0.012 A 
ATOM     83  C   UNL A   1      44.224  26.528  35.112  1.00  0.00     0.148 A 
ATOM     84  C   UNL A   1      46.784  27.679  35.220  1.00  0.00     0.002 A 
ATOM     85  C   UNL A   1      45.157  26.070  36.031  1.00  0.00     0.091 A 
ATOM     86  F   UNL A   1      43.005  25.977  35.008  1.00  0.00    -0.205 F 
ATOM     87  C   UNL A   1      46.442  26.634  36.076  1.00  0.00     0.022 A 
BRANCH  85  88
ATOM     88  S   UNL A   1      44.772  24.800  37.239  1.00  0.00     0.127 S 
ATOM     89  O   UNL A   1      44.733  23.600  36.406  1.00  0.00    -0.237 OA
ATOM     90  O   UNL A   1      45.918  24.879  38.146  1.00  0.00    -0.237 OA
ATOM     91  O   UNL A   1      43.501  25.186  37.837  1.00  0.00    -0.744 OA
ENDBRANCH  85  88
ENDBRANCH  58  81
ENDBRANCH  32  33
ENDBRANCH  25  27
ENDBRANCH  24  25
ENDBRANCH   1  24
TORSDOF 17
ENDMDL
