MODEL 1
REMARK VINA RESULT:     -11.5      0.000      0.000
REMARK SMILES Cc1csc(C[C@@H](Cc2ccc(Br)cc2)C(=O)OCCOC(=O)c2ccc(-c3c4nc(c(-c5cccc(S(=O)(=O)[O-])c5F)c5ccc([nH]5)c(-c5cccc(S(=O)(=O)[O-])c5F)c5nc(c(-c6cccc(S(=O)(=O)[O-])c6F)c6ccc3[nH]6)C=C5)C=C4)cc2)n1
REMARK SMILES IDX 20 1 19 2 18 3 16 4 17 5 7 6 6 7 5 8 1 9 2 10 3 11 87 12
REMARK SMILES IDX 4 13 8 14 9 15 10 16 15 17 11 18 14 19 12 20 13 21 21 22
REMARK SMILES IDX 22 23 23 24 24 25 25 26 86 27 26 28 85 29 27 30 28 31 29 32
REMARK SMILES IDX 79 33 30 34 84 35 78 36 80 37 31 38 83 39 77 40 76 41 32 43
REMARK SMILES IDX 64 44 44 45 63 46 45 47 48 48 62 49 81 50 46 51 47 52 61 54
REMARK SMILES IDX 82 55 49 56 33 57 34 58 42 59 35 60 37 61 43 62 36 63 38 64
REMARK SMILES IDX 39 65 40 66 41 67 65 68 66 69 74 70 67 71 69 72 75 73 68 74
REMARK SMILES IDX 70 75 71 76 72 77 73 78 50 79 51 80 59 81 52 82 54 83 60 84
REMARK SMILES IDX 53 85 55 86 56 87 57 88 58 89
REMARK H PARENT 80 42 48 53
REMARK Flexibility Score: inf
ROOT
ATOM      1  C   UNL A   1      36.493  21.123  24.615  1.00  0.00     0.275 C 
ENDROOT
BRANCH   1   2
ATOM      2  C   UNL A   1      35.963  22.283  23.771  1.00  0.00     0.274 C 
BRANCH   2   3
ATOM      3  O   UNL A   1      34.624  22.651  24.154  1.00  0.00    -0.462 OA
BRANCH   3   4
ATOM      4  C   UNL A   1      33.762  22.929  23.140  1.00  0.00     0.309 C 
ATOM      5  O   UNL A   1      34.042  23.590  22.147  1.00  0.00    -0.252 OA
BRANCH   4   6
ATOM      6  C   UNL A   1      32.356  22.415  23.398  1.00  0.00     0.110 C 
BRANCH   6   7
ATOM      7  C   UNL A   1      31.307  23.540  23.346  1.00  0.00     0.083 C 
BRANCH   7   8
ATOM      8  C   UNL A   1      31.563  24.611  24.368  1.00  0.00     0.094 A 
ATOM      9  C   UNL A   1      32.264  28.063  25.075  1.00  0.00     0.067 C 
ATOM     10  C   UNL A   1      31.992  26.612  25.221  1.00  0.00     0.048 A 
ATOM     11  C   UNL A   1      31.827  25.906  26.395  1.00  0.00     0.090 A 
ATOM     12  N   UNL A   1      31.874  25.854  24.072  1.00  0.00    -0.247 NA
ATOM     13  S   UNL A   1      31.475  24.264  26.049  1.00  0.00    -0.127 S 
ENDBRANCH   7   8
ENDBRANCH   6   7
BRANCH   6  14
ATOM     14  C   UNL A   1      32.114  21.192  22.492  1.00  0.00     0.051 C 
BRANCH  14  15
ATOM     15  C   UNL A   1      32.305  19.867  23.192  1.00  0.00    -0.047 A 
ATOM     16  C   UNL A   1      32.423  18.683  22.452  1.00  0.00     0.005 A 
ATOM     17  C   UNL A   1      32.455  19.823  24.585  1.00  0.00     0.005 A 
ATOM     18  C   UNL A   1      32.748  17.486  23.087  1.00  0.00     0.016 A 
ATOM     19  C   UNL A   1      32.777  18.626  25.222  1.00  0.00     0.016 A 
ATOM     20  C   UNL A   1      32.936  17.465  24.468  1.00  0.00     0.017 A 
ATOM     21  Br  UNL A   1      33.433  15.855  25.323  1.00  0.00    -0.051 Br
ENDBRANCH  14  15
ENDBRANCH   6  14
ENDBRANCH   4   6
ENDBRANCH   3   4
ENDBRANCH   2   3
ENDBRANCH   1   2
BRANCH   1  22
ATOM     22  O   UNL A   1      37.124  21.595  25.815  1.00  0.00    -0.458 OA
BRANCH  22  23
ATOM     23  C   UNL A   1      38.431  21.269  25.942  1.00  0.00     0.338 C 
ATOM     24  O   UNL A   1      38.976  20.233  25.603  1.00  0.00    -0.246 OA
BRANCH  23  25
ATOM     25  C   UNL A   1      39.163  22.442  26.435  1.00  0.00     0.060 A 
ATOM     26  C   UNL A   1      38.728  23.709  26.039  1.00  0.00     0.016 A 
ATOM     27  C   UNL A   1      40.291  22.289  27.238  1.00  0.00     0.016 A 
ATOM     28  C   UNL A   1      39.413  24.843  26.459  1.00  0.00     0.010 A 
ATOM     29  C   UNL A   1      40.978  23.427  27.659  1.00  0.00     0.010 A 
ATOM     30  C   UNL A   1      40.544  24.707  27.270  1.00  0.00    -0.014 A 
BRANCH  30  31
ATOM     31  C   UNL A   1      41.298  25.904  27.701  1.00  0.00     0.031 A 
ATOM     32  C   UNL A   1      40.601  26.973  28.486  1.00  0.00     0.074 A 
ATOM     33  C   UNL A   1      42.590  26.036  27.350  1.00  0.00     0.049 A 
ATOM     34  N   UNL A   1      41.033  28.154  28.834  1.00  0.00    -0.248 NA
ATOM     35  C   UNL A   1      39.232  26.671  28.937  1.00  0.00     0.031 C 
ATOM     36  C   UNL A   1      43.370  25.037  26.616  1.00  0.00     0.029 A 
ATOM     37  N   UNL A   1      43.464  27.074  27.538  1.00  0.00    -0.354 N 
ATOM     38  C   UNL A   1      39.979  28.757  29.509  1.00  0.00     0.074 A 
ATOM     39  C   UNL A   1      38.886  27.808  29.523  1.00  0.00     0.031 C 
ATOM     40  C   UNL A   1      44.602  25.523  26.396  1.00  0.00     0.029 A 
ATOM     41  C   UNL A   1      44.680  26.880  26.927  1.00  0.00     0.049 A 
ATOM     42  H   UNL A   1      43.242  27.880  28.059  1.00  0.00     0.167 HD
ATOM     43  C   UNL A   1      39.934  29.986  30.074  1.00  0.00     0.034 A 
ATOM     44  C   UNL A   1      45.723  27.720  26.781  1.00  0.00     0.034 A 
ATOM     45  C   UNL A   1      41.038  30.908  30.071  1.00  0.00     0.049 A 
ATOM     46  C   UNL A   1      45.624  29.104  27.362  1.00  0.00     0.074 A 
ATOM     47  C   UNL A   1      41.113  32.165  30.643  1.00  0.00     0.029 A 
ATOM     48  N   UNL A   1      42.259  30.675  29.455  1.00  0.00    -0.354 N 
ATOM     49  N   UNL A   1      44.654  29.636  28.066  1.00  0.00    -0.248 NA
ATOM     50  C   UNL A   1      46.766  30.002  27.138  1.00  0.00     0.031 C 
ATOM     51  C   UNL A   1      42.374  32.700  30.357  1.00  0.00     0.029 A 
ATOM     52  C   UNL A   1      43.090  31.769  29.619  1.00  0.00     0.049 A 
ATOM     53  H   UNL A   1      42.500  29.852  28.973  1.00  0.00     0.167 HD
ATOM     54  C   UNL A   1      45.077  30.920  28.392  1.00  0.00     0.074 A 
ATOM     55  C   UNL A   1      46.401  31.077  27.822  1.00  0.00     0.031 C 
ATOM     56  C   UNL A   1      44.423  31.887  29.082  1.00  0.00     0.034 A 
BRANCH  43  57
ATOM     57  C   UNL A   1      38.657  30.389  30.757  1.00  0.00     0.023 A 
ATOM     58  C   UNL A   1      38.452  30.043  32.109  1.00  0.00     0.012 A 
ATOM     59  C   UNL A   1      37.670  31.130  30.076  1.00  0.00     0.148 A 
ATOM     60  C   UNL A   1      37.273  30.400  32.763  1.00  0.00     0.002 A 
ATOM     61  C   UNL A   1      36.514  31.514  30.747  1.00  0.00     0.091 A 
ATOM     62  F   UNL A   1      37.869  31.425  28.783  1.00  0.00    -0.205 F 
ATOM     63  C   UNL A   1      36.309  31.142  32.085  1.00  0.00     0.022 A 
BRANCH  61  64
ATOM     64  S   UNL A   1      35.247  32.526  29.972  1.00  0.00     0.127 S 
ATOM     65  O   UNL A   1      34.768  31.640  28.913  1.00  0.00    -0.237 OA
ATOM     66  O   UNL A   1      34.300  32.731  31.069  1.00  0.00    -0.237 OA
ATOM     67  O   UNL A   1      35.924  33.735  29.526  1.00  0.00    -0.744 OA
ENDBRANCH  61  64
ENDBRANCH  43  57
BRANCH  44  68
ATOM     68  C   UNL A   1      46.952  27.262  26.077  1.00  0.00     0.023 A 
ATOM     69  C   UNL A   1      47.108  27.552  24.708  1.00  0.00     0.012 A 
ATOM     70  C   UNL A   1      47.985  26.585  26.757  1.00  0.00     0.148 A 
ATOM     71  C   UNL A   1      48.261  27.163  24.025  1.00  0.00     0.002 A 
ATOM     72  C   UNL A   1      49.152  26.245  26.083  1.00  0.00     0.091 A 
ATOM     73  F   UNL A   1      47.809  26.298  28.055  1.00  0.00    -0.205 F 
ATOM     74  C   UNL A   1      49.287  26.522  24.714  1.00  0.00     0.022 A 
BRANCH  72  75
ATOM     75  S   UNL A   1      50.574  25.530  26.917  1.00  0.00     0.127 S 
ATOM     76  O   UNL A   1      50.948  26.597  27.841  1.00  0.00    -0.237 OA
ATOM     77  O   UNL A   1      49.990  24.345  27.548  1.00  0.00    -0.237 OA
ATOM     78  O   UNL A   1      51.538  25.235  25.866  1.00  0.00    -0.744 OA
ENDBRANCH  72  75
ENDBRANCH  44  68
BRANCH  56  79
ATOM     79  C   UNL A   1      45.132  33.200  29.277  1.00  0.00     0.023 A 
ATOM     80  C   UNL A   1      45.950  33.384  30.409  1.00  0.00     0.012 A 
ATOM     81  C   UNL A   1      45.059  34.212  28.301  1.00  0.00     0.148 A 
ATOM     82  C   UNL A   1      46.669  34.566  30.577  1.00  0.00     0.002 A 
ATOM     83  C   UNL A   1      45.811  35.370  28.454  1.00  0.00     0.091 A 
ATOM     84  F   UNL A   1      44.259  34.021  27.241  1.00  0.00    -0.205 F 
ATOM     85  C   UNL A   1      46.609  35.553  29.596  1.00  0.00     0.022 A 
BRANCH  83  86
ATOM     86  S   UNL A   1      45.870  36.655  27.200  1.00  0.00     0.127 S 
ATOM     87  O   UNL A   1      44.477  37.100  27.164  1.00  0.00    -0.237 OA
ATOM     88  O   UNL A   1      46.803  37.617  27.786  1.00  0.00    -0.237 OA
ATOM     89  O   UNL A   1      46.350  36.011  25.985  1.00  0.00    -0.744 OA
ENDBRANCH  83  86
ENDBRANCH  56  79
ENDBRANCH  30  31
ENDBRANCH  23  25
ENDBRANCH  22  23
ENDBRANCH   1  22
TORSDOF 18
ENDMDL
MODEL 2
REMARK VINA RESULT:     -11.3      1.829      3.495
REMARK SMILES Cc1csc(C[C@@H](Cc2ccc(Br)cc2)C(=O)OCCOC(=O)c2ccc(-c3c4nc(c(-c5cccc(S(=O)(=O)[O-])c5F)c5ccc([nH]5)c(-c5cccc(S(=O)(=O)[O-])c5F)c5nc(c(-c6cccc(S(=O)(=O)[O-])c6F)c6ccc3[nH]6)C=C5)C=C4)cc2)n1
REMARK SMILES IDX 20 1 19 2 18 3 16 4 17 5 7 6 6 7 5 8 1 9 2 10 3 11 87 12
REMARK SMILES IDX 4 13 8 14 9 15 10 16 15 17 11 18 14 19 12 20 13 21 21 22
REMARK SMILES IDX 22 23 23 24 24 25 25 26 86 27 26 28 85 29 27 30 28 31 29 32
REMARK SMILES IDX 79 33 30 34 84 35 78 36 80 37 31 38 83 39 77 40 76 41 32 43
REMARK SMILES IDX 64 44 44 45 63 46 45 47 48 48 62 49 81 50 46 51 47 52 61 54
REMARK SMILES IDX 82 55 49 56 33 57 34 58 42 59 35 60 37 61 43 62 36 63 38 64
REMARK SMILES IDX 39 65 40 66 41 67 65 68 66 69 74 70 67 71 69 72 75 73 68 74
REMARK SMILES IDX 70 75 71 76 72 77 73 78 50 79 51 80 59 81 52 82 54 83 60 84
REMARK SMILES IDX 53 85 55 86 56 87 57 88 58 89
REMARK H PARENT 80 42 48 53
REMARK Flexibility Score: inf
ROOT
ATOM      1  C   UNL A   1      36.431  21.319  24.605  1.00  0.00     0.275 C 
ENDROOT
BRANCH   1   2
ATOM      2  C   UNL A   1      36.318  22.521  23.666  1.00  0.00     0.274 C 
BRANCH   2   3
ATOM      3  O   UNL A   1      35.339  23.470  24.131  1.00  0.00    -0.462 OA
BRANCH   3   4
ATOM      4  C   UNL A   1      34.201  23.573  23.394  1.00  0.00     0.309 C 
ATOM      5  O   UNL A   1      34.110  23.282  22.207  1.00  0.00    -0.252 OA
BRANCH   4   6
ATOM      6  C   UNL A   1      33.047  24.185  24.167  1.00  0.00     0.110 C 
BRANCH   6   7
ATOM      7  C   UNL A   1      31.865  23.211  24.316  1.00  0.00     0.083 C 
BRANCH   7   8
ATOM      8  C   UNL A   1      32.312  21.804  24.590  1.00  0.00     0.094 A 
ATOM      9  C   UNL A   1      32.862  18.472  23.364  1.00  0.00     0.067 C 
ATOM     10  C   UNL A   1      32.783  19.665  24.242  1.00  0.00     0.048 A 
ATOM     11  C   UNL A   1      33.202  19.769  25.553  1.00  0.00     0.090 A 
ATOM     12  N   UNL A   1      32.245  20.824  23.716  1.00  0.00    -0.247 NA
ATOM     13  S   UNL A   1      32.953  21.366  26.124  1.00  0.00    -0.127 S 
ENDBRANCH   7   8
ENDBRANCH   6   7
BRANCH   6  14
ATOM     14  C   UNL A   1      33.607  24.808  25.461  1.00  0.00     0.051 C 
BRANCH  14  15
ATOM     15  C   UNL A   1      33.183  26.241  25.683  1.00  0.00    -0.047 A 
ATOM     16  C   UNL A   1      32.056  26.536  26.459  1.00  0.00     0.005 A 
ATOM     17  C   UNL A   1      33.968  27.290  25.185  1.00  0.00     0.005 A 
ATOM     18  C   UNL A   1      31.753  27.857  26.787  1.00  0.00     0.016 A 
ATOM     19  C   UNL A   1      33.665  28.612  25.508  1.00  0.00     0.016 A 
ATOM     20  C   UNL A   1      32.567  28.888  26.320  1.00  0.00     0.017 A 
ATOM     21  Br  UNL A   1      32.191  30.674  26.810  1.00  0.00    -0.051 Br
ENDBRANCH  14  15
ENDBRANCH   6  14
ENDBRANCH   4   6
ENDBRANCH   3   4
ENDBRANCH   2   3
ENDBRANCH   1   2
BRANCH   1  22
ATOM     22  O   UNL A   1      37.027  21.688  25.857  1.00  0.00    -0.458 OA
BRANCH  22  23
ATOM     23  C   UNL A   1      38.327  21.342  25.998  1.00  0.00     0.338 C 
ATOM     24  O   UNL A   1      38.855  20.290  25.684  1.00  0.00    -0.246 OA
BRANCH  23  25
ATOM     25  C   UNL A   1      39.077  22.511  26.471  1.00  0.00     0.060 A 
ATOM     26  C   UNL A   1      38.622  23.782  26.109  1.00  0.00     0.016 A 
ATOM     27  C   UNL A   1      40.241  22.354  27.222  1.00  0.00     0.016 A 
ATOM     28  C   UNL A   1      39.322  24.913  26.510  1.00  0.00     0.010 A 
ATOM     29  C   UNL A   1      40.943  23.489  27.624  1.00  0.00     0.010 A 
ATOM     30  C   UNL A   1      40.488  24.772  27.268  1.00  0.00    -0.014 A 
BRANCH  30  31
ATOM     31  C   UNL A   1      41.258  25.966  27.679  1.00  0.00     0.031 A 
ATOM     32  C   UNL A   1      40.585  27.039  28.479  1.00  0.00     0.074 A 
ATOM     33  C   UNL A   1      42.540  26.092  27.294  1.00  0.00     0.049 A 
ATOM     34  N   UNL A   1      41.030  28.220  28.814  1.00  0.00    -0.248 NA
ATOM     35  C   UNL A   1      39.227  26.743  28.965  1.00  0.00     0.031 C 
ATOM     36  C   UNL A   1      43.298  25.090  26.543  1.00  0.00     0.029 A 
ATOM     37  N   UNL A   1      43.423  27.128  27.459  1.00  0.00    -0.354 N 
ATOM     38  C   UNL A   1      39.996  28.827  29.515  1.00  0.00     0.074 A 
ATOM     39  C   UNL A   1      38.900  27.883  29.558  1.00  0.00     0.031 C 
ATOM     40  C   UNL A   1      44.526  25.570  26.290  1.00  0.00     0.029 A 
ATOM     41  C   UNL A   1      44.623  26.928  26.818  1.00  0.00     0.049 A 
ATOM     42  H   UNL A   1      43.218  27.935  27.984  1.00  0.00     0.167 HD
ATOM     43  C   UNL A   1      39.971  30.057  30.079  1.00  0.00     0.034 A 
ATOM     44  C   UNL A   1      45.665  27.764  26.644  1.00  0.00     0.034 A 
ATOM     45  C   UNL A   1      41.077  30.975  30.046  1.00  0.00     0.049 A 
ATOM     46  C   UNL A   1      45.586  29.149  27.225  1.00  0.00     0.074 A 
ATOM     47  C   UNL A   1      41.172  32.233  30.614  1.00  0.00     0.029 A 
ATOM     48  N   UNL A   1      42.281  30.736  29.400  1.00  0.00    -0.354 N 
ATOM     49  N   UNL A   1      44.637  29.686  27.953  1.00  0.00    -0.248 NA
ATOM     50  C   UNL A   1      46.726  30.041  26.971  1.00  0.00     0.031 C 
ATOM     51  C   UNL A   1      42.427  32.762  30.295  1.00  0.00     0.029 A 
ATOM     52  C   UNL A   1      43.121  31.827  29.541  1.00  0.00     0.049 A 
ATOM     53  H   UNL A   1      42.507  29.911  28.913  1.00  0.00     0.167 HD
ATOM     54  C   UNL A   1      45.072  30.968  28.265  1.00  0.00     0.074 A 
ATOM     55  C   UNL A   1      46.382  31.120  27.662  1.00  0.00     0.031 C 
ATOM     56  C   UNL A   1      44.440  31.938  28.971  1.00  0.00     0.034 A 
BRANCH  43  57
ATOM     57  C   UNL A   1      38.712  30.467  30.793  1.00  0.00     0.023 A 
ATOM     58  C   UNL A   1      38.544  30.129  32.152  1.00  0.00     0.012 A 
ATOM     59  C   UNL A   1      37.709  31.205  30.135  1.00  0.00     0.148 A 
ATOM     60  C   UNL A   1      37.383  30.492  32.835  1.00  0.00     0.002 A 
ATOM     61  C   UNL A   1      36.572  31.595  30.833  1.00  0.00     0.091 A 
ATOM     62  F   UNL A   1      37.873  31.491  28.835  1.00  0.00    -0.205 F 
ATOM     63  C   UNL A   1      36.402  31.231  32.179  1.00  0.00     0.022 A 
BRANCH  61  64
ATOM     64  S   UNL A   1      35.285  32.603  30.087  1.00  0.00     0.127 S 
ATOM     65  O   UNL A   1      34.352  32.763  31.201  1.00  0.00    -0.237 OA
ATOM     66  O   UNL A   1      36.015  33.819  29.724  1.00  0.00    -0.237 OA
ATOM     67  O   UNL A   1      34.789  31.836  28.953  1.00  0.00    -0.744 OA
ENDBRANCH  61  64
ENDBRANCH  43  57
BRANCH  44  68
ATOM     68  C   UNL A   1      46.874  27.300  25.910  1.00  0.00     0.023 A 
ATOM     69  C   UNL A   1      46.952  27.499  24.518  1.00  0.00     0.012 A 
ATOM     70  C   UNL A   1      47.964  26.706  26.579  1.00  0.00     0.148 A 
ATOM     71  C   UNL A   1      48.083  27.104  23.804  1.00  0.00     0.002 A 
ATOM     72  C   UNL A   1      49.108  26.360  25.870  1.00  0.00     0.091 A 
ATOM     73  F   UNL A   1      47.862  26.504  27.902  1.00  0.00    -0.205 F 
ATOM     74  C   UNL A   1      49.165  26.546  24.481  1.00  0.00     0.022 A 
BRANCH  72  75
ATOM     75  S   UNL A   1      50.595  25.752  26.676  1.00  0.00     0.127 S 
ATOM     76  O   UNL A   1      50.904  26.844  27.596  1.00  0.00    -0.237 OA
ATOM     77  O   UNL A   1      50.114  24.526  27.314  1.00  0.00    -0.237 OA
ATOM     78  O   UNL A   1      51.559  25.533  25.607  1.00  0.00    -0.744 OA
ENDBRANCH  72  75
ENDBRANCH  44  68
BRANCH  56  79
ATOM     79  C   UNL A   1      45.160  33.249  29.146  1.00  0.00     0.023 A 
ATOM     80  C   UNL A   1      46.036  33.418  30.235  1.00  0.00     0.012 A 
ATOM     81  C   UNL A   1      45.034  34.275  28.189  1.00  0.00     0.148 A 
ATOM     82  C   UNL A   1      46.764  34.598  30.381  1.00  0.00     0.002 A 
ATOM     83  C   UNL A   1      45.794  35.431  28.317  1.00  0.00     0.091 A 
ATOM     84  F   UNL A   1      44.179  34.098  27.171  1.00  0.00    -0.205 F 
ATOM     85  C   UNL A   1      46.652  35.598  29.417  1.00  0.00     0.022 A 
BRANCH  83  86
ATOM     86  S   UNL A   1      45.787  36.733  27.080  1.00  0.00     0.127 S 
ATOM     87  O   UNL A   1      46.616  37.755  27.719  1.00  0.00    -0.237 OA
ATOM     88  O   UNL A   1      46.408  36.073  25.932  1.00  0.00    -0.237 OA
ATOM     89  O   UNL A   1      44.390  37.096  26.885  1.00  0.00    -0.744 OA
ENDBRANCH  83  86
ENDBRANCH  56  79
ENDBRANCH  30  31
ENDBRANCH  23  25
ENDBRANCH  22  23
ENDBRANCH   1  22
TORSDOF 18
ENDMDL
MODEL 3
REMARK VINA RESULT:     -11.3      2.273      3.718
REMARK SMILES Cc1csc(C[C@@H](Cc2ccc(Br)cc2)C(=O)OCCOC(=O)c2ccc(-c3c4nc(c(-c5cccc(S(=O)(=O)[O-])c5F)c5ccc([nH]5)c(-c5cccc(S(=O)(=O)[O-])c5F)c5nc(c(-c6cccc(S(=O)(=O)[O-])c6F)c6ccc3[nH]6)C=C5)C=C4)cc2)n1
REMARK SMILES IDX 20 1 19 2 18 3 16 4 17 5 7 6 6 7 5 8 1 9 2 10 3 11 87 12
REMARK SMILES IDX 4 13 8 14 9 15 10 16 15 17 11 18 14 19 12 20 13 21 21 22
REMARK SMILES IDX 22 23 23 24 24 25 25 26 86 27 26 28 85 29 27 30 28 31 29 32
REMARK SMILES IDX 79 33 30 34 84 35 78 36 80 37 31 38 83 39 77 40 76 41 32 43
REMARK SMILES IDX 64 44 44 45 63 46 45 47 48 48 62 49 81 50 46 51 47 52 61 54
REMARK SMILES IDX 82 55 49 56 33 57 34 58 42 59 35 60 37 61 43 62 36 63 38 64
REMARK SMILES IDX 39 65 40 66 41 67 65 68 66 69 74 70 67 71 69 72 75 73 68 74
REMARK SMILES IDX 70 75 71 76 72 77 73 78 50 79 51 80 59 81 52 82 54 83 60 84
REMARK SMILES IDX 53 85 55 86 56 87 57 88 58 89
REMARK H PARENT 80 42 48 53
REMARK Flexibility Score: inf
ROOT
ATOM      1  C   UNL A   1      37.214  20.712  24.987  1.00  0.00     0.275 C 
ENDROOT
BRANCH   1   2
ATOM      2  C   UNL A   1      35.726  21.042  25.099  1.00  0.00     0.274 C 
BRANCH   2   3
ATOM      3  O   UNL A   1      35.489  22.128  26.016  1.00  0.00    -0.462 OA
BRANCH   3   4
ATOM      4  C   UNL A   1      34.321  22.087  26.711  1.00  0.00     0.309 C 
ATOM      5  O   UNL A   1      34.187  21.590  27.823  1.00  0.00    -0.252 OA
BRANCH   4   6
ATOM      6  C   UNL A   1      33.144  22.641  25.926  1.00  0.00     0.110 C 
BRANCH   6   7
ATOM      7  C   UNL A   1      31.966  21.652  25.871  1.00  0.00     0.083 C 
BRANCH   7   8
ATOM      8  C   UNL A   1      32.225  20.502  24.940  1.00  0.00     0.094 A 
ATOM      9  C   UNL A   1      32.740  16.973  24.503  1.00  0.00     0.067 C 
ATOM     10  C   UNL A   1      32.580  18.426  24.247  1.00  0.00     0.048 A 
ATOM     11  C   UNL A   1      32.552  19.062  23.023  1.00  0.00     0.090 A 
ATOM     12  N   UNL A   1      32.427  19.264  25.335  1.00  0.00    -0.247 NA
ATOM     13  S   UNL A   1      32.287  20.742  23.239  1.00  0.00    -0.127 S 
ENDBRANCH   7   8
ENDBRANCH   6   7
BRANCH   6  14
ATOM     14  C   UNL A   1      32.842  24.060  26.445  1.00  0.00     0.051 C 
BRANCH  14  15
ATOM     15  C   UNL A   1      33.250  25.158  25.491  1.00  0.00    -0.047 A 
ATOM     16  C   UNL A   1      33.342  24.906  24.116  1.00  0.00     0.005 A 
ATOM     17  C   UNL A   1      33.453  26.462  25.965  1.00  0.00     0.005 A 
ATOM     18  C   UNL A   1      33.570  25.952  23.223  1.00  0.00     0.016 A 
ATOM     19  C   UNL A   1      33.685  27.508  25.074  1.00  0.00     0.016 A 
ATOM     20  C   UNL A   1      33.728  27.250  23.705  1.00  0.00     0.017 A 
ATOM     21  Br  UNL A   1      33.981  28.677  22.492  1.00  0.00    -0.051 Br
ENDBRANCH  14  15
ENDBRANCH   6  14
ENDBRANCH   4   6
ENDBRANCH   3   4
ENDBRANCH   2   3
ENDBRANCH   1   2
BRANCH   1  22
ATOM     22  O   UNL A   1      38.028  21.816  25.408  1.00  0.00    -0.458 OA
BRANCH  22  23
ATOM     23  C   UNL A   1      39.135  21.478  26.111  1.00  0.00     0.338 C 
ATOM     24  O   UNL A   1      39.635  20.373  26.225  1.00  0.00    -0.246 OA
BRANCH  23  25
ATOM     25  C   UNL A   1      39.759  22.703  26.623  1.00  0.00     0.060 A 
ATOM     26  C   UNL A   1      39.374  23.926  26.068  1.00  0.00     0.016 A 
ATOM     27  C   UNL A   1      40.746  22.642  27.605  1.00  0.00     0.016 A 
ATOM     28  C   UNL A   1      39.965  25.106  26.503  1.00  0.00     0.010 A 
ATOM     29  C   UNL A   1      41.338  23.826  28.042  1.00  0.00     0.010 A 
ATOM     30  C   UNL A   1      40.952  25.061  27.492  1.00  0.00    -0.014 A 
BRANCH  30  31
ATOM     31  C   UNL A   1      41.609  26.307  27.945  1.00  0.00     0.031 A 
ATOM     32  C   UNL A   1      40.804  27.343  28.668  1.00  0.00     0.074 A 
ATOM     33  C   UNL A   1      42.909  26.509  27.668  1.00  0.00     0.049 A 
ATOM     34  N   UNL A   1      41.145  28.554  29.020  1.00  0.00    -0.248 NA
ATOM     35  C   UNL A   1      39.431  26.968  29.043  1.00  0.00     0.031 C 
ATOM     36  C   UNL A   1      43.788  25.548  27.000  1.00  0.00     0.029 A 
ATOM     37  N   UNL A   1      43.708  27.600  27.889  1.00  0.00    -0.354 N 
ATOM     38  C   UNL A   1      40.020  29.103  29.620  1.00  0.00     0.074 A 
ATOM     39  C   UNL A   1      38.985  28.092  29.587  1.00  0.00     0.031 C 
ATOM     40  C   UNL A   1      45.001  26.102  26.844  1.00  0.00     0.029 A 
ATOM     41  C   UNL A   1      44.968  27.470  27.354  1.00  0.00     0.049 A 
ATOM     42  H   UNL A   1      43.409  28.399  28.381  1.00  0.00     0.167 HD
ATOM     43  C   UNL A   1      39.870  30.335  30.159  1.00  0.00     0.034 A 
ATOM     44  C   UNL A   1      45.968  28.367  27.254  1.00  0.00     0.034 A 
ATOM     45  C   UNL A   1      40.917  31.321  30.204  1.00  0.00     0.049 A 
ATOM     46  C   UNL A   1      45.753  29.752  27.804  1.00  0.00     0.074 A 
ATOM     47  C   UNL A   1      40.884  32.588  30.757  1.00  0.00     0.029 A 
ATOM     48  N   UNL A   1      42.184  31.152  29.666  1.00  0.00    -0.354 N 
ATOM     49  N   UNL A   1      44.714  30.236  28.440  1.00  0.00    -0.248 NA
ATOM     50  C   UNL A   1      46.853  30.712  27.631  1.00  0.00     0.031 C 
ATOM     51  C   UNL A   1      42.126  33.192  30.536  1.00  0.00     0.029 A 
ATOM     52  C   UNL A   1      42.939  32.295  29.858  1.00  0.00     0.049 A 
ATOM     53  H   UNL A   1      42.500  30.336  29.214  1.00  0.00     0.167 HD
ATOM     54  C   UNL A   1      45.041  31.546  28.766  1.00  0.00     0.074 A 
ATOM     55  C   UNL A   1      46.385  31.774  28.273  1.00  0.00     0.031 C 
ATOM     56  C   UNL A   1      44.292  32.483  29.399  1.00  0.00     0.034 A 
BRANCH  43  57
ATOM     57  C   UNL A   1      38.532  30.672  30.758  1.00  0.00     0.023 A 
ATOM     58  C   UNL A   1      38.244  30.277  32.081  1.00  0.00     0.012 A 
ATOM     59  C   UNL A   1      37.571  31.399  30.029  1.00  0.00     0.148 A 
ATOM     60  C   UNL A   1      37.009  30.573  32.657  1.00  0.00     0.002 A 
ATOM     61  C   UNL A   1      36.356  31.722  30.624  1.00  0.00     0.091 A 
ATOM     62  F   UNL A   1      37.851  31.741  28.763  1.00  0.00    -0.205 F 
ATOM     63  C   UNL A   1      36.070  31.301  31.932  1.00  0.00     0.022 A 
BRANCH  61  64
ATOM     64  S   UNL A   1      35.111  32.712  29.788  1.00  0.00     0.127 S 
ATOM     65  O   UNL A   1      34.197  33.024  30.885  1.00  0.00    -0.237 OA
ATOM     66  O   UNL A   1      35.893  33.851  29.304  1.00  0.00    -0.237 OA
ATOM     67  O   UNL A   1      34.570  31.862  28.738  1.00  0.00    -0.744 OA
ENDBRANCH  61  64
ENDBRANCH  43  57
BRANCH  44  68
ATOM     68  C   UNL A   1      47.261  27.972  26.633  1.00  0.00     0.023 A 
ATOM     69  C   UNL A   1      48.332  27.587  27.462  1.00  0.00     0.012 A 
ATOM     70  C   UNL A   1      47.428  27.931  25.234  1.00  0.00     0.148 A 
ATOM     71  C   UNL A   1      49.549  27.183  26.913  1.00  0.00     0.002 A 
ATOM     72  C   UNL A   1      48.626  27.479  24.692  1.00  0.00     0.091 A 
ATOM     73  F   UNL A   1      46.405  28.323  24.461  1.00  0.00    -0.205 F 
ATOM     74  C   UNL A   1      49.691  27.117  25.529  1.00  0.00     0.022 A 
BRANCH  72  75
ATOM     75  S   UNL A   1      48.856  27.243  22.925  1.00  0.00     0.127 S 
ATOM     76  O   UNL A   1      48.131  28.385  22.374  1.00  0.00    -0.237 OA
ATOM     77  O   UNL A   1      50.312  27.318  22.797  1.00  0.00    -0.237 OA
ATOM     78  O   UNL A   1      48.295  25.933  22.628  1.00  0.00    -0.744 OA
ENDBRANCH  72  75
ENDBRANCH  44  68
BRANCH  56  79
ATOM     79  C   UNL A   1      44.911  33.839  29.612  1.00  0.00     0.023 A 
ATOM     80  C   UNL A   1      45.658  34.083  30.780  1.00  0.00     0.012 A 
ATOM     81  C   UNL A   1      44.826  34.835  28.620  1.00  0.00     0.148 A 
ATOM     82  C   UNL A   1      46.296  35.309  30.969  1.00  0.00     0.002 A 
ATOM     83  C   UNL A   1      45.500  36.037  28.795  1.00  0.00     0.091 A 
ATOM     84  F   UNL A   1      44.094  34.585  27.524  1.00  0.00    -0.205 F 
ATOM     85  C   UNL A   1      46.227  36.280  29.972  1.00  0.00     0.022 A 
BRANCH  83  86
ATOM     86  S   UNL A   1      45.545  37.311  27.528  1.00  0.00     0.127 S 
ATOM     87  O   UNL A   1      46.341  38.351  28.181  1.00  0.00    -0.237 OA
ATOM     88  O   UNL A   1      46.221  36.627  26.426  1.00  0.00    -0.237 OA
ATOM     89  O   UNL A   1      44.157  37.663  27.261  1.00  0.00    -0.744 OA
ENDBRANCH  83  86
ENDBRANCH  56  79
ENDBRANCH  30  31
ENDBRANCH  23  25
ENDBRANCH  22  23
ENDBRANCH   1  22
TORSDOF 18
ENDMDL
