MODEL 1
REMARK VINA RESULT:     -11.9      0.000      0.000
REMARK SMILES CC1=C2C(=O)CC(C)(C)CC2=N[C@@H]1C(=O)OCCOC(=O)c1ccc(-c2c3nc(c(-c4cccc(S(=O)(=O)[O-])c4F)c4ccc([nH]4)c(-c4cccc(S(=O)(=O)[O-])c4F)c4nc(c(-c5cccc(S(=O)(=O)[O-])c5F)c5ccc2[nH]5)C=C4)C=C3)cc1
REMARK SMILES IDX 19 1 18 2 17 3 16 4 14 5 15 6 13 7 1 8 2 9 3 10 4 11 11 12
REMARK SMILES IDX 12 13 5 14 6 15 10 16 7 17 8 18 9 19 20 20 21 21 22 22 23 23
REMARK SMILES IDX 84 24 24 25 83 26 25 27 26 28 27 29 77 30 28 31 82 32 76 33
REMARK SMILES IDX 78 34 29 35 81 36 75 37 74 38 30 40 62 41 42 42 61 43 43 44
REMARK SMILES IDX 46 45 60 46 79 47 44 48 45 49 59 51 80 52 47 53 31 54 32 55
REMARK SMILES IDX 40 56 33 57 35 58 41 59 34 60 36 61 37 62 38 63 39 64 63 65
REMARK SMILES IDX 64 66 72 67 65 68 67 69 73 70 66 71 68 72 69 73 70 74 71 75
REMARK SMILES IDX 48 76 49 77 57 78 50 79 52 80 58 81 51 82 53 83 54 84 55 85
REMARK SMILES IDX 56 86
REMARK H PARENT 78 39 46 50
REMARK Flexibility Score: inf
ROOT
ATOM      1  O   UNL A   1      35.317  29.660  28.347  1.00  0.00    -0.458 OA
ENDROOT
BRANCH   1   2
ATOM      2  C   UNL A   1      34.628  30.634  27.552  1.00  0.00     0.275 C 
BRANCH   2   3
ATOM      3  C   UNL A   1      33.450  30.077  26.744  1.00  0.00     0.274 C 
BRANCH   3   4
ATOM      4  O   UNL A   1      32.571  29.214  27.504  1.00  0.00    -0.460 OA
BRANCH   4   5
ATOM      5  C   UNL A   1      32.176  28.086  26.844  1.00  0.00     0.335 C 
ATOM      6  O   UNL A   1      31.189  27.432  27.178  1.00  0.00    -0.249 OA
BRANCH   5   7
ATOM      7  C   UNL A   1      33.166  27.630  25.727  1.00  0.00     0.242 C 
ATOM      8  C   UNL A   1      32.067  28.533  23.483  1.00  0.00     0.043 C 
ATOM      9  C   UNL A   1      32.832  27.517  24.252  1.00  0.00    -0.025 C 
ATOM     10  C   UNL A   1      33.304  26.370  23.752  1.00  0.00     0.040 C 
ATOM     11  C   UNL A   1      33.414  25.725  22.423  1.00  0.00     0.165 C 
ATOM     12  C   UNL A   1      33.380  25.587  24.975  1.00  0.00     0.048 C 
ATOM     13  N   UNL A   1      33.547  26.217  26.094  1.00  0.00    -0.269 NA
ATOM     14  O   UNL A   1      33.724  26.376  21.428  1.00  0.00    -0.294 OA
ATOM     15  C   UNL A   1      33.230  24.205  22.386  1.00  0.00     0.088 C 
ATOM     16  C   UNL A   1      33.123  24.112  24.891  1.00  0.00     0.063 C 
ATOM     17  C   UNL A   1      32.362  23.740  23.578  1.00  0.00    -0.023 C 
ATOM     18  C   UNL A   1      30.977  24.430  23.417  1.00  0.00     0.012 C 
ATOM     19  C   UNL A   1      32.144  22.212  23.587  1.00  0.00     0.012 C 
ENDBRANCH   5   7
ENDBRANCH   4   5
ENDBRANCH   3   4
ENDBRANCH   2   3
ENDBRANCH   1   2
BRANCH   1  20
ATOM     20  C   UNL A   1      36.360  30.177  29.019  1.00  0.00     0.338 C 
ATOM     21  O   UNL A   1      36.313  30.992  29.940  1.00  0.00    -0.246 OA
BRANCH  20  22
ATOM     22  C   UNL A   1      37.644  29.849  28.411  1.00  0.00     0.060 A 
ATOM     23  C   UNL A   1      37.794  28.516  28.056  1.00  0.00     0.016 A 
ATOM     24  C   UNL A   1      38.750  30.656  28.686  1.00  0.00     0.016 A 
ATOM     25  C   UNL A   1      39.008  27.909  28.296  1.00  0.00     0.010 A 
ATOM     26  C   UNL A   1      40.001  30.061  28.787  1.00  0.00     0.010 A 
ATOM     27  C   UNL A   1      40.111  28.666  28.722  1.00  0.00    -0.014 A 
BRANCH  27  28
ATOM     28  C   UNL A   1      41.373  27.937  28.954  1.00  0.00     0.031 A 
ATOM     29  C   UNL A   1      42.007  28.227  30.275  1.00  0.00     0.074 A 
ATOM     30  C   UNL A   1      41.877  26.998  28.122  1.00  0.00     0.049 A 
ATOM     31  N   UNL A   1      43.240  28.543  30.527  1.00  0.00    -0.248 NA
ATOM     32  C   UNL A   1      41.109  28.330  31.442  1.00  0.00     0.031 C 
ATOM     33  C   UNL A   1      41.260  26.524  26.880  1.00  0.00     0.029 A 
ATOM     34  N   UNL A   1      42.932  26.130  28.297  1.00  0.00    -0.354 N 
ATOM     35  C   UNL A   1      43.300  28.637  31.917  1.00  0.00     0.074 A 
ATOM     36  C   UNL A   1      41.948  28.734  32.394  1.00  0.00     0.031 C 
ATOM     37  C   UNL A   1      41.723  25.289  26.608  1.00  0.00     0.029 A 
ATOM     38  C   UNL A   1      42.747  24.949  27.579  1.00  0.00     0.049 A 
ATOM     39  H   UNL A   1      43.717  26.320  28.859  1.00  0.00     0.167 HD
ATOM     40  C   UNL A   1      44.402  28.238  32.601  1.00  0.00     0.034 A 
ATOM     41  C   UNL A   1      43.286  23.731  27.822  1.00  0.00     0.034 A 
ATOM     42  C   UNL A   1      45.592  28.225  31.802  1.00  0.00     0.049 A 
ATOM     43  C   UNL A   1      44.526  23.889  28.609  1.00  0.00     0.074 A 
ATOM     44  C   UNL A   1      46.546  29.112  31.362  1.00  0.00     0.029 A 
ATOM     45  N   UNL A   1      45.785  27.051  31.136  1.00  0.00    -0.354 N 
ATOM     46  N   UNL A   1      45.628  24.405  28.139  1.00  0.00    -0.248 NA
ATOM     47  C   UNL A   1      44.504  23.662  30.052  1.00  0.00     0.031 C 
ATOM     48  C   UNL A   1      47.301  28.431  30.361  1.00  0.00     0.029 A 
ATOM     49  C   UNL A   1      46.778  27.150  30.203  1.00  0.00     0.049 A 
ATOM     50  H   UNL A   1      45.270  26.229  31.307  1.00  0.00     0.167 HD
ATOM     51  C   UNL A   1      46.245  24.946  29.251  1.00  0.00     0.074 A 
ATOM     52  C   UNL A   1      45.625  24.298  30.397  1.00  0.00     0.031 C 
ATOM     53  C   UNL A   1      46.904  26.138  29.176  1.00  0.00     0.034 A 
BRANCH  40  54
ATOM     54  C   UNL A   1      44.316  27.347  33.831  1.00  0.00     0.023 A 
ATOM     55  C   UNL A   1      44.949  27.803  35.007  1.00  0.00     0.012 A 
ATOM     56  C   UNL A   1      43.940  25.981  33.802  1.00  0.00     0.148 A 
ATOM     57  C   UNL A   1      45.212  26.941  36.080  1.00  0.00     0.002 A 
ATOM     58  C   UNL A   1      44.121  25.154  34.903  1.00  0.00     0.091 A 
ATOM     59  F   UNL A   1      43.548  25.411  32.660  1.00  0.00    -0.205 F 
ATOM     60  C   UNL A   1      44.783  25.619  36.036  1.00  0.00     0.022 A 
BRANCH  58  61
ATOM     61  S   UNL A   1      43.535  23.456  34.874  1.00  0.00     0.127 S 
ATOM     62  O   UNL A   1      43.904  23.044  33.520  1.00  0.00    -0.237 OA
ATOM     63  O   UNL A   1      44.323  22.844  35.945  1.00  0.00    -0.237 OA
ATOM     64  O   UNL A   1      42.111  23.540  35.161  1.00  0.00    -0.744 OA
ENDBRANCH  58  61
ENDBRANCH  40  54
BRANCH  41  65
ATOM     65  C   UNL A   1      42.716  22.394  27.519  1.00  0.00     0.023 A 
ATOM     66  C   UNL A   1      41.385  22.107  27.879  1.00  0.00     0.012 A 
ATOM     67  C   UNL A   1      43.393  21.463  26.697  1.00  0.00     0.148 A 
ATOM     68  C   UNL A   1      40.750  20.941  27.432  1.00  0.00     0.002 A 
ATOM     69  C   UNL A   1      42.772  20.284  26.292  1.00  0.00     0.091 A 
ATOM     70  F   UNL A   1      44.613  21.764  26.232  1.00  0.00    -0.205 F 
ATOM     71  C   UNL A   1      41.445  20.027  26.646  1.00  0.00     0.022 A 
BRANCH  69  72
ATOM     72  S   UNL A   1      43.653  19.049  25.326  1.00  0.00     0.127 S 
ATOM     73  O   UNL A   1      44.866  18.839  26.119  1.00  0.00    -0.237 OA
ATOM     74  O   UNL A   1      42.718  17.928  25.332  1.00  0.00    -0.237 OA
ATOM     75  O   UNL A   1      43.897  19.677  24.034  1.00  0.00    -0.744 OA
ENDBRANCH  69  72
ENDBRANCH  41  65
BRANCH  53  76
ATOM     76  C   UNL A   1      47.564  26.510  27.885  1.00  0.00     0.023 A 
ATOM     77  C   UNL A   1      48.860  26.081  27.547  1.00  0.00     0.012 A 
ATOM     78  C   UNL A   1      46.823  27.253  26.948  1.00  0.00     0.148 A 
ATOM     79  C   UNL A   1      49.417  26.412  26.309  1.00  0.00     0.002 A 
ATOM     80  C   UNL A   1      47.362  27.540  25.701  1.00  0.00     0.091 A 
ATOM     81  F   UNL A   1      45.594  27.669  27.290  1.00  0.00    -0.205 F 
ATOM     82  C   UNL A   1      48.665  27.131  25.382  1.00  0.00     0.022 A 
BRANCH  80  83
ATOM     83  S   UNL A   1      46.388  28.355  24.433  1.00  0.00     0.127 S 
ATOM     84  O   UNL A   1      45.096  27.685  24.559  1.00  0.00    -0.237 OA
ATOM     85  O   UNL A   1      46.397  29.752  24.870  1.00  0.00    -0.237 OA
ATOM     86  O   UNL A   1      47.104  28.124  23.184  1.00  0.00    -0.744 OA
ENDBRANCH  80  83
ENDBRANCH  53  76
ENDBRANCH  27  28
ENDBRANCH  20  22
ENDBRANCH   1  20
TORSDOF 14
ENDMDL
MODEL 2
REMARK VINA RESULT:     -11.9      2.744      6.949
REMARK SMILES CC1=C2C(=O)CC(C)(C)CC2=N[C@@H]1C(=O)OCCOC(=O)c1ccc(-c2c3nc(c(-c4cccc(S(=O)(=O)[O-])c4F)c4ccc([nH]4)c(-c4cccc(S(=O)(=O)[O-])c4F)c4nc(c(-c5cccc(S(=O)(=O)[O-])c5F)c5ccc2[nH]5)C=C4)C=C3)cc1
REMARK SMILES IDX 19 1 18 2 17 3 16 4 14 5 15 6 13 7 1 8 2 9 3 10 4 11 11 12
REMARK SMILES IDX 12 13 5 14 6 15 10 16 7 17 8 18 9 19 20 20 21 21 22 22 23 23
REMARK SMILES IDX 84 24 24 25 83 26 25 27 26 28 27 29 77 30 28 31 82 32 76 33
REMARK SMILES IDX 78 34 29 35 81 36 75 37 74 38 30 40 62 41 42 42 61 43 43 44
REMARK SMILES IDX 46 45 60 46 79 47 44 48 45 49 59 51 80 52 47 53 31 54 32 55
REMARK SMILES IDX 40 56 33 57 35 58 41 59 34 60 36 61 37 62 38 63 39 64 63 65
REMARK SMILES IDX 64 66 72 67 65 68 67 69 73 70 66 71 68 72 69 73 70 74 71 75
REMARK SMILES IDX 48 76 49 77 57 78 50 79 52 80 58 81 51 82 53 83 54 84 55 85
REMARK SMILES IDX 56 86
REMARK H PARENT 78 39 46 50
REMARK Flexibility Score: inf
ROOT
ATOM      1  O   UNL A   1      38.666  20.840  25.770  1.00  0.00    -0.458 OA
ENDROOT
BRANCH   1   2
ATOM      2  C   UNL A   1      37.664  20.376  24.856  1.00  0.00     0.275 C 
BRANCH   2   3
ATOM      3  C   UNL A   1      36.423  21.272  24.763  1.00  0.00     0.274 C 
BRANCH   3   4
ATOM      4  O   UNL A   1      36.476  22.238  23.688  1.00  0.00    -0.460 OA
BRANCH   4   5
ATOM      5  C   UNL A   1      35.343  22.987  23.543  1.00  0.00     0.335 C 
ATOM      6  O   UNL A   1      34.949  23.393  22.450  1.00  0.00    -0.249 OA
BRANCH   5   7
ATOM      7  C   UNL A   1      34.681  23.395  24.896  1.00  0.00     0.242 C 
ATOM      8  C   UNL A   1      32.395  22.041  24.931  1.00  0.00     0.043 C 
ATOM      9  C   UNL A   1      33.209  23.247  25.232  1.00  0.00    -0.025 C 
ATOM     10  C   UNL A   1      32.749  24.359  25.817  1.00  0.00     0.040 C 
ATOM     11  C   UNL A   1      31.494  24.809  26.462  1.00  0.00     0.165 C 
ATOM     12  C   UNL A   1      33.720  25.316  25.313  1.00  0.00     0.048 C 
ATOM     13  N   UNL A   1      34.903  24.883  25.008  1.00  0.00    -0.269 NA
ATOM     14  O   UNL A   1      30.862  24.064  27.206  1.00  0.00    -0.294 OA
ATOM     15  C   UNL A   1      31.099  26.272  26.235  1.00  0.00     0.088 C 
ATOM     16  C   UNL A   1      33.262  26.718  25.045  1.00  0.00     0.063 C 
ATOM     17  C   UNL A   1      31.707  26.794  24.913  1.00  0.00    -0.023 C 
ATOM     18  C   UNL A   1      31.111  25.919  23.773  1.00  0.00     0.012 C 
ATOM     19  C   UNL A   1      31.337  28.267  24.636  1.00  0.00     0.012 C 
ENDBRANCH   5   7
ENDBRANCH   4   5
ENDBRANCH   3   4
ENDBRANCH   2   3
ENDBRANCH   1   2
BRANCH   1  20
ATOM     20  C   UNL A   1      39.763  20.065  25.783  1.00  0.00     0.338 C 
ATOM     21  O   UNL A   1      39.827  18.872  25.485  1.00  0.00    -0.246 OA
BRANCH  20  22
ATOM     22  C   UNL A   1      40.907  20.713  26.413  1.00  0.00     0.060 A 
ATOM     23  C   UNL A   1      40.803  20.863  27.789  1.00  0.00     0.016 A 
ATOM     24  C   UNL A   1      41.713  21.559  25.649  1.00  0.00     0.016 A 
ATOM     25  C   UNL A   1      41.233  22.046  28.350  1.00  0.00     0.010 A 
ATOM     26  C   UNL A   1      42.266  22.680  26.255  1.00  0.00     0.010 A 
ATOM     27  C   UNL A   1      41.918  22.995  27.575  1.00  0.00    -0.014 A 
BRANCH  27  28
ATOM     28  C   UNL A   1      42.344  24.233  28.255  1.00  0.00     0.031 A 
ATOM     29  C   UNL A   1      41.455  25.405  27.997  1.00  0.00     0.074 A 
ATOM     30  C   UNL A   1      43.371  24.308  29.132  1.00  0.00     0.049 A 
ATOM     31  N   UNL A   1      41.786  26.607  27.637  1.00  0.00    -0.248 NA
ATOM     32  C   UNL A   1      40.000  25.155  27.987  1.00  0.00     0.031 C 
ATOM     33  C   UNL A   1      44.210  23.192  29.578  1.00  0.00     0.029 A 
ATOM     34  N   UNL A   1      43.760  25.339  29.958  1.00  0.00    -0.354 N 
ATOM     35  C   UNL A   1      40.581  27.307  27.602  1.00  0.00     0.074 A 
ATOM     36  C   UNL A   1      39.525  26.333  27.588  1.00  0.00     0.031 C 
ATOM     37  C   UNL A   1      44.741  23.498  30.776  1.00  0.00     0.029 A 
ATOM     38  C   UNL A   1      44.380  24.864  31.113  1.00  0.00     0.049 A 
ATOM     39  H   UNL A   1      43.618  26.293  29.758  1.00  0.00     0.167 HD
ATOM     40  C   UNL A   1      40.514  28.609  27.982  1.00  0.00     0.034 A 
ATOM     41  C   UNL A   1      44.490  25.477  32.315  1.00  0.00     0.034 A 
ATOM     42  C   UNL A   1      41.774  29.288  27.904  1.00  0.00     0.049 A 
ATOM     43  C   UNL A   1      44.362  26.938  32.137  1.00  0.00     0.074 A 
ATOM     44  C   UNL A   1      42.552  29.908  26.956  1.00  0.00     0.029 A 
ATOM     45  N   UNL A   1      42.523  29.169  29.037  1.00  0.00    -0.354 N 
ATOM     46  N   UNL A   1      45.258  27.682  31.550  1.00  0.00    -0.248 NA
ATOM     47  C   UNL A   1      43.092  27.596  32.429  1.00  0.00     0.031 C 
ATOM     48  C   UNL A   1      43.829  30.121  27.556  1.00  0.00     0.029 A 
ATOM     49  C   UNL A   1      43.803  29.610  28.851  1.00  0.00     0.049 A 
ATOM     50  H   UNL A   1      42.183  28.810  29.888  1.00  0.00     0.167 HD
ATOM     51  C   UNL A   1      44.531  28.736  31.032  1.00  0.00     0.074 A 
ATOM     52  C   UNL A   1      43.270  28.736  31.758  1.00  0.00     0.031 C 
ATOM     53  C   UNL A   1      44.830  29.261  29.810  1.00  0.00     0.034 A 
BRANCH  40  54
ATOM     54  C   UNL A   1      39.442  29.124  28.929  1.00  0.00     0.023 A 
ATOM     55  C   UNL A   1      38.750  30.294  28.551  1.00  0.00     0.012 A 
ATOM     56  C   UNL A   1      39.310  28.719  30.281  1.00  0.00     0.148 A 
ATOM     57  C   UNL A   1      37.992  31.028  29.472  1.00  0.00     0.002 A 
ATOM     58  C   UNL A   1      38.485  29.399  31.167  1.00  0.00     0.091 A 
ATOM     59  F   UNL A   1      40.102  27.767  30.783  1.00  0.00    -0.205 F 
ATOM     60  C   UNL A   1      37.845  30.573  30.778  1.00  0.00     0.022 A 
BRANCH  58  61
ATOM     61  S   UNL A   1      38.255  28.798  32.844  1.00  0.00     0.127 S 
ATOM     62  O   UNL A   1      37.004  29.456  33.220  1.00  0.00    -0.237 OA
ATOM     63  O   UNL A   1      38.160  27.352  32.640  1.00  0.00    -0.237 OA
ATOM     64  O   UNL A   1      39.449  29.216  33.565  1.00  0.00    -0.744 OA
ENDBRANCH  58  61
ENDBRANCH  40  54
BRANCH  41  65
ATOM     65  C   UNL A   1      44.574  24.857  33.661  1.00  0.00     0.023 A 
ATOM     66  C   UNL A   1      43.392  24.517  34.347  1.00  0.00     0.012 A 
ATOM     67  C   UNL A   1      45.802  24.406  34.200  1.00  0.00     0.148 A 
ATOM     68  C   UNL A   1      43.430  23.751  35.519  1.00  0.00     0.002 A 
ATOM     69  C   UNL A   1      45.837  23.682  35.389  1.00  0.00     0.091 A 
ATOM     70  F   UNL A   1      46.932  24.601  33.508  1.00  0.00    -0.205 F 
ATOM     71  C   UNL A   1      44.651  23.340  36.044  1.00  0.00     0.022 A 
BRANCH  69  72
ATOM     72  S   UNL A   1      47.397  23.183  36.133  1.00  0.00     0.127 S 
ATOM     73  O   UNL A   1      47.958  22.293  35.114  1.00  0.00    -0.237 OA
ATOM     74  O   UNL A   1      48.091  24.458  36.279  1.00  0.00    -0.237 OA
ATOM     75  O   UNL A   1      47.031  22.504  37.370  1.00  0.00    -0.744 OA
ENDBRANCH  69  72
ENDBRANCH  41  65
BRANCH  53  76
ATOM     76  C   UNL A   1      46.255  29.235  29.350  1.00  0.00     0.023 A 
ATOM     77  C   UNL A   1      47.179  30.238  29.693  1.00  0.00     0.012 A 
ATOM     78  C   UNL A   1      46.696  28.121  28.612  1.00  0.00     0.148 A 
ATOM     79  C   UNL A   1      48.511  30.146  29.283  1.00  0.00     0.002 A 
ATOM     80  C   UNL A   1      48.031  28.011  28.245  1.00  0.00     0.091 A 
ATOM     81  F   UNL A   1      45.800  27.180  28.278  1.00  0.00    -0.205 F 
ATOM     82  C   UNL A   1      48.940  29.028  28.569  1.00  0.00     0.022 A 
BRANCH  80  83
ATOM     83  S   UNL A   1      48.653  26.536  27.435  1.00  0.00     0.127 S 
ATOM     84  O   UNL A   1      48.359  25.496  28.418  1.00  0.00    -0.237 OA
ATOM     85  O   UNL A   1      47.842  26.473  26.218  1.00  0.00    -0.237 OA
ATOM     86  O   UNL A   1      50.067  26.794  27.188  1.00  0.00    -0.744 OA
ENDBRANCH  80  83
ENDBRANCH  53  76
ENDBRANCH  27  28
ENDBRANCH  20  22
ENDBRANCH   1  20
TORSDOF 14
ENDMDL
MODEL 3
REMARK VINA RESULT:     -11.8      5.112     11.619
REMARK SMILES CC1=C2C(=O)CC(C)(C)CC2=N[C@@H]1C(=O)OCCOC(=O)c1ccc(-c2c3nc(c(-c4cccc(S(=O)(=O)[O-])c4F)c4ccc([nH]4)c(-c4cccc(S(=O)(=O)[O-])c4F)c4nc(c(-c5cccc(S(=O)(=O)[O-])c5F)c5ccc2[nH]5)C=C4)C=C3)cc1
REMARK SMILES IDX 19 1 18 2 17 3 16 4 14 5 15 6 13 7 1 8 2 9 3 10 4 11 11 12
REMARK SMILES IDX 12 13 5 14 6 15 10 16 7 17 8 18 9 19 20 20 21 21 22 22 23 23
REMARK SMILES IDX 84 24 24 25 83 26 25 27 26 28 27 29 77 30 28 31 82 32 76 33
REMARK SMILES IDX 78 34 29 35 81 36 75 37 74 38 30 40 62 41 42 42 61 43 43 44
REMARK SMILES IDX 46 45 60 46 79 47 44 48 45 49 59 51 80 52 47 53 31 54 32 55
REMARK SMILES IDX 40 56 33 57 35 58 41 59 34 60 36 61 37 62 38 63 39 64 63 65
REMARK SMILES IDX 64 66 72 67 65 68 67 69 73 70 66 71 68 72 69 73 70 74 71 75
REMARK SMILES IDX 48 76 49 77 57 78 50 79 52 80 58 81 51 82 53 83 54 84 55 85
REMARK SMILES IDX 56 86
REMARK H PARENT 78 39 46 50
REMARK Flexibility Score: inf
ROOT
ATOM      1  O   UNL A   1      39.969  22.941  27.587  1.00  0.00    -0.458 OA
ENDROOT
BRANCH   1   2
ATOM      2  C   UNL A   1      40.152  22.006  26.516  1.00  0.00     0.275 C 
BRANCH   2   3
ATOM      3  C   UNL A   1      41.451  21.195  26.593  1.00  0.00     0.274 C 
BRANCH   3   4
ATOM      4  O   UNL A   1      42.651  21.998  26.502  1.00  0.00    -0.460 OA
BRANCH   4   5
ATOM      5  C   UNL A   1      43.306  21.904  25.307  1.00  0.00     0.335 C 
ATOM      6  O   UNL A   1      43.598  20.826  24.792  1.00  0.00    -0.249 OA
BRANCH   5   7
ATOM      7  C   UNL A   1      43.771  23.280  24.734  1.00  0.00     0.242 C 
ATOM      8  C   UNL A   1      46.365  22.943  24.269  1.00  0.00     0.043 C 
ATOM      9  C   UNL A   1      45.205  23.771  24.688  1.00  0.00    -0.025 C 
ATOM     10  C   UNL A   1      45.276  25.044  25.095  1.00  0.00     0.040 C 
ATOM     11  C   UNL A   1      46.308  26.103  25.180  1.00  0.00     0.165 C 
ATOM     12  C   UNL A   1      44.066  25.108  25.899  1.00  0.00     0.048 C 
ATOM     13  N   UNL A   1      43.089  24.313  25.595  1.00  0.00    -0.269 NA
ATOM     14  O   UNL A   1      47.123  26.266  24.276  1.00  0.00    -0.294 OA
ATOM     15  C   UNL A   1      46.227  27.036  26.392  1.00  0.00     0.088 C 
ATOM     16  C   UNL A   1      44.066  25.987  27.113  1.00  0.00     0.063 C 
ATOM     17  C   UNL A   1      45.521  26.327  27.570  1.00  0.00    -0.023 C 
ATOM     18  C   UNL A   1      46.391  25.090  27.932  1.00  0.00     0.012 C 
ATOM     19  C   UNL A   1      45.415  27.227  28.820  1.00  0.00     0.012 C 
ENDBRANCH   5   7
ENDBRANCH   4   5
ENDBRANCH   3   4
ENDBRANCH   2   3
ENDBRANCH   1   2
BRANCH   1  20
ATOM     20  C   UNL A   1      39.447  24.110  27.178  1.00  0.00     0.338 C 
ATOM     21  O   UNL A   1      38.387  24.273  26.574  1.00  0.00    -0.246 OA
BRANCH  20  22
ATOM     22  C   UNL A   1      40.377  25.225  27.319  1.00  0.00     0.060 A 
ATOM     23  C   UNL A   1      40.926  25.365  28.585  1.00  0.00     0.016 A 
ATOM     24  C   UNL A   1      40.266  26.313  26.450  1.00  0.00     0.016 A 
ATOM     25  C   UNL A   1      41.059  26.636  29.102  1.00  0.00     0.010 A 
ATOM     26  C   UNL A   1      40.540  27.585  26.937  1.00  0.00     0.010 A 
ATOM     27  C   UNL A   1      40.809  27.760  28.300  1.00  0.00    -0.014 A 
BRANCH  27  28
ATOM     28  C   UNL A   1      40.975  29.083  28.933  1.00  0.00     0.031 A 
ATOM     29  C   UNL A   1      42.279  29.745  28.626  1.00  0.00     0.074 A 
ATOM     30  C   UNL A   1      40.011  29.721  29.635  1.00  0.00     0.049 A 
ATOM     31  N   UNL A   1      43.121  30.292  29.447  1.00  0.00    -0.248 NA
ATOM     32  C   UNL A   1      42.776  29.636  27.240  1.00  0.00     0.031 C 
ATOM     33  C   UNL A   1      38.647  29.236  29.867  1.00  0.00     0.029 A 
ATOM     34  N   UNL A   1      39.970  31.009  30.121  1.00  0.00    -0.354 N 
ATOM     35  C   UNL A   1      44.124  30.807  28.628  1.00  0.00     0.074 A 
ATOM     36  C   UNL A   1      43.987  30.179  27.343  1.00  0.00     0.031 C 
ATOM     37  C   UNL A   1      37.848  30.290  30.119  1.00  0.00     0.029 A 
ATOM     38  C   UNL A   1      38.663  31.490  30.188  1.00  0.00     0.049 A 
ATOM     39  H   UNL A   1      40.765  31.525  30.387  1.00  0.00     0.167 HD
ATOM     40  C   UNL A   1      44.741  31.980  28.925  1.00  0.00     0.034 A 
ATOM     41  C   UNL A   1      38.244  32.777  30.172  1.00  0.00     0.034 A 
ATOM     42  C   UNL A   1      44.658  32.328  30.313  1.00  0.00     0.049 A 
ATOM     43  C   UNL A   1      39.341  33.657  30.625  1.00  0.00     0.074 A 
ATOM     44  C   UNL A   1      45.302  32.029  31.489  1.00  0.00     0.029 A 
ATOM     45  N   UNL A   1      43.534  33.032  30.628  1.00  0.00    -0.354 N 
ATOM     46  N   UNL A   1      39.784  33.699  31.851  1.00  0.00    -0.248 NA
ATOM     47  C   UNL A   1      40.142  34.383  29.643  1.00  0.00     0.031 C 
ATOM     48  C   UNL A   1      44.489  32.548  32.540  1.00  0.00     0.029 A 
ATOM     49  C   UNL A   1      43.359  33.137  31.979  1.00  0.00     0.049 A 
ATOM     50  H   UNL A   1      42.921  33.419  29.962  1.00  0.00     0.167 HD
ATOM     51  C   UNL A   1      41.104  34.083  31.718  1.00  0.00     0.074 A 
ATOM     52  C   UNL A   1      41.209  34.671  30.391  1.00  0.00     0.031 C 
ATOM     53  C   UNL A   1      42.074  33.543  32.509  1.00  0.00     0.034 A 
BRANCH  40  54
ATOM     54  C   UNL A   1      44.949  33.073  27.889  1.00  0.00     0.023 A 
ATOM     55  C   UNL A   1      43.894  33.319  26.984  1.00  0.00     0.012 A 
ATOM     56  C   UNL A   1      46.210  33.630  27.559  1.00  0.00     0.148 A 
ATOM     57  C   UNL A   1      44.092  34.056  25.809  1.00  0.00     0.002 A 
ATOM     58  C   UNL A   1      46.379  34.435  26.440  1.00  0.00     0.091 A 
ATOM     59  F   UNL A   1      47.307  33.264  28.226  1.00  0.00    -0.205 F 
ATOM     60  C   UNL A   1      45.331  34.628  25.543  1.00  0.00     0.022 A 
BRANCH  58  61
ATOM     61  S   UNL A   1      47.963  35.214  26.107  1.00  0.00     0.127 S 
ATOM     62  O   UNL A   1      48.525  34.312  25.102  1.00  0.00    -0.237 OA
ATOM     63  O   UNL A   1      47.557  36.527  25.604  1.00  0.00    -0.237 OA
ATOM     64  O   UNL A   1      48.643  35.256  27.392  1.00  0.00    -0.744 OA
ENDBRANCH  58  61
ENDBRANCH  40  54
BRANCH  41  65
ATOM     65  C   UNL A   1      36.964  33.323  29.657  1.00  0.00     0.023 A 
ATOM     66  C   UNL A   1      36.599  33.095  28.315  1.00  0.00     0.012 A 
ATOM     67  C   UNL A   1      35.996  33.894  30.516  1.00  0.00     0.148 A 
ATOM     68  C   UNL A   1      35.317  33.414  27.850  1.00  0.00     0.002 A 
ATOM     69  C   UNL A   1      34.738  34.250  30.037  1.00  0.00     0.091 A 
ATOM     70  F   UNL A   1      36.266  34.007  31.823  1.00  0.00    -0.205 F 
ATOM     71  C   UNL A   1      34.390  33.998  28.708  1.00  0.00     0.022 A 
BRANCH  69  72
ATOM     72  S   UNL A   1      33.532  35.062  31.096  1.00  0.00     0.127 S 
ATOM     73  O   UNL A   1      33.363  34.091  32.179  1.00  0.00    -0.237 OA
ATOM     74  O   UNL A   1      34.229  36.286  31.477  1.00  0.00    -0.237 OA
ATOM     75  O   UNL A   1      32.345  35.229  30.266  1.00  0.00    -0.744 OA
ENDBRANCH  69  72
ENDBRANCH  41  65
BRANCH  53  76
ATOM     76  C   UNL A   1      41.712  33.122  33.899  1.00  0.00     0.023 A 
ATOM     77  C   UNL A   1      41.862  33.971  35.010  1.00  0.00     0.012 A 
ATOM     78  C   UNL A   1      41.127  31.854  34.080  1.00  0.00     0.148 A 
ATOM     79  C   UNL A   1      41.463  33.553  36.282  1.00  0.00     0.002 A 
ATOM     80  C   UNL A   1      40.690  31.461  35.339  1.00  0.00     0.091 A 
ATOM     81  F   UNL A   1      41.005  31.049  33.014  1.00  0.00    -0.205 F 
ATOM     82  C   UNL A   1      40.867  32.303  36.445  1.00  0.00     0.022 A 
BRANCH  80  83
ATOM     83  S   UNL A   1      39.809  29.915  35.573  1.00  0.00     0.127 S 
ATOM     84  O   UNL A   1      39.262  29.667  34.242  1.00  0.00    -0.237 OA
ATOM     85  O   UNL A   1      40.874  28.997  35.978  1.00  0.00    -0.237 OA
ATOM     86  O   UNL A   1      38.830  30.182  36.621  1.00  0.00    -0.744 OA
ENDBRANCH  80  83
ENDBRANCH  53  76
ENDBRANCH  27  28
ENDBRANCH  20  22
ENDBRANCH   1  20
TORSDOF 14
ENDMDL
