MODEL 1
REMARK VINA RESULT:     -10.9      0.000      0.000
REMARK SMILES CC[C@H](C)[NH+]1CCN(C(=O)CC(=O)OCCOC(=O)c2ccc(-c3c4nc(c(-c5cccc(S(=O)(=O)[O-])c5F)c5ccc([nH]5)c(-c5cccc(S(=O)(=O)[O-])c5F)c5nc(c(-c6cccc(S(=O)(=O)[O-])c6F)c6ccc3[nH]6)C=C5)C=C4)cc2)CC1
REMARK SMILES IDX 15 1 14 2 12 3 13 4 11 5 9 6 5 7 6 8 84 9 7 11 83 12 8 13
REMARK SMILES IDX 10 14 3 15 4 16 2 17 1 18 16 19 17 20 18 21 19 22 20 23
REMARK SMILES IDX 21 24 82 25 22 26 81 27 23 28 24 29 25 30 75 31 26 32 80 33
REMARK SMILES IDX 74 34 76 35 27 36 79 37 73 38 72 39 28 41 60 42 40 43 59 44
REMARK SMILES IDX 41 45 44 46 58 47 77 48 42 49 43 50 57 52 78 53 45 54 29 55
REMARK SMILES IDX 30 56 38 57 31 58 33 59 39 60 32 61 34 62 35 63 36 64 37 65
REMARK SMILES IDX 61 66 62 67 70 68 63 69 65 70 71 71 64 72 66 73 67 74 68 75
REMARK SMILES IDX 69 76 46 77 47 78 55 79 48 80 50 81 56 82 49 83 51 84 52 85
REMARK SMILES IDX 53 86 54 87
REMARK H PARENT 5 10 76 40 44 51
REMARK Flexibility Score: inf
ROOT
ATOM      1  C   UNL A   1      34.567  20.857  25.522  1.00  0.00     0.274 C 
ENDROOT
BRANCH   1   2
ATOM      2  O   UNL A   1      34.058  22.183  25.272  1.00  0.00    -0.462 OA
BRANCH   2   3
ATOM      3  C   UNL A   1      33.912  22.521  23.966  1.00  0.00     0.315 C 
ATOM      4  O   UNL A   1      33.239  21.889  23.155  1.00  0.00    -0.252 OA
BRANCH   3   5
ATOM      5  C   UNL A   1      34.587  23.801  23.578  1.00  0.00     0.222 C 
BRANCH   5   6
ATOM      6  C   UNL A   1      33.699  24.886  23.033  1.00  0.00     0.234 C 
ATOM      7  N   UNL A   1      31.478  27.658  25.537  1.00  0.00    -0.330 N 
ATOM      8  C   UNL A   1      31.045  27.289  24.191  1.00  0.00     0.284 C 
ATOM      9  C   UNL A   1      32.086  26.486  26.184  1.00  0.00     0.284 C 
ATOM     10  H   UNL A   1      30.622  27.916  26.027  1.00  0.00     0.348 HD
ATOM     11  C   UNL A   1      32.150  26.723  23.301  1.00  0.00     0.181 C 
ATOM     12  C   UNL A   1      33.168  25.742  25.361  1.00  0.00     0.181 C 
ATOM     13  N   UNL A   1      32.929  25.646  23.911  1.00  0.00    -0.331 N 
ATOM     14  O   UNL A   1      33.641  25.054  21.809  1.00  0.00    -0.274 OA
BRANCH   7  15
ATOM     15  C   UNL A   1      32.161  28.950  25.759  1.00  0.00     0.180 C 
ATOM     16  C   UNL A   1      31.407  30.208  25.313  1.00  0.00     0.075 C 
BRANCH  15  17
ATOM     17  C   UNL A   1      32.800  29.138  27.164  1.00  0.00     0.061 C 
ATOM     18  C   UNL A   1      34.293  28.846  27.275  1.00  0.00     0.010 C 
ENDBRANCH  15  17
ENDBRANCH   7  15
ENDBRANCH   5   6
ENDBRANCH   3   5
ENDBRANCH   2   3
ENDBRANCH   1   2
BRANCH   1  19
ATOM     19  C   UNL A   1      35.997  20.733  25.005  1.00  0.00     0.275 C 
BRANCH  19  20
ATOM     20  O   UNL A   1      36.856  21.611  25.750  1.00  0.00    -0.458 OA
BRANCH  20  21
ATOM     21  C   UNL A   1      38.167  21.270  25.750  1.00  0.00     0.338 C 
ATOM     22  O   UNL A   1      38.648  20.208  25.398  1.00  0.00    -0.246 OA
BRANCH  21  23
ATOM     23  C   UNL A   1      38.991  22.392  26.246  1.00  0.00     0.060 A 
ATOM     24  C   UNL A   1      40.140  22.179  27.015  1.00  0.00     0.016 A 
ATOM     25  C   UNL A   1      38.542  23.691  26.003  1.00  0.00     0.016 A 
ATOM     26  C   UNL A   1      40.812  23.268  27.578  1.00  0.00     0.010 A 
ATOM     27  C   UNL A   1      39.263  24.777  26.496  1.00  0.00     0.010 A 
ATOM     28  C   UNL A   1      40.397  24.581  27.302  1.00  0.00    -0.014 A 
BRANCH  28  29
ATOM     29  C   UNL A   1      41.162  25.766  27.778  1.00  0.00     0.031 A 
ATOM     30  C   UNL A   1      40.478  26.858  28.559  1.00  0.00     0.074 A 
ATOM     31  C   UNL A   1      42.448  25.919  27.403  1.00  0.00     0.049 A 
ATOM     32  N   UNL A   1      40.917  28.052  28.862  1.00  0.00    -0.248 NA
ATOM     33  C   UNL A   1      39.121  26.574  29.054  1.00  0.00     0.031 C 
ATOM     34  C   UNL A   1      43.222  24.952  26.623  1.00  0.00     0.029 A 
ATOM     35  N   UNL A   1      43.317  26.967  27.589  1.00  0.00    -0.354 N 
ATOM     36  C   UNL A   1      39.872  28.685  29.526  1.00  0.00     0.074 A 
ATOM     37  C   UNL A   1      38.782  27.737  29.596  1.00  0.00     0.031 C 
ATOM     38  C   UNL A   1      44.442  25.454  26.386  1.00  0.00     0.029 A 
ATOM     39  C   UNL A   1      44.517  26.802  26.938  1.00  0.00     0.049 A 
ATOM     40  H   UNL A   1      43.101  27.759  28.133  1.00  0.00     0.167 HD
ATOM     41  C   UNL A   1      39.831  29.938  30.042  1.00  0.00     0.034 A 
ATOM     42  C   UNL A   1      45.550  27.649  26.761  1.00  0.00     0.034 A 
ATOM     43  C   UNL A   1      40.935  30.861  30.025  1.00  0.00     0.049 A 
ATOM     44  C   UNL A   1      45.482  29.029  27.350  1.00  0.00     0.074 A 
ATOM     45  C   UNL A   1      41.006  32.125  30.585  1.00  0.00     0.029 A 
ATOM     46  N   UNL A   1      42.160  30.623  29.424  1.00  0.00    -0.354 N 
ATOM     47  N   UNL A   1      44.524  29.574  28.057  1.00  0.00    -0.248 NA
ATOM     48  C   UNL A   1      46.640  29.905  27.128  1.00  0.00     0.031 C 
ATOM     49  C   UNL A   1      42.273  32.652  30.319  1.00  0.00     0.029 A 
ATOM     50  C   UNL A   1      42.992  31.717  29.595  1.00  0.00     0.049 A 
ATOM     51  H   UNL A   1      42.403  29.798  28.944  1.00  0.00     0.167 HD
ATOM     52  C   UNL A   1      44.970  30.847  28.385  1.00  0.00     0.074 A 
ATOM     53  C   UNL A   1      46.295  30.987  27.815  1.00  0.00     0.031 C 
ATOM     54  C   UNL A   1      44.330  31.823  29.074  1.00  0.00     0.034 A 
BRANCH  41  55
ATOM     55  C   UNL A   1      38.563  30.379  30.719  1.00  0.00     0.023 A 
ATOM     56  C   UNL A   1      38.391  30.125  32.094  1.00  0.00     0.012 A 
ATOM     57  C   UNL A   1      37.587  31.121  30.025  1.00  0.00     0.148 A 
ATOM     58  C   UNL A   1      37.261  30.590  32.765  1.00  0.00     0.002 A 
ATOM     59  C   UNL A   1      36.478  31.608  30.708  1.00  0.00     0.091 A 
ATOM     60  F   UNL A   1      37.754  31.328  28.710  1.00  0.00    -0.205 F 
ATOM     61  C   UNL A   1      36.311  31.340  32.076  1.00  0.00     0.022 A 
BRANCH  59  62
ATOM     62  S   UNL A   1      35.243  32.641  29.910  1.00  0.00     0.127 S 
ATOM     63  O   UNL A   1      34.319  32.904  31.011  1.00  0.00    -0.237 OA
ATOM     64  O   UNL A   1      36.028  33.801  29.483  1.00  0.00    -0.237 OA
ATOM     65  O   UNL A   1      34.712  31.842  28.813  1.00  0.00    -0.744 OA
ENDBRANCH  59  62
ENDBRANCH  41  55
BRANCH  42  66
ATOM     66  C   UNL A   1      46.751  27.189  26.010  1.00  0.00     0.023 A 
ATOM     67  C   UNL A   1      46.835  27.447  24.629  1.00  0.00     0.012 A 
ATOM     68  C   UNL A   1      47.834  26.570  26.662  1.00  0.00     0.148 A 
ATOM     69  C   UNL A   1      47.976  27.090  23.910  1.00  0.00     0.002 A 
ATOM     70  C   UNL A   1      48.990  26.269  25.952  1.00  0.00     0.091 A 
ATOM     71  F   UNL A   1      47.725  26.308  27.973  1.00  0.00    -0.205 F 
ATOM     72  C   UNL A   1      49.059  26.517  24.573  1.00  0.00     0.022 A 
BRANCH  70  73
ATOM     73  S   UNL A   1      50.473  25.676  26.774  1.00  0.00     0.127 S 
ATOM     74  O   UNL A   1      51.395  25.513  25.654  1.00  0.00    -0.237 OA
ATOM     75  O   UNL A   1      50.793  26.781  27.678  1.00  0.00    -0.237 OA
ATOM     76  O   UNL A   1      50.064  24.454  27.455  1.00  0.00    -0.744 OA
ENDBRANCH  70  73
ENDBRANCH  42  66
BRANCH  54  77
ATOM     77  C   UNL A   1      45.055  33.125  29.271  1.00  0.00     0.023 A 
ATOM     78  C   UNL A   1      45.899  33.284  30.386  1.00  0.00     0.012 A 
ATOM     79  C   UNL A   1      44.959  34.160  28.320  1.00  0.00     0.148 A 
ATOM     80  C   UNL A   1      46.625  34.460  30.563  1.00  0.00     0.002 A 
ATOM     81  C   UNL A   1      45.713  35.317  28.485  1.00  0.00     0.091 A 
ATOM     82  F   UNL A   1      44.131  33.999  27.278  1.00  0.00    -0.205 F 
ATOM     83  C   UNL A   1      46.541  35.472  29.608  1.00  0.00     0.022 A 
BRANCH  81  84
ATOM     84  S   UNL A   1      45.718  36.633  27.261  1.00  0.00     0.127 S 
ATOM     85  O   UNL A   1      46.590  37.622  27.888  1.00  0.00    -0.237 OA
ATOM     86  O   UNL A   1      46.291  35.971  26.087  1.00  0.00    -0.237 OA
ATOM     87  O   UNL A   1      44.324  37.029  27.103  1.00  0.00    -0.744 OA
ENDBRANCH  81  84
ENDBRANCH  54  77
ENDBRANCH  28  29
ENDBRANCH  21  23
ENDBRANCH  20  21
ENDBRANCH  19  20
ENDBRANCH   1  19
TORSDOF 17
ENDMDL
MODEL 2
REMARK VINA RESULT:     -10.7      1.585      1.895
REMARK SMILES CC[C@H](C)[NH+]1CCN(C(=O)CC(=O)OCCOC(=O)c2ccc(-c3c4nc(c(-c5cccc(S(=O)(=O)[O-])c5F)c5ccc([nH]5)c(-c5cccc(S(=O)(=O)[O-])c5F)c5nc(c(-c6cccc(S(=O)(=O)[O-])c6F)c6ccc3[nH]6)C=C5)C=C4)cc2)CC1
REMARK SMILES IDX 15 1 14 2 12 3 13 4 11 5 9 6 5 7 6 8 84 9 7 11 83 12 8 13
REMARK SMILES IDX 10 14 3 15 4 16 2 17 1 18 16 19 17 20 18 21 19 22 20 23
REMARK SMILES IDX 21 24 82 25 22 26 81 27 23 28 24 29 25 30 75 31 26 32 80 33
REMARK SMILES IDX 74 34 76 35 27 36 79 37 73 38 72 39 28 41 60 42 40 43 59 44
REMARK SMILES IDX 41 45 44 46 58 47 77 48 42 49 43 50 57 52 78 53 45 54 29 55
REMARK SMILES IDX 30 56 38 57 31 58 33 59 39 60 32 61 34 62 35 63 36 64 37 65
REMARK SMILES IDX 61 66 62 67 70 68 63 69 65 70 71 71 64 72 66 73 67 74 68 75
REMARK SMILES IDX 69 76 46 77 47 78 55 79 48 80 50 81 56 82 49 83 51 84 52 85
REMARK SMILES IDX 53 86 54 87
REMARK H PARENT 5 10 76 40 44 51
REMARK Flexibility Score: inf
ROOT
ATOM      1  C   UNL A   1      35.964  20.388  25.009  1.00  0.00     0.274 C 
ENDROOT
BRANCH   1   2
ATOM      2  O   UNL A   1      34.753  21.111  24.708  1.00  0.00    -0.462 OA
BRANCH   2   3
ATOM      3  C   UNL A   1      33.639  20.352  24.547  1.00  0.00     0.315 C 
ATOM      4  O   UNL A   1      33.647  19.146  24.318  1.00  0.00    -0.252 OA
BRANCH   3   5
ATOM      5  C   UNL A   1      32.351  21.091  24.749  1.00  0.00     0.222 C 
BRANCH   5   6
ATOM      6  C   UNL A   1      32.099  22.256  23.831  1.00  0.00     0.234 C 
ATOM      7  N   UNL A   1      30.492  26.066  25.170  1.00  0.00    -0.330 N 
ATOM      8  C   UNL A   1      30.317  25.571  23.806  1.00  0.00     0.284 C 
ATOM      9  C   UNL A   1      30.436  24.932  26.104  1.00  0.00     0.284 C 
ATOM     10  H   UNL A   1      29.697  26.683  25.329  1.00  0.00     0.348 HD
ATOM     11  C   UNL A   1      31.325  24.502  23.384  1.00  0.00     0.181 C 
ATOM     12  C   UNL A   1      31.340  23.722  25.757  1.00  0.00     0.181 C 
ATOM     13  N   UNL A   1      31.465  23.394  24.327  1.00  0.00    -0.331 N 
ATOM     14  O   UNL A   1      32.425  22.164  22.642  1.00  0.00    -0.274 OA
BRANCH   7  15
ATOM     15  C   UNL A   1      31.521  27.088  25.451  1.00  0.00     0.180 C 
ATOM     16  C   UNL A   1      31.494  28.346  24.574  1.00  0.00     0.075 C 
BRANCH  15  17
ATOM     17  C   UNL A   1      31.718  27.446  26.951  1.00  0.00     0.061 C 
ATOM     18  C   UNL A   1      31.795  28.932  27.289  1.00  0.00     0.010 C 
ENDBRANCH  15  17
ENDBRANCH   7  15
ENDBRANCH   5   6
ENDBRANCH   3   5
ENDBRANCH   2   3
ENDBRANCH   1   2
BRANCH   1  19
ATOM     19  C   UNL A   1      37.184  21.242  24.684  1.00  0.00     0.275 C 
BRANCH  19  20
ATOM     20  O   UNL A   1      37.715  21.806  25.895  1.00  0.00    -0.458 OA
BRANCH  20  21
ATOM     21  C   UNL A   1      39.020  21.535  26.133  1.00  0.00     0.338 C 
ATOM     22  O   UNL A   1      39.592  20.475  25.957  1.00  0.00    -0.246 OA
BRANCH  21  23
ATOM     23  C   UNL A   1      39.709  22.735  26.652  1.00  0.00     0.060 A 
ATOM     24  C   UNL A   1      40.699  22.649  27.636  1.00  0.00     0.016 A 
ATOM     25  C   UNL A   1      39.281  23.983  26.197  1.00  0.00     0.016 A 
ATOM     26  C   UNL A   1      41.227  23.816  28.196  1.00  0.00     0.010 A 
ATOM     27  C   UNL A   1      39.871  25.143  26.698  1.00  0.00     0.010 A 
ATOM     28  C   UNL A   1      40.839  25.076  27.714  1.00  0.00    -0.014 A 
BRANCH  28  29
ATOM     29  C   UNL A   1      41.472  26.334  28.196  1.00  0.00     0.031 A 
ATOM     30  C   UNL A   1      40.644  27.406  28.854  1.00  0.00     0.074 A 
ATOM     31  C   UNL A   1      42.774  26.564  27.932  1.00  0.00     0.049 A 
ATOM     32  N   UNL A   1      40.969  28.642  29.133  1.00  0.00    -0.248 NA
ATOM     33  C   UNL A   1      39.269  27.046  29.237  1.00  0.00     0.031 C 
ATOM     34  C   UNL A   1      43.683  25.622  27.276  1.00  0.00     0.029 A 
ATOM     35  N   UNL A   1      43.547  27.680  28.142  1.00  0.00    -0.354 N 
ATOM     36  C   UNL A   1      39.825  29.226  29.667  1.00  0.00     0.074 A 
ATOM     37  C   UNL A   1      38.801  28.204  29.685  1.00  0.00     0.031 C 
ATOM     38  C   UNL A   1      44.883  26.201  27.126  1.00  0.00     0.029 A 
ATOM     39  C   UNL A   1      44.812  27.574  27.613  1.00  0.00     0.049 A 
ATOM     40  H   UNL A   1      43.227  28.478  28.623  1.00  0.00     0.167 HD
ATOM     41  C   UNL A   1      39.649  30.494  30.111  1.00  0.00     0.034 A 
ATOM     42  C   UNL A   1      45.797  28.486  27.487  1.00  0.00     0.034 A 
ATOM     43  C   UNL A   1      40.683  31.494  30.147  1.00  0.00     0.049 A 
ATOM     44  C   UNL A   1      45.578  29.882  27.995  1.00  0.00     0.074 A 
ATOM     45  C   UNL A   1      40.614  32.784  30.646  1.00  0.00     0.029 A 
ATOM     46  N   UNL A   1      41.974  31.320  29.673  1.00  0.00    -0.354 N 
ATOM     47  N   UNL A   1      44.522  30.386  28.584  1.00  0.00    -0.248 NA
ATOM     48  C   UNL A   1      46.689  30.830  27.835  1.00  0.00     0.031 C 
ATOM     49  C   UNL A   1      41.862  33.390  30.470  1.00  0.00     0.029 A 
ATOM     50  C   UNL A   1      42.708  32.478  29.863  1.00  0.00     0.049 A 
ATOM     51  H   UNL A   1      42.316  30.494  29.261  1.00  0.00     0.167 HD
ATOM     52  C   UNL A   1      44.847  31.703  28.884  1.00  0.00     0.074 A 
ATOM     53  C   UNL A   1      46.207  31.913  28.431  1.00  0.00     0.031 C 
ATOM     54  C   UNL A   1      44.079  32.659  29.461  1.00  0.00     0.034 A 
BRANCH  41  55
ATOM     55  C   UNL A   1      38.295  30.872  30.647  1.00  0.00     0.023 A 
ATOM     56  C   UNL A   1      37.995  30.621  32.000  1.00  0.00     0.012 A 
ATOM     57  C   UNL A   1      37.359  31.552  29.844  1.00  0.00     0.148 A 
ATOM     58  C   UNL A   1      36.777  31.029  32.543  1.00  0.00     0.002 A 
ATOM     59  C   UNL A   1      36.160  31.984  30.400  1.00  0.00     0.091 A 
ATOM     60  F   UNL A   1      37.650  31.755  28.550  1.00  0.00    -0.205 F 
ATOM     61  C   UNL A   1      35.866  31.720  31.748  1.00  0.00     0.022 A 
BRANCH  59  62
ATOM     62  S   UNL A   1      34.961  32.939  29.463  1.00  0.00     0.127 S 
ATOM     63  O   UNL A   1      34.038  33.369  30.512  1.00  0.00    -0.237 OA
ATOM     64  O   UNL A   1      35.783  34.011  28.898  1.00  0.00    -0.237 OA
ATOM     65  O   UNL A   1      34.413  32.020  28.474  1.00  0.00    -0.744 OA
ENDBRANCH  59  62
ENDBRANCH  41  55
BRANCH  42  66
ATOM     66  C   UNL A   1      47.092  28.082  26.873  1.00  0.00     0.023 A 
ATOM     67  C   UNL A   1      48.170  27.742  27.711  1.00  0.00     0.012 A 
ATOM     68  C   UNL A   1      47.237  27.958  25.478  1.00  0.00     0.148 A 
ATOM     69  C   UNL A   1      49.375  27.294  27.168  1.00  0.00     0.002 A 
ATOM     70  C   UNL A   1      48.419  27.457  24.948  1.00  0.00     0.091 A 
ATOM     71  F   UNL A   1      46.208  28.312  24.695  1.00  0.00    -0.205 F 
ATOM     72  C   UNL A   1      49.495  27.136  25.789  1.00  0.00     0.022 A 
BRANCH  70  73
ATOM     73  S   UNL A   1      48.582  27.082  23.198  1.00  0.00     0.127 S 
ATOM     74  O   UNL A   1      50.020  27.225  22.990  1.00  0.00    -0.237 OA
ATOM     75  O   UNL A   1      48.083  25.708  23.124  1.00  0.00    -0.237 OA
ATOM     76  O   UNL A   1      47.733  28.056  22.523  1.00  0.00    -0.744 OA
ENDBRANCH  70  73
ENDBRANCH  42  66
BRANCH  54  77
ATOM     77  C   UNL A   1      44.690  34.018  29.656  1.00  0.00     0.023 A 
ATOM     78  C   UNL A   1      45.397  34.294  30.842  1.00  0.00     0.012 A 
ATOM     79  C   UNL A   1      44.630  34.993  28.642  1.00  0.00     0.148 A 
ATOM     80  C   UNL A   1      46.020  35.527  31.025  1.00  0.00     0.002 A 
ATOM     81  C   UNL A   1      45.283  36.209  28.816  1.00  0.00     0.091 A 
ATOM     82  F   UNL A   1      43.931  34.720  27.530  1.00  0.00    -0.205 F 
ATOM     83  C   UNL A   1      45.973  36.480  30.009  1.00  0.00     0.022 A 
BRANCH  81  84
ATOM     84  S   UNL A   1      45.333  37.457  27.524  1.00  0.00     0.127 S 
ATOM     85  O   UNL A   1      46.098  38.523  28.167  1.00  0.00    -0.237 OA
ATOM     86  O   UNL A   1      46.038  36.766  26.444  1.00  0.00    -0.237 OA
ATOM     87  O   UNL A   1      43.941  37.770  27.226  1.00  0.00    -0.744 OA
ENDBRANCH  81  84
ENDBRANCH  54  77
ENDBRANCH  28  29
ENDBRANCH  21  23
ENDBRANCH  20  21
ENDBRANCH  19  20
ENDBRANCH   1  19
TORSDOF 17
ENDMDL
MODEL 3
REMARK VINA RESULT:     -10.7      4.886      9.976
REMARK SMILES CC[C@H](C)[NH+]1CCN(C(=O)CC(=O)OCCOC(=O)c2ccc(-c3c4nc(c(-c5cccc(S(=O)(=O)[O-])c5F)c5ccc([nH]5)c(-c5cccc(S(=O)(=O)[O-])c5F)c5nc(c(-c6cccc(S(=O)(=O)[O-])c6F)c6ccc3[nH]6)C=C5)C=C4)cc2)CC1
REMARK SMILES IDX 15 1 14 2 12 3 13 4 11 5 9 6 5 7 6 8 84 9 7 11 83 12 8 13
REMARK SMILES IDX 10 14 3 15 4 16 2 17 1 18 16 19 17 20 18 21 19 22 20 23
REMARK SMILES IDX 21 24 82 25 22 26 81 27 23 28 24 29 25 30 75 31 26 32 80 33
REMARK SMILES IDX 74 34 76 35 27 36 79 37 73 38 72 39 28 41 60 42 40 43 59 44
REMARK SMILES IDX 41 45 44 46 58 47 77 48 42 49 43 50 57 52 78 53 45 54 29 55
REMARK SMILES IDX 30 56 38 57 31 58 33 59 39 60 32 61 34 62 35 63 36 64 37 65
REMARK SMILES IDX 61 66 62 67 70 68 63 69 65 70 71 71 64 72 66 73 67 74 68 75
REMARK SMILES IDX 69 76 46 77 47 78 55 79 48 80 50 81 56 82 49 83 51 84 52 85
REMARK SMILES IDX 53 86 54 87
REMARK H PARENT 5 10 76 40 44 51
REMARK Flexibility Score: inf
ROOT
ATOM      1  C   UNL A   1      31.020  29.502  24.522  1.00  0.00     0.274 C 
ENDROOT
BRANCH   1   2
ATOM      2  O   UNL A   1      31.727  29.230  23.295  1.00  0.00    -0.462 OA
BRANCH   2   3
ATOM      3  C   UNL A   1      31.885  27.918  22.985  1.00  0.00     0.315 C 
ATOM      4  O   UNL A   1      30.981  27.087  22.998  1.00  0.00    -0.252 OA
BRANCH   3   5
ATOM      5  C   UNL A   1      33.267  27.550  22.538  1.00  0.00     0.222 C 
BRANCH   5   6
ATOM      6  C   UNL A   1      33.479  26.115  22.139  1.00  0.00     0.234 C 
ATOM      7  N   UNL A   1      34.600  22.982  24.935  1.00  0.00    -0.330 N 
ATOM      8  C   UNL A   1      34.931  22.927  23.513  1.00  0.00     0.284 C 
ATOM      9  C   UNL A   1      34.689  24.375  25.395  1.00  0.00     0.284 C 
ATOM     10  H   UNL A   1      35.316  22.421  25.394  1.00  0.00     0.348 HD
ATOM     11  C   UNL A   1      34.068  23.821  22.624  1.00  0.00     0.181 C 
ATOM     12  C   UNL A   1      33.936  25.423  24.536  1.00  0.00     0.181 C 
ATOM     13  N   UNL A   1      33.959  25.206  23.080  1.00  0.00    -0.331 N 
ATOM     14  O   UNL A   1      33.261  25.781  20.969  1.00  0.00    -0.274 OA
BRANCH   7  15
ATOM     15  C   UNL A   1      33.457  22.199  25.451  1.00  0.00     0.180 C 
ATOM     16  C   UNL A   1      33.693  21.420  26.751  1.00  0.00     0.075 C 
BRANCH  15  17
ATOM     17  C   UNL A   1      32.092  22.942  25.475  1.00  0.00     0.061 C 
ATOM     18  C   UNL A   1      31.581  23.378  26.845  1.00  0.00     0.010 C 
ENDBRANCH  15  17
ENDBRANCH   7  15
ENDBRANCH   5   6
ENDBRANCH   3   5
ENDBRANCH   2   3
ENDBRANCH   1   2
BRANCH   1  19
ATOM     19  C   UNL A   1      31.899  29.173  25.724  1.00  0.00     0.275 C 
BRANCH  19  20
ATOM     20  O   UNL A   1      33.050  30.034  25.729  1.00  0.00    -0.458 OA
BRANCH  20  21
ATOM     21  C   UNL A   1      33.100  30.921  26.751  1.00  0.00     0.338 C 
ATOM     22  O   UNL A   1      32.246  31.733  27.059  1.00  0.00    -0.246 OA
BRANCH  21  23
ATOM     23  C   UNL A   1      34.371  30.783  27.492  1.00  0.00     0.060 A 
ATOM     24  C   UNL A   1      35.248  31.860  27.661  1.00  0.00     0.016 A 
ATOM     25  C   UNL A   1      34.725  29.513  27.950  1.00  0.00     0.016 A 
ATOM     26  C   UNL A   1      36.499  31.653  28.248  1.00  0.00     0.010 A 
ATOM     27  C   UNL A   1      35.940  29.329  28.610  1.00  0.00     0.010 A 
ATOM     28  C   UNL A   1      36.848  30.391  28.755  1.00  0.00    -0.014 A 
BRANCH  28  29
ATOM     29  C   UNL A   1      38.117  30.163  29.499  1.00  0.00     0.031 A 
ATOM     30  C   UNL A   1      39.158  29.213  28.968  1.00  0.00     0.074 A 
ATOM     31  C   UNL A   1      38.280  30.720  30.716  1.00  0.00     0.049 A 
ATOM     32  N   UNL A   1      40.209  28.722  29.572  1.00  0.00    -0.248 NA
ATOM     33  C   UNL A   1      38.990  28.746  27.582  1.00  0.00     0.031 C 
ATOM     34  C   UNL A   1      37.337  31.636  31.360  1.00  0.00     0.029 A 
ATOM     35  N   UNL A   1      39.277  30.560  31.648  1.00  0.00    -0.354 N 
ATOM     36  C   UNL A   1      40.793  27.842  28.667  1.00  0.00     0.074 A 
ATOM     37  C   UNL A   1      39.987  27.878  27.466  1.00  0.00     0.031 C 
ATOM     38  C   UNL A   1      37.791  31.946  32.583  1.00  0.00     0.029 A 
ATOM     39  C   UNL A   1      39.020  31.203  32.836  1.00  0.00     0.049 A 
ATOM     40  H   UNL A   1      40.094  30.035  31.482  1.00  0.00     0.167 HD
ATOM     41  C   UNL A   1      41.906  27.085  28.820  1.00  0.00     0.034 A 
ATOM     42  C   UNL A   1      39.669  31.170  34.017  1.00  0.00     0.034 A 
ATOM     43  C   UNL A   1      42.741  27.092  29.991  1.00  0.00     0.049 A 
ATOM     44  C   UNL A   1      40.904  30.328  34.156  1.00  0.00     0.074 A 
ATOM     45  C   UNL A   1      43.927  26.410  30.206  1.00  0.00     0.029 A 
ATOM     46  N   UNL A   1      42.487  27.820  31.143  1.00  0.00    -0.354 N 
ATOM     47  N   UNL A   1      41.493  29.579  33.258  1.00  0.00    -0.248 NA
ATOM     48  C   UNL A   1      41.571  30.336  35.465  1.00  0.00     0.031 C 
ATOM     49  C   UNL A   1      44.386  26.722  31.489  1.00  0.00     0.029 A 
ATOM     50  C   UNL A   1      43.489  27.599  32.073  1.00  0.00     0.049 A 
ATOM     51  H   UNL A   1      41.707  28.405  31.280  1.00  0.00     0.167 HD
ATOM     52  C   UNL A   1      42.612  29.043  33.884  1.00  0.00     0.074 A 
ATOM     53  C   UNL A   1      42.630  29.571  35.233  1.00  0.00     0.031 C 
ATOM     54  C   UNL A   1      43.528  28.174  33.393  1.00  0.00     0.034 A 
BRANCH  41  55
ATOM     55  C   UNL A   1      42.326  26.210  27.670  1.00  0.00     0.023 A 
ATOM     56  C   UNL A   1      43.210  26.722  26.701  1.00  0.00     0.012 A 
ATOM     57  C   UNL A   1      41.923  24.862  27.597  1.00  0.00     0.148 A 
ATOM     58  C   UNL A   1      43.676  25.911  25.667  1.00  0.00     0.002 A 
ATOM     59  C   UNL A   1      42.417  24.050  26.581  1.00  0.00     0.091 A 
ATOM     60  F   UNL A   1      41.058  24.400  28.512  1.00  0.00    -0.205 F 
ATOM     61  C   UNL A   1      43.290  24.574  25.614  1.00  0.00     0.022 A 
BRANCH  59  62
ATOM     62  S   UNL A   1      42.022  22.300  26.481  1.00  0.00     0.127 S 
ATOM     63  O   UNL A   1      42.783  21.892  25.301  1.00  0.00    -0.237 OA
ATOM     64  O   UNL A   1      42.541  21.785  27.749  1.00  0.00    -0.237 OA
ATOM     65  O   UNL A   1      40.572  22.231  26.355  1.00  0.00    -0.744 OA
ENDBRANCH  59  62
ENDBRANCH  41  55
BRANCH  42  66
ATOM     66  C   UNL A   1      39.163  31.993  35.151  1.00  0.00     0.023 A 
ATOM     67  C   UNL A   1      38.232  31.430  36.044  1.00  0.00     0.012 A 
ATOM     68  C   UNL A   1      39.652  33.291  35.392  1.00  0.00     0.148 A 
ATOM     69  C   UNL A   1      37.791  32.150  37.154  1.00  0.00     0.002 A 
ATOM     70  C   UNL A   1      39.252  33.980  36.531  1.00  0.00     0.091 A 
ATOM     71  F   UNL A   1      40.518  33.820  34.517  1.00  0.00    -0.205 F 
ATOM     72  C   UNL A   1      38.312  33.417  37.407  1.00  0.00     0.022 A 
BRANCH  70  73
ATOM     73  S   UNL A   1      40.002  35.545  36.996  1.00  0.00     0.127 S 
ATOM     74  O   UNL A   1      41.415  35.189  37.084  1.00  0.00    -0.237 OA
ATOM     75  O   UNL A   1      39.653  36.407  35.867  1.00  0.00    -0.237 OA
ATOM     76  O   UNL A   1      39.353  35.918  38.247  1.00  0.00    -0.744 OA
ENDBRANCH  70  73
ENDBRANCH  42  66
BRANCH  54  77
ATOM     77  C   UNL A   1      44.641  27.746  34.308  1.00  0.00     0.023 A 
ATOM     78  C   UNL A   1      45.791  28.551  34.419  1.00  0.00     0.012 A 
ATOM     79  C   UNL A   1      44.521  26.594  35.109  1.00  0.00     0.148 A 
ATOM     80  C   UNL A   1      46.814  28.206  35.301  1.00  0.00     0.002 A 
ATOM     81  C   UNL A   1      45.529  26.275  36.012  1.00  0.00     0.091 A 
ATOM     82  F   UNL A   1      43.428  25.828  34.970  1.00  0.00    -0.205 F 
ATOM     83  C   UNL A   1      46.679  27.076  36.105  1.00  0.00     0.022 A 
BRANCH  81  84
ATOM     84  S   UNL A   1      45.395  24.879  37.135  1.00  0.00     0.127 S 
ATOM     85  O   UNL A   1      44.214  25.235  37.916  1.00  0.00    -0.237 OA
ATOM     86  O   UNL A   1      45.204  23.753  36.219  1.00  0.00    -0.237 OA
ATOM     87  O   UNL A   1      46.652  24.844  37.871  1.00  0.00    -0.744 OA
ENDBRANCH  81  84
ENDBRANCH  54  77
ENDBRANCH  28  29
ENDBRANCH  21  23
ENDBRANCH  20  21
ENDBRANCH  19  20
ENDBRANCH   1  19
TORSDOF 17
ENDMDL
