MODEL 1
REMARK VINA RESULT:     -12.3      0.000      0.000
REMARK SMILES O=C(OCCOC(=O)c1nc(NC[C@H]2c3ccccc3CSc3ccccc32)c2ccccc2n1)c1ccc(-c2c3nc(c(-c4cccc(S(=O)(=O)[O-])c4F)c4ccc([nH]4)c(-c4cccc(S(=O)(=O)[O-])c4F)c4nc(c(-c5cccc(S(=O)(=O)[O-])c5F)c5ccc2[nH]5)C=C4)C=C3)cc1
REMARK SMILES IDX 4 1 3 2 2 3 1 4 36 5 37 6 98 7 38 8 97 9 39 10 40 11 41 12
REMARK SMILES IDX 91 13 42 14 96 15 90 16 92 17 43 18 95 19 89 20 88 21 44 23
REMARK SMILES IDX 76 24 56 25 75 26 57 27 60 28 74 29 93 30 58 31 59 32 73 34
REMARK SMILES IDX 94 35 61 36 45 37 46 38 54 39 47 40 49 41 55 42 48 43 50 44
REMARK SMILES IDX 51 45 52 46 53 47 77 48 78 49 86 50 79 51 81 52 87 53 80 54
REMARK SMILES IDX 82 55 83 56 84 57 85 58 62 59 63 60 71 61 64 62 66 63 72 64
REMARK SMILES IDX 65 65 67 66 68 67 69 68 70 69 5 70 6 71 7 72 8 73 9 74 10 75
REMARK SMILES IDX 35 76 11 77 34 78 29 79 33 80 30 81 32 82 31 83 12 84 13 86
REMARK SMILES IDX 14 87 15 88 28 89 16 90 20 91 23 92 27 93 17 94 19 95 21 96
REMARK SMILES IDX 22 97 24 98 26 99 18 100 25 101
REMARK H PARENT 92 22 60 33 12 85
REMARK Flexibility Score: inf
ROOT
ATOM      1  C   UNL A   1      32.416  30.142  27.137  1.00  0.00     0.275 C 
ENDROOT
BRANCH   1   2
ATOM      2  O   UNL A   1      33.755  29.727  27.441  1.00  0.00    -0.458 OA
BRANCH   2   3
ATOM      3  C   UNL A   1      34.770  30.544  27.810  1.00  0.00     0.338 C 
ATOM      4  O   UNL A   1      34.704  31.752  27.610  1.00  0.00    -0.246 OA
BRANCH   3   5
ATOM      5  C   UNL A   1      36.046  29.971  28.306  1.00  0.00     0.060 A 
ATOM      6  C   UNL A   1      37.104  30.009  27.405  1.00  0.00     0.016 A 
ATOM      7  C   UNL A   1      36.280  29.489  29.594  1.00  0.00     0.016 A 
ATOM      8  C   UNL A   1      38.368  29.531  27.748  1.00  0.00     0.010 A 
ATOM      9  C   UNL A   1      37.544  28.974  29.936  1.00  0.00     0.010 A 
ATOM     10  C   UNL A   1      38.595  28.984  29.010  1.00  0.00    -0.014 A 
BRANCH  10  11
ATOM     11  C   UNL A   1      39.980  28.606  29.374  1.00  0.00     0.031 A 
ATOM     12  C   UNL A   1      40.828  29.461  30.273  1.00  0.00     0.074 A 
ATOM     13  C   UNL A   1      40.436  27.420  28.931  1.00  0.00     0.049 A 
ATOM     14  N   UNL A   1      41.970  29.165  30.840  1.00  0.00    -0.248 NA
ATOM     15  C   UNL A   1      40.320  30.797  30.617  1.00  0.00     0.031 C 
ATOM     16  C   UNL A   1      39.683  26.492  28.081  1.00  0.00     0.029 A 
ATOM     17  N   UNL A   1      41.647  26.805  29.106  1.00  0.00    -0.354 N 
ATOM     18  C   UNL A   1      42.257  30.221  31.700  1.00  0.00     0.074 A 
ATOM     19  C   UNL A   1      41.227  31.215  31.498  1.00  0.00     0.031 C 
ATOM     20  C   UNL A   1      40.477  25.462  27.748  1.00  0.00     0.029 A 
ATOM     21  C   UNL A   1      41.789  25.667  28.351  1.00  0.00     0.049 A 
ATOM     22  H   UNL A   1      42.345  27.146  29.710  1.00  0.00     0.167 HD
ATOM     23  C   UNL A   1      43.250  30.292  32.621  1.00  0.00     0.034 A 
ATOM     24  C   UNL A   1      42.874  24.900  28.135  1.00  0.00     0.034 A 
ATOM     25  C   UNL A   1      44.331  29.345  32.687  1.00  0.00     0.049 A 
ATOM     26  C   UNL A   1      44.133  25.218  28.882  1.00  0.00     0.074 A 
ATOM     27  C   UNL A   1      45.413  29.329  33.549  1.00  0.00     0.029 A 
ATOM     28  N   UNL A   1      44.510  28.297  31.797  1.00  0.00    -0.354 N 
ATOM     29  N   UNL A   1      44.309  26.097  29.838  1.00  0.00    -0.248 NA
ATOM     30  C   UNL A   1      45.331  24.441  28.543  1.00  0.00     0.031 C 
ATOM     31  C   UNL A   1      46.278  28.309  33.137  1.00  0.00     0.029 A 
ATOM     32  C   UNL A   1      45.725  27.682  32.030  1.00  0.00     0.049 A 
ATOM     33  H   UNL A   1      43.867  28.031  31.101  1.00  0.00     0.167 HD
ATOM     34  C   UNL A   1      45.630  25.962  30.240  1.00  0.00     0.074 A 
ATOM     35  C   UNL A   1      46.211  24.919  29.416  1.00  0.00     0.031 C 
ATOM     36  C   UNL A   1      46.292  26.641  31.209  1.00  0.00     0.034 A 
BRANCH  23  37
ATOM     37  C   UNL A   1      43.189  31.356  33.687  1.00  0.00     0.023 A 
ATOM     38  C   UNL A   1      43.834  32.586  33.429  1.00  0.00     0.012 A 
ATOM     39  C   UNL A   1      42.436  31.223  34.863  1.00  0.00     0.148 A 
ATOM     40  C   UNL A   1      43.811  33.630  34.351  1.00  0.00     0.002 A 
ATOM     41  C   UNL A   1      42.367  32.290  35.758  1.00  0.00     0.091 A 
ATOM     42  F   UNL A   1      41.801  30.064  35.086  1.00  0.00    -0.205 F 
ATOM     43  C   UNL A   1      43.074  33.483  35.516  1.00  0.00     0.022 A 
BRANCH  41  44
ATOM     44  S   UNL A   1      41.338  32.262  37.229  1.00  0.00     0.127 S 
ATOM     45  O   UNL A   1      42.158  31.473  38.146  1.00  0.00    -0.237 OA
ATOM     46  O   UNL A   1      41.241  33.683  37.565  1.00  0.00    -0.237 OA
ATOM     47  O   UNL A   1      40.084  31.645  36.824  1.00  0.00    -0.744 OA
ENDBRANCH  41  44
ENDBRANCH  23  37
BRANCH  24  48
ATOM     48  C   UNL A   1      42.785  23.793  27.149  1.00  0.00     0.023 A 
ATOM     49  C   UNL A   1      43.343  23.944  25.869  1.00  0.00     0.012 A 
ATOM     50  C   UNL A   1      42.245  22.546  27.529  1.00  0.00     0.148 A 
ATOM     51  C   UNL A   1      43.377  22.864  24.984  1.00  0.00     0.002 A 
ATOM     52  C   UNL A   1      42.313  21.467  26.657  1.00  0.00     0.091 A 
ATOM     53  F   UNL A   1      41.714  22.435  28.755  1.00  0.00    -0.205 F 
ATOM     54  C   UNL A   1      42.875  21.626  25.381  1.00  0.00     0.022 A 
BRANCH  52  55
ATOM     55  S   UNL A   1      41.781  19.814  27.116  1.00  0.00     0.127 S 
ATOM     56  O   UNL A   1      40.628  20.098  27.969  1.00  0.00    -0.237 OA
ATOM     57  O   UNL A   1      41.455  19.233  25.813  1.00  0.00    -0.237 OA
ATOM     58  O   UNL A   1      42.916  19.201  27.790  1.00  0.00    -0.744 OA
ENDBRANCH  52  55
ENDBRANCH  24  48
BRANCH  36  59
ATOM     59  C   UNL A   1      47.735  26.299  31.438  1.00  0.00     0.023 A 
ATOM     60  C   UNL A   1      48.726  26.948  30.677  1.00  0.00     0.012 A 
ATOM     61  C   UNL A   1      48.112  25.433  32.481  1.00  0.00     0.148 A 
ATOM     62  C   UNL A   1      50.075  26.734  30.950  1.00  0.00     0.002 A 
ATOM     63  C   UNL A   1      49.457  25.258  32.776  1.00  0.00     0.091 A 
ATOM     64  F   UNL A   1      47.147  24.817  33.179  1.00  0.00    -0.205 F 
ATOM     65  C   UNL A   1      50.441  25.903  32.007  1.00  0.00     0.022 A 
BRANCH  63  66
ATOM     66  S   UNL A   1      50.014  24.288  34.180  1.00  0.00     0.127 S 
ATOM     67  O   UNL A   1      51.409  24.707  34.296  1.00  0.00    -0.237 OA
ATOM     68  O   UNL A   1      49.139  24.762  35.252  1.00  0.00    -0.237 OA
ATOM     69  O   UNL A   1      49.811  22.894  33.809  1.00  0.00    -0.744 OA
ENDBRANCH  63  66
ENDBRANCH  36  59
ENDBRANCH  10  11
ENDBRANCH   3   5
ENDBRANCH   2   3
ENDBRANCH   1   2
BRANCH   1  70
ATOM     70  C   UNL A   1      32.134  30.365  25.649  1.00  0.00     0.275 C 
BRANCH  70  71
ATOM     71  O   UNL A   1      30.932  29.740  25.170  1.00  0.00    -0.456 OA
BRANCH  71  72
ATOM     72  C   UNL A   1      31.057  28.925  24.076  1.00  0.00     0.376 C 
ATOM     73  O   UNL A   1      31.013  29.293  22.910  1.00  0.00    -0.242 OA
BRANCH  72  74
ATOM     74  C   UNL A   1      31.318  27.509  24.520  1.00  0.00     0.241 A 
ATOM     75  N   UNL A   1      32.614  27.127  24.611  1.00  0.00    -0.204 NA
ATOM     76  N   UNL A   1      30.254  26.803  24.940  1.00  0.00    -0.222 NA
ATOM     77  C   UNL A   1      32.862  25.988  25.284  1.00  0.00     0.138 A 
ATOM     78  C   UNL A   1      30.519  25.654  25.564  1.00  0.00     0.077 A 
ATOM     79  C   UNL A   1      31.823  25.204  25.820  1.00  0.00     0.043 A 
ATOM     80  C   UNL A   1      29.460  24.902  26.038  1.00  0.00     0.029 A 
ATOM     81  C   UNL A   1      32.020  24.054  26.630  1.00  0.00     0.014 A 
ATOM     82  C   UNL A   1      29.666  23.768  26.824  1.00  0.00     0.002 A 
ATOM     83  C   UNL A   1      30.944  23.348  27.142  1.00  0.00     0.001 A 
BRANCH  77  84
ATOM     84  N   UNL A   1      34.182  25.658  25.611  1.00  0.00    -0.368 N 
ATOM     85  H   UNL A   1      34.559  25.979  26.461  1.00  0.00     0.162 HD
BRANCH  84  86
ATOM     86  C   UNL A   1      35.017  24.849  24.722  1.00  0.00     0.127 C 
BRANCH  86  87
ATOM     87  C   UNL A   1      34.870  23.288  25.035  1.00  0.00     0.070 C 
ATOM     88  C   UNL A   1      33.926  22.610  24.018  1.00  0.00    -0.035 A 
ATOM     89  C   UNL A   1      36.221  22.566  25.307  1.00  0.00    -0.025 A 
ATOM     90  C   UNL A   1      33.592  23.186  22.777  1.00  0.00     0.005 A 
ATOM     91  C   UNL A   1      33.330  21.369  24.333  1.00  0.00    -0.034 A 
ATOM     92  C   UNL A   1      36.524  21.196  25.148  1.00  0.00     0.011 A 
ATOM     93  C   UNL A   1      37.259  23.345  25.856  1.00  0.00     0.005 A 
ATOM     94  C   UNL A   1      32.650  22.601  21.925  1.00  0.00     0.000 A 
ATOM     95  C   UNL A   1      32.401  20.775  23.456  1.00  0.00     0.005 A 
ATOM     96  C   UNL A   1      33.832  20.559  25.494  1.00  0.00     0.110 C 
ATOM     97  S   UNL A   1      35.396  19.811  24.970  1.00  0.00    -0.121 SA
ATOM     98  C   UNL A   1      37.864  20.750  25.262  1.00  0.00     0.015 A 
ATOM     99  C   UNL A   1      38.573  22.893  26.002  1.00  0.00     0.000 A 
ATOM    100  C   UNL A   1      32.049  21.399  22.267  1.00  0.00     0.000 A 
ATOM    101  C   UNL A   1      38.890  21.600  25.651  1.00  0.00     0.001 A 
ENDBRANCH  86  87
ENDBRANCH  84  86
ENDBRANCH  77  84
ENDBRANCH  72  74
ENDBRANCH  71  72
ENDBRANCH  70  71
ENDBRANCH   1  70
TORSDOF 17
ENDMDL
MODEL 2
REMARK VINA RESULT:     -12.1      3.592      8.553
REMARK SMILES O=C(OCCOC(=O)c1nc(NC[C@H]2c3ccccc3CSc3ccccc32)c2ccccc2n1)c1ccc(-c2c3nc(c(-c4cccc(S(=O)(=O)[O-])c4F)c4ccc([nH]4)c(-c4cccc(S(=O)(=O)[O-])c4F)c4nc(c(-c5cccc(S(=O)(=O)[O-])c5F)c5ccc2[nH]5)C=C4)C=C3)cc1
REMARK SMILES IDX 4 1 3 2 2 3 1 4 36 5 37 6 98 7 38 8 97 9 39 10 40 11 41 12
REMARK SMILES IDX 91 13 42 14 96 15 90 16 92 17 43 18 95 19 89 20 88 21 44 23
REMARK SMILES IDX 76 24 56 25 75 26 57 27 60 28 74 29 93 30 58 31 59 32 73 34
REMARK SMILES IDX 94 35 61 36 45 37 46 38 54 39 47 40 49 41 55 42 48 43 50 44
REMARK SMILES IDX 51 45 52 46 53 47 77 48 78 49 86 50 79 51 81 52 87 53 80 54
REMARK SMILES IDX 82 55 83 56 84 57 85 58 62 59 63 60 71 61 64 62 66 63 72 64
REMARK SMILES IDX 65 65 67 66 68 67 69 68 70 69 5 70 6 71 7 72 8 73 9 74 10 75
REMARK SMILES IDX 35 76 11 77 34 78 29 79 33 80 30 81 32 82 31 83 12 84 13 86
REMARK SMILES IDX 14 87 15 88 28 89 16 90 20 91 23 92 27 93 17 94 19 95 21 96
REMARK SMILES IDX 22 97 24 98 26 99 18 100 25 101
REMARK H PARENT 92 22 60 33 12 85
REMARK Flexibility Score: inf
ROOT
ATOM      1  C   UNL A   1      32.985  33.713  27.604  1.00  0.00     0.275 C 
ENDROOT
BRANCH   1   2
ATOM      2  O   UNL A   1      32.538  34.625  28.617  1.00  0.00    -0.458 OA
BRANCH   2   3
ATOM      3  C   UNL A   1      33.309  35.164  29.591  1.00  0.00     0.338 C 
ATOM      4  O   UNL A   1      33.275  36.369  29.818  1.00  0.00    -0.246 OA
BRANCH   3   5
ATOM      5  C   UNL A   1      34.328  34.335  30.282  1.00  0.00     0.060 A 
ATOM      6  C   UNL A   1      35.605  34.387  29.737  1.00  0.00     0.016 A 
ATOM      7  C   UNL A   1      34.127  33.596  31.448  1.00  0.00     0.016 A 
ATOM      8  C   UNL A   1      36.666  33.681  30.301  1.00  0.00     0.010 A 
ATOM      9  C   UNL A   1      35.184  32.854  32.003  1.00  0.00     0.010 A 
ATOM     10  C   UNL A   1      36.461  32.885  31.427  1.00  0.00    -0.014 A 
BRANCH  10  11
ATOM     11  C   UNL A   1      37.638  32.254  32.067  1.00  0.00     0.031 A 
ATOM     12  C   UNL A   1      38.266  31.003  31.520  1.00  0.00     0.074 A 
ATOM     13  C   UNL A   1      38.182  32.885  33.123  1.00  0.00     0.049 A 
ATOM     14  N   UNL A   1      39.410  30.455  31.846  1.00  0.00    -0.248 NA
ATOM     15  C   UNL A   1      37.552  30.297  30.446  1.00  0.00     0.031 C 
ATOM     16  C   UNL A   1      37.675  34.127  33.716  1.00  0.00     0.029 A 
ATOM     17  N   UNL A   1      39.258  32.557  33.904  1.00  0.00    -0.354 N 
ATOM     18  C   UNL A   1      39.610  29.417  30.940  1.00  0.00     0.074 A 
ATOM     19  C   UNL A   1      38.420  29.341  30.123  1.00  0.00     0.031 C 
ATOM     20  C   UNL A   1      38.395  34.414  34.811  1.00  0.00     0.029 A 
ATOM     21  C   UNL A   1      39.399  33.374  34.999  1.00  0.00     0.049 A 
ATOM     22  H   UNL A   1      39.867  31.811  33.702  1.00  0.00     0.167 HD
ATOM     23  C   UNL A   1      40.728  28.667  30.776  1.00  0.00     0.034 A 
ATOM     24  C   UNL A   1      40.220  33.266  36.061  1.00  0.00     0.034 A 
ATOM     25  C   UNL A   1      41.829  28.682  31.702  1.00  0.00     0.049 A 
ATOM     26  C   UNL A   1      41.236  32.165  36.068  1.00  0.00     0.074 A 
ATOM     27  C   UNL A   1      42.998  27.943  31.665  1.00  0.00     0.029 A 
ATOM     28  N   UNL A   1      41.853  29.413  32.879  1.00  0.00    -0.354 N 
ATOM     29  N   UNL A   1      41.533  31.328  35.104  1.00  0.00    -0.248 NA
ATOM     30  C   UNL A   1      42.040  31.999  37.285  1.00  0.00     0.031 C 
ATOM     31  C   UNL A   1      43.697  28.182  32.853  1.00  0.00     0.029 A 
ATOM     32  C   UNL A   1      42.970  29.080  33.620  1.00  0.00     0.049 A 
ATOM     33  H   UNL A   1      41.173  30.073  33.149  1.00  0.00     0.167 HD
ATOM     34  C   UNL A   1      42.578  30.552  35.582  1.00  0.00     0.074 A 
ATOM     35  C   UNL A   1      42.858  31.016  36.928  1.00  0.00     0.031 C 
ATOM     36  C   UNL A   1      43.244  29.552  34.955  1.00  0.00     0.034 A 
BRANCH  23  37
ATOM     37  C   UNL A   1      40.878  27.836  29.527  1.00  0.00     0.023 A 
ATOM     38  C   UNL A   1      40.077  26.679  29.404  1.00  0.00     0.012 A 
ATOM     39  C   UNL A   1      41.687  28.215  28.446  1.00  0.00     0.148 A 
ATOM     40  C   UNL A   1      40.138  25.865  28.275  1.00  0.00     0.002 A 
ATOM     41  C   UNL A   1      41.704  27.429  27.294  1.00  0.00     0.091 A 
ATOM     42  F   UNL A   1      42.421  29.330  28.558  1.00  0.00    -0.205 F 
ATOM     43  C   UNL A   1      40.951  26.243  27.216  1.00  0.00     0.022 A 
BRANCH  41  44
ATOM     44  S   UNL A   1      42.612  27.890  25.815  1.00  0.00     0.127 S 
ATOM     45  O   UNL A   1      41.987  29.165  25.471  1.00  0.00    -0.237 OA
ATOM     46  O   UNL A   1      43.983  27.996  26.316  1.00  0.00    -0.237 OA
ATOM     47  O   UNL A   1      42.394  26.810  24.863  1.00  0.00    -0.744 OA
ENDBRANCH  41  44
ENDBRANCH  23  37
BRANCH  24  48
ATOM     48  C   UNL A   1      40.065  34.222  37.187  1.00  0.00     0.023 A 
ATOM     49  C   UNL A   1      40.387  35.577  37.009  1.00  0.00     0.012 A 
ATOM     50  C   UNL A   1      39.486  33.799  38.403  1.00  0.00     0.148 A 
ATOM     51  C   UNL A   1      40.123  36.502  38.021  1.00  0.00     0.002 A 
ATOM     52  C   UNL A   1      39.195  34.730  39.391  1.00  0.00     0.091 A 
ATOM     53  F   UNL A   1      39.197  32.498  38.545  1.00  0.00    -0.205 F 
ATOM     54  C   UNL A   1      39.517  36.082  39.204  1.00  0.00     0.022 A 
BRANCH  52  55
ATOM     55  S   UNL A   1      38.330  34.298  40.905  1.00  0.00     0.127 S 
ATOM     56  O   UNL A   1      39.299  33.424  41.564  1.00  0.00    -0.237 OA
ATOM     57  O   UNL A   1      38.155  35.608  41.533  1.00  0.00    -0.237 OA
ATOM     58  O   UNL A   1      37.094  33.651  40.489  1.00  0.00    -0.744 OA
ENDBRANCH  52  55
ENDBRANCH  24  48
BRANCH  36  59
ATOM     59  C   UNL A   1      44.342  28.863  35.711  1.00  0.00     0.023 A 
ATOM     60  C   UNL A   1      45.654  29.366  35.633  1.00  0.00     0.012 A 
ATOM     61  C   UNL A   1      44.053  27.800  36.588  1.00  0.00     0.148 A 
ATOM     62  C   UNL A   1      46.667  28.816  36.415  1.00  0.00     0.002 A 
ATOM     63  C   UNL A   1      45.058  27.285  37.396  1.00  0.00     0.091 A 
ATOM     64  F   UNL A   1      42.798  27.331  36.630  1.00  0.00    -0.205 F 
ATOM     65  C   UNL A   1      46.367  27.788  37.306  1.00  0.00     0.022 A 
BRANCH  63  66
ATOM     66  S   UNL A   1      44.740  26.032  38.641  1.00  0.00     0.127 S 
ATOM     67  O   UNL A   1      44.036  25.013  37.865  1.00  0.00    -0.237 OA
ATOM     68  O   UNL A   1      46.092  25.660  39.059  1.00  0.00    -0.237 OA
ATOM     69  O   UNL A   1      43.949  26.686  39.675  1.00  0.00    -0.744 OA
ENDBRANCH  63  66
ENDBRANCH  36  59
ENDBRANCH  10  11
ENDBRANCH   3   5
ENDBRANCH   2   3
ENDBRANCH   1   2
BRANCH   1  70
ATOM     70  C   UNL A   1      33.328  32.309  28.108  1.00  0.00     0.275 C 
BRANCH  70  71
ATOM     71  O   UNL A   1      32.992  31.250  27.196  1.00  0.00    -0.456 OA
BRANCH  71  72
ATOM     72  C   UNL A   1      33.930  30.266  27.025  1.00  0.00     0.376 C 
ATOM     73  O   UNL A   1      35.012  30.214  27.591  1.00  0.00    -0.242 OA
BRANCH  72  74
ATOM     74  C   UNL A   1      33.405  29.218  26.077  1.00  0.00     0.241 A 
ATOM     75  N   UNL A   1      33.952  27.983  26.170  1.00  0.00    -0.204 NA
ATOM     76  N   UNL A   1      32.334  29.556  25.339  1.00  0.00    -0.222 NA
ATOM     77  C   UNL A   1      33.295  26.984  25.552  1.00  0.00     0.138 A 
ATOM     78  C   UNL A   1      31.724  28.559  24.697  1.00  0.00     0.077 A 
ATOM     79  C   UNL A   1      32.126  27.219  24.803  1.00  0.00     0.043 A 
ATOM     80  C   UNL A   1      30.601  28.850  23.943  1.00  0.00     0.029 A 
ATOM     81  C   UNL A   1      31.327  26.199  24.220  1.00  0.00     0.014 A 
ATOM     82  C   UNL A   1      29.830  27.839  23.365  1.00  0.00     0.002 A 
ATOM     83  C   UNL A   1      30.176  26.509  23.516  1.00  0.00     0.001 A 
BRANCH  77  84
ATOM     84  N   UNL A   1      33.674  25.660  25.796  1.00  0.00    -0.368 N 
ATOM     85  H   UNL A   1      33.230  25.159  26.518  1.00  0.00     0.162 HD
BRANCH  84  86
ATOM     86  C   UNL A   1      34.714  24.998  25.007  1.00  0.00     0.127 C 
BRANCH  86  87
ATOM     87  C   UNL A   1      34.715  23.417  25.241  1.00  0.00     0.070 C 
ATOM     88  C   UNL A   1      33.842  22.704  24.184  1.00  0.00    -0.035 A 
ATOM     89  C   UNL A   1      36.127  22.813  25.487  1.00  0.00    -0.025 A 
ATOM     90  C   UNL A   1      33.459  23.309  22.971  1.00  0.00     0.005 A 
ATOM     91  C   UNL A   1      33.365  21.399  24.432  1.00  0.00    -0.034 A 
ATOM     92  C   UNL A   1      36.559  21.487  25.263  1.00  0.00     0.011 A 
ATOM     93  C   UNL A   1      37.085  23.657  26.082  1.00  0.00     0.005 A 
ATOM     94  C   UNL A   1      32.579  22.681  22.084  1.00  0.00     0.000 A 
ATOM     95  C   UNL A   1      32.499  20.765  23.520  1.00  0.00     0.005 A 
ATOM     96  C   UNL A   1      33.939  20.582  25.556  1.00  0.00     0.110 C 
ATOM     97  S   UNL A   1      35.567  20.012  25.006  1.00  0.00    -0.121 SA
ATOM     98  C   UNL A   1      37.935  21.164  25.364  1.00  0.00     0.015 A 
ATOM     99  C   UNL A   1      38.436  23.325  26.216  1.00  0.00     0.000 A 
ATOM    100  C   UNL A   1      32.093  21.412  22.360  1.00  0.00     0.000 A 
ATOM    101  C   UNL A   1      38.875  22.086  25.803  1.00  0.00     0.001 A 
ENDBRANCH  86  87
ENDBRANCH  84  86
ENDBRANCH  77  84
ENDBRANCH  72  74
ENDBRANCH  71  72
ENDBRANCH  70  71
ENDBRANCH   1  70
TORSDOF 17
ENDMDL
MODEL 3
REMARK VINA RESULT:     -12.0      3.390      4.793
REMARK SMILES O=C(OCCOC(=O)c1nc(NC[C@H]2c3ccccc3CSc3ccccc32)c2ccccc2n1)c1ccc(-c2c3nc(c(-c4cccc(S(=O)(=O)[O-])c4F)c4ccc([nH]4)c(-c4cccc(S(=O)(=O)[O-])c4F)c4nc(c(-c5cccc(S(=O)(=O)[O-])c5F)c5ccc2[nH]5)C=C4)C=C3)cc1
REMARK SMILES IDX 4 1 3 2 2 3 1 4 36 5 37 6 98 7 38 8 97 9 39 10 40 11 41 12
REMARK SMILES IDX 91 13 42 14 96 15 90 16 92 17 43 18 95 19 89 20 88 21 44 23
REMARK SMILES IDX 76 24 56 25 75 26 57 27 60 28 74 29 93 30 58 31 59 32 73 34
REMARK SMILES IDX 94 35 61 36 45 37 46 38 54 39 47 40 49 41 55 42 48 43 50 44
REMARK SMILES IDX 51 45 52 46 53 47 77 48 78 49 86 50 79 51 81 52 87 53 80 54
REMARK SMILES IDX 82 55 83 56 84 57 85 58 62 59 63 60 71 61 64 62 66 63 72 64
REMARK SMILES IDX 65 65 67 66 68 67 69 68 70 69 5 70 6 71 7 72 8 73 9 74 10 75
REMARK SMILES IDX 35 76 11 77 34 78 29 79 33 80 30 81 32 82 31 83 12 84 13 86
REMARK SMILES IDX 14 87 15 88 28 89 16 90 20 91 23 92 27 93 17 94 19 95 21 96
REMARK SMILES IDX 22 97 24 98 26 99 18 100 25 101
REMARK H PARENT 92 22 60 33 12 85
REMARK Flexibility Score: inf
ROOT
ATOM      1  C   UNL A   1      32.680  33.571  27.376  1.00  0.00     0.275 C 
ENDROOT
BRANCH   1   2
ATOM      2  O   UNL A   1      32.528  34.546  28.418  1.00  0.00    -0.458 OA
BRANCH   2   3
ATOM      3  C   UNL A   1      33.538  35.149  29.088  1.00  0.00     0.338 C 
ATOM      4  O   UNL A   1      33.697  36.363  29.017  1.00  0.00    -0.246 OA
BRANCH   3   5
ATOM      5  C   UNL A   1      34.567  34.333  29.780  1.00  0.00     0.060 A 
ATOM      6  C   UNL A   1      35.835  34.370  29.212  1.00  0.00     0.016 A 
ATOM      7  C   UNL A   1      34.385  33.622  30.966  1.00  0.00     0.016 A 
ATOM      8  C   UNL A   1      36.904  33.674  29.774  1.00  0.00     0.010 A 
ATOM      9  C   UNL A   1      35.451  32.889  31.520  1.00  0.00     0.010 A 
ATOM     10  C   UNL A   1      36.717  32.904  30.920  1.00  0.00    -0.014 A 
BRANCH  10  11
ATOM     11  C   UNL A   1      37.904  32.285  31.554  1.00  0.00     0.031 A 
ATOM     12  C   UNL A   1      38.511  32.834  32.814  1.00  0.00     0.074 A 
ATOM     13  C   UNL A   1      38.384  31.155  31.001  1.00  0.00     0.049 A 
ATOM     14  N   UNL A   1      39.414  32.288  33.590  1.00  0.00    -0.248 NA
ATOM     15  C   UNL A   1      38.022  34.135  33.293  1.00  0.00     0.031 C 
ATOM     16  C   UNL A   1      37.849  30.513  29.796  1.00  0.00     0.029 A 
ATOM     17  N   UNL A   1      39.444  30.366  31.357  1.00  0.00    -0.354 N 
ATOM     18  C   UNL A   1      39.511  33.114  34.705  1.00  0.00     0.074 A 
ATOM     19  C   UNL A   1      38.659  34.254  34.455  1.00  0.00     0.031 C 
ATOM     20  C   UNL A   1      38.629  29.471  29.473  1.00  0.00     0.029 A 
ATOM     21  C   UNL A   1      39.718  29.383  30.437  1.00  0.00     0.049 A 
ATOM     22  H   UNL A   1      39.957  30.490  32.188  1.00  0.00     0.167 HD
ATOM     23  C   UNL A   1      40.194  32.877  35.853  1.00  0.00     0.034 A 
ATOM     24  C   UNL A   1      40.762  28.536  30.360  1.00  0.00     0.034 A 
ATOM     25  C   UNL A   1      41.138  31.801  35.999  1.00  0.00     0.049 A 
ATOM     26  C   UNL A   1      41.767  28.538  31.471  1.00  0.00     0.074 A 
ATOM     27  C   UNL A   1      41.916  31.480  37.096  1.00  0.00     0.029 A 
ATOM     28  N   UNL A   1      41.494  30.928  34.983  1.00  0.00    -0.354 N 
ATOM     29  N   UNL A   1      41.718  29.187  32.609  1.00  0.00    -0.248 NA
ATOM     30  C   UNL A   1      42.953  27.689  31.307  1.00  0.00     0.031 C 
ATOM     31  C   UNL A   1      42.789  30.452  36.720  1.00  0.00     0.029 A 
ATOM     32  C   UNL A   1      42.541  30.125  35.395  1.00  0.00     0.049 A 
ATOM     33  H   UNL A   1      41.065  30.885  34.098  1.00  0.00     0.167 HD
ATOM     34  C   UNL A   1      42.850  28.806  33.314  1.00  0.00     0.074 A 
ATOM     35  C   UNL A   1      43.570  27.872  32.469  1.00  0.00     0.031 C 
ATOM     36  C   UNL A   1      43.246  29.195  34.550  1.00  0.00     0.034 A 
BRANCH  23  37
ATOM     37  C   UNL A   1      39.900  33.717  37.070  1.00  0.00     0.023 A 
ATOM     38  C   UNL A   1      38.732  33.425  37.807  1.00  0.00     0.012 A 
ATOM     39  C   UNL A   1      40.780  34.693  37.559  1.00  0.00     0.148 A 
ATOM     40  C   UNL A   1      38.394  34.139  38.955  1.00  0.00     0.002 A 
ATOM     41  C   UNL A   1      40.469  35.367  38.739  1.00  0.00     0.091 A 
ATOM     42  F   UNL A   1      41.902  34.944  36.871  1.00  0.00    -0.205 F 
ATOM     43  C   UNL A   1      39.266  35.110  39.423  1.00  0.00     0.022 A 
BRANCH  41  44
ATOM     44  S   UNL A   1      41.583  36.546  39.510  1.00  0.00     0.127 S 
ATOM     45  O   UNL A   1      41.777  37.514  38.433  1.00  0.00    -0.237 OA
ATOM     46  O   UNL A   1      40.784  37.036  40.635  1.00  0.00    -0.237 OA
ATOM     47  O   UNL A   1      42.765  35.786  39.888  1.00  0.00    -0.744 OA
ENDBRANCH  41  44
ENDBRANCH  23  37
BRANCH  24  48
ATOM     48  C   UNL A   1      40.886  27.658  29.168  1.00  0.00     0.023 A 
ATOM     49  C   UNL A   1      40.076  26.518  29.046  1.00  0.00     0.012 A 
ATOM     50  C   UNL A   1      41.731  28.028  28.100  1.00  0.00     0.148 A 
ATOM     51  C   UNL A   1      40.096  25.762  27.873  1.00  0.00     0.002 A 
ATOM     52  C   UNL A   1      41.720  27.292  26.923  1.00  0.00     0.091 A 
ATOM     53  F   UNL A   1      42.497  29.118  28.248  1.00  0.00    -0.205 F 
ATOM     54  C   UNL A   1      40.906  26.154  26.809  1.00  0.00     0.022 A 
BRANCH  52  55
ATOM     55  S   UNL A   1      42.657  27.775  25.467  1.00  0.00     0.127 S 
ATOM     56  O   UNL A   1      42.536  26.586  24.626  1.00  0.00    -0.237 OA
ATOM     57  O   UNL A   1      41.902  28.939  25.001  1.00  0.00    -0.237 OA
ATOM     58  O   UNL A   1      44.003  28.069  25.938  1.00  0.00    -0.744 OA
ENDBRANCH  52  55
ENDBRANCH  24  48
BRANCH  36  59
ATOM     59  C   UNL A   1      44.532  28.629  35.080  1.00  0.00     0.023 A 
ATOM     60  C   UNL A   1      45.718  29.375  34.950  1.00  0.00     0.012 A 
ATOM     61  C   UNL A   1      44.541  27.425  35.808  1.00  0.00     0.148 A 
ATOM     62  C   UNL A   1      46.900  28.925  35.535  1.00  0.00     0.002 A 
ATOM     63  C   UNL A   1      45.711  27.005  36.425  1.00  0.00     0.091 A 
ATOM     64  F   UNL A   1      43.399  26.728  35.902  1.00  0.00    -0.205 F 
ATOM     65  C   UNL A   1      46.894  27.750  36.284  1.00  0.00     0.022 A 
BRANCH  63  66
ATOM     66  S   UNL A   1      45.770  25.561  37.490  1.00  0.00     0.127 S 
ATOM     67  O   UNL A   1      45.397  24.493  36.564  1.00  0.00    -0.237 OA
ATOM     68  O   UNL A   1      47.170  25.545  37.914  1.00  0.00    -0.237 OA
ATOM     69  O   UNL A   1      44.819  25.816  38.564  1.00  0.00    -0.744 OA
ENDBRANCH  63  66
ENDBRANCH  36  59
ENDBRANCH  10  11
ENDBRANCH   3   5
ENDBRANCH   2   3
ENDBRANCH   1   2
BRANCH   1  70
ATOM     70  C   UNL A   1      33.561  32.373  27.738  1.00  0.00     0.275 C 
BRANCH  70  71
ATOM     71  O   UNL A   1      33.029  31.100  27.341  1.00  0.00    -0.456 OA
BRANCH  71  72
ATOM     72  C   UNL A   1      33.937  30.102  27.100  1.00  0.00     0.376 C 
ATOM     73  O   UNL A   1      35.019  29.980  27.658  1.00  0.00    -0.242 OA
BRANCH  72  74
ATOM     74  C   UNL A   1      33.380  29.138  26.084  1.00  0.00     0.241 A 
ATOM     75  N   UNL A   1      33.860  27.872  26.118  1.00  0.00    -0.204 NA
ATOM     76  N   UNL A   1      32.347  29.573  25.344  1.00  0.00    -0.222 NA
ATOM     77  C   UNL A   1      33.166  26.945  25.433  1.00  0.00     0.138 A 
ATOM     78  C   UNL A   1      31.700  28.646  24.635  1.00  0.00     0.077 A 
ATOM     79  C   UNL A   1      32.029  27.283  24.674  1.00  0.00     0.043 A 
ATOM     80  C   UNL A   1      30.612  29.038  23.876  1.00  0.00     0.029 A 
ATOM     81  C   UNL A   1      31.192  26.341  24.018  1.00  0.00     0.014 A 
ATOM     82  C   UNL A   1      29.803  28.103  23.227  1.00  0.00     0.002 A 
ATOM     83  C   UNL A   1      30.075  26.751  23.310  1.00  0.00     0.001 A 
BRANCH  77  84
ATOM     84  N   UNL A   1      33.470  25.591  25.609  1.00  0.00    -0.368 N 
ATOM     85  H   UNL A   1      32.902  25.046  26.201  1.00  0.00     0.162 HD
BRANCH  84  86
ATOM     86  C   UNL A   1      34.608  24.962  24.939  1.00  0.00     0.127 C 
BRANCH  86  87
ATOM     87  C   UNL A   1      34.645  23.385  25.193  1.00  0.00     0.070 C 
ATOM     88  C   UNL A   1      33.789  22.639  24.145  1.00  0.00    -0.035 A 
ATOM     89  C   UNL A   1      36.070  22.816  25.447  1.00  0.00    -0.025 A 
ATOM     90  C   UNL A   1      33.393  23.219  22.924  1.00  0.00     0.005 A 
ATOM     91  C   UNL A   1      33.341  21.327  24.410  1.00  0.00    -0.034 A 
ATOM     92  C   UNL A   1      36.531  21.497  25.240  1.00  0.00     0.011 A 
ATOM     93  C   UNL A   1      37.008  23.689  26.032  1.00  0.00     0.005 A 
ATOM     94  C   UNL A   1      32.528  22.560  22.045  1.00  0.00     0.000 A 
ATOM     95  C   UNL A   1      32.490  20.661  23.506  1.00  0.00     0.005 A 
ATOM     96  C   UNL A   1      33.932  20.538  25.544  1.00  0.00     0.110 C 
ATOM     97  S   UNL A   1      35.573  19.997  25.003  1.00  0.00    -0.121 SA
ATOM     98  C   UNL A   1      37.914  21.206  25.346  1.00  0.00     0.015 A 
ATOM     99  C   UNL A   1      38.366  23.389  26.170  1.00  0.00     0.000 A 
ATOM    100  C   UNL A   1      32.070  21.284  22.338  1.00  0.00     0.000 A 
ATOM    101  C   UNL A   1      38.833  22.155  25.773  1.00  0.00     0.001 A 
ENDBRANCH  86  87
ENDBRANCH  84  86
ENDBRANCH  77  84
ENDBRANCH  72  74
ENDBRANCH  71  72
ENDBRANCH  70  71
ENDBRANCH   1  70
TORSDOF 17
ENDMDL
