MODEL 1
REMARK VINA RESULT:     -11.7      0.000      0.000
REMARK SMILES O=C(OCCOC(=O)[C@@H]1CSCN1C(=O)c1cccc(Cl)c1)c1ccc(-c2c3nc(c(-c4cccc(S(=O)(=O)[O-])c4F)c4ccc([nH]4)c(-c4cccc(S(=O)(=O)[O-])c4F)c4nc(c(-c5cccc(S(=O)(=O)[O-])c5F)c5ccc2[nH]5)C=C4)C=C3)cc1
REMARK SMILES IDX 4 1 3 2 2 3 1 4 23 5 24 6 85 7 25 8 84 9 26 10 27 11 28 12
REMARK SMILES IDX 78 13 29 14 83 15 77 16 79 17 30 18 82 19 76 20 75 21 31 23
REMARK SMILES IDX 63 24 43 25 62 26 44 27 47 28 61 29 80 30 45 31 46 32 60 34
REMARK SMILES IDX 81 35 48 36 32 37 33 38 41 39 34 40 36 41 42 42 35 43 37 44
REMARK SMILES IDX 38 45 39 46 40 47 64 48 65 49 73 50 66 51 68 52 74 53 67 54
REMARK SMILES IDX 69 55 70 56 71 57 72 58 49 59 50 60 58 61 51 62 53 63 59 64
REMARK SMILES IDX 52 65 54 66 55 67 56 68 57 69 5 70 6 71 7 72 8 73 9 74 10 75
REMARK SMILES IDX 13 76 11 77 12 78 14 79 15 80 16 81 17 82 22 83 18 84 20 85
REMARK SMILES IDX 19 86 21 87
REMARK H PARENT 79 22 47 33
REMARK Flexibility Score: inf
ROOT
ATOM      1  C   UNL A   1      33.515  29.648  26.283  1.00  0.00     0.275 C 
ENDROOT
BRANCH   1   2
ATOM      2  O   UNL A   1      33.520  30.722  27.219  1.00  0.00    -0.458 OA
BRANCH   2   3
ATOM      3  C   UNL A   1      34.595  31.253  27.835  1.00  0.00     0.338 C 
ATOM      4  O   UNL A   1      34.538  32.439  28.158  1.00  0.00    -0.246 OA
BRANCH   3   5
ATOM      5  C   UNL A   1      35.861  30.486  28.116  1.00  0.00     0.060 A 
ATOM      6  C   UNL A   1      37.041  30.395  27.360  1.00  0.00     0.016 A 
ATOM      7  C   UNL A   1      35.846  29.807  29.329  1.00  0.00     0.016 A 
ATOM      8  C   UNL A   1      38.187  29.728  27.844  1.00  0.00     0.010 A 
ATOM      9  C   UNL A   1      36.985  29.189  29.826  1.00  0.00     0.010 A 
ATOM     10  C   UNL A   1      38.178  29.129  29.099  1.00  0.00    -0.014 A 
BRANCH  10  11
ATOM     11  C   UNL A   1      39.306  28.376  29.720  1.00  0.00     0.031 A 
ATOM     12  C   UNL A   1      39.980  29.012  30.916  1.00  0.00     0.074 A 
ATOM     13  C   UNL A   1      39.886  27.331  29.093  1.00  0.00     0.049 A 
ATOM     14  N   UNL A   1      41.188  28.846  31.380  1.00  0.00    -0.248 NA
ATOM     15  C   UNL A   1      39.225  30.084  31.593  1.00  0.00     0.031 C 
ATOM     16  C   UNL A   1      39.409  26.679  27.870  1.00  0.00     0.029 A 
ATOM     17  N   UNL A   1      41.069  26.685  29.360  1.00  0.00    -0.354 N 
ATOM     18  C   UNL A   1      41.379  29.879  32.296  1.00  0.00     0.074 A 
ATOM     19  C   UNL A   1      40.189  30.697  32.259  1.00  0.00     0.031 C 
ATOM     20  C   UNL A   1      40.323  25.785  27.454  1.00  0.00     0.029 A 
ATOM     21  C   UNL A   1      41.434  25.769  28.397  1.00  0.00     0.049 A 
ATOM     22  H   UNL A   1      41.608  26.862  30.165  1.00  0.00     0.167 HD
ATOM     23  C   UNL A   1      42.431  30.095  33.124  1.00  0.00     0.034 A 
ATOM     24  C   UNL A   1      42.532  24.991  28.303  1.00  0.00     0.034 A 
ATOM     25  C   UNL A   1      43.483  29.129  33.286  1.00  0.00     0.049 A 
ATOM     26  C   UNL A   1      43.521  25.034  29.437  1.00  0.00     0.074 A 
ATOM     27  C   UNL A   1      44.471  29.073  34.252  1.00  0.00     0.029 A 
ATOM     28  N   UNL A   1      43.643  28.008  32.486  1.00  0.00    -0.354 N 
ATOM     29  N   UNL A   1      43.616  25.906  30.411  1.00  0.00    -0.248 NA
ATOM     30  C   UNL A   1      44.488  23.930  29.522  1.00  0.00     0.031 C 
ATOM     31  C   UNL A   1      45.213  27.905  34.047  1.00  0.00     0.029 A 
ATOM     32  C   UNL A   1      44.677  27.228  32.962  1.00  0.00     0.049 A 
ATOM     33  H   UNL A   1      43.099  27.799  31.692  1.00  0.00     0.167 HD
ATOM     34  C   UNL A   1      44.600  25.422  31.263  1.00  0.00     0.074 A 
ATOM     35  C   UNL A   1      45.075  24.180  30.686  1.00  0.00     0.031 C 
ATOM     36  C   UNL A   1      45.067  25.954  32.418  1.00  0.00     0.034 A 
BRANCH  23  37
ATOM     37  C   UNL A   1      42.440  31.345  33.977  1.00  0.00     0.023 A 
ATOM     38  C   UNL A   1      42.915  32.568  33.457  1.00  0.00     0.012 A 
ATOM     39  C   UNL A   1      41.946  31.321  35.298  1.00  0.00     0.148 A 
ATOM     40  C   UNL A   1      42.998  33.709  34.256  1.00  0.00     0.002 A 
ATOM     41  C   UNL A   1      41.948  32.486  36.062  1.00  0.00     0.091 A 
ATOM     42  F   UNL A   1      41.504  30.158  35.798  1.00  0.00    -0.205 F 
ATOM     43  C   UNL A   1      42.505  33.670  35.555  1.00  0.00     0.022 A 
BRANCH  41  44
ATOM     44  S   UNL A   1      41.178  32.578  37.683  1.00  0.00     0.127 S 
ATOM     45  O   UNL A   1      42.008  31.650  38.457  1.00  0.00    -0.237 OA
ATOM     46  O   UNL A   1      41.367  33.991  38.029  1.00  0.00    -0.237 OA
ATOM     47  O   UNL A   1      39.798  32.181  37.494  1.00  0.00    -0.744 OA
ENDBRANCH  41  44
ENDBRANCH  23  37
BRANCH  24  48
ATOM     48  C   UNL A   1      42.645  23.976  27.218  1.00  0.00     0.023 A 
ATOM     49  C   UNL A   1      43.366  24.315  26.055  1.00  0.00     0.012 A 
ATOM     50  C   UNL A   1      42.082  22.689  27.324  1.00  0.00     0.148 A 
ATOM     51  C   UNL A   1      43.492  23.413  24.999  1.00  0.00     0.002 A 
ATOM     52  C   UNL A   1      42.241  21.779  26.280  1.00  0.00     0.091 A 
ATOM     53  F   UNL A   1      41.413  22.380  28.443  1.00  0.00    -0.205 F 
ATOM     54  C   UNL A   1      42.933  22.145  25.113  1.00  0.00     0.022 A 
BRANCH  52  55
ATOM     55  S   UNL A   1      41.632  20.089  26.342  1.00  0.00     0.127 S 
ATOM     56  O   UNL A   1      42.337  19.476  25.218  1.00  0.00    -0.237 OA
ATOM     57  O   UNL A   1      42.090  19.657  27.663  1.00  0.00    -0.237 OA
ATOM     58  O   UNL A   1      40.187  20.182  26.196  1.00  0.00    -0.744 OA
ENDBRANCH  52  55
ENDBRANCH  24  48
BRANCH  36  59
ATOM     59  C   UNL A   1      46.078  25.164  33.201  1.00  0.00     0.023 A 
ATOM     60  C   UNL A   1      47.452  25.430  33.056  1.00  0.00     0.012 A 
ATOM     61  C   UNL A   1      45.646  24.227  34.162  1.00  0.00     0.148 A 
ATOM     62  C   UNL A   1      48.386  24.756  33.843  1.00  0.00     0.002 A 
ATOM     63  C   UNL A   1      46.578  23.596  34.974  1.00  0.00     0.091 A 
ATOM     64  F   UNL A   1      44.332  23.977  34.264  1.00  0.00    -0.205 F 
ATOM     65  C   UNL A   1      47.949  23.851  34.808  1.00  0.00     0.022 A 
BRANCH  63  66
ATOM     66  S   UNL A   1      46.101  22.492  36.309  1.00  0.00     0.127 S 
ATOM     67  O   UNL A   1      47.403  22.104  36.851  1.00  0.00    -0.237 OA
ATOM     68  O   UNL A   1      45.318  23.375  37.173  1.00  0.00    -0.237 OA
ATOM     69  O   UNL A   1      45.338  21.417  35.690  1.00  0.00    -0.744 OA
ENDBRANCH  63  66
ENDBRANCH  36  59
ENDBRANCH  10  11
ENDBRANCH   3   5
ENDBRANCH   2   3
ENDBRANCH   1   2
BRANCH   1  70
ATOM     70  C   UNL A   1      33.577  28.243  26.894  1.00  0.00     0.274 C 
BRANCH  70  71
ATOM     71  O   UNL A   1      32.350  27.470  26.829  1.00  0.00    -0.461 OA
BRANCH  71  72
ATOM     72  C   UNL A   1      32.419  26.281  26.150  1.00  0.00     0.329 C 
ATOM     73  O   UNL A   1      33.405  25.546  26.217  1.00  0.00    -0.250 OA
BRANCH  72  74
ATOM     74  C   UNL A   1      31.366  26.120  25.019  1.00  0.00     0.206 C 
ATOM     75  C   UNL A   1      31.152  24.592  24.972  1.00  0.00     0.108 C 
ATOM     76  N   UNL A   1      31.525  26.627  23.619  1.00  0.00    -0.315 N 
ATOM     77  S   UNL A   1      30.556  24.246  23.321  1.00  0.00    -0.138 SA
ATOM     78  C   UNL A   1      31.560  25.567  22.635  1.00  0.00     0.191 C 
BRANCH  76  79
ATOM     79  C   UNL A   1      31.295  27.988  23.359  1.00  0.00     0.255 C 
ATOM     80  O   UNL A   1      32.224  28.704  22.978  1.00  0.00    -0.269 OA
BRANCH  79  81
ATOM     81  C   UNL A   1      29.920  28.621  23.380  1.00  0.00     0.041 A 
ATOM     82  C   UNL A   1      28.695  27.966  23.209  1.00  0.00     0.014 A 
ATOM     83  C   UNL A   1      29.887  30.021  23.542  1.00  0.00     0.034 A 
ATOM     84  C   UNL A   1      27.509  28.695  23.006  1.00  0.00     0.002 A 
ATOM     85  C   UNL A   1      28.709  30.746  23.330  1.00  0.00     0.041 A 
ATOM     86  C   UNL A   1      27.521  30.089  23.034  1.00  0.00     0.020 A 
ATOM     87  Cl  UNL A   1      28.755  32.466  23.340  1.00  0.00    -0.084 Cl
ENDBRANCH  79  81
ENDBRANCH  76  79
ENDBRANCH  72  74
ENDBRANCH  71  72
ENDBRANCH  70  71
ENDBRANCH   1  70
TORSDOF 16
ENDMDL
MODEL 2
REMARK VINA RESULT:     -11.6      3.838      6.031
REMARK SMILES O=C(OCCOC(=O)[C@@H]1CSCN1C(=O)c1cccc(Cl)c1)c1ccc(-c2c3nc(c(-c4cccc(S(=O)(=O)[O-])c4F)c4ccc([nH]4)c(-c4cccc(S(=O)(=O)[O-])c4F)c4nc(c(-c5cccc(S(=O)(=O)[O-])c5F)c5ccc2[nH]5)C=C4)C=C3)cc1
REMARK SMILES IDX 4 1 3 2 2 3 1 4 23 5 24 6 85 7 25 8 84 9 26 10 27 11 28 12
REMARK SMILES IDX 78 13 29 14 83 15 77 16 79 17 30 18 82 19 76 20 75 21 31 23
REMARK SMILES IDX 63 24 43 25 62 26 44 27 47 28 61 29 80 30 45 31 46 32 60 34
REMARK SMILES IDX 81 35 48 36 32 37 33 38 41 39 34 40 36 41 42 42 35 43 37 44
REMARK SMILES IDX 38 45 39 46 40 47 64 48 65 49 73 50 66 51 68 52 74 53 67 54
REMARK SMILES IDX 69 55 70 56 71 57 72 58 49 59 50 60 58 61 51 62 53 63 59 64
REMARK SMILES IDX 52 65 54 66 55 67 56 68 57 69 5 70 6 71 7 72 8 73 9 74 10 75
REMARK SMILES IDX 13 76 11 77 12 78 14 79 15 80 16 81 17 82 22 83 18 84 20 85
REMARK SMILES IDX 19 86 21 87
REMARK H PARENT 79 22 47 33
REMARK Flexibility Score: inf
ROOT
ATOM      1  C   UNL A   1      33.599  33.561  28.120  1.00  0.00     0.275 C 
ENDROOT
BRANCH   1   2
ATOM      2  O   UNL A   1      34.622  32.677  27.669  1.00  0.00    -0.458 OA
BRANCH   2   3
ATOM      3  C   UNL A   1      34.639  31.334  27.786  1.00  0.00     0.338 C 
ATOM      4  O   UNL A   1      33.569  30.738  27.671  1.00  0.00    -0.246 OA
BRANCH   3   5
ATOM      5  C   UNL A   1      35.884  30.537  28.080  1.00  0.00     0.060 A 
ATOM      6  C   UNL A   1      37.036  30.354  27.300  1.00  0.00     0.016 A 
ATOM      7  C   UNL A   1      35.879  29.935  29.333  1.00  0.00     0.016 A 
ATOM      8  C   UNL A   1      38.171  29.674  27.793  1.00  0.00     0.010 A 
ATOM      9  C   UNL A   1      37.009  29.305  29.837  1.00  0.00     0.010 A 
ATOM     10  C   UNL A   1      38.177  29.155  29.083  1.00  0.00    -0.014 A 
BRANCH  10  11
ATOM     11  C   UNL A   1      39.294  28.398  29.719  1.00  0.00     0.031 A 
ATOM     12  C   UNL A   1      39.953  29.031  30.926  1.00  0.00     0.074 A 
ATOM     13  C   UNL A   1      39.880  27.352  29.099  1.00  0.00     0.049 A 
ATOM     14  N   UNL A   1      41.153  28.861  31.407  1.00  0.00    -0.248 NA
ATOM     15  C   UNL A   1      39.190  30.102  31.593  1.00  0.00     0.031 C 
ATOM     16  C   UNL A   1      39.420  26.703  27.869  1.00  0.00     0.029 A 
ATOM     17  N   UNL A   1      41.058  26.703  29.382  1.00  0.00    -0.354 N 
ATOM     18  C   UNL A   1      41.333  29.892  32.327  1.00  0.00     0.074 A 
ATOM     19  C   UNL A   1      40.146  30.712  32.275  1.00  0.00     0.031 C 
ATOM     20  C   UNL A   1      40.338  25.807  27.464  1.00  0.00     0.029 A 
ATOM     21  C   UNL A   1      41.435  25.787  28.423  1.00  0.00     0.049 A 
ATOM     22  H   UNL A   1      41.586  26.877  30.195  1.00  0.00     0.167 HD
ATOM     23  C   UNL A   1      42.373  30.104  33.171  1.00  0.00     0.034 A 
ATOM     24  C   UNL A   1      42.532  25.007  28.344  1.00  0.00     0.034 A 
ATOM     25  C   UNL A   1      43.421  29.135  33.347  1.00  0.00     0.049 A 
ATOM     26  C   UNL A   1      43.505  25.046  29.492  1.00  0.00     0.074 A 
ATOM     27  C   UNL A   1      44.394  29.076  34.327  1.00  0.00     0.029 A 
ATOM     28  N   UNL A   1      43.589  28.015  32.547  1.00  0.00    -0.354 N 
ATOM     29  N   UNL A   1      43.587  25.916  30.469  1.00  0.00    -0.248 NA
ATOM     30  C   UNL A   1      44.468  23.940  29.590  1.00  0.00     0.031 C 
ATOM     31  C   UNL A   1      45.137  27.905  34.131  1.00  0.00     0.029 A 
ATOM     32  C   UNL A   1      44.615  27.232  33.037  1.00  0.00     0.049 A 
ATOM     33  H   UNL A   1      43.056  27.809  31.745  1.00  0.00     0.167 HD
ATOM     34  C   UNL A   1      44.558  25.429  31.334  1.00  0.00     0.074 A 
ATOM     35  C   UNL A   1      45.038  24.186  30.763  1.00  0.00     0.031 C 
ATOM     36  C   UNL A   1      45.010  25.957  32.497  1.00  0.00     0.034 A 
BRANCH  23  37
ATOM     37  C   UNL A   1      42.373  31.353  34.026  1.00  0.00     0.023 A 
ATOM     38  C   UNL A   1      42.870  32.572  33.519  1.00  0.00     0.012 A 
ATOM     39  C   UNL A   1      41.849  31.331  35.335  1.00  0.00     0.148 A 
ATOM     40  C   UNL A   1      42.943  33.712  34.322  1.00  0.00     0.002 A 
ATOM     41  C   UNL A   1      41.842  32.495  36.100  1.00  0.00     0.091 A 
ATOM     42  F   UNL A   1      41.386  30.171  35.823  1.00  0.00    -0.205 F 
ATOM     43  C   UNL A   1      42.420  33.674  35.608  1.00  0.00     0.022 A 
BRANCH  41  44
ATOM     44  S   UNL A   1      41.037  32.591  37.704  1.00  0.00     0.127 S 
ATOM     45  O   UNL A   1      41.873  31.696  38.509  1.00  0.00    -0.237 OA
ATOM     46  O   UNL A   1      41.182  34.013  38.032  1.00  0.00    -0.237 OA
ATOM     47  O   UNL A   1      39.671  32.155  37.493  1.00  0.00    -0.744 OA
ENDBRANCH  41  44
ENDBRANCH  23  37
BRANCH  24  48
ATOM     48  C   UNL A   1      42.658  23.993  27.259  1.00  0.00     0.023 A 
ATOM     49  C   UNL A   1      43.396  24.333  26.106  1.00  0.00     0.012 A 
ATOM     50  C   UNL A   1      42.093  22.707  27.356  1.00  0.00     0.148 A 
ATOM     51  C   UNL A   1      43.535  23.432  25.051  1.00  0.00     0.002 A 
ATOM     52  C   UNL A   1      42.264  21.798  26.313  1.00  0.00     0.091 A 
ATOM     53  F   UNL A   1      41.408  22.397  28.465  1.00  0.00    -0.205 F 
ATOM     54  C   UNL A   1      42.972  22.165  25.156  1.00  0.00     0.022 A 
BRANCH  52  55
ATOM     55  S   UNL A   1      41.652  20.109  26.364  1.00  0.00     0.127 S 
ATOM     56  O   UNL A   1      42.083  19.675  27.692  1.00  0.00    -0.237 OA
ATOM     57  O   UNL A   1      40.211  20.311  26.223  1.00  0.00    -0.237 OA
ATOM     58  O   UNL A   1      42.287  19.423  25.248  1.00  0.00    -0.744 OA
ENDBRANCH  52  55
ENDBRANCH  24  48
BRANCH  36  59
ATOM     59  C   UNL A   1      46.008  25.164  33.293  1.00  0.00     0.023 A 
ATOM     60  C   UNL A   1      47.387  25.340  33.078  1.00  0.00     0.012 A 
ATOM     61  C   UNL A   1      45.565  24.319  34.331  1.00  0.00     0.148 A 
ATOM     62  C   UNL A   1      48.314  24.667  33.874  1.00  0.00     0.002 A 
ATOM     63  C   UNL A   1      46.493  23.690  35.148  1.00  0.00     0.091 A 
ATOM     64  F   UNL A   1      44.245  24.152  34.500  1.00  0.00    -0.205 F 
ATOM     65  C   UNL A   1      47.869  23.854  34.914  1.00  0.00     0.022 A 
BRANCH  63  66
ATOM     66  S   UNL A   1      46.013  22.706  36.572  1.00  0.00     0.127 S 
ATOM     67  O   UNL A   1      45.117  23.622  37.277  1.00  0.00    -0.237 OA
ATOM     68  O   UNL A   1      45.349  21.562  35.947  1.00  0.00    -0.237 OA
ATOM     69  O   UNL A   1      47.248  22.380  37.273  1.00  0.00    -0.744 OA
ENDBRANCH  63  66
ENDBRANCH  36  59
ENDBRANCH  10  11
ENDBRANCH   3   5
ENDBRANCH   2   3
ENDBRANCH   1   2
BRANCH   1  70
ATOM     70  C   UNL A   1      33.869  34.248  29.463  1.00  0.00     0.274 C 
BRANCH  70  71
ATOM     71  O   UNL A   1      35.184  34.023  30.035  1.00  0.00    -0.461 OA
BRANCH  71  72
ATOM     72  C   UNL A   1      35.259  33.079  31.028  1.00  0.00     0.329 C 
ATOM     73  O   UNL A   1      34.256  32.658  31.605  1.00  0.00    -0.250 OA
BRANCH  72  74
ATOM     74  C   UNL A   1      36.679  32.878  31.623  1.00  0.00     0.206 C 
ATOM     75  C   UNL A   1      36.419  32.931  33.144  1.00  0.00     0.108 C 
ATOM     76  N   UNL A   1      37.871  33.729  31.310  1.00  0.00    -0.315 N 
ATOM     77  S   UNL A   1      37.977  33.419  33.876  1.00  0.00    -0.138 SA
ATOM     78  C   UNL A   1      38.369  34.450  32.460  1.00  0.00     0.191 C 
BRANCH  76  79
ATOM     79  C   UNL A   1      38.567  33.507  30.109  1.00  0.00     0.255 C 
ATOM     80  O   UNL A   1      37.984  32.999  29.149  1.00  0.00    -0.269 OA
BRANCH  79  81
ATOM     81  C   UNL A   1      39.980  33.989  29.862  1.00  0.00     0.041 A 
ATOM     82  C   UNL A   1      40.359  35.194  29.259  1.00  0.00     0.014 A 
ATOM     83  C   UNL A   1      41.010  33.103  30.238  1.00  0.00     0.034 A 
ATOM     84  C   UNL A   1      41.692  35.417  28.867  1.00  0.00     0.002 A 
ATOM     85  C   UNL A   1      42.333  33.321  29.838  1.00  0.00     0.041 A 
ATOM     86  C   UNL A   1      42.675  34.464  29.127  1.00  0.00     0.020 A 
ATOM     87  Cl  UNL A   1      43.523  32.116  30.144  1.00  0.00    -0.084 Cl
ENDBRANCH  79  81
ENDBRANCH  76  79
ENDBRANCH  72  74
ENDBRANCH  71  72
ENDBRANCH  70  71
ENDBRANCH   1  70
TORSDOF 16
ENDMDL
MODEL 3
REMARK VINA RESULT:     -11.5      1.741      2.184
REMARK SMILES O=C(OCCOC(=O)[C@@H]1CSCN1C(=O)c1cccc(Cl)c1)c1ccc(-c2c3nc(c(-c4cccc(S(=O)(=O)[O-])c4F)c4ccc([nH]4)c(-c4cccc(S(=O)(=O)[O-])c4F)c4nc(c(-c5cccc(S(=O)(=O)[O-])c5F)c5ccc2[nH]5)C=C4)C=C3)cc1
REMARK SMILES IDX 4 1 3 2 2 3 1 4 23 5 24 6 85 7 25 8 84 9 26 10 27 11 28 12
REMARK SMILES IDX 78 13 29 14 83 15 77 16 79 17 30 18 82 19 76 20 75 21 31 23
REMARK SMILES IDX 63 24 43 25 62 26 44 27 47 28 61 29 80 30 45 31 46 32 60 34
REMARK SMILES IDX 81 35 48 36 32 37 33 38 41 39 34 40 36 41 42 42 35 43 37 44
REMARK SMILES IDX 38 45 39 46 40 47 64 48 65 49 73 50 66 51 68 52 74 53 67 54
REMARK SMILES IDX 69 55 70 56 71 57 72 58 49 59 50 60 58 61 51 62 53 63 59 64
REMARK SMILES IDX 52 65 54 66 55 67 56 68 57 69 5 70 6 71 7 72 8 73 9 74 10 75
REMARK SMILES IDX 13 76 11 77 12 78 14 79 15 80 16 81 17 82 22 83 18 84 20 85
REMARK SMILES IDX 19 86 21 87
REMARK H PARENT 79 22 47 33
REMARK Flexibility Score: inf
ROOT
ATOM      1  C   UNL A   1      31.823  30.170  26.530  1.00  0.00     0.275 C 
ENDROOT
BRANCH   1   2
ATOM      2  O   UNL A   1      33.101  30.783  26.390  1.00  0.00    -0.458 OA
BRANCH   2   3
ATOM      3  C   UNL A   1      33.760  31.503  27.320  1.00  0.00     0.338 C 
ATOM      4  O   UNL A   1      33.235  32.546  27.709  1.00  0.00    -0.246 OA
BRANCH   3   5
ATOM      5  C   UNL A   1      35.105  31.116  27.879  1.00  0.00     0.060 A 
ATOM      6  C   UNL A   1      36.255  31.899  28.067  1.00  0.00     0.016 A 
ATOM      7  C   UNL A   1      35.177  29.793  28.297  1.00  0.00     0.016 A 
ATOM      8  C   UNL A   1      37.397  31.399  28.731  1.00  0.00     0.010 A 
ATOM      9  C   UNL A   1      36.281  29.313  28.989  1.00  0.00     0.010 A 
ATOM     10  C   UNL A   1      37.415  30.097  29.219  1.00  0.00    -0.014 A 
BRANCH  10  11
ATOM     11  C   UNL A   1      38.558  29.438  29.916  1.00  0.00     0.031 A 
ATOM     12  C   UNL A   1      38.994  30.036  31.236  1.00  0.00     0.074 A 
ATOM     13  C   UNL A   1      39.346  28.542  29.285  1.00  0.00     0.049 A 
ATOM     14  N   UNL A   1      40.151  29.981  31.835  1.00  0.00    -0.248 NA
ATOM     15  C   UNL A   1      38.024  30.930  31.895  1.00  0.00     0.031 C 
ATOM     16  C   UNL A   1      39.109  27.957  27.963  1.00  0.00     0.029 A 
ATOM     17  N   UNL A   1      40.569  28.031  29.648  1.00  0.00    -0.354 N 
ATOM     18  C   UNL A   1      40.090  30.936  32.849  1.00  0.00     0.074 A 
ATOM     19  C   UNL A   1      38.810  31.594  32.727  1.00  0.00     0.031 C 
ATOM     20  C   UNL A   1      40.181  27.232  27.595  1.00  0.00     0.029 A 
ATOM     21  C   UNL A   1      41.167  27.267  28.668  1.00  0.00     0.049 A 
ATOM     22  H   UNL A   1      40.982  28.195  30.527  1.00  0.00     0.167 HD
ATOM     23  C   UNL A   1      40.998  31.203  33.819  1.00  0.00     0.034 A 
ATOM     24  C   UNL A   1      42.365  26.649  28.652  1.00  0.00     0.034 A 
ATOM     25  C   UNL A   1      42.149  30.368  34.036  1.00  0.00     0.049 A 
ATOM     26  C   UNL A   1      43.201  26.708  29.903  1.00  0.00     0.074 A 
ATOM     27  C   UNL A   1      43.017  30.346  35.112  1.00  0.00     0.029 A 
ATOM     28  N   UNL A   1      42.555  29.361  33.173  1.00  0.00    -0.354 N 
ATOM     29  N   UNL A   1      43.060  27.486  30.948  1.00  0.00    -0.248 NA
ATOM     30  C   UNL A   1      44.296  25.734  30.021  1.00  0.00     0.031 C 
ATOM     31  C   UNL A   1      43.933  29.308  34.909  1.00  0.00     0.029 A 
ATOM     32  C   UNL A   1      43.625  28.677  33.713  1.00  0.00     0.049 A 
ATOM     33  H   UNL A   1      42.140  29.163  32.303  1.00  0.00     0.167 HD
ATOM     34  C   UNL A   1      43.998  27.051  31.877  1.00  0.00     0.074 A 
ATOM     35  C   UNL A   1      44.704  25.942  31.267  1.00  0.00     0.031 C 
ATOM     36  C   UNL A   1      44.250  27.523  33.122  1.00  0.00     0.034 A 
BRANCH  23  37
ATOM     37  C   UNL A   1      40.735  32.355  34.765  1.00  0.00     0.023 A 
ATOM     38  C   UNL A   1      41.296  33.627  34.524  1.00  0.00     0.012 A 
ATOM     39  C   UNL A   1      39.899  32.189  35.889  1.00  0.00     0.148 A 
ATOM     40  C   UNL A   1      41.121  34.676  35.428  1.00  0.00     0.002 A 
ATOM     41  C   UNL A   1      39.655  33.266  36.738  1.00  0.00     0.091 A 
ATOM     42  F   UNL A   1      39.373  30.978  36.126  1.00  0.00    -0.205 F 
ATOM     43  C   UNL A   1      40.293  34.497  36.529  1.00  0.00     0.022 A 
BRANCH  41  44
ATOM     44  S   UNL A   1      38.468  33.183  38.085  1.00  0.00     0.127 S 
ATOM     45  O   UNL A   1      39.114  32.227  38.990  1.00  0.00    -0.237 OA
ATOM     46  O   UNL A   1      38.462  34.567  38.571  1.00  0.00    -0.237 OA
ATOM     47  O   UNL A   1      37.221  32.744  37.493  1.00  0.00    -0.744 OA
ENDBRANCH  41  44
ENDBRANCH  23  37
BRANCH  24  48
ATOM     48  C   UNL A   1      42.743  25.768  27.512  1.00  0.00     0.023 A 
ATOM     49  C   UNL A   1      43.581  26.293  26.507  1.00  0.00     0.012 A 
ATOM     50  C   UNL A   1      42.316  24.429  27.416  1.00  0.00     0.148 A 
ATOM     51  C   UNL A   1      43.955  25.522  25.408  1.00  0.00     0.002 A 
ATOM     52  C   UNL A   1      42.721  23.651  26.333  1.00  0.00     0.091 A 
ATOM     53  F   UNL A   1      41.532  23.943  28.388  1.00  0.00    -0.205 F 
ATOM     54  C   UNL A   1      43.529  24.201  25.322  1.00  0.00     0.022 A 
BRANCH  52  55
ATOM     55  S   UNL A   1      42.299  21.914  26.151  1.00  0.00     0.127 S 
ATOM     56  O   UNL A   1      40.859  21.980  25.909  1.00  0.00    -0.237 OA
ATOM     57  O   UNL A   1      43.101  21.534  24.988  1.00  0.00    -0.237 OA
ATOM     58  O   UNL A   1      42.693  21.277  27.399  1.00  0.00    -0.744 OA
ENDBRANCH  52  55
ENDBRANCH  24  48
BRANCH  36  59
ATOM     59  C   UNL A   1      45.263  26.796  33.960  1.00  0.00     0.023 A 
ATOM     60  C   UNL A   1      46.617  27.179  33.926  1.00  0.00     0.012 A 
ATOM     61  C   UNL A   1      44.842  25.799  34.864  1.00  0.00     0.148 A 
ATOM     62  C   UNL A   1      47.544  26.561  34.765  1.00  0.00     0.002 A 
ATOM     63  C   UNL A   1      45.762  25.224  35.730  1.00  0.00     0.091 A 
ATOM     64  F   UNL A   1      43.550  25.439  34.861  1.00  0.00    -0.205 F 
ATOM     65  C   UNL A   1      47.115  25.596  35.674  1.00  0.00     0.022 A 
BRANCH  63  66
ATOM     66  S   UNL A   1      45.284  24.046  36.999  1.00  0.00     0.127 S 
ATOM     67  O   UNL A   1      44.836  22.910  36.195  1.00  0.00    -0.237 OA
ATOM     68  O   UNL A   1      46.543  23.833  37.711  1.00  0.00    -0.237 OA
ATOM     69  O   UNL A   1      44.246  24.700  37.785  1.00  0.00    -0.744 OA
ENDBRANCH  63  66
ENDBRANCH  36  59
ENDBRANCH  10  11
ENDBRANCH   3   5
ENDBRANCH   2   3
ENDBRANCH   1   2
BRANCH   1  70
ATOM     70  C   UNL A   1      31.837  28.734  27.069  1.00  0.00     0.274 C 
BRANCH  70  71
ATOM     71  O   UNL A   1      31.016  27.780  26.346  1.00  0.00    -0.461 OA
BRANCH  71  72
ATOM     72  C   UNL A   1      31.690  26.803  25.658  1.00  0.00     0.329 C 
ATOM     73  O   UNL A   1      32.398  25.972  26.228  1.00  0.00    -0.250 OA
BRANCH  72  74
ATOM     74  C   UNL A   1      31.807  27.053  24.129  1.00  0.00     0.206 C 
ATOM     75  C   UNL A   1      33.288  26.723  23.846  1.00  0.00     0.108 C 
ATOM     76  N   UNL A   1      31.459  28.334  23.439  1.00  0.00    -0.315 N 
ATOM     77  S   UNL A   1      33.699  27.625  22.356  1.00  0.00    -0.138 SA
ATOM     78  C   UNL A   1      32.599  28.968  22.814  1.00  0.00     0.191 C 
BRANCH  76  79
ATOM     79  C   UNL A   1      30.109  28.618  23.173  1.00  0.00     0.255 C 
ATOM     80  O   UNL A   1      29.272  27.713  23.223  1.00  0.00    -0.269 OA
BRANCH  79  81
ATOM     81  C   UNL A   1      29.575  30.018  22.960  1.00  0.00     0.041 A 
ATOM     82  C   UNL A   1      29.422  31.012  23.935  1.00  0.00     0.014 A 
ATOM     83  C   UNL A   1      29.148  30.325  21.653  1.00  0.00     0.034 A 
ATOM     84  C   UNL A   1      28.692  32.183  23.663  1.00  0.00     0.002 A 
ATOM     85  C   UNL A   1      28.413  31.486  21.386  1.00  0.00     0.041 A 
ATOM     86  C   UNL A   1      28.158  32.406  22.395  1.00  0.00     0.020 A 
ATOM     87  Cl  UNL A   1      27.738  31.723  19.820  1.00  0.00    -0.084 Cl
ENDBRANCH  79  81
ENDBRANCH  76  79
ENDBRANCH  72  74
ENDBRANCH  71  72
ENDBRANCH  70  71
ENDBRANCH   1  70
TORSDOF 16
ENDMDL
