MODEL 1
REMARK VINA RESULT:     -11.0      0.000      0.000
REMARK SMILES CC(C)(C)C(=O)N1CCCC[C@@H]1C(=O)OCCOC(=O)c1ccc(-c2c3nc(c(-c4cccc(S(=O)(=O)[O-])c4F)c4ccc([nH]4)c(-c4cccc(S(=O)(=O)[O-])c4F)c4nc(c(-c5cccc(S(=O)(=O)[O-])c5F)c5ccc2[nH]5)C=C4)C=C3)cc1
REMARK SMILES IDX 17 1 16 2 15 3 13 4 14 5 12 6 7 7 8 8 9 9 11 10 10 11 5 12
REMARK SMILES IDX 6 13 2 14 1 15 3 16 4 17 18 18 19 19 20 20 21 21 22 22 83 23
REMARK SMILES IDX 23 24 82 25 24 26 25 27 26 28 76 29 27 30 81 31 75 32 77 33
REMARK SMILES IDX 28 34 80 35 74 36 73 37 29 39 61 40 41 41 60 42 42 43 45 44
REMARK SMILES IDX 59 45 78 46 43 47 44 48 58 50 79 51 46 52 30 53 31 54 39 55
REMARK SMILES IDX 32 56 34 57 40 58 33 59 35 60 36 61 37 62 38 63 62 64 63 65
REMARK SMILES IDX 71 66 64 67 66 68 72 69 65 70 67 71 68 72 69 73 70 74 47 75
REMARK SMILES IDX 48 76 56 77 49 78 51 79 57 80 50 81 52 82 53 83 54 84 55 85
REMARK H PARENT 77 38 45 49
REMARK Flexibility Score: inf
ROOT
ATOM      1  C   UNL A   1      37.757  20.004  24.891  1.00  0.00     0.275 C 
ENDROOT
BRANCH   1   2
ATOM      2  C   UNL A   1      36.228  19.986  25.010  1.00  0.00     0.274 C 
BRANCH   2   3
ATOM      3  O   UNL A   1      35.717  21.034  25.857  1.00  0.00    -0.461 OA
BRANCH   3   4
ATOM      4  C   UNL A   1      34.363  21.149  25.905  1.00  0.00     0.328 C 
ATOM      5  O   UNL A   1      33.712  21.197  26.942  1.00  0.00    -0.250 OA
BRANCH   4   6
ATOM      6  C   UNL A   1      33.711  21.162  24.523  1.00  0.00     0.195 C 
ATOM      7  N   UNL A   1      33.460  22.482  23.920  1.00  0.00    -0.328 N 
ATOM      8  C   UNL A   1      33.011  22.425  22.527  1.00  0.00     0.120 C 
ATOM      9  C   UNL A   1      31.876  21.418  22.294  1.00  0.00     0.022 C 
ATOM     10  C   UNL A   1      32.546  20.184  24.360  1.00  0.00     0.037 C 
ATOM     11  C   UNL A   1      32.207  20.046  22.877  1.00  0.00     0.005 C 
BRANCH   7  12
ATOM     12  C   UNL A   1      32.952  23.521  24.691  1.00  0.00     0.228 C 
ATOM     13  O   UNL A   1      31.864  23.425  25.255  1.00  0.00    -0.274 OA
BRANCH  12  14
ATOM     14  C   UNL A   1      33.842  24.801  24.779  1.00  0.00     0.041 C 
ATOM     15  C   UNL A   1      35.314  24.367  24.916  1.00  0.00     0.021 C 
ATOM     16  C   UNL A   1      33.480  25.673  25.993  1.00  0.00     0.021 C 
ATOM     17  C   UNL A   1      33.748  25.641  23.496  1.00  0.00     0.021 C 
ENDBRANCH  12  14
ENDBRANCH   7  12
ENDBRANCH   4   6
ENDBRANCH   3   4
ENDBRANCH   2   3
ENDBRANCH   1   2
BRANCH   1  18
ATOM     18  O   UNL A   1      38.331  21.225  25.394  1.00  0.00    -0.458 OA
BRANCH  18  19
ATOM     19  C   UNL A   1      39.427  21.066  26.170  1.00  0.00     0.338 C 
ATOM     20  O   UNL A   1      40.100  20.045  26.276  1.00  0.00    -0.246 OA
BRANCH  19  21
ATOM     21  C   UNL A   1      39.859  22.356  26.737  1.00  0.00     0.060 A 
ATOM     22  C   UNL A   1      39.229  23.510  26.250  1.00  0.00     0.016 A 
ATOM     23  C   UNL A   1      40.877  22.457  27.685  1.00  0.00     0.016 A 
ATOM     24  C   UNL A   1      39.604  24.767  26.704  1.00  0.00     0.010 A 
ATOM     25  C   UNL A   1      41.282  23.726  28.115  1.00  0.00     0.010 A 
ATOM     26  C   UNL A   1      40.659  24.883  27.610  1.00  0.00    -0.014 A 
BRANCH  26  27
ATOM     27  C   UNL A   1      41.214  26.224  27.888  1.00  0.00     0.031 A 
ATOM     28  C   UNL A   1      42.604  26.535  27.412  1.00  0.00     0.074 A 
ATOM     29  C   UNL A   1      40.480  27.156  28.519  1.00  0.00     0.049 A 
ATOM     30  N   UNL A   1      43.322  27.608  27.599  1.00  0.00    -0.248 NA
ATOM     31  C   UNL A   1      43.271  25.492  26.612  1.00  0.00     0.031 C 
ATOM     32  C   UNL A   1      39.101  26.979  28.974  1.00  0.00     0.029 A 
ATOM     33  N   UNL A   1      40.802  28.432  28.903  1.00  0.00    -0.354 N 
ATOM     34  C   UNL A   1      44.541  27.356  26.981  1.00  0.00     0.074 A 
ATOM     35  C   UNL A   1      44.463  26.033  26.405  1.00  0.00     0.031 C 
ATOM     36  C   UNL A   1      38.706  28.096  29.608  1.00  0.00     0.029 A 
ATOM     37  C   UNL A   1      39.814  29.049  29.634  1.00  0.00     0.049 A 
ATOM     38  H   UNL A   1      41.656  28.865  28.678  1.00  0.00     0.167 HD
ATOM     39  C   UNL A   1      45.626  28.161  26.898  1.00  0.00     0.034 A 
ATOM     40  C   UNL A   1      39.823  30.233  30.278  1.00  0.00     0.034 A 
ATOM     41  C   UNL A   1      45.684  29.484  27.454  1.00  0.00     0.049 A 
ATOM     42  C   UNL A   1      41.057  31.094  30.201  1.00  0.00     0.074 A 
ATOM     43  C   UNL A   1      46.727  30.391  27.409  1.00  0.00     0.029 A 
ATOM     44  N   UNL A   1      44.656  30.089  28.160  1.00  0.00    -0.354 N 
ATOM     45  N   UNL A   1      42.176  30.878  29.551  1.00  0.00    -0.248 NA
ATOM     46  C   UNL A   1      41.021  32.374  30.924  1.00  0.00     0.031 C 
ATOM     47  C   UNL A   1      46.335  31.539  28.106  1.00  0.00     0.029 A 
ATOM     48  C   UNL A   1      45.040  31.355  28.565  1.00  0.00     0.049 A 
ATOM     49  H   UNL A   1      43.781  29.678  28.347  1.00  0.00     0.167 HD
ATOM     50  C   UNL A   1      42.965  32.004  29.762  1.00  0.00     0.074 A 
ATOM     51  C   UNL A   1      42.185  32.910  30.581  1.00  0.00     0.031 C 
ATOM     52  C   UNL A   1      44.224  32.262  29.332  1.00  0.00     0.034 A 
BRANCH  39  53
ATOM     53  C   UNL A   1      46.831  27.629  26.174  1.00  0.00     0.023 A 
ATOM     54  C   UNL A   1      46.990  27.884  24.797  1.00  0.00     0.012 A 
ATOM     55  C   UNL A   1      47.824  26.905  26.864  1.00  0.00     0.148 A 
ATOM     56  C   UNL A   1      48.105  27.401  24.111  1.00  0.00     0.002 A 
ATOM     57  C   UNL A   1      48.951  26.462  26.182  1.00  0.00     0.091 A 
ATOM     58  F   UNL A   1      47.638  26.648  28.167  1.00  0.00    -0.205 F 
ATOM     59  C   UNL A   1      49.089  26.701  24.805  1.00  0.00     0.022 A 
BRANCH  57  60
ATOM     60  S   UNL A   1      50.303  25.611  27.003  1.00  0.00     0.127 S 
ATOM     61  O   UNL A   1      51.248  25.429  25.901  1.00  0.00    -0.237 OA
ATOM     62  O   UNL A   1      50.719  26.591  28.007  1.00  0.00    -0.237 OA
ATOM     63  O   UNL A   1      49.735  24.387  27.548  1.00  0.00    -0.744 OA
ENDBRANCH  57  60
ENDBRANCH  39  53
BRANCH  40  64
ATOM     64  C   UNL A   1      38.621  30.678  31.038  1.00  0.00     0.023 A 
ATOM     65  C   UNL A   1      38.547  30.437  32.424  1.00  0.00     0.012 A 
ATOM     66  C   UNL A   1      37.562  31.354  30.402  1.00  0.00     0.148 A 
ATOM     67  C   UNL A   1      37.427  30.838  33.157  1.00  0.00     0.002 A 
ATOM     68  C   UNL A   1      36.475  31.800  31.147  1.00  0.00     0.091 A 
ATOM     69  F   UNL A   1      37.638  31.554  29.079  1.00  0.00    -0.205 F 
ATOM     70  C   UNL A   1      36.399  31.529  32.521  1.00  0.00     0.022 A 
BRANCH  68  71
ATOM     71  S   UNL A   1      35.168  32.804  30.434  1.00  0.00     0.127 S 
ATOM     72  O   UNL A   1      34.261  32.966  31.567  1.00  0.00    -0.237 OA
ATOM     73  O   UNL A   1      35.893  34.015  30.046  1.00  0.00    -0.237 OA
ATOM     74  O   UNL A   1      34.650  32.033  29.311  1.00  0.00    -0.744 OA
ENDBRANCH  68  71
ENDBRANCH  40  64
BRANCH  52  75
ATOM     75  C   UNL A   1      44.834  33.587  29.705  1.00  0.00     0.023 A 
ATOM     76  C   UNL A   1      45.535  33.717  30.920  1.00  0.00     0.012 A 
ATOM     77  C   UNL A   1      44.784  34.677  28.814  1.00  0.00     0.148 A 
ATOM     78  C   UNL A   1      46.155  34.919  31.254  1.00  0.00     0.002 A 
ATOM     79  C   UNL A   1      45.444  35.857  29.132  1.00  0.00     0.091 A 
ATOM     80  F   UNL A   1      44.096  34.539  27.672  1.00  0.00    -0.205 F 
ATOM     81  C   UNL A   1      46.121  35.985  30.357  1.00  0.00     0.022 A 
BRANCH  79  82
ATOM     82  S   UNL A   1      45.534  37.243  27.993  1.00  0.00     0.127 S 
ATOM     83  O   UNL A   1      44.193  37.813  28.110  1.00  0.00    -0.237 OA
ATOM     84  O   UNL A   1      46.597  38.061  28.579  1.00  0.00    -0.237 OA
ATOM     85  O   UNL A   1      45.861  36.672  26.693  1.00  0.00    -0.744 OA
ENDBRANCH  79  82
ENDBRANCH  52  75
ENDBRANCH  26  27
ENDBRANCH  19  21
ENDBRANCH  18  19
ENDBRANCH   1  18
TORSDOF 16
ENDMDL
MODEL 2
REMARK VINA RESULT:     -10.8      1.663      8.164
REMARK SMILES CC(C)(C)C(=O)N1CCCC[C@@H]1C(=O)OCCOC(=O)c1ccc(-c2c3nc(c(-c4cccc(S(=O)(=O)[O-])c4F)c4ccc([nH]4)c(-c4cccc(S(=O)(=O)[O-])c4F)c4nc(c(-c5cccc(S(=O)(=O)[O-])c5F)c5ccc2[nH]5)C=C4)C=C3)cc1
REMARK SMILES IDX 17 1 16 2 15 3 13 4 14 5 12 6 7 7 8 8 9 9 11 10 10 11 5 12
REMARK SMILES IDX 6 13 2 14 1 15 3 16 4 17 18 18 19 19 20 20 21 21 22 22 83 23
REMARK SMILES IDX 23 24 82 25 24 26 25 27 26 28 76 29 27 30 81 31 75 32 77 33
REMARK SMILES IDX 28 34 80 35 74 36 73 37 29 39 61 40 41 41 60 42 42 43 45 44
REMARK SMILES IDX 59 45 78 46 43 47 44 48 58 50 79 51 46 52 30 53 31 54 39 55
REMARK SMILES IDX 32 56 34 57 40 58 33 59 35 60 36 61 37 62 38 63 62 64 63 65
REMARK SMILES IDX 71 66 64 67 66 68 72 69 65 70 67 71 68 72 69 73 70 74 47 75
REMARK SMILES IDX 48 76 56 77 49 78 51 79 57 80 50 81 52 82 53 83 54 84 55 85
REMARK H PARENT 77 38 45 49
REMARK Flexibility Score: inf
ROOT
ATOM      1  C   UNL A   1      36.991  21.316  24.589  1.00  0.00     0.275 C 
ENDROOT
BRANCH   1   2
ATOM      2  C   UNL A   1      36.629  22.560  23.768  1.00  0.00     0.274 C 
BRANCH   2   3
ATOM      3  O   UNL A   1      35.562  23.330  24.353  1.00  0.00    -0.461 OA
BRANCH   3   4
ATOM      4  C   UNL A   1      34.645  23.831  23.481  1.00  0.00     0.328 C 
ATOM      5  O   UNL A   1      34.408  23.351  22.379  1.00  0.00    -0.250 OA
BRANCH   4   6
ATOM      6  C   UNL A   1      33.961  25.099  23.991  1.00  0.00     0.195 C 
ATOM      7  N   UNL A   1      32.854  24.918  24.945  1.00  0.00    -0.328 N 
ATOM      8  C   UNL A   1      32.368  26.166  25.537  1.00  0.00     0.120 C 
ATOM      9  C   UNL A   1      32.112  27.271  24.503  1.00  0.00     0.022 C 
ATOM     10  C   UNL A   1      33.674  26.145  22.912  1.00  0.00     0.037 C 
ATOM     11  C   UNL A   1      33.311  27.470  23.577  1.00  0.00     0.005 C 
BRANCH   7  12
ATOM     12  C   UNL A   1      31.908  23.920  24.741  1.00  0.00     0.228 C 
ATOM     13  O   UNL A   1      31.120  23.970  23.799  1.00  0.00    -0.274 OA
BRANCH  12  14
ATOM     14  C   UNL A   1      31.909  22.759  25.784  1.00  0.00     0.041 C 
ATOM     15  C   UNL A   1      30.536  22.724  26.482  1.00  0.00     0.021 C 
ATOM     16  C   UNL A   1      32.992  22.950  26.859  1.00  0.00     0.021 C 
ATOM     17  C   UNL A   1      32.094  21.393  25.106  1.00  0.00     0.021 C 
ENDBRANCH  12  14
ENDBRANCH   7  12
ENDBRANCH   4   6
ENDBRANCH   3   4
ENDBRANCH   2   3
ENDBRANCH   1   2
BRANCH   1  18
ATOM     18  O   UNL A   1      37.470  21.650  25.905  1.00  0.00    -0.458 OA
BRANCH  18  19
ATOM     19  C   UNL A   1      38.790  21.434  26.106  1.00  0.00     0.338 C 
ATOM     20  O   UNL A   1      39.437  20.471  25.705  1.00  0.00    -0.246 OA
BRANCH  19  21
ATOM     21  C   UNL A   1      39.429  22.619  26.706  1.00  0.00     0.060 A 
ATOM     22  C   UNL A   1      38.947  23.874  26.310  1.00  0.00     0.016 A 
ATOM     23  C   UNL A   1      40.498  22.526  27.597  1.00  0.00     0.016 A 
ATOM     24  C   UNL A   1      39.520  25.040  26.798  1.00  0.00     0.010 A 
ATOM     25  C   UNL A   1      41.102  23.700  28.060  1.00  0.00     0.010 A 
ATOM     26  C   UNL A   1      40.625  24.958  27.646  1.00  0.00    -0.014 A 
BRANCH  26  27
ATOM     27  C   UNL A   1      41.380  26.192  27.952  1.00  0.00     0.031 A 
ATOM     28  C   UNL A   1      40.686  27.281  28.718  1.00  0.00     0.074 A 
ATOM     29  C   UNL A   1      42.666  26.320  27.586  1.00  0.00     0.049 A 
ATOM     30  N   UNL A   1      41.117  28.471  29.038  1.00  0.00    -0.248 NA
ATOM     31  C   UNL A   1      39.322  26.985  29.190  1.00  0.00     0.031 C 
ATOM     32  C   UNL A   1      43.452  25.303  26.889  1.00  0.00     0.029 A 
ATOM     33  N   UNL A   1      43.531  27.373  27.735  1.00  0.00    -0.354 N 
ATOM     34  C   UNL A   1      40.066  29.083  29.708  1.00  0.00     0.074 A 
ATOM     35  C   UNL A   1      38.979  28.132  29.759  1.00  0.00     0.031 C 
ATOM     36  C   UNL A   1      44.676  25.796  26.638  1.00  0.00     0.029 A 
ATOM     37  C   UNL A   1      44.747  27.172  27.125  1.00  0.00     0.049 A 
ATOM     38  H   UNL A   1      43.305  28.193  28.229  1.00  0.00     0.167 HD
ATOM     39  C   UNL A   1      40.016  30.327  30.240  1.00  0.00     0.034 A 
ATOM     40  C   UNL A   1      45.782  28.018  26.952  1.00  0.00     0.034 A 
ATOM     41  C   UNL A   1      41.110  31.256  30.206  1.00  0.00     0.049 A 
ATOM     42  C   UNL A   1      45.686  29.411  27.521  1.00  0.00     0.074 A 
ATOM     43  C   UNL A   1      41.171  32.534  30.732  1.00  0.00     0.029 A 
ATOM     44  N   UNL A   1      42.337  31.009  29.608  1.00  0.00    -0.354 N 
ATOM     45  N   UNL A   1      44.716  29.953  28.218  1.00  0.00    -0.248 NA
ATOM     46  C   UNL A   1      46.836  30.300  27.302  1.00  0.00     0.031 C 
ATOM     47  C   UNL A   1      42.430  33.066  30.434  1.00  0.00     0.029 A 
ATOM     48  C   UNL A   1      43.160  32.111  29.744  1.00  0.00     0.049 A 
ATOM     49  H   UNL A   1      42.584  30.171  29.153  1.00  0.00     0.167 HD
ATOM     50  C   UNL A   1      45.150  31.233  28.546  1.00  0.00     0.074 A 
ATOM     51  C   UNL A   1      46.480  31.377  27.990  1.00  0.00     0.031 C 
ATOM     52  C   UNL A   1      44.503  32.209  29.231  1.00  0.00     0.034 A 
BRANCH  39  53
ATOM     53  C   UNL A   1      38.734  30.745  30.907  1.00  0.00     0.023 A 
ATOM     54  C   UNL A   1      38.559  30.525  32.288  1.00  0.00     0.012 A 
ATOM     55  C   UNL A   1      37.718  31.388  30.174  1.00  0.00     0.148 A 
ATOM     56  C   UNL A   1      37.379  30.911  32.924  1.00  0.00     0.002 A 
ATOM     57  C   UNL A   1      36.561  31.806  30.822  1.00  0.00     0.091 A 
ATOM     58  F   UNL A   1      37.892  31.561  28.856  1.00  0.00    -0.205 F 
ATOM     59  C   UNL A   1      36.387  31.561  32.193  1.00  0.00     0.022 A 
BRANCH  57  60
ATOM     60  S   UNL A   1      35.256  32.710  29.981  1.00  0.00     0.127 S 
ATOM     61  O   UNL A   1      34.317  32.954  31.075  1.00  0.00    -0.237 OA
ATOM     62  O   UNL A   1      35.963  33.900  29.506  1.00  0.00    -0.237 OA
ATOM     63  O   UNL A   1      34.774  31.829  28.927  1.00  0.00    -0.744 OA
ENDBRANCH  57  60
ENDBRANCH  39  53
BRANCH  40  64
ATOM     64  C   UNL A   1      47.000  27.569  26.221  1.00  0.00     0.023 A 
ATOM     65  C   UNL A   1      47.987  26.831  26.903  1.00  0.00     0.012 A 
ATOM     66  C   UNL A   1      47.179  27.853  24.854  1.00  0.00     0.148 A 
ATOM     67  C   UNL A   1      49.142  26.406  26.242  1.00  0.00     0.002 A 
ATOM     68  C   UNL A   1      48.304  27.380  24.187  1.00  0.00     0.091 A 
ATOM     69  F   UNL A   1      46.241  28.577  24.226  1.00  0.00    -0.205 F 
ATOM     70  C   UNL A   1      49.294  26.670  24.883  1.00  0.00     0.022 A 
BRANCH  68  71
ATOM     71  S   UNL A   1      48.520  27.566  22.414  1.00  0.00     0.127 S 
ATOM     72  O   UNL A   1      48.584  26.176  21.971  1.00  0.00    -0.237 OA
ATOM     73  O   UNL A   1      47.301  28.280  22.033  1.00  0.00    -0.237 OA
ATOM     74  O   UNL A   1      49.743  28.341  22.248  1.00  0.00    -0.744 OA
ENDBRANCH  68  71
ENDBRANCH  40  64
BRANCH  52  75
ATOM     75  C   UNL A   1      45.231  33.509  29.451  1.00  0.00     0.023 A 
ATOM     76  C   UNL A   1      46.053  33.667  30.584  1.00  0.00     0.012 A 
ATOM     77  C   UNL A   1      45.167  34.539  28.492  1.00  0.00     0.148 A 
ATOM     78  C   UNL A   1      46.779  34.841  30.773  1.00  0.00     0.002 A 
ATOM     79  C   UNL A   1      45.930  35.687  28.664  1.00  0.00     0.091 A 
ATOM     80  F   UNL A   1      44.364  34.377  27.431  1.00  0.00    -0.205 F 
ATOM     81  C   UNL A   1      46.728  35.845  29.809  1.00  0.00     0.022 A 
BRANCH  79  82
ATOM     82  S   UNL A   1      45.999  36.987  27.426  1.00  0.00     0.127 S 
ATOM     83  O   UNL A   1      46.979  37.902  28.008  1.00  0.00    -0.237 OA
ATOM     84  O   UNL A   1      46.467  36.265  26.241  1.00  0.00    -0.237 OA
ATOM     85  O   UNL A   1      44.643  37.507  27.316  1.00  0.00    -0.744 OA
ENDBRANCH  79  82
ENDBRANCH  52  75
ENDBRANCH  26  27
ENDBRANCH  19  21
ENDBRANCH  18  19
ENDBRANCH   1  18
TORSDOF 16
ENDMDL
MODEL 3
REMARK VINA RESULT:     -10.8      1.308      7.952
REMARK SMILES CC(C)(C)C(=O)N1CCCC[C@@H]1C(=O)OCCOC(=O)c1ccc(-c2c3nc(c(-c4cccc(S(=O)(=O)[O-])c4F)c4ccc([nH]4)c(-c4cccc(S(=O)(=O)[O-])c4F)c4nc(c(-c5cccc(S(=O)(=O)[O-])c5F)c5ccc2[nH]5)C=C4)C=C3)cc1
REMARK SMILES IDX 17 1 16 2 15 3 13 4 14 5 12 6 7 7 8 8 9 9 11 10 10 11 5 12
REMARK SMILES IDX 6 13 2 14 1 15 3 16 4 17 18 18 19 19 20 20 21 21 22 22 83 23
REMARK SMILES IDX 23 24 82 25 24 26 25 27 26 28 76 29 27 30 81 31 75 32 77 33
REMARK SMILES IDX 28 34 80 35 74 36 73 37 29 39 61 40 41 41 60 42 42 43 45 44
REMARK SMILES IDX 59 45 78 46 43 47 44 48 58 50 79 51 46 52 30 53 31 54 39 55
REMARK SMILES IDX 32 56 34 57 40 58 33 59 35 60 36 61 37 62 38 63 62 64 63 65
REMARK SMILES IDX 71 66 64 67 66 68 72 69 65 70 67 71 68 72 69 73 70 74 47 75
REMARK SMILES IDX 48 76 56 77 49 78 51 79 57 80 50 81 52 82 53 83 54 84 55 85
REMARK H PARENT 77 38 45 49
REMARK Flexibility Score: inf
ROOT
ATOM      1  C   UNL A   1      37.554  20.897  24.847  1.00  0.00     0.275 C 
ENDROOT
BRANCH   1   2
ATOM      2  C   UNL A   1      36.103  20.471  25.102  1.00  0.00     0.274 C 
BRANCH   2   3
ATOM      3  O   UNL A   1      35.447  21.277  26.099  1.00  0.00    -0.461 OA
BRANCH   3   4
ATOM      4  C   UNL A   1      34.089  21.326  26.022  1.00  0.00     0.328 C 
ATOM      5  O   UNL A   1      33.346  21.397  26.994  1.00  0.00    -0.250 OA
BRANCH   4   6
ATOM      6  C   UNL A   1      33.565  21.233  24.590  1.00  0.00     0.195 C 
ATOM      7  N   UNL A   1      33.343  22.504  23.880  1.00  0.00    -0.328 N 
ATOM      8  C   UNL A   1      33.023  22.345  22.460  1.00  0.00     0.120 C 
ATOM      9  C   UNL A   1      31.934  21.296  22.195  1.00  0.00     0.022 C 
ATOM     10  C   UNL A   1      32.439  20.216  24.390  1.00  0.00     0.037 C 
ATOM     11  C   UNL A   1      32.238  19.973  22.895  1.00  0.00     0.005 C 
BRANCH   7  12
ATOM     12  C   UNL A   1      32.748  23.577  24.532  1.00  0.00     0.228 C 
ATOM     13  O   UNL A   1      31.579  23.527  24.908  1.00  0.00    -0.274 OA
BRANCH  12  14
ATOM     14  C   UNL A   1      33.650  24.834  24.737  1.00  0.00     0.041 C 
ATOM     15  C   UNL A   1      33.355  25.430  26.126  1.00  0.00     0.021 C 
ATOM     16  C   UNL A   1      33.379  25.918  23.679  1.00  0.00     0.021 C 
ATOM     17  C   UNL A   1      35.142  24.465  24.723  1.00  0.00     0.021 C 
ENDBRANCH  12  14
ENDBRANCH   7  12
ENDBRANCH   4   6
ENDBRANCH   3   4
ENDBRANCH   2   3
ENDBRANCH   1   2
BRANCH   1  18
ATOM     18  O   UNL A   1      38.021  21.856  25.814  1.00  0.00    -0.458 OA
BRANCH  18  19
ATOM     19  C   UNL A   1      39.265  21.627  26.293  1.00  0.00     0.338 C 
ATOM     20  O   UNL A   1      39.936  20.614  26.117  1.00  0.00    -0.246 OA
BRANCH  19  21
ATOM     21  C   UNL A   1      39.825  22.848  26.900  1.00  0.00     0.060 A 
ATOM     22  C   UNL A   1      39.314  24.075  26.454  1.00  0.00     0.016 A 
ATOM     23  C   UNL A   1      40.850  22.815  27.845  1.00  0.00     0.016 A 
ATOM     24  C   UNL A   1      39.814  25.272  26.946  1.00  0.00     0.010 A 
ATOM     25  C   UNL A   1      41.382  24.022  28.314  1.00  0.00     0.010 A 
ATOM     26  C   UNL A   1      40.877  25.251  27.850  1.00  0.00    -0.014 A 
BRANCH  26  27
ATOM     27  C   UNL A   1      41.565  26.520  28.168  1.00  0.00     0.031 A 
ATOM     28  C   UNL A   1      40.797  27.586  28.895  1.00  0.00     0.074 A 
ATOM     29  C   UNL A   1      42.857  26.702  27.848  1.00  0.00     0.049 A 
ATOM     30  N   UNL A   1      41.163  28.797  29.216  1.00  0.00    -0.248 NA
ATOM     31  C   UNL A   1      39.431  27.235  29.321  1.00  0.00     0.031 C 
ATOM     32  C   UNL A   1      43.712  25.713  27.192  1.00  0.00     0.029 A 
ATOM     33  N   UNL A   1      43.670  27.793  28.015  1.00  0.00    -0.354 N 
ATOM     34  C   UNL A   1      40.062  29.369  29.840  1.00  0.00     0.074 A 
ATOM     35  C   UNL A   1      39.017  28.371  29.863  1.00  0.00     0.031 C 
ATOM     36  C   UNL A   1      44.922  26.256  26.980  1.00  0.00     0.029 A 
ATOM     37  C   UNL A   1      44.915  27.640  27.453  1.00  0.00     0.049 A 
ATOM     38  H   UNL A   1      43.390  28.608  28.491  1.00  0.00     0.167 HD
ATOM     39  C   UNL A   1      39.938  30.615  30.354  1.00  0.00     0.034 A 
ATOM     40  C   UNL A   1      45.917  28.529  27.307  1.00  0.00     0.034 A 
ATOM     41  C   UNL A   1      40.991  31.591  30.349  1.00  0.00     0.049 A 
ATOM     42  C   UNL A   1      45.739  29.922  27.855  1.00  0.00     0.074 A 
ATOM     43  C   UNL A   1      40.977  32.876  30.861  1.00  0.00     0.029 A 
ATOM     44  N   UNL A   1      42.249  31.392  29.800  1.00  0.00    -0.354 N 
ATOM     45  N   UNL A   1      44.722  30.428  28.510  1.00  0.00    -0.248 NA
ATOM     46  C   UNL A   1      46.857  30.858  27.667  1.00  0.00     0.031 C 
ATOM     47  C   UNL A   1      42.222  33.460  30.603  1.00  0.00     0.029 A 
ATOM     48  C   UNL A   1      43.018  32.531  29.951  1.00  0.00     0.049 A 
ATOM     49  H   UNL A   1      42.550  30.562  29.364  1.00  0.00     0.167 HD
ATOM     50  C   UNL A   1      45.087  31.730  28.838  1.00  0.00     0.074 A 
ATOM     51  C   UNL A   1      46.429  31.926  28.328  1.00  0.00     0.031 C 
ATOM     52  C   UNL A   1      44.373  32.683  29.486  1.00  0.00     0.034 A 
BRANCH  39  53
ATOM     53  C   UNL A   1      38.616  30.984  30.969  1.00  0.00     0.023 A 
ATOM     54  C   UNL A   1      38.395  30.756  32.343  1.00  0.00     0.012 A 
ATOM     55  C   UNL A   1      37.606  31.586  30.196  1.00  0.00     0.148 A 
ATOM     56  C   UNL A   1      37.177  31.097  32.930  1.00  0.00     0.002 A 
ATOM     57  C   UNL A   1      36.409  31.959  30.796  1.00  0.00     0.091 A 
ATOM     58  F   UNL A   1      37.826  31.766  28.885  1.00  0.00    -0.205 F 
ATOM     59  C   UNL A   1      36.190  31.707  32.160  1.00  0.00     0.022 A 
BRANCH  57  60
ATOM     60  S   UNL A   1      35.105  32.812  29.903  1.00  0.00     0.127 S 
ATOM     61  O   UNL A   1      34.712  31.803  28.921  1.00  0.00    -0.237 OA
ATOM     62  O   UNL A   1      34.118  33.055  30.957  1.00  0.00    -0.237 OA
ATOM     63  O   UNL A   1      35.715  34.015  29.355  1.00  0.00    -0.744 OA
ENDBRANCH  57  60
ENDBRANCH  39  53
BRANCH  40  64
ATOM     64  C   UNL A   1      47.180  28.126  26.626  1.00  0.00     0.023 A 
ATOM     65  C   UNL A   1      48.320  27.825  27.397  1.00  0.00     0.012 A 
ATOM     66  C   UNL A   1      47.255  28.022  25.224  1.00  0.00     0.148 A 
ATOM     67  C   UNL A   1      49.517  27.454  26.782  1.00  0.00     0.002 A 
ATOM     68  C   UNL A   1      48.433  27.599  24.620  1.00  0.00     0.091 A 
ATOM     69  F   UNL A   1      46.168  28.336  24.504  1.00  0.00    -0.205 F 
ATOM     70  C   UNL A   1      49.570  27.329  25.396  1.00  0.00     0.022 A 
BRANCH  68  71
ATOM     71  S   UNL A   1      48.553  27.291  22.854  1.00  0.00     0.127 S 
ATOM     72  O   UNL A   1      47.534  28.193  22.323  1.00  0.00    -0.237 OA
ATOM     73  O   UNL A   1      49.933  27.685  22.571  1.00  0.00    -0.237 OA
ATOM     74  O   UNL A   1      48.291  25.868  22.686  1.00  0.00    -0.744 OA
ENDBRANCH  68  71
ENDBRANCH  40  64
BRANCH  52  75
ATOM     75  C   UNL A   1      45.035  34.016  29.717  1.00  0.00     0.023 A 
ATOM     76  C   UNL A   1      45.835  34.211  30.859  1.00  0.00     0.012 A 
ATOM     77  C   UNL A   1      44.932  35.044  28.759  1.00  0.00     0.148 A 
ATOM     78  C   UNL A   1      46.502  35.418  31.058  1.00  0.00     0.002 A 
ATOM     79  C   UNL A   1      45.636  36.228  28.942  1.00  0.00     0.091 A 
ATOM     80  F   UNL A   1      44.149  34.846  27.689  1.00  0.00    -0.205 F 
ATOM     81  C   UNL A   1      46.413  36.421  30.095  1.00  0.00     0.022 A 
BRANCH  79  82
ATOM     82  S   UNL A   1      45.656  37.532  27.706  1.00  0.00     0.127 S 
ATOM     83  O   UNL A   1      46.164  36.823  26.533  1.00  0.00    -0.237 OA
ATOM     84  O   UNL A   1      44.245  37.910  27.627  1.00  0.00    -0.237 OA
ATOM     85  O   UNL A   1      46.528  38.571  28.237  1.00  0.00    -0.744 OA
ENDBRANCH  79  82
ENDBRANCH  52  75
ENDBRANCH  26  27
ENDBRANCH  19  21
ENDBRANCH  18  19
ENDBRANCH   1  18
TORSDOF 16
ENDMDL
