MODEL 1
REMARK VINA RESULT:      -9.1      0.000      0.000
REMARK SMILES CSC[C@H](C(=O)OCCOC(=O)c1ccc(-c2c3nc(c(-c4cccc(S(=O)(=O)[O-])c4F)c4ccc([nH]4)c(-c4cccc(S(=O)(=O)[O-])c4F)c4nc(c(-c5cccc(S(=O)(=O)[O-])c5F)c5ccc2[nH]5)C=C4)C=C3)cc1)c1ccccc1
REMARK SMILES IDX 9 1 8 2 7 3 5 4 6 5 4 6 3 7 2 8 1 9 76 10 77 11 81 12 78 13
REMARK SMILES IDX 80 14 79 15 10 16 11 17 12 18 13 19 14 20 75 21 15 22 74 23
REMARK SMILES IDX 16 24 17 25 18 26 68 27 19 28 73 29 67 30 69 31 20 32 72 33
REMARK SMILES IDX 66 34 65 35 21 37 53 38 33 39 52 40 34 41 37 42 51 43 70 44
REMARK SMILES IDX 35 45 36 46 50 48 71 49 38 50 22 51 23 52 31 53 24 54 26 55
REMARK SMILES IDX 32 56 25 57 27 58 28 59 29 60 30 61 54 62 55 63 63 64 56 65
REMARK SMILES IDX 58 66 64 67 57 68 59 69 60 70 61 71 62 72 39 73 40 74 48 75
REMARK SMILES IDX 41 76 43 77 49 78 42 79 44 80 45 81 46 82 47 83
REMARK H PARENT 69 36 37 47
REMARK Flexibility Score: inf
ROOT
ATOM      1  C   UNL A   1      40.271  20.576  26.191  1.00  0.00     0.275 C 
ENDROOT
BRANCH   1   2
ATOM      2  C   UNL A   1      41.762  20.234  26.122  1.00  0.00     0.274 C 
BRANCH   2   3
ATOM      3  O   UNL A   1      42.425  21.346  25.509  1.00  0.00    -0.462 OA
BRANCH   3   4
ATOM      4  C   UNL A   1      43.784  21.404  25.561  1.00  0.00     0.314 C 
ATOM      5  O   UNL A   1      44.530  20.460  25.348  1.00  0.00    -0.252 OA
BRANCH   4   6
ATOM      6  C   UNL A   1      44.198  22.838  25.903  1.00  0.00     0.139 C 
BRANCH   6   7
ATOM      7  C   UNL A   1      43.443  23.824  24.989  1.00  0.00     0.089 C 
BRANCH   7   8
ATOM      8  S   UNL A   1      43.793  25.624  25.146  1.00  0.00    -0.164 SA
ATOM      9  C   UNL A   1      45.605  25.609  25.108  1.00  0.00     0.085 C 
ENDBRANCH   7   8
ENDBRANCH   6   7
BRANCH   6  10
ATOM     10  C   UNL A   1      44.101  23.161  27.406  1.00  0.00    -0.033 A 
ATOM     11  C   UNL A   1      42.879  23.112  28.102  1.00  0.00     0.004 A 
ATOM     12  C   UNL A   1      45.227  23.623  28.115  1.00  0.00     0.004 A 
ATOM     13  C   UNL A   1      42.795  23.470  29.452  1.00  0.00     0.000 A 
ATOM     14  C   UNL A   1      45.142  23.978  29.466  1.00  0.00     0.000 A 
ATOM     15  C   UNL A   1      43.926  23.900  30.135  1.00  0.00     0.000 A 
ENDBRANCH   6  10
ENDBRANCH   4   6
ENDBRANCH   3   4
ENDBRANCH   2   3
ENDBRANCH   1   2
BRANCH   1  16
ATOM     16  O   UNL A   1      40.075  21.781  26.959  1.00  0.00    -0.458 OA
BRANCH  16  17
ATOM     17  C   UNL A   1      39.237  22.698  26.409  1.00  0.00     0.338 C 
ATOM     18  O   UNL A   1      38.300  22.484  25.659  1.00  0.00    -0.246 OA
BRANCH  17  19
ATOM     19  C   UNL A   1      39.536  24.036  26.960  1.00  0.00     0.060 A 
ATOM     20  C   UNL A   1      40.123  24.986  26.116  1.00  0.00     0.016 A 
ATOM     21  C   UNL A   1      39.271  24.348  28.296  1.00  0.00     0.016 A 
ATOM     22  C   UNL A   1      40.436  26.254  26.600  1.00  0.00     0.010 A 
ATOM     23  C   UNL A   1      39.606  25.612  28.787  1.00  0.00     0.010 A 
ATOM     24  C   UNL A   1      40.198  26.566  27.944  1.00  0.00    -0.014 A 
BRANCH  24  25
ATOM     25  C   UNL A   1      40.632  27.872  28.487  1.00  0.00     0.031 A 
ATOM     26  C   UNL A   1      42.095  28.138  28.687  1.00  0.00     0.074 A 
ATOM     27  C   UNL A   1      39.717  28.799  28.823  1.00  0.00     0.049 A 
ATOM     28  N   UNL A   1      42.682  29.207  29.156  1.00  0.00    -0.248 NA
ATOM     29  C   UNL A   1      43.020  27.057  28.308  1.00  0.00     0.031 C 
ATOM     30  C   UNL A   1      38.271  28.643  28.681  1.00  0.00     0.029 A 
ATOM     31  N   UNL A   1      39.870  30.044  29.376  1.00  0.00    -0.354 N 
ATOM     32  C   UNL A   1      44.042  28.927  29.144  1.00  0.00     0.074 A 
ATOM     33  C   UNL A   1      44.195  27.583  28.628  1.00  0.00     0.031 C 
ATOM     34  C   UNL A   1      37.664  29.740  29.165  1.00  0.00     0.029 A 
ATOM     35  C   UNL A   1      38.679  30.665  29.667  1.00  0.00     0.049 A 
ATOM     36  H   UNL A   1      40.749  30.454  29.548  1.00  0.00     0.167 HD
ATOM     37  C   UNL A   1      45.072  29.724  29.517  1.00  0.00     0.034 A 
ATOM     38  C   UNL A   1      38.438  31.837  30.285  1.00  0.00     0.034 A 
ATOM     39  C   UNL A   1      44.915  31.058  30.032  1.00  0.00     0.049 A 
ATOM     40  C   UNL A   1      39.602  32.691  30.718  1.00  0.00     0.074 A 
ATOM     41  C   UNL A   1      45.898  31.959  30.399  1.00  0.00     0.029 A 
ATOM     42  N   UNL A   1      43.697  31.674  30.271  1.00  0.00    -0.354 N 
ATOM     43  N   UNL A   1      40.887  32.474  30.568  1.00  0.00    -0.248 NA
ATOM     44  C   UNL A   1      39.283  33.969  31.373  1.00  0.00     0.031 C 
ATOM     45  C   UNL A   1      45.273  33.112  30.886  1.00  0.00     0.029 A 
ATOM     46  C   UNL A   1      43.901  32.939  30.797  1.00  0.00     0.049 A 
ATOM     47  H   UNL A   1      42.815  31.273  30.093  1.00  0.00     0.167 HD
ATOM     48  C   UNL A   1      41.527  33.598  31.078  1.00  0.00     0.074 A 
ATOM     49  C   UNL A   1      40.488  34.504  31.522  1.00  0.00     0.031 C 
ATOM     50  C   UNL A   1      42.855  33.852  31.184  1.00  0.00     0.034 A 
BRANCH  37  51
ATOM     51  C   UNL A   1      46.465  29.180  29.356  1.00  0.00     0.023 A 
ATOM     52  C   UNL A   1      47.065  28.481  30.423  1.00  0.00     0.012 A 
ATOM     53  C   UNL A   1      47.160  29.316  28.138  1.00  0.00     0.148 A 
ATOM     54  C   UNL A   1      48.345  27.947  30.290  1.00  0.00     0.002 A 
ATOM     55  C   UNL A   1      48.421  28.748  28.002  1.00  0.00     0.091 A 
ATOM     56  F   UNL A   1      46.583  30.007  27.145  1.00  0.00    -0.205 F 
ATOM     57  C   UNL A   1      49.019  28.072  29.078  1.00  0.00     0.022 A 
BRANCH  55  58
ATOM     58  S   UNL A   1      49.341  28.800  26.460  1.00  0.00     0.127 S 
ATOM     59  O   UNL A   1      49.786  30.192  26.428  1.00  0.00    -0.237 OA
ATOM     60  O   UNL A   1      50.406  27.826  26.703  1.00  0.00    -0.237 OA
ATOM     61  O   UNL A   1      48.398  28.418  25.418  1.00  0.00    -0.744 OA
ENDBRANCH  55  58
ENDBRANCH  37  51
BRANCH  38  62
ATOM     62  C   UNL A   1      37.036  32.292  30.500  1.00  0.00     0.023 A 
ATOM     63  C   UNL A   1      36.428  32.099  31.754  1.00  0.00     0.012 A 
ATOM     64  C   UNL A   1      36.310  32.928  29.474  1.00  0.00     0.148 A 
ATOM     65  C   UNL A   1      35.111  32.504  31.976  1.00  0.00     0.002 A 
ATOM     66  C   UNL A   1      35.016  33.376  29.717  1.00  0.00     0.091 A 
ATOM     67  F   UNL A   1      36.898  33.084  28.280  1.00  0.00    -0.205 F 
ATOM     68  C   UNL A   1      34.409  33.151  30.962  1.00  0.00     0.022 A 
BRANCH  66  69
ATOM     69  S   UNL A   1      34.086  34.326  28.509  1.00  0.00     0.127 S 
ATOM     70  O   UNL A   1      34.056  33.413  27.370  1.00  0.00    -0.237 OA
ATOM     71  O   UNL A   1      32.802  34.506  29.189  1.00  0.00    -0.237 OA
ATOM     72  O   UNL A   1      34.839  35.557  28.317  1.00  0.00    -0.744 OA
ENDBRANCH  66  69
ENDBRANCH  38  62
BRANCH  50  73
ATOM     73  C   UNL A   1      43.271  35.174  31.774  1.00  0.00     0.023 A 
ATOM     74  C   UNL A   1      43.466  35.288  33.165  1.00  0.00     0.012 A 
ATOM     75  C   UNL A   1      43.548  36.279  30.944  1.00  0.00     0.148 A 
ATOM     76  C   UNL A   1      43.900  36.489  33.724  1.00  0.00     0.002 A 
ATOM     77  C   UNL A   1      44.027  37.458  31.503  1.00  0.00     0.091 A 
ATOM     78  F   UNL A   1      43.339  36.158  29.625  1.00  0.00    -0.205 F 
ATOM     79  C   UNL A   1      44.194  37.568  32.893  1.00  0.00     0.022 A 
BRANCH  77  80
ATOM     80  S   UNL A   1      44.521  38.865  30.500  1.00  0.00     0.127 S 
ATOM     81  O   UNL A   1      44.888  39.844  31.520  1.00  0.00    -0.237 OA
ATOM     82  O   UNL A   1      45.648  38.325  29.738  1.00  0.00    -0.237 OA
ATOM     83  O   UNL A   1      43.358  39.205  29.691  1.00  0.00    -0.744 OA
ENDBRANCH  77  80
ENDBRANCH  50  73
ENDBRANCH  24  25
ENDBRANCH  17  19
ENDBRANCH  16  17
ENDBRANCH   1  16
TORSDOF 17
ENDMDL
MODEL 2
REMARK VINA RESULT:      -9.0      1.606      2.199
REMARK SMILES CSC[C@H](C(=O)OCCOC(=O)c1ccc(-c2c3nc(c(-c4cccc(S(=O)(=O)[O-])c4F)c4ccc([nH]4)c(-c4cccc(S(=O)(=O)[O-])c4F)c4nc(c(-c5cccc(S(=O)(=O)[O-])c5F)c5ccc2[nH]5)C=C4)C=C3)cc1)c1ccccc1
REMARK SMILES IDX 9 1 8 2 7 3 5 4 6 5 4 6 3 7 2 8 1 9 76 10 77 11 81 12 78 13
REMARK SMILES IDX 80 14 79 15 10 16 11 17 12 18 13 19 14 20 75 21 15 22 74 23
REMARK SMILES IDX 16 24 17 25 18 26 68 27 19 28 73 29 67 30 69 31 20 32 72 33
REMARK SMILES IDX 66 34 65 35 21 37 53 38 33 39 52 40 34 41 37 42 51 43 70 44
REMARK SMILES IDX 35 45 36 46 50 48 71 49 38 50 22 51 23 52 31 53 24 54 26 55
REMARK SMILES IDX 32 56 25 57 27 58 28 59 29 60 30 61 54 62 55 63 63 64 56 65
REMARK SMILES IDX 58 66 64 67 57 68 59 69 60 70 61 71 62 72 39 73 40 74 48 75
REMARK SMILES IDX 41 76 43 77 49 78 42 79 44 80 45 81 46 82 47 83
REMARK H PARENT 69 36 37 47
REMARK Flexibility Score: inf
ROOT
ATOM      1  C   UNL A   1      41.023  21.008  26.303  1.00  0.00     0.275 C 
ENDROOT
BRANCH   1   2
ATOM      2  C   UNL A   1      42.386  21.041  26.999  1.00  0.00     0.274 C 
BRANCH   2   3
ATOM      3  O   UNL A   1      42.979  22.314  26.714  1.00  0.00    -0.462 OA
BRANCH   3   4
ATOM      4  C   UNL A   1      43.648  22.473  25.540  1.00  0.00     0.314 C 
ATOM      5  O   UNL A   1      43.137  22.834  24.490  1.00  0.00    -0.252 OA
BRANCH   4   6
ATOM      6  C   UNL A   1      45.126  22.150  25.773  1.00  0.00     0.139 C 
BRANCH   6   7
ATOM      7  C   UNL A   1      45.663  21.310  24.596  1.00  0.00     0.089 C 
BRANCH   7   8
ATOM      8  S   UNL A   1      45.114  19.562  24.431  1.00  0.00    -0.164 SA
ATOM      9  C   UNL A   1      46.303  18.741  25.525  1.00  0.00     0.085 C 
ENDBRANCH   7   8
ENDBRANCH   6   7
BRANCH   6  10
ATOM     10  C   UNL A   1      45.977  23.388  26.111  1.00  0.00    -0.033 A 
ATOM     11  C   UNL A   1      46.058  23.903  27.418  1.00  0.00     0.004 A 
ATOM     12  C   UNL A   1      46.625  24.115  25.093  1.00  0.00     0.004 A 
ATOM     13  C   UNL A   1      46.784  25.066  27.700  1.00  0.00     0.000 A 
ATOM     14  C   UNL A   1      47.353  25.275  25.376  1.00  0.00     0.000 A 
ATOM     15  C   UNL A   1      47.434  25.751  26.679  1.00  0.00     0.000 A 
ENDBRANCH   6  10
ENDBRANCH   4   6
ENDBRANCH   3   4
ENDBRANCH   2   3
ENDBRANCH   1   2
BRANCH   1  16
ATOM     16  O   UNL A   1      40.040  21.691  27.107  1.00  0.00    -0.458 OA
BRANCH  16  17
ATOM     17  C   UNL A   1      39.251  22.576  26.445  1.00  0.00     0.338 C 
ATOM     18  O   UNL A   1      38.348  22.319  25.667  1.00  0.00    -0.246 OA
BRANCH  17  19
ATOM     19  C   UNL A   1      39.551  23.948  26.903  1.00  0.00     0.060 A 
ATOM     20  C   UNL A   1      40.168  24.828  26.006  1.00  0.00     0.016 A 
ATOM     21  C   UNL A   1      39.260  24.359  28.205  1.00  0.00     0.016 A 
ATOM     22  C   UNL A   1      40.484  26.126  26.403  1.00  0.00     0.010 A 
ATOM     23  C   UNL A   1      39.597  25.653  28.611  1.00  0.00     0.010 A 
ATOM     24  C   UNL A   1      40.218  26.538  27.714  1.00  0.00    -0.014 A 
BRANCH  24  25
ATOM     25  C   UNL A   1      40.654  27.876  28.171  1.00  0.00     0.031 A 
ATOM     26  C   UNL A   1      42.118  28.203  28.207  1.00  0.00     0.074 A 
ATOM     27  C   UNL A   1      39.742  28.779  28.574  1.00  0.00     0.049 A 
ATOM     28  N   UNL A   1      42.706  29.308  28.581  1.00  0.00    -0.248 NA
ATOM     29  C   UNL A   1      43.041  27.144  27.764  1.00  0.00     0.031 C 
ATOM     30  C   UNL A   1      38.296  28.564  28.590  1.00  0.00     0.029 A 
ATOM     31  N   UNL A   1      39.902  30.046  29.072  1.00  0.00    -0.354 N 
ATOM     32  C   UNL A   1      44.068  29.078  28.433  1.00  0.00     0.074 A 
ATOM     33  C   UNL A   1      44.220  27.724  27.943  1.00  0.00     0.031 C 
ATOM     34  C   UNL A   1      37.700  29.653  29.104  1.00  0.00     0.029 A 
ATOM     35  C   UNL A   1      38.723  30.632  29.468  1.00  0.00     0.049 A 
ATOM     36  H   UNL A   1      40.776  30.494  29.138  1.00  0.00     0.167 HD
ATOM     37  C   UNL A   1      45.098  29.924  28.672  1.00  0.00     0.034 A 
ATOM     38  C   UNL A   1      38.501  31.814  30.075  1.00  0.00     0.034 A 
ATOM     39  C   UNL A   1      44.942  31.267  29.162  1.00  0.00     0.049 A 
ATOM     40  C   UNL A   1      39.668  32.724  30.357  1.00  0.00     0.074 A 
ATOM     41  C   UNL A   1      45.921  32.216  29.397  1.00  0.00     0.029 A 
ATOM     42  N   UNL A   1      43.731  31.846  29.510  1.00  0.00    -0.354 N 
ATOM     43  N   UNL A   1      40.938  32.550  30.079  1.00  0.00    -0.248 NA
ATOM     44  C   UNL A   1      39.368  34.010  31.006  1.00  0.00     0.031 C 
ATOM     45  C   UNL A   1      45.304  33.361  29.913  1.00  0.00     0.029 A 
ATOM     46  C   UNL A   1      43.938  33.134  29.975  1.00  0.00     0.049 A 
ATOM     47  H   UNL A   1      42.853  31.406  29.438  1.00  0.00     0.167 HD
ATOM     48  C   UNL A   1      41.582  33.714  30.485  1.00  0.00     0.074 A 
ATOM     49  C   UNL A   1      40.559  34.594  31.011  1.00  0.00     0.031 C 
ATOM     50  C   UNL A   1      42.903  34.020  30.443  1.00  0.00     0.034 A 
BRANCH  37  51
ATOM     51  C   UNL A   1      46.487  29.427  28.380  1.00  0.00     0.023 A 
ATOM     52  C   UNL A   1      47.103  29.768  27.159  1.00  0.00     0.012 A 
ATOM     53  C   UNL A   1      47.200  28.669  29.328  1.00  0.00     0.148 A 
ATOM     54  C   UNL A   1      48.400  29.341  26.875  1.00  0.00     0.002 A 
ATOM     55  C   UNL A   1      48.505  28.278  29.053  1.00  0.00     0.091 A 
ATOM     56  F   UNL A   1      46.587  28.333  30.472  1.00  0.00    -0.205 F 
ATOM     57  C   UNL A   1      49.103  28.604  27.824  1.00  0.00     0.022 A 
BRANCH  55  58
ATOM     58  S   UNL A   1      49.516  27.383  30.238  1.00  0.00     0.127 S 
ATOM     59  O   UNL A   1      49.437  28.253  31.409  1.00  0.00    -0.237 OA
ATOM     60  O   UNL A   1      48.791  26.118  30.369  1.00  0.00    -0.237 OA
ATOM     61  O   UNL A   1      50.835  27.266  29.632  1.00  0.00    -0.744 OA
ENDBRANCH  55  58
ENDBRANCH  37  51
BRANCH  38  62
ATOM     62  C   UNL A   1      37.111  32.223  30.423  1.00  0.00     0.023 A 
ATOM     63  C   UNL A   1      36.627  31.997  31.725  1.00  0.00     0.012 A 
ATOM     64  C   UNL A   1      36.276  32.848  29.477  1.00  0.00     0.148 A 
ATOM     65  C   UNL A   1      35.325  32.359  32.071  1.00  0.00     0.002 A 
ATOM     66  C   UNL A   1      34.998  33.255  29.843  1.00  0.00     0.091 A 
ATOM     67  F   UNL A   1      36.748  33.037  28.237  1.00  0.00    -0.205 F 
ATOM     68  C   UNL A   1      34.514  32.997  31.136  1.00  0.00     0.022 A 
BRANCH  66  69
ATOM     69  S   UNL A   1      33.933  34.189  28.739  1.00  0.00     0.127 S 
ATOM     70  O   UNL A   1      32.857  34.599  29.637  1.00  0.00    -0.237 OA
ATOM     71  O   UNL A   1      34.821  35.270  28.306  1.00  0.00    -0.237 OA
ATOM     72  O   UNL A   1      33.559  33.262  27.680  1.00  0.00    -0.744 OA
ENDBRANCH  66  69
ENDBRANCH  38  62
BRANCH  50  73
ATOM     73  C   UNL A   1      43.324  35.376  30.948  1.00  0.00     0.023 A 
ATOM     74  C   UNL A   1      43.711  35.530  32.294  1.00  0.00     0.012 A 
ATOM     75  C   UNL A   1      43.415  36.475  30.071  1.00  0.00     0.148 A 
ATOM     76  C   UNL A   1      44.154  36.765  32.766  1.00  0.00     0.002 A 
ATOM     77  C   UNL A   1      43.903  37.690  30.538  1.00  0.00     0.091 A 
ATOM     78  F   UNL A   1      43.024  36.313  28.798  1.00  0.00    -0.205 F 
ATOM     79  C   UNL A   1      44.262  37.840  31.886  1.00  0.00     0.022 A 
BRANCH  77  80
ATOM     80  S   UNL A   1      44.166  39.099  29.453  1.00  0.00     0.127 S 
ATOM     81  O   UNL A   1      44.705  40.091  30.379  1.00  0.00    -0.237 OA
ATOM     82  O   UNL A   1      45.133  38.574  28.489  1.00  0.00    -0.237 OA
ATOM     83  O   UNL A   1      42.862  39.413  28.884  1.00  0.00    -0.744 OA
ENDBRANCH  77  80
ENDBRANCH  50  73
ENDBRANCH  24  25
ENDBRANCH  17  19
ENDBRANCH  16  17
ENDBRANCH   1  16
TORSDOF 17
ENDMDL
MODEL 3
REMARK VINA RESULT:      -9.0      5.858     11.527
REMARK SMILES CSC[C@H](C(=O)OCCOC(=O)c1ccc(-c2c3nc(c(-c4cccc(S(=O)(=O)[O-])c4F)c4ccc([nH]4)c(-c4cccc(S(=O)(=O)[O-])c4F)c4nc(c(-c5cccc(S(=O)(=O)[O-])c5F)c5ccc2[nH]5)C=C4)C=C3)cc1)c1ccccc1
REMARK SMILES IDX 9 1 8 2 7 3 5 4 6 5 4 6 3 7 2 8 1 9 76 10 77 11 81 12 78 13
REMARK SMILES IDX 80 14 79 15 10 16 11 17 12 18 13 19 14 20 75 21 15 22 74 23
REMARK SMILES IDX 16 24 17 25 18 26 68 27 19 28 73 29 67 30 69 31 20 32 72 33
REMARK SMILES IDX 66 34 65 35 21 37 53 38 33 39 52 40 34 41 37 42 51 43 70 44
REMARK SMILES IDX 35 45 36 46 50 48 71 49 38 50 22 51 23 52 31 53 24 54 26 55
REMARK SMILES IDX 32 56 25 57 27 58 28 59 29 60 30 61 54 62 55 63 63 64 56 65
REMARK SMILES IDX 58 66 64 67 57 68 59 69 60 70 61 71 62 72 39 73 40 74 48 75
REMARK SMILES IDX 41 76 43 77 49 78 42 79 44 80 45 81 46 82 47 83
REMARK H PARENT 69 36 37 47
REMARK Flexibility Score: inf
ROOT
ATOM      1  C   UNL A   1      31.756  32.533  27.165  1.00  0.00     0.275 C 
ENDROOT
BRANCH   1   2
ATOM      2  C   UNL A   1      31.783  31.252  26.327  1.00  0.00     0.274 C 
BRANCH   2   3
ATOM      3  O   UNL A   1      32.075  30.167  27.216  1.00  0.00    -0.462 OA
BRANCH   3   4
ATOM      4  C   UNL A   1      32.466  28.976  26.685  1.00  0.00     0.314 C 
ATOM      5  O   UNL A   1      32.818  28.005  27.338  1.00  0.00    -0.252 OA
BRANCH   4   6
ATOM      6  C   UNL A   1      32.361  29.065  25.161  1.00  0.00     0.139 C 
BRANCH   6   7
ATOM      7  C   UNL A   1      33.663  28.540  24.523  1.00  0.00     0.089 C 
BRANCH   7   8
ATOM      8  S   UNL A   1      33.818  28.547  22.689  1.00  0.00    -0.164 SA
ATOM      9  C   UNL A   1      33.543  26.791  22.332  1.00  0.00     0.085 C 
ENDBRANCH   7   8
ENDBRANCH   6   7
BRANCH   6  10
ATOM     10  C   UNL A   1      31.075  28.430  24.598  1.00  0.00    -0.033 A 
ATOM     11  C   UNL A   1      30.750  27.080  24.823  1.00  0.00     0.004 A 
ATOM     12  C   UNL A   1      30.228  29.161  23.742  1.00  0.00     0.004 A 
ATOM     13  C   UNL A   1      29.612  26.499  24.253  1.00  0.00     0.000 A 
ATOM     14  C   UNL A   1      29.089  28.581  23.175  1.00  0.00     0.000 A 
ATOM     15  C   UNL A   1      28.779  27.250  23.431  1.00  0.00     0.000 A 
ENDBRANCH   6  10
ENDBRANCH   4   6
ENDBRANCH   3   4
ENDBRANCH   2   3
ENDBRANCH   1   2
BRANCH   1  16
ATOM     16  O   UNL A   1      32.967  33.287  26.954  1.00  0.00    -0.458 OA
BRANCH  16  17
ATOM     17  C   UNL A   1      33.450  33.940  28.043  1.00  0.00     0.338 C 
ATOM     18  O   UNL A   1      32.961  34.910  28.596  1.00  0.00    -0.246 OA
BRANCH  17  19
ATOM     19  C   UNL A   1      34.624  33.219  28.575  1.00  0.00     0.060 A 
ATOM     20  C   UNL A   1      34.417  31.987  29.206  1.00  0.00     0.016 A 
ATOM     21  C   UNL A   1      35.910  33.756  28.483  1.00  0.00     0.016 A 
ATOM     22  C   UNL A   1      35.496  31.282  29.737  1.00  0.00     0.010 A 
ATOM     23  C   UNL A   1      36.988  33.060  29.035  1.00  0.00     0.010 A 
ATOM     24  C   UNL A   1      36.784  31.825  29.671  1.00  0.00    -0.014 A 
BRANCH  24  25
ATOM     25  C   UNL A   1      37.913  31.133  30.332  1.00  0.00     0.031 A 
ATOM     26  C   UNL A   1      38.286  31.505  31.737  1.00  0.00     0.074 A 
ATOM     27  C   UNL A   1      38.611  30.197  29.664  1.00  0.00     0.049 A 
ATOM     28  N   UNL A   1      39.242  31.028  32.489  1.00  0.00    -0.248 NA
ATOM     29  C   UNL A   1      37.474  32.552  32.379  1.00  0.00     0.031 C 
ATOM     30  C   UNL A   1      38.342  29.766  28.294  1.00  0.00     0.029 A 
ATOM     31  N   UNL A   1      39.705  29.463  30.042  1.00  0.00    -0.354 N 
ATOM     32  C   UNL A   1      39.160  31.724  33.688  1.00  0.00     0.074 A 
ATOM     33  C   UNL A   1      38.065  32.662  33.561  1.00  0.00     0.031 C 
ATOM     34  C   UNL A   1      39.269  28.861  27.932  1.00  0.00     0.029 A 
ATOM     35  C   UNL A   1      40.203  28.666  29.039  1.00  0.00     0.049 A 
ATOM     36  H   UNL A   1      40.096  29.502  30.945  1.00  0.00     0.167 HD
ATOM     37  C   UNL A   1      39.921  31.583  34.800  1.00  0.00     0.034 A 
ATOM     38  C   UNL A   1      41.300  27.884  29.014  1.00  0.00     0.034 A 
ATOM     39  C   UNL A   1      41.009  30.651  34.920  1.00  0.00     0.049 A 
ATOM     40  C   UNL A   1      42.148  27.769  30.255  1.00  0.00     0.074 A 
ATOM     41  C   UNL A   1      41.814  30.405  36.018  1.00  0.00     0.029 A 
ATOM     42  N   UNL A   1      41.459  29.825  33.901  1.00  0.00    -0.354 N 
ATOM     43  N   UNL A   1      41.972  28.326  31.429  1.00  0.00    -0.248 NA
ATOM     44  C   UNL A   1      43.324  26.890  30.178  1.00  0.00     0.031 C 
ATOM     45  C   UNL A   1      42.768  29.449  35.655  1.00  0.00     0.029 A 
ATOM     46  C   UNL A   1      42.542  29.080  34.338  1.00  0.00     0.049 A 
ATOM     47  H   UNL A   1      41.067  29.776  32.999  1.00  0.00     0.167 HD
ATOM     48  C   UNL A   1      42.993  27.840  32.239  1.00  0.00     0.074 A 
ATOM     49  C   UNL A   1      43.771  26.927  31.427  1.00  0.00     0.031 C 
ATOM     50  C   UNL A   1      43.272  28.134  33.534  1.00  0.00     0.034 A 
BRANCH  37  51
ATOM     51  C   UNL A   1      39.583  32.442  35.987  1.00  0.00     0.023 A 
ATOM     52  C   UNL A   1      40.187  33.709  36.121  1.00  0.00     0.012 A 
ATOM     53  C   UNL A   1      38.635  32.022  36.940  1.00  0.00     0.148 A 
ATOM     54  C   UNL A   1      39.872  34.535  37.199  1.00  0.00     0.002 A 
ATOM     55  C   UNL A   1      38.299  32.866  37.992  1.00  0.00     0.091 A 
ATOM     56  F   UNL A   1      38.092  30.804  36.809  1.00  0.00    -0.205 F 
ATOM     57  C   UNL A   1      38.923  34.118  38.128  1.00  0.00     0.022 A 
BRANCH  55  58
ATOM     58  S   UNL A   1      37.041  32.447  39.203  1.00  0.00     0.127 S 
ATOM     59  O   UNL A   1      37.383  31.061  39.516  1.00  0.00    -0.237 OA
ATOM     60  O   UNL A   1      37.317  33.401  40.278  1.00  0.00    -0.237 OA
ATOM     61  O   UNL A   1      35.761  32.641  38.534  1.00  0.00    -0.744 OA
ENDBRANCH  55  58
ENDBRANCH  37  51
BRANCH  38  62
ATOM     62  C   UNL A   1      41.642  27.119  27.782  1.00  0.00     0.023 A 
ATOM     63  C   UNL A   1      42.150  27.799  26.660  1.00  0.00     0.012 A 
ATOM     64  C   UNL A   1      41.479  25.721  27.723  1.00  0.00     0.148 A 
ATOM     65  C   UNL A   1      42.464  27.107  25.491  1.00  0.00     0.002 A 
ATOM     66  C   UNL A   1      41.844  25.029  26.573  1.00  0.00     0.091 A 
ATOM     67  F   UNL A   1      40.974  25.093  28.794  1.00  0.00    -0.205 F 
ATOM     68  C   UNL A   1      42.322  25.722  25.450  1.00  0.00     0.022 A 
BRANCH  66  69
ATOM     69  S   UNL A   1      41.807  23.236  26.478  1.00  0.00     0.127 S 
ATOM     70  O   UNL A   1      40.372  22.966  26.471  1.00  0.00    -0.237 OA
ATOM     71  O   UNL A   1      42.488  22.986  25.207  1.00  0.00    -0.237 OA
ATOM     72  O   UNL A   1      42.536  22.769  27.649  1.00  0.00    -0.744 OA
ENDBRANCH  66  69
ENDBRANCH  38  62
BRANCH  50  73
ATOM     73  C   UNL A   1      44.448  27.442  34.172  1.00  0.00     0.023 A 
ATOM     74  C   UNL A   1      45.728  28.028  34.099  1.00  0.00     0.012 A 
ATOM     75  C   UNL A   1      44.273  26.256  34.912  1.00  0.00     0.148 A 
ATOM     76  C   UNL A   1      46.818  27.429  34.727  1.00  0.00     0.002 A 
ATOM     77  C   UNL A   1      45.355  25.691  35.576  1.00  0.00     0.091 A 
ATOM     78  F   UNL A   1      43.052  25.702  34.954  1.00  0.00    -0.205 F 
ATOM     79  C   UNL A   1      46.630  26.269  35.476  1.00  0.00     0.022 A 
BRANCH  77  80
ATOM     80  S   UNL A   1      45.184  24.252  36.640  1.00  0.00     0.127 S 
ATOM     81  O   UNL A   1      46.564  24.033  37.069  1.00  0.00    -0.237 OA
ATOM     82  O   UNL A   1      44.290  24.744  37.688  1.00  0.00    -0.237 OA
ATOM     83  O   UNL A   1      44.612  23.205  35.805  1.00  0.00    -0.744 OA
ENDBRANCH  77  80
ENDBRANCH  50  73
ENDBRANCH  24  25
ENDBRANCH  17  19
ENDBRANCH  16  17
ENDBRANCH   1  16
TORSDOF 17
ENDMDL
