MODEL 1
REMARK VINA RESULT:     -12.3      0.000      0.000
REMARK SMILES Cc1cc(C)cc(C(=O)N2CC[C@H](C(=O)OCCOC(=O)c3ccc(-c4c5nc(c(-c6cccc(S(=O)(=O)[O-])c6F)c6ccc([nH]6)c(-c6cccc(S(=O)(=O)[O-])c6F)c6nc(c(-c7cccc(S(=O)(=O)[O-])c7F)c7ccc4[nH]7)C=C6)C=C5)cc3)[C@@H]2C)c1
REMARK SMILES IDX 18 1 17 2 16 3 14 4 15 5 13 6 10 7 11 8 85 9 12 10 86 11
REMARK SMILES IDX 8 12 9 13 7 14 1 15 2 16 3 17 87 18 4 19 5 20 6 21 19 22
REMARK SMILES IDX 20 23 21 24 22 25 23 26 84 27 24 28 83 29 25 30 26 31 27 32
REMARK SMILES IDX 77 33 28 34 82 35 76 36 78 37 29 38 81 39 75 40 74 41 30 43
REMARK SMILES IDX 62 44 42 45 61 46 43 47 46 48 60 49 79 50 44 51 45 52 59 54
REMARK SMILES IDX 80 55 47 56 31 57 32 58 40 59 33 60 35 61 41 62 34 63 36 64
REMARK SMILES IDX 37 65 38 66 39 67 63 68 64 69 72 70 65 71 67 72 73 73 66 74
REMARK SMILES IDX 68 75 69 76 70 77 71 78 48 79 49 80 57 81 50 82 52 83 58 84
REMARK SMILES IDX 51 85 53 86 54 87 55 88 56 89
REMARK H PARENT 78 42 46 53
REMARK Flexibility Score: inf
ROOT
ATOM      1  C   UNL A   1      36.184  20.475  25.008  1.00  0.00     0.275 C 
ENDROOT
BRANCH   1   2
ATOM      2  C   UNL A   1      34.975  21.188  24.408  1.00  0.00     0.274 C 
BRANCH   2   3
ATOM      3  O   UNL A   1      33.746  20.485  24.701  1.00  0.00    -0.462 OA
BRANCH   3   4
ATOM      4  C   UNL A   1      32.648  21.277  24.871  1.00  0.00     0.311 C 
ATOM      5  O   UNL A   1      31.541  20.860  25.184  1.00  0.00    -0.252 OA
BRANCH   4   6
ATOM      6  C   UNL A   1      32.935  22.716  24.473  1.00  0.00     0.123 C 
ATOM      7  N   UNL A   1      31.358  24.351  25.203  1.00  0.00    -0.335 N 
ATOM      8  C   UNL A   1      30.778  23.679  24.059  1.00  0.00     0.121 C 
ATOM      9  C   UNL A   1      32.696  23.827  25.520  1.00  0.00     0.096 C 
ATOM     10  C   UNL A   1      31.993  23.134  23.327  1.00  0.00     0.039 C 
ATOM     11  C   UNL A   1      32.847  23.436  26.982  1.00  0.00     0.032 C 
BRANCH   7  12
ATOM     12  C   UNL A   1      30.659  25.407  25.766  1.00  0.00     0.254 C 
ATOM     13  O   UNL A   1      29.666  25.218  26.465  1.00  0.00    -0.269 OA
BRANCH  12  14
ATOM     14  C   UNL A   1      30.986  26.804  25.365  1.00  0.00     0.040 A 
ATOM     15  C   UNL A   1      30.059  29.261  22.607  1.00  0.00     0.044 C 
ATOM     16  C   UNL A   1      30.632  28.698  23.872  1.00  0.00    -0.050 A 
ATOM     17  C   UNL A   1      31.254  29.535  24.804  1.00  0.00     0.006 A 
ATOM     18  C   UNL A   1      30.474  27.341  24.178  1.00  0.00     0.017 A 
ATOM     19  C   UNL A   1      31.728  29.028  26.023  1.00  0.00    -0.050 A 
ATOM     20  C   UNL A   1      32.273  29.972  27.056  1.00  0.00     0.044 C 
ATOM     21  C   UNL A   1      31.600  27.657  26.292  1.00  0.00     0.017 A 
ENDBRANCH  12  14
ENDBRANCH   7  12
ENDBRANCH   4   6
ENDBRANCH   3   4
ENDBRANCH   2   3
ENDBRANCH   1   2
BRANCH   1  22
ATOM     22  O   UNL A   1      36.936  21.406  25.797  1.00  0.00    -0.458 OA
BRANCH  22  23
ATOM     23  C   UNL A   1      38.274  21.213  25.829  1.00  0.00     0.338 C 
ATOM     24  O   UNL A   1      38.873  20.229  25.408  1.00  0.00    -0.246 OA
BRANCH  23  25
ATOM     25  C   UNL A   1      38.945  22.398  26.411  1.00  0.00     0.060 A 
ATOM     26  C   UNL A   1      38.460  23.684  26.167  1.00  0.00     0.016 A 
ATOM     27  C   UNL A   1      40.133  22.240  27.127  1.00  0.00     0.016 A 
ATOM     28  C   UNL A   1      39.192  24.803  26.559  1.00  0.00     0.010 A 
ATOM     29  C   UNL A   1      40.820  23.365  27.599  1.00  0.00     0.010 A 
ATOM     30  C   UNL A   1      40.375  24.663  27.292  1.00  0.00    -0.014 A 
BRANCH  30  31
ATOM     31  C   UNL A   1      41.167  25.864  27.681  1.00  0.00     0.031 A 
ATOM     32  C   UNL A   1      40.550  26.920  28.558  1.00  0.00     0.074 A 
ATOM     33  C   UNL A   1      42.440  26.018  27.262  1.00  0.00     0.049 A 
ATOM     34  N   UNL A   1      40.980  28.126  28.831  1.00  0.00    -0.248 NA
ATOM     35  C   UNL A   1      39.263  26.587  29.190  1.00  0.00     0.031 C 
ATOM     36  C   UNL A   1      43.190  25.059  26.452  1.00  0.00     0.029 A 
ATOM     37  N   UNL A   1      43.330  27.045  27.465  1.00  0.00    -0.354 N 
ATOM     38  C   UNL A   1      39.980  28.723  29.589  1.00  0.00     0.074 A 
ATOM     39  C   UNL A   1      38.925  27.743  29.742  1.00  0.00     0.031 C 
ATOM     40  C   UNL A   1      44.435  25.520  26.262  1.00  0.00     0.029 A 
ATOM     41  C   UNL A   1      44.549  26.845  26.861  1.00  0.00     0.049 A 
ATOM     42  H   UNL A   1      43.117  27.847  27.994  1.00  0.00     0.167 HD
ATOM     43  C   UNL A   1      39.949  29.968  30.119  1.00  0.00     0.034 A 
ATOM     44  C   UNL A   1      45.628  27.648  26.768  1.00  0.00     0.034 A 
ATOM     45  C   UNL A   1      41.044  30.900  30.062  1.00  0.00     0.049 A 
ATOM     46  C   UNL A   1      45.579  29.019  27.382  1.00  0.00     0.074 A 
ATOM     47  C   UNL A   1      41.119  32.175  30.598  1.00  0.00     0.029 A 
ATOM     48  N   UNL A   1      42.269  30.647  29.463  1.00  0.00    -0.354 N 
ATOM     49  N   UNL A   1      44.624  29.575  28.088  1.00  0.00    -0.248 NA
ATOM     50  C   UNL A   1      46.756  29.877  27.184  1.00  0.00     0.031 C 
ATOM     51  C   UNL A   1      42.391  32.691  30.324  1.00  0.00     0.029 A 
ATOM     52  C   UNL A   1      43.109  31.738  29.621  1.00  0.00     0.049 A 
ATOM     53  H   UNL A   1      42.506  29.814  28.995  1.00  0.00     0.167 HD
ATOM     54  C   UNL A   1      45.089  30.838  28.431  1.00  0.00     0.074 A 
ATOM     55  C   UNL A   1      46.423  30.956  27.880  1.00  0.00     0.031 C 
ATOM     56  C   UNL A   1      44.454  31.822  29.115  1.00  0.00     0.034 A 
BRANCH  43  57
ATOM     57  C   UNL A   1      38.693  30.390  30.835  1.00  0.00     0.023 A 
ATOM     58  C   UNL A   1      38.549  30.123  32.211  1.00  0.00     0.012 A 
ATOM     59  C   UNL A   1      37.677  31.089  30.155  1.00  0.00     0.148 A 
ATOM     60  C   UNL A   1      37.396  30.518  32.891  1.00  0.00     0.002 A 
ATOM     61  C   UNL A   1      36.550  31.516  30.849  1.00  0.00     0.091 A 
ATOM     62  F   UNL A   1      37.817  31.310  28.840  1.00  0.00    -0.205 F 
ATOM     63  C   UNL A   1      36.403  31.222  32.214  1.00  0.00     0.022 A 
BRANCH  61  64
ATOM     64  S   UNL A   1      35.267  32.499  30.063  1.00  0.00     0.127 S 
ATOM     65  O   UNL A   1      34.337  32.717  31.170  1.00  0.00    -0.237 OA
ATOM     66  O   UNL A   1      35.997  33.694  29.640  1.00  0.00    -0.237 OA
ATOM     67  O   UNL A   1      34.770  31.681  28.964  1.00  0.00    -0.744 OA
ENDBRANCH  61  64
ENDBRANCH  43  57
BRANCH  44  68
ATOM     68  C   UNL A   1      46.859  27.153  26.087  1.00  0.00     0.023 A 
ATOM     69  C   UNL A   1      47.031  27.410  24.713  1.00  0.00     0.012 A 
ATOM     70  C   UNL A   1      47.882  26.494  26.795  1.00  0.00     0.148 A 
ATOM     71  C   UNL A   1      48.196  27.014  24.056  1.00  0.00     0.002 A 
ATOM     72  C   UNL A   1      49.066  26.158  26.150  1.00  0.00     0.091 A 
ATOM     73  F   UNL A   1      47.688  26.230  28.095  1.00  0.00    -0.205 F 
ATOM     74  C   UNL A   1      49.220  26.404  24.777  1.00  0.00     0.022 A 
BRANCH  72  75
ATOM     75  S   UNL A   1      50.490  25.513  27.036  1.00  0.00     0.127 S 
ATOM     76  O   UNL A   1      49.942  24.306  27.648  1.00  0.00    -0.237 OA
ATOM     77  O   UNL A   1      51.443  25.274  25.949  1.00  0.00    -0.237 OA
ATOM     78  O   UNL A   1      50.889  26.569  27.956  1.00  0.00    -0.744 OA
ENDBRANCH  72  75
ENDBRANCH  44  68
BRANCH  56  79
ATOM     79  C   UNL A   1      45.199  33.116  29.319  1.00  0.00     0.023 A 
ATOM     80  C   UNL A   1      45.989  33.280  30.474  1.00  0.00     0.012 A 
ATOM     81  C   UNL A   1      45.171  34.133  28.347  1.00  0.00     0.148 A 
ATOM     82  C   UNL A   1      46.722  34.450  30.669  1.00  0.00     0.002 A 
ATOM     83  C   UNL A   1      45.934  35.282  28.531  1.00  0.00     0.091 A 
ATOM     84  F   UNL A   1      44.395  33.967  27.265  1.00  0.00    -0.205 F 
ATOM     85  C   UNL A   1      46.703  35.445  29.695  1.00  0.00     0.022 A 
BRANCH  83  86
ATOM     86  S   UNL A   1      46.029  36.576  27.288  1.00  0.00     0.127 S 
ATOM     87  O   UNL A   1      44.650  37.060  27.254  1.00  0.00    -0.237 OA
ATOM     88  O   UNL A   1      46.988  37.511  27.880  1.00  0.00    -0.237 OA
ATOM     89  O   UNL A   1      46.498  35.925  26.073  1.00  0.00    -0.744 OA
ENDBRANCH  83  86
ENDBRANCH  56  79
ENDBRANCH  30  31
ENDBRANCH  23  25
ENDBRANCH  22  23
ENDBRANCH   1  22
TORSDOF 16
ENDMDL
MODEL 2
REMARK VINA RESULT:     -12.3      4.736      9.998
REMARK SMILES Cc1cc(C)cc(C(=O)N2CC[C@H](C(=O)OCCOC(=O)c3ccc(-c4c5nc(c(-c6cccc(S(=O)(=O)[O-])c6F)c6ccc([nH]6)c(-c6cccc(S(=O)(=O)[O-])c6F)c6nc(c(-c7cccc(S(=O)(=O)[O-])c7F)c7ccc4[nH]7)C=C6)C=C5)cc3)[C@@H]2C)c1
REMARK SMILES IDX 18 1 17 2 16 3 14 4 15 5 13 6 10 7 11 8 85 9 12 10 86 11
REMARK SMILES IDX 8 12 9 13 7 14 1 15 2 16 3 17 87 18 4 19 5 20 6 21 19 22
REMARK SMILES IDX 20 23 21 24 22 25 23 26 84 27 24 28 83 29 25 30 26 31 27 32
REMARK SMILES IDX 77 33 28 34 82 35 76 36 78 37 29 38 81 39 75 40 74 41 30 43
REMARK SMILES IDX 62 44 42 45 61 46 43 47 46 48 60 49 79 50 44 51 45 52 59 54
REMARK SMILES IDX 80 55 47 56 31 57 32 58 40 59 33 60 35 61 41 62 34 63 36 64
REMARK SMILES IDX 37 65 38 66 39 67 63 68 64 69 72 70 65 71 67 72 73 73 66 74
REMARK SMILES IDX 68 75 69 76 70 77 71 78 48 79 49 80 57 81 50 82 52 83 58 84
REMARK SMILES IDX 51 85 53 86 54 87 55 88 56 89
REMARK H PARENT 78 42 46 53
REMARK Flexibility Score: inf
ROOT
ATOM      1  C   UNL A   1      31.264  30.606  25.719  1.00  0.00     0.275 C 
ENDROOT
BRANCH   1   2
ATOM      2  C   UNL A   1      31.082  29.683  24.517  1.00  0.00     0.274 C 
BRANCH   2   3
ATOM      3  O   UNL A   1      32.333  29.079  24.119  1.00  0.00    -0.462 OA
BRANCH   3   4
ATOM      4  C   UNL A   1      32.266  27.753  23.807  1.00  0.00     0.311 C 
ATOM      5  O   UNL A   1      32.940  27.215  22.938  1.00  0.00    -0.252 OA
BRANCH   4   6
ATOM      6  C   UNL A   1      31.143  27.060  24.563  1.00  0.00     0.123 C 
ATOM      7  N   UNL A   1      31.681  24.970  25.578  1.00  0.00    -0.335 N 
ATOM      8  C   UNL A   1      31.486  24.721  24.165  1.00  0.00     0.121 C 
ATOM      9  C   UNL A   1      31.475  26.388  25.913  1.00  0.00     0.096 C 
ATOM     10  C   UNL A   1      30.606  25.881  23.729  1.00  0.00     0.039 C 
ATOM     11  C   UNL A   1      32.628  26.980  26.710  1.00  0.00     0.032 C 
BRANCH   7  12
ATOM     12  C   UNL A   1      31.930  23.886  26.405  1.00  0.00     0.254 C 
ATOM     13  O   UNL A   1      31.245  23.670  27.402  1.00  0.00    -0.269 OA
BRANCH  12  14
ATOM     14  C   UNL A   1      33.164  23.076  26.206  1.00  0.00     0.040 A 
ATOM     15  C   UNL A   1      34.136  19.678  24.788  1.00  0.00     0.044 C 
ATOM     16  C   UNL A   1      34.240  21.063  25.348  1.00  0.00    -0.050 A 
ATOM     17  C   UNL A   1      35.483  21.699  25.446  1.00  0.00     0.006 A 
ATOM     18  C   UNL A   1      33.086  21.773  25.699  1.00  0.00     0.017 A 
ATOM     19  C   UNL A   1      35.580  23.022  25.901  1.00  0.00    -0.050 A 
ATOM     20  C   UNL A   1      36.910  23.720  25.873  1.00  0.00     0.044 C 
ATOM     21  C   UNL A   1      34.416  23.702  26.291  1.00  0.00     0.017 A 
ENDBRANCH  12  14
ENDBRANCH   7  12
ENDBRANCH   4   6
ENDBRANCH   3   4
ENDBRANCH   2   3
ENDBRANCH   1   2
BRANCH   1  22
ATOM     22  O   UNL A   1      32.610  30.494  26.200  1.00  0.00    -0.458 OA
BRANCH  22  23
ATOM     23  C   UNL A   1      33.056  31.518  26.962  1.00  0.00     0.338 C 
ATOM     24  O   UNL A   1      32.459  32.565  27.187  1.00  0.00    -0.246 OA
BRANCH  23  25
ATOM     25  C   UNL A   1      34.374  31.181  27.545  1.00  0.00     0.060 A 
ATOM     26  C   UNL A   1      34.688  29.864  27.887  1.00  0.00     0.016 A 
ATOM     27  C   UNL A   1      35.276  32.201  27.854  1.00  0.00     0.016 A 
ATOM     28  C   UNL A   1      35.850  29.575  28.600  1.00  0.00     0.010 A 
ATOM     29  C   UNL A   1      36.486  31.895  28.490  1.00  0.00     0.010 A 
ATOM     30  C   UNL A   1      36.772  30.581  28.902  1.00  0.00    -0.014 A 
BRANCH  30  31
ATOM     31  C   UNL A   1      37.997  30.269  29.692  1.00  0.00     0.031 A 
ATOM     32  C   UNL A   1      39.082  29.416  29.091  1.00  0.00     0.074 A 
ATOM     33  C   UNL A   1      38.154  30.746  30.943  1.00  0.00     0.049 A 
ATOM     34  N   UNL A   1      40.111  28.853  29.672  1.00  0.00    -0.248 NA
ATOM     35  C   UNL A   1      38.982  29.135  27.649  1.00  0.00     0.031 C 
ATOM     36  C   UNL A   1      37.215  31.625  31.641  1.00  0.00     0.029 A 
ATOM     37  N   UNL A   1      39.166  30.558  31.853  1.00  0.00    -0.354 N 
ATOM     38  C   UNL A   1      40.726  28.083  28.692  1.00  0.00     0.074 A 
ATOM     39  C   UNL A   1      39.961  28.260  27.476  1.00  0.00     0.031 C 
ATOM     40  C   UNL A   1      37.713  31.934  32.848  1.00  0.00     0.029 A 
ATOM     41  C   UNL A   1      38.963  31.208  33.047  1.00  0.00     0.049 A 
ATOM     42  H   UNL A   1      39.963  30.012  31.667  1.00  0.00     0.167 HD
ATOM     43  C   UNL A   1      41.833  27.311  28.793  1.00  0.00     0.034 A 
ATOM     44  C   UNL A   1      39.679  31.198  34.189  1.00  0.00     0.034 A 
ATOM     45  C   UNL A   1      42.656  27.226  29.971  1.00  0.00     0.049 A 
ATOM     46  C   UNL A   1      40.916  30.348  34.272  1.00  0.00     0.074 A 
ATOM     47  C   UNL A   1      43.817  26.494  30.159  1.00  0.00     0.029 A 
ATOM     48  N   UNL A   1      42.427  27.920  31.149  1.00  0.00    -0.354 N 
ATOM     49  N   UNL A   1      41.482  29.619  33.342  1.00  0.00    -0.248 NA
ATOM     50  C   UNL A   1      41.615  30.319  35.565  1.00  0.00     0.031 C 
ATOM     51  C   UNL A   1      44.291  26.749  31.451  1.00  0.00     0.029 A 
ATOM     52  C   UNL A   1      43.427  27.640  32.066  1.00  0.00     0.049 A 
ATOM     53  H   UNL A   1      41.666  28.523  31.309  1.00  0.00     0.167 HD
ATOM     54  C   UNL A   1      42.608  29.056  33.929  1.00  0.00     0.074 A 
ATOM     55  C   UNL A   1      42.661  29.551  35.289  1.00  0.00     0.031 C 
ATOM     56  C   UNL A   1      43.499  28.183  33.399  1.00  0.00     0.034 A 
BRANCH  43  57
ATOM     57  C   UNL A   1      42.239  26.512  27.583  1.00  0.00     0.023 A 
ATOM     58  C   UNL A   1      42.997  27.120  26.563  1.00  0.00     0.012 A 
ATOM     59  C   UNL A   1      41.907  25.147  27.478  1.00  0.00     0.148 A 
ATOM     60  C   UNL A   1      43.390  26.390  25.441  1.00  0.00     0.002 A 
ATOM     61  C   UNL A   1      42.338  24.415  26.376  1.00  0.00     0.091 A 
ATOM     62  F   UNL A   1      41.160  24.590  28.443  1.00  0.00    -0.205 F 
ATOM     63  C   UNL A   1      43.070  25.037  25.353  1.00  0.00     0.022 A 
BRANCH  61  64
ATOM     64  S   UNL A   1      42.034  22.649  26.232  1.00  0.00     0.127 S 
ATOM     65  O   UNL A   1      42.684  22.337  24.961  1.00  0.00    -0.237 OA
ATOM     66  O   UNL A   1      42.715  22.113  27.411  1.00  0.00    -0.237 OA
ATOM     67  O   UNL A   1      40.585  22.501  26.260  1.00  0.00    -0.744 OA
ENDBRANCH  61  64
ENDBRANCH  43  57
BRANCH  44  68
ATOM     68  C   UNL A   1      39.251  32.049  35.336  1.00  0.00     0.023 A 
ATOM     69  C   UNL A   1      38.454  31.481  36.350  1.00  0.00     0.012 A 
ATOM     70  C   UNL A   1      39.676  33.385  35.465  1.00  0.00     0.148 A 
ATOM     71  C   UNL A   1      38.084  32.232  37.466  1.00  0.00     0.002 A 
ATOM     72  C   UNL A   1      39.358  34.107  36.609  1.00  0.00     0.091 A 
ATOM     73  F   UNL A   1      40.408  33.918  34.476  1.00  0.00    -0.205 F 
ATOM     74  C   UNL A   1      38.549  33.537  37.604  1.00  0.00     0.022 A 
BRANCH  72  75
ATOM     75  S   UNL A   1      40.044  35.735  36.937  1.00  0.00     0.127 S 
ATOM     76  O   UNL A   1      39.425  36.069  38.217  1.00  0.00    -0.237 OA
ATOM     77  O   UNL A   1      41.479  35.453  37.002  1.00  0.00    -0.237 OA
ATOM     78  O   UNL A   1      39.650  36.560  35.804  1.00  0.00    -0.744 OA
ENDBRANCH  72  75
ENDBRANCH  44  68
BRANCH  56  79
ATOM     79  C   UNL A   1      44.622  27.712  34.286  1.00  0.00     0.023 A 
ATOM     80  C   UNL A   1      45.829  28.437  34.313  1.00  0.00     0.012 A 
ATOM     81  C   UNL A   1      44.461  26.602  35.136  1.00  0.00     0.148 A 
ATOM     82  C   UNL A   1      46.870  28.049  35.155  1.00  0.00     0.002 A 
ATOM     83  C   UNL A   1      45.489  26.243  36.001  1.00  0.00     0.091 A 
ATOM     84  F   UNL A   1      43.312  25.911  35.080  1.00  0.00    -0.205 F 
ATOM     85  C   UNL A   1      46.697  26.960  36.006  1.00  0.00     0.022 A 
BRANCH  83  86
ATOM     86  S   UNL A   1      45.319  24.902  37.185  1.00  0.00     0.127 S 
ATOM     87  O   UNL A   1      44.159  25.334  37.961  1.00  0.00    -0.237 OA
ATOM     88  O   UNL A   1      45.077  23.746  36.320  1.00  0.00    -0.237 OA
ATOM     89  O   UNL A   1      46.580  24.853  37.912  1.00  0.00    -0.744 OA
ENDBRANCH  83  86
ENDBRANCH  56  79
ENDBRANCH  30  31
ENDBRANCH  23  25
ENDBRANCH  22  23
ENDBRANCH   1  22
TORSDOF 16
ENDMDL
MODEL 3
REMARK VINA RESULT:     -12.2      1.675      2.061
REMARK SMILES Cc1cc(C)cc(C(=O)N2CC[C@H](C(=O)OCCOC(=O)c3ccc(-c4c5nc(c(-c6cccc(S(=O)(=O)[O-])c6F)c6ccc([nH]6)c(-c6cccc(S(=O)(=O)[O-])c6F)c6nc(c(-c7cccc(S(=O)(=O)[O-])c7F)c7ccc4[nH]7)C=C6)C=C5)cc3)[C@@H]2C)c1
REMARK SMILES IDX 18 1 17 2 16 3 14 4 15 5 13 6 10 7 11 8 85 9 12 10 86 11
REMARK SMILES IDX 8 12 9 13 7 14 1 15 2 16 3 17 87 18 4 19 5 20 6 21 19 22
REMARK SMILES IDX 20 23 21 24 22 25 23 26 84 27 24 28 83 29 25 30 26 31 27 32
REMARK SMILES IDX 77 33 28 34 82 35 76 36 78 37 29 38 81 39 75 40 74 41 30 43
REMARK SMILES IDX 62 44 42 45 61 46 43 47 46 48 60 49 79 50 44 51 45 52 59 54
REMARK SMILES IDX 80 55 47 56 31 57 32 58 40 59 33 60 35 61 41 62 34 63 36 64
REMARK SMILES IDX 37 65 38 66 39 67 63 68 64 69 72 70 65 71 67 72 73 73 66 74
REMARK SMILES IDX 68 75 69 76 70 77 71 78 48 79 49 80 57 81 50 82 52 83 58 84
REMARK SMILES IDX 51 85 53 86 54 87 55 88 56 89
REMARK H PARENT 78 42 46 53
REMARK Flexibility Score: inf
ROOT
ATOM      1  C   UNL A   1      36.055  20.644  25.041  1.00  0.00     0.275 C 
ENDROOT
BRANCH   1   2
ATOM      2  C   UNL A   1      35.045  21.237  26.020  1.00  0.00     0.274 C 
BRANCH   2   3
ATOM      3  O   UNL A   1      33.750  21.412  25.403  1.00  0.00    -0.462 OA
BRANCH   3   4
ATOM      4  C   UNL A   1      33.611  22.543  24.653  1.00  0.00     0.311 C 
ATOM      5  O   UNL A   1      33.246  22.554  23.485  1.00  0.00    -0.252 OA
BRANCH   4   6
ATOM      6  C   UNL A   1      34.113  23.769  25.399  1.00  0.00     0.123 C 
ATOM      7  N   UNL A   1      32.708  25.697  25.336  1.00  0.00    -0.335 N 
ATOM      8  C   UNL A   1      33.402  25.632  24.067  1.00  0.00     0.121 C 
ATOM      9  C   UNL A   1      33.098  24.591  26.225  1.00  0.00     0.096 C 
ATOM     10  C   UNL A   1      34.639  24.810  24.391  1.00  0.00     0.039 C 
ATOM     11  C   UNL A   1      31.903  23.837  26.790  1.00  0.00     0.032 C 
BRANCH   7  12
ATOM     12  C   UNL A   1      31.881  26.783  25.575  1.00  0.00     0.254 C 
ATOM     13  O   UNL A   1      30.678  26.738  25.331  1.00  0.00    -0.269 OA
BRANCH  12  14
ATOM     14  C   UNL A   1      32.479  28.095  25.948  1.00  0.00     0.040 A 
ATOM     15  C   UNL A   1      31.342  31.692  26.470  1.00  0.00     0.044 C 
ATOM     16  C   UNL A   1      32.198  30.463  26.457  1.00  0.00    -0.050 A 
ATOM     17  C   UNL A   1      33.475  30.480  27.030  1.00  0.00     0.006 A 
ATOM     18  C   UNL A   1      31.699  29.258  25.950  1.00  0.00     0.017 A 
ATOM     19  C   UNL A   1      34.253  29.315  27.087  1.00  0.00    -0.050 A 
ATOM     20  C   UNL A   1      35.563  29.334  27.823  1.00  0.00     0.044 C 
ATOM     21  C   UNL A   1      33.753  28.127  26.533  1.00  0.00     0.017 A 
ENDBRANCH  12  14
ENDBRANCH   7  12
ENDBRANCH   4   6
ENDBRANCH   3   4
ENDBRANCH   2   3
ENDBRANCH   1   2
BRANCH   1  22
ATOM     22  O   UNL A   1      37.173  21.533  24.920  1.00  0.00    -0.458 OA
BRANCH  22  23
ATOM     23  C   UNL A   1      38.310  21.148  25.543  1.00  0.00     0.338 C 
ATOM     24  O   UNL A   1      38.762  20.008  25.581  1.00  0.00    -0.246 OA
BRANCH  23  25
ATOM     25  C   UNL A   1      38.980  22.320  26.149  1.00  0.00     0.060 A 
ATOM     26  C   UNL A   1      38.444  23.601  26.007  1.00  0.00     0.016 A 
ATOM     27  C   UNL A   1      40.214  22.162  26.782  1.00  0.00     0.016 A 
ATOM     28  C   UNL A   1      39.166  24.720  26.417  1.00  0.00     0.010 A 
ATOM     29  C   UNL A   1      40.896  23.282  27.275  1.00  0.00     0.010 A 
ATOM     30  C   UNL A   1      40.395  24.580  27.068  1.00  0.00    -0.014 A 
BRANCH  30  31
ATOM     31  C   UNL A   1      41.175  25.783  27.475  1.00  0.00     0.031 A 
ATOM     32  C   UNL A   1      40.561  26.799  28.400  1.00  0.00     0.074 A 
ATOM     33  C   UNL A   1      42.433  25.976  27.030  1.00  0.00     0.049 A 
ATOM     34  N   UNL A   1      40.975  28.003  28.701  1.00  0.00    -0.248 NA
ATOM     35  C   UNL A   1      39.297  26.421  29.054  1.00  0.00     0.031 C 
ATOM     36  C   UNL A   1      43.180  25.057  26.170  1.00  0.00     0.029 A 
ATOM     37  N   UNL A   1      43.309  27.012  27.243  1.00  0.00    -0.354 N 
ATOM     38  C   UNL A   1      39.984  28.557  29.503  1.00  0.00     0.074 A 
ATOM     39  C   UNL A   1      38.952  27.552  29.651  1.00  0.00     0.031 C 
ATOM     40  C   UNL A   1      44.411  25.548  25.964  1.00  0.00     0.029 A 
ATOM     41  C   UNL A   1      44.516  26.856  26.602  1.00  0.00     0.049 A 
ATOM     42  H   UNL A   1      43.094  27.793  27.802  1.00  0.00     0.167 HD
ATOM     43  C   UNL A   1      39.943  29.784  30.074  1.00  0.00     0.034 A 
ATOM     44  C   UNL A   1      45.577  27.682  26.507  1.00  0.00     0.034 A 
ATOM     45  C   UNL A   1      41.019  30.738  30.019  1.00  0.00     0.049 A 
ATOM     46  C   UNL A   1      45.517  29.032  27.166  1.00  0.00     0.074 A 
ATOM     47  C   UNL A   1      41.084  31.996  30.594  1.00  0.00     0.029 A 
ATOM     48  N   UNL A   1      42.233  30.528  29.381  1.00  0.00    -0.354 N 
ATOM     49  N   UNL A   1      44.571  29.546  27.913  1.00  0.00    -0.248 NA
ATOM     50  C   UNL A   1      46.673  29.918  26.967  1.00  0.00     0.031 C 
ATOM     51  C   UNL A   1      42.339  32.546  30.304  1.00  0.00     0.029 A 
ATOM     52  C   UNL A   1      43.056  31.630  29.553  1.00  0.00     0.049 A 
ATOM     53  H   UNL A   1      42.473  29.715  28.880  1.00  0.00     0.167 HD
ATOM     54  C   UNL A   1      45.021  30.807  28.285  1.00  0.00     0.074 A 
ATOM     55  C   UNL A   1      46.338  30.968  27.705  1.00  0.00     0.031 C 
ATOM     56  C   UNL A   1      44.386  31.756  29.016  1.00  0.00     0.034 A 
BRANCH  43  57
ATOM     57  C   UNL A   1      38.699  30.158  30.834  1.00  0.00     0.023 A 
ATOM     58  C   UNL A   1      38.457  29.594  32.103  1.00  0.00     0.012 A 
ATOM     59  C   UNL A   1      37.792  31.102  30.312  1.00  0.00     0.148 A 
ATOM     60  C   UNL A   1      37.314  29.940  32.825  1.00  0.00     0.002 A 
ATOM     61  C   UNL A   1      36.678  31.472  31.056  1.00  0.00     0.091 A 
ATOM     62  F   UNL A   1      38.022  31.607  29.091  1.00  0.00    -0.205 F 
ATOM     63  C   UNL A   1      36.432  30.885  32.307  1.00  0.00     0.022 A 
BRANCH  61  64
ATOM     64  S   UNL A   1      35.539  32.743  30.491  1.00  0.00     0.127 S 
ATOM     65  O   UNL A   1      34.435  32.598  31.438  1.00  0.00    -0.237 OA
ATOM     66  O   UNL A   1      36.323  33.967  30.655  1.00  0.00    -0.237 OA
ATOM     67  O   UNL A   1      35.238  32.406  29.106  1.00  0.00    -0.744 OA
ENDBRANCH  61  64
ENDBRANCH  43  57
BRANCH  44  68
ATOM     68  C   UNL A   1      46.798  27.233  25.780  1.00  0.00     0.023 A 
ATOM     69  C   UNL A   1      47.654  26.297  26.392  1.00  0.00     0.012 A 
ATOM     70  C   UNL A   1      47.082  27.669  24.471  1.00  0.00     0.148 A 
ATOM     71  C   UNL A   1      48.774  25.810  25.718  1.00  0.00     0.002 A 
ATOM     72  C   UNL A   1      48.163  27.133  23.781  1.00  0.00     0.091 A 
ATOM     73  F   UNL A   1      46.274  28.583  23.915  1.00  0.00    -0.205 F 
ATOM     74  C   UNL A   1      49.019  26.214  24.407  1.00  0.00     0.022 A 
BRANCH  72  75
ATOM     75  S   UNL A   1      48.458  27.480  22.043  1.00  0.00     0.127 S 
ATOM     76  O   UNL A   1      48.643  26.139  21.496  1.00  0.00    -0.237 OA
ATOM     77  O   UNL A   1      47.211  28.140  21.649  1.00  0.00    -0.237 OA
ATOM     78  O   UNL A   1      49.627  28.348  22.011  1.00  0.00    -0.744 OA
ENDBRANCH  72  75
ENDBRANCH  44  68
BRANCH  56  79
ATOM     79  C   UNL A   1      45.111  33.057  29.243  1.00  0.00     0.023 A 
ATOM     80  C   UNL A   1      45.931  33.199  30.380  1.00  0.00     0.012 A 
ATOM     81  C   UNL A   1      45.036  34.105  28.307  1.00  0.00     0.148 A 
ATOM     82  C   UNL A   1      46.646  34.377  30.594  1.00  0.00     0.002 A 
ATOM     83  C   UNL A   1      45.782  35.262  28.508  1.00  0.00     0.091 A 
ATOM     84  F   UNL A   1      44.234  33.959  27.242  1.00  0.00    -0.205 F 
ATOM     85  C   UNL A   1      46.581  35.403  29.654  1.00  0.00     0.022 A 
BRANCH  83  86
ATOM     86  S   UNL A   1      45.818  36.598  27.306  1.00  0.00     0.127 S 
ATOM     87  O   UNL A   1      46.071  35.875  26.062  1.00  0.00    -0.237 OA
ATOM     88  O   UNL A   1      44.471  37.160  27.421  1.00  0.00    -0.237 OA
ATOM     89  O   UNL A   1      46.880  37.494  27.742  1.00  0.00    -0.744 OA
ENDBRANCH  83  86
ENDBRANCH  56  79
ENDBRANCH  30  31
ENDBRANCH  23  25
ENDBRANCH  22  23
ENDBRANCH   1  22
TORSDOF 16
ENDMDL
