MODEL 1
REMARK VINA RESULT:     -12.0      0.000      0.000
REMARK SMILES CC[C@@](C)(NC(=O)/C=C/c1cccc(F)c1)C(=O)OCCOC(=O)c1ccc(-c2c3nc(c(-c4cccc(S(=O)(=O)[O-])c4F)c4ccc([nH]4)c(-c4cccc(S(=O)(=O)[O-])c4F)c4nc(c(-c5cccc(S(=O)(=O)[O-])c5F)c5ccc2[nH]5)C=C4)C=C3)cc1
REMARK SMILES IDX 20 1 19 2 17 3 18 4 3 5 4 6 2 7 1 8 5 9 6 10 7 12 8 13 9 14
REMARK SMILES IDX 10 15 11 16 16 17 12 18 14 19 13 20 15 21 21 22 22 23 23 24
REMARK SMILES IDX 24 25 25 26 26 27 87 28 27 29 86 30 28 31 29 32 30 33 80 34
REMARK SMILES IDX 31 35 85 36 79 37 81 38 32 39 84 40 78 41 77 42 33 44 65 45
REMARK SMILES IDX 45 46 64 47 46 48 49 49 63 50 82 51 47 52 48 53 62 55 83 56
REMARK SMILES IDX 50 57 34 58 35 59 43 60 36 61 38 62 44 63 37 64 39 65 40 66
REMARK SMILES IDX 41 67 42 68 66 69 67 70 75 71 68 72 70 73 76 74 69 75 71 76
REMARK SMILES IDX 72 77 73 78 74 79 51 80 52 81 60 82 53 83 55 84 61 85 54 86
REMARK SMILES IDX 56 87 57 88 58 89 59 90
REMARK H PARENT 5 11 81 43 49 54
REMARK Flexibility Score: inf
ROOT
ATOM      1  C   UNL A   1      33.486  22.108  26.090  1.00  0.00     0.274 C 
ENDROOT
BRANCH   1   2
ATOM      2  O   UNL A   1      32.413  23.050  25.608  1.00  0.00    -0.460 OA
BRANCH   2   3
ATOM      3  C   UNL A   1      31.710  23.990  26.407  1.00  0.00     0.331 C 
ATOM      4  O   UNL A   1      31.074  23.682  27.407  1.00  0.00    -0.249 OA
BRANCH   3   5
ATOM      5  C   UNL A   1      31.827  25.557  25.834  1.00  0.00     0.135 C 
ATOM      6  C   UNL A   1      30.438  25.960  25.329  1.00  0.00     0.047 C 
BRANCH   5   7
ATOM      7  C   UNL A   1      32.416  26.846  26.549  1.00  0.00     0.037 C 
ATOM      8  C   UNL A   1      31.590  27.818  27.348  1.00  0.00     0.007 C 
ENDBRANCH   5   7
BRANCH   5   9
ATOM      9  N   UNL A   1      32.787  25.425  24.763  1.00  0.00    -0.337 N 
ATOM     10  C   UNL A   1      32.583  26.133  23.597  1.00  0.00     0.244 C 
ATOM     11  H   UNL A   1      33.572  24.840  24.864  1.00  0.00     0.164 HD
ATOM     12  O   UNL A   1      33.344  25.984  22.679  1.00  0.00    -0.270 OA
BRANCH  10  13
ATOM     13  C   UNL A   1      31.595  27.340  23.706  1.00  0.00     0.072 C 
ATOM     14  C   UNL A   1      31.326  28.667  23.589  1.00  0.00     0.014 C 
BRANCH  14  15
ATOM     15  C   UNL A   1      29.937  29.279  23.483  1.00  0.00    -0.023 A 
ATOM     16  C   UNL A   1      28.776  28.587  23.106  1.00  0.00     0.008 A 
ATOM     17  C   UNL A   1      29.763  30.655  23.712  1.00  0.00     0.047 A 
ATOM     18  C   UNL A   1      27.559  29.231  22.805  1.00  0.00     0.004 A 
ATOM     19  C   UNL A   1      28.543  31.299  23.438  1.00  0.00     0.123 A 
ATOM     20  C   UNL A   1      27.447  30.603  22.955  1.00  0.00     0.039 A 
ATOM     21  F   UNL A   1      28.443  32.624  23.609  1.00  0.00    -0.207 F 
ENDBRANCH  14  15
ENDBRANCH  10  13
ENDBRANCH   5   9
ENDBRANCH   3   5
ENDBRANCH   2   3
ENDBRANCH   1   2
BRANCH   1  22
ATOM     22  C   UNL A   1      35.049  22.318  25.496  1.00  0.00     0.275 C 
BRANCH  22  23
ATOM     23  O   UNL A   1      36.179  21.384  25.951  1.00  0.00    -0.458 OA
BRANCH  23  24
ATOM     24  C   UNL A   1      37.488  21.415  25.452  1.00  0.00     0.338 C 
ATOM     25  O   UNL A   1      37.828  20.787  24.462  1.00  0.00    -0.246 OA
BRANCH  24  26
ATOM     26  C   UNL A   1      38.445  22.463  26.130  1.00  0.00     0.060 A 
ATOM     27  C   UNL A   1      38.158  23.844  26.100  1.00  0.00     0.016 A 
ATOM     28  C   UNL A   1      39.660  22.158  26.749  1.00  0.00     0.016 A 
ATOM     29  C   UNL A   1      38.856  24.842  26.823  1.00  0.00     0.010 A 
ATOM     30  C   UNL A   1      40.458  23.182  27.374  1.00  0.00     0.010 A 
ATOM     31  C   UNL A   1      40.054  24.536  27.451  1.00  0.00    -0.014 A 
BRANCH  31  32
ATOM     32  C   UNL A   1      40.995  25.653  27.848  1.00  0.00     0.031 A 
ATOM     33  C   UNL A   1      40.421  26.756  28.714  1.00  0.00     0.074 A 
ATOM     34  C   UNL A   1      42.321  25.722  27.578  1.00  0.00     0.049 A 
ATOM     35  N   UNL A   1      40.897  27.945  28.986  1.00  0.00    -0.248 NA
ATOM     36  C   UNL A   1      39.140  26.459  29.375  1.00  0.00     0.031 C 
ATOM     37  C   UNL A   1      43.132  24.686  26.946  1.00  0.00     0.029 A 
ATOM     38  N   UNL A   1      43.228  26.750  27.801  1.00  0.00    -0.354 N 
ATOM     39  C   UNL A   1      39.936  28.563  29.781  1.00  0.00     0.074 A 
ATOM     40  C   UNL A   1      38.876  27.602  29.989  1.00  0.00     0.031 C 
ATOM     41  C   UNL A   1      44.392  25.143  26.787  1.00  0.00     0.029 A 
ATOM     42  C   UNL A   1      44.474  26.533  27.244  1.00  0.00     0.049 A 
ATOM     43  H   UNL A   1      43.003  27.561  28.310  1.00  0.00     0.167 HD
ATOM     44  C   UNL A   1      39.922  29.819  30.284  1.00  0.00     0.034 A 
ATOM     45  C   UNL A   1      45.533  27.363  27.069  1.00  0.00     0.034 A 
ATOM     46  C   UNL A   1      40.983  30.775  30.136  1.00  0.00     0.049 A 
ATOM     47  C   UNL A   1      45.452  28.808  27.531  1.00  0.00     0.074 A 
ATOM     48  C   UNL A   1      41.018  32.090  30.571  1.00  0.00     0.029 A 
ATOM     49  N   UNL A   1      42.201  30.522  29.530  1.00  0.00    -0.354 N 
ATOM     50  N   UNL A   1      44.513  29.408  28.219  1.00  0.00    -0.248 NA
ATOM     51  C   UNL A   1      46.586  29.692  27.191  1.00  0.00     0.031 C 
ATOM     52  C   UNL A   1      42.250  32.639  30.210  1.00  0.00     0.029 A 
ATOM     53  C   UNL A   1      42.995  31.655  29.583  1.00  0.00     0.049 A 
ATOM     54  H   UNL A   1      42.462  29.666  29.123  1.00  0.00     0.167 HD
ATOM     55  C   UNL A   1      44.958  30.715  28.426  1.00  0.00     0.074 A 
ATOM     56  C   UNL A   1      46.261  30.818  27.813  1.00  0.00     0.031 C 
ATOM     57  C   UNL A   1      44.328  31.742  29.050  1.00  0.00     0.034 A 
BRANCH  44  58
ATOM     58  C   UNL A   1      38.698  30.264  31.036  1.00  0.00     0.023 A 
ATOM     59  C   UNL A   1      38.640  30.123  32.435  1.00  0.00     0.012 A 
ATOM     60  C   UNL A   1      37.657  30.928  30.358  1.00  0.00     0.148 A 
ATOM     61  C   UNL A   1      37.557  30.633  33.149  1.00  0.00     0.002 A 
ATOM     62  C   UNL A   1      36.605  31.476  31.081  1.00  0.00     0.091 A 
ATOM     63  F   UNL A   1      37.731  31.033  29.023  1.00  0.00    -0.205 F 
ATOM     64  C   UNL A   1      36.550  31.321  32.475  1.00  0.00     0.022 A 
BRANCH  62  65
ATOM     65  S   UNL A   1      35.310  32.457  30.317  1.00  0.00     0.127 S 
ATOM     66  O   UNL A   1      36.049  33.647  29.896  1.00  0.00    -0.237 OA
ATOM     67  O   UNL A   1      34.876  31.588  29.224  1.00  0.00    -0.237 OA
ATOM     68  O   UNL A   1      34.311  32.689  31.352  1.00  0.00    -0.744 OA
ENDBRANCH  62  65
ENDBRANCH  44  58
BRANCH  45  69
ATOM     69  C   UNL A   1      46.782  26.901  26.372  1.00  0.00     0.023 A 
ATOM     70  C   UNL A   1      46.853  26.930  24.962  1.00  0.00     0.012 A 
ATOM     71  C   UNL A   1      47.868  26.360  27.089  1.00  0.00     0.148 A 
ATOM     72  C   UNL A   1      47.958  26.402  24.285  1.00  0.00     0.002 A 
ATOM     73  C   UNL A   1      48.994  25.896  26.412  1.00  0.00     0.091 A 
ATOM     74  F   UNL A   1      47.773  26.284  28.424  1.00  0.00    -0.205 F 
ATOM     75  C   UNL A   1      49.033  25.897  25.010  1.00  0.00     0.022 A 
BRANCH  73  76
ATOM     76  S   UNL A   1      50.475  25.346  27.269  1.00  0.00     0.127 S 
ATOM     77  O   UNL A   1      49.978  24.196  28.020  1.00  0.00    -0.237 OA
ATOM     78  O   UNL A   1      51.361  25.015  26.152  1.00  0.00    -0.237 OA
ATOM     79  O   UNL A   1      50.912  26.483  28.066  1.00  0.00    -0.744 OA
ENDBRANCH  73  76
ENDBRANCH  45  69
BRANCH  57  80
ATOM     80  C   UNL A   1      45.040  33.068  29.174  1.00  0.00     0.023 A 
ATOM     81  C   UNL A   1      45.847  33.333  30.299  1.00  0.00     0.012 A 
ATOM     82  C   UNL A   1      45.000  34.006  28.122  1.00  0.00     0.148 A 
ATOM     83  C   UNL A   1      46.577  34.520  30.386  1.00  0.00     0.002 A 
ATOM     84  C   UNL A   1      45.770  35.163  28.193  1.00  0.00     0.091 A 
ATOM     85  F   UNL A   1      44.219  33.746  27.064  1.00  0.00    -0.205 F 
ATOM     86  C   UNL A   1      46.550  35.426  29.329  1.00  0.00     0.022 A 
BRANCH  84  87
ATOM     87  S   UNL A   1      45.880  36.337  26.835  1.00  0.00     0.127 S 
ATOM     88  O   UNL A   1      47.057  37.118  27.212  1.00  0.00    -0.237 OA
ATOM     89  O   UNL A   1      46.075  35.460  25.680  1.00  0.00    -0.237 OA
ATOM     90  O   UNL A   1      44.620  37.068  26.833  1.00  0.00    -0.744 OA
ENDBRANCH  84  87
ENDBRANCH  57  80
ENDBRANCH  31  32
ENDBRANCH  24  26
ENDBRANCH  23  24
ENDBRANCH  22  23
ENDBRANCH   1  22
TORSDOF 18
ENDMDL
MODEL 2
REMARK VINA RESULT:     -11.5      5.044      7.642
REMARK SMILES CC[C@@](C)(NC(=O)/C=C/c1cccc(F)c1)C(=O)OCCOC(=O)c1ccc(-c2c3nc(c(-c4cccc(S(=O)(=O)[O-])c4F)c4ccc([nH]4)c(-c4cccc(S(=O)(=O)[O-])c4F)c4nc(c(-c5cccc(S(=O)(=O)[O-])c5F)c5ccc2[nH]5)C=C4)C=C3)cc1
REMARK SMILES IDX 20 1 19 2 17 3 18 4 3 5 4 6 2 7 1 8 5 9 6 10 7 12 8 13 9 14
REMARK SMILES IDX 10 15 11 16 16 17 12 18 14 19 13 20 15 21 21 22 22 23 23 24
REMARK SMILES IDX 24 25 25 26 26 27 87 28 27 29 86 30 28 31 29 32 30 33 80 34
REMARK SMILES IDX 31 35 85 36 79 37 81 38 32 39 84 40 78 41 77 42 33 44 65 45
REMARK SMILES IDX 45 46 64 47 46 48 49 49 63 50 82 51 47 52 48 53 62 55 83 56
REMARK SMILES IDX 50 57 34 58 35 59 43 60 36 61 38 62 44 63 37 64 39 65 40 66
REMARK SMILES IDX 41 67 42 68 66 69 67 70 75 71 68 72 70 73 76 74 69 75 71 76
REMARK SMILES IDX 72 77 73 78 74 79 51 80 52 81 60 82 53 83 55 84 61 85 54 86
REMARK SMILES IDX 56 87 57 88 58 89 59 90
REMARK H PARENT 5 11 81 43 49 54
REMARK Flexibility Score: inf
ROOT
ATOM      1  C   UNL A   1      31.961  30.692  26.710  1.00  0.00     0.274 C 
ENDROOT
BRANCH   1   2
ATOM      2  O   UNL A   1      31.418  29.853  25.581  1.00  0.00    -0.460 OA
BRANCH   2   3
ATOM      3  C   UNL A   1      31.559  28.446  25.448  1.00  0.00     0.331 C 
ATOM      4  O   UNL A   1      31.237  27.651  26.321  1.00  0.00    -0.249 OA
BRANCH   3   5
ATOM      5  C   UNL A   1      32.225  27.989  23.983  1.00  0.00     0.135 C 
ATOM      6  C   UNL A   1      31.710  28.969  22.925  1.00  0.00     0.047 C 
BRANCH   5   7
ATOM      7  C   UNL A   1      33.744  27.715  23.613  1.00  0.00     0.037 C 
ATOM      8  C   UNL A   1      34.401  28.187  22.344  1.00  0.00     0.007 C 
ENDBRANCH   5   7
BRANCH   5   9
ATOM      9  N   UNL A   1      31.698  26.656  23.804  1.00  0.00    -0.337 N 
ATOM     10  C   UNL A   1      30.344  26.502  23.588  1.00  0.00     0.244 C 
ATOM     11  H   UNL A   1      32.293  25.873  23.837  1.00  0.00     0.164 HD
ATOM     12  O   UNL A   1      29.887  25.393  23.497  1.00  0.00    -0.270 OA
BRANCH  10  13
ATOM     13  C   UNL A   1      29.587  27.784  23.112  1.00  0.00     0.072 C 
ATOM     14  C   UNL A   1      28.501  28.601  23.144  1.00  0.00     0.014 C 
BRANCH  14  15
ATOM     15  C   UNL A   1      28.474  30.050  22.680  1.00  0.00    -0.023 A 
ATOM     16  C   UNL A   1      28.677  31.165  23.506  1.00  0.00     0.008 A 
ATOM     17  C   UNL A   1      28.166  30.347  21.342  1.00  0.00     0.047 A 
ATOM     18  C   UNL A   1      28.425  32.488  23.090  1.00  0.00     0.004 A 
ATOM     19  C   UNL A   1      27.939  31.668  20.914  1.00  0.00     0.123 A 
ATOM     20  C   UNL A   1      28.036  32.740  21.785  1.00  0.00     0.039 A 
ATOM     21  F   UNL A   1      27.584  31.898  19.642  1.00  0.00    -0.207 F 
ENDBRANCH  14  15
ENDBRANCH  10  13
ENDBRANCH   5   9
ENDBRANCH   3   5
ENDBRANCH   2   3
ENDBRANCH   1   2
BRANCH   1  22
ATOM     22  C   UNL A   1      31.412  32.279  26.848  1.00  0.00     0.275 C 
BRANCH  22  23
ATOM     23  O   UNL A   1      32.412  33.445  26.830  1.00  0.00    -0.458 OA
BRANCH  23  24
ATOM     24  C   UNL A   1      33.060  33.955  27.963  1.00  0.00     0.338 C 
ATOM     25  O   UNL A   1      32.585  34.850  28.643  1.00  0.00    -0.246 OA
BRANCH  24  26
ATOM     26  C   UNL A   1      34.346  33.170  28.417  1.00  0.00     0.060 A 
ATOM     27  C   UNL A   1      34.285  31.803  28.759  1.00  0.00     0.016 A 
ATOM     28  C   UNL A   1      35.613  33.733  28.584  1.00  0.00     0.016 A 
ATOM     29  C   UNL A   1      35.405  30.970  29.009  1.00  0.00     0.010 A 
ATOM     30  C   UNL A   1      36.744  32.928  28.973  1.00  0.00     0.010 A 
ATOM     31  C   UNL A   1      36.666  31.527  29.159  1.00  0.00    -0.014 A 
BRANCH  31  32
ATOM     32  C   UNL A   1      37.760  30.725  29.830  1.00  0.00     0.031 A 
ATOM     33  C   UNL A   1      38.037  31.030  31.287  1.00  0.00     0.074 A 
ATOM     34  C   UNL A   1      38.459  29.702  29.282  1.00  0.00     0.049 A 
ATOM     35  N   UNL A   1      39.060  30.705  32.036  1.00  0.00    -0.248 NA
ATOM     36  C   UNL A   1      36.999  31.796  31.997  1.00  0.00     0.031 C 
ATOM     37  C   UNL A   1      38.226  29.095  27.974  1.00  0.00     0.029 A 
ATOM     38  N   UNL A   1      39.545  28.993  29.777  1.00  0.00    -0.354 N 
ATOM     39  C   UNL A   1      38.826  31.293  33.274  1.00  0.00     0.074 A 
ATOM     40  C   UNL A   1      37.542  31.953  33.194  1.00  0.00     0.031 C 
ATOM     41  C   UNL A   1      39.163  28.149  27.751  1.00  0.00     0.029 A 
ATOM     42  C   UNL A   1      40.110  28.118  28.867  1.00  0.00     0.049 A 
ATOM     43  H   UNL A   1      39.884  29.103  30.694  1.00  0.00     0.167 HD
ATOM     44  C   UNL A   1      39.608  31.302  34.379  1.00  0.00     0.034 A 
ATOM     45  C   UNL A   1      41.274  27.422  28.900  1.00  0.00     0.034 A 
ATOM     46  C   UNL A   1      40.862  30.613  34.503  1.00  0.00     0.049 A 
ATOM     47  C   UNL A   1      42.200  27.541  30.099  1.00  0.00     0.074 A 
ATOM     48  C   UNL A   1      41.740  30.620  35.574  1.00  0.00     0.029 A 
ATOM     49  N   UNL A   1      41.408  29.780  33.544  1.00  0.00    -0.354 N 
ATOM     50  N   UNL A   1      42.007  28.156  31.239  1.00  0.00    -0.248 NA
ATOM     51  C   UNL A   1      43.509  26.863  30.013  1.00  0.00     0.031 C 
ATOM     52  C   UNL A   1      42.829  29.807  35.254  1.00  0.00     0.029 A 
ATOM     53  C   UNL A   1      42.610  29.265  33.999  1.00  0.00     0.049 A 
ATOM     54  H   UNL A   1      41.003  29.583  32.669  1.00  0.00     0.167 HD
ATOM     55  C   UNL A   1      43.142  27.908  32.012  1.00  0.00     0.074 A 
ATOM     56  C   UNL A   1      44.012  27.066  31.224  1.00  0.00     0.031 C 
ATOM     57  C   UNL A   1      43.442  28.358  33.256  1.00  0.00     0.034 A 
BRANCH  44  58
ATOM     58  C   UNL A   1      39.148  32.109  35.562  1.00  0.00     0.023 A 
ATOM     59  C   UNL A   1      38.326  31.521  36.541  1.00  0.00     0.012 A 
ATOM     60  C   UNL A   1      39.634  33.418  35.753  1.00  0.00     0.148 A 
ATOM     61  C   UNL A   1      37.988  32.228  37.693  1.00  0.00     0.002 A 
ATOM     62  C   UNL A   1      39.333  34.098  36.926  1.00  0.00     0.091 A 
ATOM     63  F   UNL A   1      40.401  33.959  34.795  1.00  0.00    -0.205 F 
ATOM     64  C   UNL A   1      38.503  33.508  37.892  1.00  0.00     0.022 A 
BRANCH  62  65
ATOM     65  S   UNL A   1      40.020  35.710  37.316  1.00  0.00     0.127 S 
ATOM     66  O   UNL A   1      39.648  36.485  36.132  1.00  0.00    -0.237 OA
ATOM     67  O   UNL A   1      39.289  36.065  38.532  1.00  0.00    -0.237 OA
ATOM     68  O   UNL A   1      41.452  35.510  37.495  1.00  0.00    -0.744 OA
ENDBRANCH  62  65
ENDBRANCH  44  58
BRANCH  45  69
ATOM     69  C   UNL A   1      41.705  26.565  27.743  1.00  0.00     0.023 A 
ATOM     70  C   UNL A   1      42.337  27.155  26.626  1.00  0.00     0.012 A 
ATOM     71  C   UNL A   1      41.424  25.184  27.704  1.00  0.00     0.148 A 
ATOM     72  C   UNL A   1      42.645  26.400  25.490  1.00  0.00     0.002 A 
ATOM     73  C   UNL A   1      41.795  24.423  26.597  1.00  0.00     0.091 A 
ATOM     74  F   UNL A   1      40.776  24.639  28.743  1.00  0.00    -0.205 F 
ATOM     75  C   UNL A   1      42.385  25.033  25.480  1.00  0.00     0.022 A 
BRANCH  73  76
ATOM     76  S   UNL A   1      41.613  22.636  26.551  1.00  0.00     0.127 S 
ATOM     77  O   UNL A   1      40.162  22.482  26.496  1.00  0.00    -0.237 OA
ATOM     78  O   UNL A   1      42.316  22.296  25.313  1.00  0.00    -0.237 OA
ATOM     79  O   UNL A   1      42.258  22.146  27.762  1.00  0.00    -0.744 OA
ENDBRANCH  73  76
ENDBRANCH  45  69
BRANCH  57  80
ATOM     80  C   UNL A   1      44.735  27.917  33.900  1.00  0.00     0.023 A 
ATOM     81  C   UNL A   1      45.883  28.731  33.810  1.00  0.00     0.012 A 
ATOM     82  C   UNL A   1      44.781  26.751  34.693  1.00  0.00     0.148 A 
ATOM     83  C   UNL A   1      47.059  28.377  34.472  1.00  0.00     0.002 A 
ATOM     84  C   UNL A   1      45.942  26.432  35.391  1.00  0.00     0.091 A 
ATOM     85  F   UNL A   1      43.687  25.981  34.760  1.00  0.00    -0.205 F 
ATOM     86  C   UNL A   1      47.085  27.237  35.273  1.00  0.00     0.022 A 
BRANCH  84  87
ATOM     87  S   UNL A   1      46.035  25.042  36.528  1.00  0.00     0.127 S 
ATOM     88  O   UNL A   1      45.780  23.911  35.638  1.00  0.00    -0.237 OA
ATOM     89  O   UNL A   1      47.411  25.132  37.019  1.00  0.00    -0.237 OA
ATOM     90  O   UNL A   1      45.015  25.282  37.540  1.00  0.00    -0.744 OA
ENDBRANCH  84  87
ENDBRANCH  57  80
ENDBRANCH  31  32
ENDBRANCH  24  26
ENDBRANCH  23  24
ENDBRANCH  22  23
ENDBRANCH   1  22
TORSDOF 18
ENDMDL
MODEL 3
REMARK VINA RESULT:     -11.5      1.455      2.203
REMARK SMILES CC[C@@](C)(NC(=O)/C=C/c1cccc(F)c1)C(=O)OCCOC(=O)c1ccc(-c2c3nc(c(-c4cccc(S(=O)(=O)[O-])c4F)c4ccc([nH]4)c(-c4cccc(S(=O)(=O)[O-])c4F)c4nc(c(-c5cccc(S(=O)(=O)[O-])c5F)c5ccc2[nH]5)C=C4)C=C3)cc1
REMARK SMILES IDX 20 1 19 2 17 3 18 4 3 5 4 6 2 7 1 8 5 9 6 10 7 12 8 13 9 14
REMARK SMILES IDX 10 15 11 16 16 17 12 18 14 19 13 20 15 21 21 22 22 23 23 24
REMARK SMILES IDX 24 25 25 26 26 27 87 28 27 29 86 30 28 31 29 32 30 33 80 34
REMARK SMILES IDX 31 35 85 36 79 37 81 38 32 39 84 40 78 41 77 42 33 44 65 45
REMARK SMILES IDX 45 46 64 47 46 48 49 49 63 50 82 51 47 52 48 53 62 55 83 56
REMARK SMILES IDX 50 57 34 58 35 59 43 60 36 61 38 62 44 63 37 64 39 65 40 66
REMARK SMILES IDX 41 67 42 68 66 69 67 70 75 71 68 72 70 73 76 74 69 75 71 76
REMARK SMILES IDX 72 77 73 78 74 79 51 80 52 81 60 82 53 83 55 84 61 85 54 86
REMARK SMILES IDX 56 87 57 88 58 89 59 90
REMARK H PARENT 5 11 81 43 49 54
REMARK Flexibility Score: inf
ROOT
ATOM      1  C   UNL A   1      33.494  21.164  25.352  1.00  0.00     0.274 C 
ENDROOT
BRANCH   1   2
ATOM      2  O   UNL A   1      32.326  21.748  24.597  1.00  0.00    -0.460 OA
BRANCH   2   3
ATOM      3  C   UNL A   1      31.344  22.624  25.132  1.00  0.00     0.331 C 
ATOM      4  O   UNL A   1      30.432  22.252  25.858  1.00  0.00    -0.249 OA
BRANCH   3   5
ATOM      5  C   UNL A   1      31.554  24.214  24.655  1.00  0.00     0.135 C 
ATOM      6  C   UNL A   1      31.944  25.013  25.901  1.00  0.00     0.047 C 
BRANCH   5   7
ATOM      7  C   UNL A   1      32.439  24.798  23.474  1.00  0.00     0.037 C 
ATOM      8  C   UNL A   1      32.938  23.982  22.311  1.00  0.00     0.007 C 
ENDBRANCH   5   7
BRANCH   5   9
ATOM      9  N   UNL A   1      30.244  24.565  24.160  1.00  0.00    -0.337 N 
ATOM     10  C   UNL A   1      29.811  25.868  24.295  1.00  0.00     0.244 C 
ATOM     11  H   UNL A   1      29.671  23.888  23.735  1.00  0.00     0.164 HD
ATOM     12  O   UNL A   1      28.699  26.157  23.941  1.00  0.00    -0.270 OA
BRANCH  10  13
ATOM     13  C   UNL A   1      30.932  26.927  24.556  1.00  0.00     0.072 C 
ATOM     14  C   UNL A   1      31.485  28.148  24.332  1.00  0.00     0.014 C 
BRANCH  14  15
ATOM     15  C   UNL A   1      32.500  28.834  25.233  1.00  0.00    -0.023 A 
ATOM     16  C   UNL A   1      33.739  28.295  25.610  1.00  0.00     0.008 A 
ATOM     17  C   UNL A   1      32.194  30.081  25.805  1.00  0.00     0.047 A 
ATOM     18  C   UNL A   1      34.550  28.858  26.617  1.00  0.00     0.004 A 
ATOM     19  C   UNL A   1      33.012  30.661  26.791  1.00  0.00     0.123 A 
ATOM     20  C   UNL A   1      34.174  30.043  27.225  1.00  0.00     0.039 A 
ATOM     21  F   UNL A   1      32.646  31.819  27.356  1.00  0.00    -0.207 F 
ENDBRANCH  14  15
ENDBRANCH  10  13
ENDBRANCH   5   9
ENDBRANCH   3   5
ENDBRANCH   2   3
ENDBRANCH   1   2
BRANCH   1  22
ATOM     22  C   UNL A   1      35.046  21.501  24.787  1.00  0.00     0.275 C 
BRANCH  22  23
ATOM     23  O   UNL A   1      36.159  21.880  25.775  1.00  0.00    -0.458 OA
BRANCH  23  24
ATOM     24  C   UNL A   1      37.526  21.668  25.553  1.00  0.00     0.338 C 
ATOM     25  O   UNL A   1      37.941  20.825  24.773  1.00  0.00    -0.246 OA
BRANCH  24  26
ATOM     26  C   UNL A   1      38.491  22.713  26.224  1.00  0.00     0.060 A 
ATOM     27  C   UNL A   1      38.191  24.091  26.224  1.00  0.00     0.016 A 
ATOM     28  C   UNL A   1      39.723  22.409  26.808  1.00  0.00     0.016 A 
ATOM     29  C   UNL A   1      38.898  25.084  26.946  1.00  0.00     0.010 A 
ATOM     30  C   UNL A   1      40.528  23.430  27.430  1.00  0.00     0.010 A 
ATOM     31  C   UNL A   1      40.114  24.779  27.540  1.00  0.00    -0.014 A 
BRANCH  31  32
ATOM     32  C   UNL A   1      41.054  25.898  27.932  1.00  0.00     0.031 A 
ATOM     33  C   UNL A   1      40.497  26.974  28.839  1.00  0.00     0.074 A 
ATOM     34  C   UNL A   1      42.370  25.988  27.621  1.00  0.00     0.049 A 
ATOM     35  N   UNL A   1      40.967  28.162  29.123  1.00  0.00    -0.248 NA
ATOM     36  C   UNL A   1      39.241  26.648  29.535  1.00  0.00     0.031 C 
ATOM     37  C   UNL A   1      43.172  24.976  26.940  1.00  0.00     0.029 A 
ATOM     38  N   UNL A   1      43.273  27.021  27.838  1.00  0.00    -0.354 N 
ATOM     39  C   UNL A   1      40.026  28.752  29.962  1.00  0.00     0.074 A 
ATOM     40  C   UNL A   1      38.984  27.774  30.182  1.00  0.00     0.031 C 
ATOM     41  C   UNL A   1      44.421  25.452  26.751  1.00  0.00     0.029 A 
ATOM     42  C   UNL A   1      44.503  26.831  27.237  1.00  0.00     0.049 A 
ATOM     43  H   UNL A   1      43.055  27.819  28.372  1.00  0.00     0.167 HD
ATOM     44  C   UNL A   1      40.014  29.996  30.493  1.00  0.00     0.034 A 
ATOM     45  C   UNL A   1      45.546  27.678  27.047  1.00  0.00     0.034 A 
ATOM     46  C   UNL A   1      41.060  30.967  30.333  1.00  0.00     0.049 A 
ATOM     47  C   UNL A   1      45.464  29.112  27.543  1.00  0.00     0.074 A 
ATOM     48  C   UNL A   1      41.094  32.272  30.796  1.00  0.00     0.029 A 
ATOM     49  N   UNL A   1      42.260  30.742  29.684  1.00  0.00    -0.354 N 
ATOM     50  N   UNL A   1      44.541  29.685  28.275  1.00  0.00    -0.248 NA
ATOM     51  C   UNL A   1      46.576  30.016  27.188  1.00  0.00     0.031 C 
ATOM     52  C   UNL A   1      42.307  32.844  30.409  1.00  0.00     0.029 A 
ATOM     53  C   UNL A   1      43.043  31.883  29.736  1.00  0.00     0.049 A 
ATOM     54  H   UNL A   1      42.517  29.898  29.249  1.00  0.00     0.167 HD
ATOM     55  C   UNL A   1      44.978  30.992  28.497  1.00  0.00     0.074 A 
ATOM     56  C   UNL A   1      46.260  31.124  27.845  1.00  0.00     0.031 C 
ATOM     57  C   UNL A   1      44.357  31.997  29.163  1.00  0.00     0.034 A 
BRANCH  44  58
ATOM     58  C   UNL A   1      38.810  30.409  31.294  1.00  0.00     0.023 A 
ATOM     59  C   UNL A   1      38.784  30.203  32.686  1.00  0.00     0.012 A 
ATOM     60  C   UNL A   1      37.757  31.109  30.672  1.00  0.00     0.148 A 
ATOM     61  C   UNL A   1      37.720  30.683  33.448  1.00  0.00     0.002 A 
ATOM     62  C   UNL A   1      36.725  31.625  31.444  1.00  0.00     0.091 A 
ATOM     63  F   UNL A   1      37.801  31.275  29.342  1.00  0.00    -0.205 F 
ATOM     64  C   UNL A   1      36.701  31.406  32.831  1.00  0.00     0.022 A 
BRANCH  62  65
ATOM     65  S   UNL A   1      35.417  32.646  30.758  1.00  0.00     0.127 S 
ATOM     66  O   UNL A   1      34.403  32.575  31.809  1.00  0.00    -0.237 OA
ATOM     67  O   UNL A   1      36.079  33.945  30.634  1.00  0.00    -0.237 OA
ATOM     68  O   UNL A   1      35.037  32.027  29.495  1.00  0.00    -0.744 OA
ENDBRANCH  62  65
ENDBRANCH  44  58
BRANCH  45  69
ATOM     69  C   UNL A   1      46.777  27.246  26.300  1.00  0.00     0.023 A 
ATOM     70  C   UNL A   1      46.842  27.403  24.898  1.00  0.00     0.012 A 
ATOM     71  C   UNL A   1      47.850  26.610  26.956  1.00  0.00     0.148 A 
ATOM     72  C   UNL A   1      47.926  26.908  24.167  1.00  0.00     0.002 A 
ATOM     73  C   UNL A   1      48.959  26.179  26.230  1.00  0.00     0.091 A 
ATOM     74  F   UNL A   1      47.760  26.415  28.279  1.00  0.00    -0.205 F 
ATOM     75  C   UNL A   1      48.990  26.307  24.833  1.00  0.00     0.022 A 
BRANCH  73  76
ATOM     76  S   UNL A   1      50.428  25.510  27.020  1.00  0.00     0.127 S 
ATOM     77  O   UNL A   1      51.317  25.306  25.880  1.00  0.00    -0.237 OA
ATOM     78  O   UNL A   1      50.812  26.603  27.914  1.00  0.00    -0.237 OA
ATOM     79  O   UNL A   1      49.988  24.301  27.705  1.00  0.00    -0.744 OA
ENDBRANCH  73  76
ENDBRANCH  45  69
BRANCH  57  80
ATOM     80  C   UNL A   1      45.057  33.329  29.295  1.00  0.00     0.023 A 
ATOM     81  C   UNL A   1      45.935  33.561  30.373  1.00  0.00     0.012 A 
ATOM     82  C   UNL A   1      44.934  34.308  28.287  1.00  0.00     0.148 A 
ATOM     83  C   UNL A   1      46.653  34.755  30.461  1.00  0.00     0.002 A 
ATOM     84  C   UNL A   1      45.692  35.473  28.355  1.00  0.00     0.091 A 
ATOM     85  F   UNL A   1      44.087  34.079  27.274  1.00  0.00    -0.205 F 
ATOM     86  C   UNL A   1      46.543  35.703  29.446  1.00  0.00     0.022 A 
BRANCH  84  87
ATOM     87  S   UNL A   1      45.694  36.703  27.043  1.00  0.00     0.127 S 
ATOM     88  O   UNL A   1      46.210  35.932  25.913  1.00  0.00    -0.237 OA
ATOM     89  O   UNL A   1      44.278  37.056  26.943  1.00  0.00    -0.237 OA
ATOM     90  O   UNL A   1      46.555  37.783  27.506  1.00  0.00    -0.744 OA
ENDBRANCH  84  87
ENDBRANCH  57  80
ENDBRANCH  31  32
ENDBRANCH  24  26
ENDBRANCH  23  24
ENDBRANCH  22  23
ENDBRANCH   1  22
TORSDOF 18
ENDMDL
