MODEL 1
REMARK VINA RESULT:     -12.0      0.000      0.000
REMARK SMILES CC1(C)[C@H]2CC[C@]1(C)[C@H](NC(=O)CCC(=O)OCCOC(=O)c1ccc(-c3c4nc(c(-c5cccc(S(=O)(=O)[O-])c5F)c5ccc([nH]5)c(-c5cccc(S(=O)(=O)[O-])c5F)c5nc(c(-c6cccc(S(=O)(=O)[O-])c6F)c6ccc3[nH]6)C=C5)C=C4)cc1)C2
REMARK SMILES IDX 18 1 17 2 15 3 16 4 14 5 13 6 11 7 10 8 12 10 9 11 1 12 2 13
REMARK SMILES IDX 3 14 4 15 7 16 5 17 86 18 6 19 8 20 19 21 20 22 21 23 22 24
REMARK SMILES IDX 23 25 24 26 85 27 25 28 84 29 26 30 27 31 28 32 78 33 29 34
REMARK SMILES IDX 83 35 77 36 79 37 30 38 82 39 76 40 75 41 31 43 63 44 43 45
REMARK SMILES IDX 62 46 44 47 47 48 61 49 80 50 45 51 46 52 60 54 81 55 48 56
REMARK SMILES IDX 32 57 33 58 41 59 34 60 36 61 42 62 35 63 37 64 38 65 39 66
REMARK SMILES IDX 40 67 64 68 65 69 73 70 66 71 68 72 74 73 67 74 69 75 70 76
REMARK SMILES IDX 71 77 72 78 49 79 50 80 58 81 51 82 53 83 59 84 52 85 54 86
REMARK SMILES IDX 55 87 56 88 57 89
REMARK H PARENT 10 9 79 42 47 53
REMARK Flexibility Score: inf
ROOT
ATOM      1  C   UNL A   1      31.706  28.812  24.770  1.00  0.00     0.274 C 
ENDROOT
BRANCH   1   2
ATOM      2  O   UNL A   1      31.733  29.291  23.362  1.00  0.00    -0.462 OA
BRANCH   2   3
ATOM      3  C   UNL A   1      30.802  28.823  22.460  1.00  0.00     0.306 C 
ATOM      4  O   UNL A   1      30.113  29.581  21.784  1.00  0.00    -0.252 OA
BRANCH   3   5
ATOM      5  C   UNL A   1      30.588  27.236  22.414  1.00  0.00     0.132 C 
BRANCH   5   6
ATOM      6  C   UNL A   1      31.603  26.051  22.069  1.00  0.00     0.111 C 
BRANCH   6   7
ATOM      7  C   UNL A   1      33.163  26.003  22.415  1.00  0.00     0.220 C 
ATOM      8  N   UNL A   1      33.703  25.635  23.658  1.00  0.00    -0.353 N 
ATOM      9  H   UNL A   1      34.487  26.156  23.945  1.00  0.00     0.163 HD
ATOM     10  O   UNL A   1      33.961  26.457  21.585  1.00  0.00    -0.275 OA
BRANCH   8  11
ATOM     11  C   UNL A   1      33.267  24.572  24.610  1.00  0.00     0.088 C 
ATOM     12  C   UNL A   1      35.231  21.175  25.633  1.00  0.00     0.012 C 
ATOM     13  C   UNL A   1      34.610  22.581  25.736  1.00  0.00    -0.025 C 
ATOM     14  C   UNL A   1      34.406  22.676  27.239  1.00  0.00     0.012 C 
ATOM     15  C   UNL A   1      35.402  23.810  25.431  1.00  0.00    -0.003 C 
ATOM     16  C   UNL A   1      33.571  22.996  24.535  1.00  0.00    -0.007 C 
ATOM     17  C   UNL A   1      35.770  23.548  23.940  1.00  0.00     0.005 C 
ATOM     18  C   UNL A   1      34.173  24.736  25.725  1.00  0.00     0.029 C 
ATOM     19  C   UNL A   1      34.512  22.862  23.341  1.00  0.00     0.010 C 
ATOM     20  C   UNL A   1      32.307  22.165  24.600  1.00  0.00     0.014 C 
ENDBRANCH   8  11
ENDBRANCH   6   7
ENDBRANCH   5   6
ENDBRANCH   3   5
ENDBRANCH   2   3
ENDBRANCH   1   2
BRANCH   1  21
ATOM     21  C   UNL A   1      31.801  29.863  25.942  1.00  0.00     0.275 C 
BRANCH  21  22
ATOM     22  O   UNL A   1      33.107  29.845  26.602  1.00  0.00    -0.458 OA
BRANCH  22  23
ATOM     23  C   UNL A   1      33.592  31.005  27.164  1.00  0.00     0.338 C 
ATOM     24  O   UNL A   1      32.892  31.959  27.510  1.00  0.00    -0.246 OA
BRANCH  23  25
ATOM     25  C   UNL A   1      35.045  30.839  27.584  1.00  0.00     0.060 A 
ATOM     26  C   UNL A   1      35.469  29.581  28.005  1.00  0.00     0.016 A 
ATOM     27  C   UNL A   1      35.887  31.933  27.880  1.00  0.00     0.016 A 
ATOM     28  C   UNL A   1      36.589  29.455  28.840  1.00  0.00     0.010 A 
ATOM     29  C   UNL A   1      37.137  31.746  28.545  1.00  0.00     0.010 A 
ATOM     30  C   UNL A   1      37.521  30.485  29.027  1.00  0.00    -0.014 A 
BRANCH  30  31
ATOM     31  C   UNL A   1      38.902  30.150  29.551  1.00  0.00     0.031 A 
ATOM     32  C   UNL A   1      39.825  29.121  28.920  1.00  0.00     0.074 A 
ATOM     33  C   UNL A   1      39.332  30.764  30.683  1.00  0.00     0.049 A 
ATOM     34  N   UNL A   1      40.853  28.497  29.450  1.00  0.00    -0.248 NA
ATOM     35  C   UNL A   1      39.592  28.768  27.511  1.00  0.00     0.031 C 
ATOM     36  C   UNL A   1      38.640  31.848  31.393  1.00  0.00     0.029 A 
ATOM     37  N   UNL A   1      40.443  30.543  31.473  1.00  0.00    -0.354 N 
ATOM     38  C   UNL A   1      41.344  27.628  28.475  1.00  0.00     0.074 A 
ATOM     39  C   UNL A   1      40.528  27.845  27.296  1.00  0.00     0.031 C 
ATOM     40  C   UNL A   1      39.326  32.202  32.479  1.00  0.00     0.029 A 
ATOM     41  C   UNL A   1      40.401  31.251  32.657  1.00  0.00     0.049 A 
ATOM     42  H   UNL A   1      41.184  29.946  31.219  1.00  0.00     0.167 HD
ATOM     43  C   UNL A   1      42.363  26.730  28.565  1.00  0.00     0.034 A 
ATOM     44  C   UNL A   1      41.038  31.098  33.832  1.00  0.00     0.034 A 
ATOM     45  C   UNL A   1      43.194  26.556  29.736  1.00  0.00     0.049 A 
ATOM     46  C   UNL A   1      42.053  30.014  33.964  1.00  0.00     0.074 A 
ATOM     47  C   UNL A   1      44.236  25.661  29.934  1.00  0.00     0.029 A 
ATOM     48  N   UNL A   1      43.082  27.289  30.908  1.00  0.00    -0.354 N 
ATOM     49  N   UNL A   1      42.464  29.163  33.058  1.00  0.00    -0.248 NA
ATOM     50  C   UNL A   1      42.704  29.877  35.271  1.00  0.00     0.031 C 
ATOM     51  C   UNL A   1      44.724  25.827  31.235  1.00  0.00     0.029 A 
ATOM     52  C   UNL A   1      44.020  26.859  31.834  1.00  0.00     0.049 A 
ATOM     53  H   UNL A   1      42.432  28.012  31.060  1.00  0.00     0.167 HD
ATOM     54  C   UNL A   1      43.455  28.415  33.673  1.00  0.00     0.074 A 
ATOM     55  C   UNL A   1      43.588  28.921  35.024  1.00  0.00     0.031 C 
ATOM     56  C   UNL A   1      44.186  27.397  33.160  1.00  0.00     0.034 A 
BRANCH  43  57
ATOM     57  C   UNL A   1      42.645  25.821  27.382  1.00  0.00     0.023 A 
ATOM     58  C   UNL A   1      43.478  26.250  26.331  1.00  0.00     0.012 A 
ATOM     59  C   UNL A   1      42.165  24.491  27.374  1.00  0.00     0.148 A 
ATOM     60  C   UNL A   1      43.798  25.389  25.276  1.00  0.00     0.002 A 
ATOM     61  C   UNL A   1      42.518  23.627  26.340  1.00  0.00     0.091 A 
ATOM     62  F   UNL A   1      41.378  24.091  28.382  1.00  0.00    -0.205 F 
ATOM     63  C   UNL A   1      43.325  24.079  25.284  1.00  0.00     0.022 A 
BRANCH  61  64
ATOM     64  S   UNL A   1      42.021  21.898  26.299  1.00  0.00     0.127 S 
ATOM     65  O   UNL A   1      40.597  22.010  25.984  1.00  0.00    -0.237 OA
ATOM     66  O   UNL A   1      42.844  21.365  25.213  1.00  0.00    -0.237 OA
ATOM     67  O   UNL A   1      42.328  21.359  27.615  1.00  0.00    -0.744 OA
ENDBRANCH  61  64
ENDBRANCH  43  57
BRANCH  44  68
ATOM     68  C   UNL A   1      40.665  31.962  34.991  1.00  0.00     0.023 A 
ATOM     69  C   UNL A   1      41.361  33.165  35.208  1.00  0.00     0.012 A 
ATOM     70  C   UNL A   1      39.584  31.629  35.837  1.00  0.00     0.148 A 
ATOM     71  C   UNL A   1      41.003  34.009  36.260  1.00  0.00     0.002 A 
ATOM     72  C   UNL A   1      39.190  32.507  36.838  1.00  0.00     0.091 A 
ATOM     73  F   UNL A   1      38.938  30.474  35.621  1.00  0.00    -0.205 F 
ATOM     74  C   UNL A   1      39.911  33.689  37.064  1.00  0.00     0.022 A 
BRANCH  72  75
ATOM     75  S   UNL A   1      37.704  32.250  37.816  1.00  0.00     0.127 S 
ATOM     76  O   UNL A   1      36.736  33.085  37.111  1.00  0.00    -0.237 OA
ATOM     77  O   UNL A   1      37.494  30.809  37.674  1.00  0.00    -0.237 OA
ATOM     78  O   UNL A   1      38.043  32.673  39.167  1.00  0.00    -0.744 OA
ENDBRANCH  72  75
ENDBRANCH  44  68
BRANCH  56  79
ATOM     79  C   UNL A   1      45.252  26.810  34.040  1.00  0.00     0.023 A 
ATOM     80  C   UNL A   1      46.544  27.372  34.066  1.00  0.00     0.012 A 
ATOM     81  C   UNL A   1      44.957  25.714  34.874  1.00  0.00     0.148 A 
ATOM     82  C   UNL A   1      47.534  26.832  34.884  1.00  0.00     0.002 A 
ATOM     83  C   UNL A   1      45.932  25.215  35.727  1.00  0.00     0.091 A 
ATOM     84  F   UNL A   1      43.730  25.176  34.811  1.00  0.00    -0.205 F 
ATOM     85  C   UNL A   1      47.225  25.763  35.724  1.00  0.00     0.022 A 
BRANCH  83  86
ATOM     86  S   UNL A   1      45.598  23.906  36.909  1.00  0.00     0.127 S 
ATOM     87  O   UNL A   1      46.919  23.687  37.494  1.00  0.00    -0.237 OA
ATOM     88  O   UNL A   1      44.630  24.540  37.805  1.00  0.00    -0.237 OA
ATOM     89  O   UNL A   1      45.068  22.790  36.137  1.00  0.00    -0.744 OA
ENDBRANCH  83  86
ENDBRANCH  56  79
ENDBRANCH  30  31
ENDBRANCH  23  25
ENDBRANCH  22  23
ENDBRANCH  21  22
ENDBRANCH   1  21
TORSDOF 17
ENDMDL
MODEL 2
REMARK VINA RESULT:     -11.6      5.216      9.965
REMARK SMILES CC1(C)[C@H]2CC[C@]1(C)[C@H](NC(=O)CCC(=O)OCCOC(=O)c1ccc(-c3c4nc(c(-c5cccc(S(=O)(=O)[O-])c5F)c5ccc([nH]5)c(-c5cccc(S(=O)(=O)[O-])c5F)c5nc(c(-c6cccc(S(=O)(=O)[O-])c6F)c6ccc3[nH]6)C=C5)C=C4)cc1)C2
REMARK SMILES IDX 18 1 17 2 15 3 16 4 14 5 13 6 11 7 10 8 12 10 9 11 1 12 2 13
REMARK SMILES IDX 3 14 4 15 7 16 5 17 86 18 6 19 8 20 19 21 20 22 21 23 22 24
REMARK SMILES IDX 23 25 24 26 85 27 25 28 84 29 26 30 27 31 28 32 78 33 29 34
REMARK SMILES IDX 83 35 77 36 79 37 30 38 82 39 76 40 75 41 31 43 63 44 43 45
REMARK SMILES IDX 62 46 44 47 47 48 61 49 80 50 45 51 46 52 60 54 81 55 48 56
REMARK SMILES IDX 32 57 33 58 41 59 34 60 36 61 42 62 35 63 37 64 38 65 39 66
REMARK SMILES IDX 40 67 64 68 65 69 73 70 66 71 68 72 74 73 67 74 69 75 70 76
REMARK SMILES IDX 71 77 72 78 49 79 50 80 58 81 51 82 53 83 59 84 52 85 54 86
REMARK SMILES IDX 55 87 56 88 57 89
REMARK H PARENT 10 9 79 42 47 53
REMARK Flexibility Score: inf
ROOT
ATOM      1  C   UNL A   1      35.565  23.341  23.472  1.00  0.00     0.274 C 
ENDROOT
BRANCH   1   2
ATOM      2  O   UNL A   1      34.224  22.906  22.998  1.00  0.00    -0.462 OA
BRANCH   2   3
ATOM      3  C   UNL A   1      33.451  22.083  23.787  1.00  0.00     0.306 C 
ATOM      4  O   UNL A   1      33.886  21.035  24.257  1.00  0.00    -0.252 OA
BRANCH   3   5
ATOM      5  C   UNL A   1      31.918  22.507  23.973  1.00  0.00     0.132 C 
BRANCH   5   6
ATOM      6  C   UNL A   1      31.006  22.592  25.282  1.00  0.00     0.111 C 
BRANCH   6   7
ATOM      7  C   UNL A   1      31.098  23.693  26.437  1.00  0.00     0.220 C 
ATOM      8  N   UNL A   1      31.766  24.924  26.328  1.00  0.00    -0.353 N 
ATOM      9  H   UNL A   1      32.247  25.212  27.137  1.00  0.00     0.163 HD
ATOM     10  O   UNL A   1      30.680  23.396  27.563  1.00  0.00    -0.275 OA
BRANCH   8  11
ATOM     11  C   UNL A   1      31.856  25.859  25.169  1.00  0.00     0.088 C 
ATOM     12  C   UNL A   1      32.879  29.784  25.201  1.00  0.00     0.012 C 
ATOM     13  C   UNL A   1      32.953  28.265  24.952  1.00  0.00    -0.025 C 
ATOM     14  C   UNL A   1      33.915  28.232  23.776  1.00  0.00     0.012 C 
ATOM     15  C   UNL A   1      33.598  27.342  25.934  1.00  0.00    -0.003 C 
ATOM     16  C   UNL A   1      31.550  27.437  25.150  1.00  0.00    -0.007 C 
ATOM     17  C   UNL A   1      32.702  27.587  27.185  1.00  0.00     0.005 C 
ATOM     18  C   UNL A   1      33.278  26.092  25.044  1.00  0.00     0.029 C 
ATOM     19  C   UNL A   1      31.271  27.772  26.612  1.00  0.00     0.010 C 
ATOM     20  C   UNL A   1      30.544  27.811  24.081  1.00  0.00     0.014 C 
ENDBRANCH   8  11
ENDBRANCH   6   7
ENDBRANCH   5   6
ENDBRANCH   3   5
ENDBRANCH   2   3
ENDBRANCH   1   2
BRANCH   1  21
ATOM     21  C   UNL A   1      36.666  22.252  23.768  1.00  0.00     0.275 C 
BRANCH  21  22
ATOM     22  O   UNL A   1      36.882  22.053  25.202  1.00  0.00    -0.458 OA
BRANCH  22  23
ATOM     23  C   UNL A   1      38.092  21.561  25.639  1.00  0.00     0.338 C 
ATOM     24  O   UNL A   1      38.608  20.518  25.233  1.00  0.00    -0.246 OA
BRANCH  23  25
ATOM     25  C   UNL A   1      38.846  22.608  26.446  1.00  0.00     0.060 A 
ATOM     26  C   UNL A   1      38.558  23.951  26.214  1.00  0.00     0.016 A 
ATOM     27  C   UNL A   1      40.027  22.319  27.163  1.00  0.00     0.016 A 
ATOM     28  C   UNL A   1      39.501  24.940  26.526  1.00  0.00     0.010 A 
ATOM     29  C   UNL A   1      40.864  23.362  27.662  1.00  0.00     0.010 A 
ATOM     30  C   UNL A   1      40.602  24.708  27.361  1.00  0.00    -0.014 A 
BRANCH  30  31
ATOM     31  C   UNL A   1      41.301  25.884  28.011  1.00  0.00     0.031 A 
ATOM     32  C   UNL A   1      40.591  26.954  28.824  1.00  0.00     0.074 A 
ATOM     33  C   UNL A   1      42.638  26.031  27.818  1.00  0.00     0.049 A 
ATOM     34  N   UNL A   1      40.995  28.167  29.127  1.00  0.00    -0.248 NA
ATOM     35  C   UNL A   1      39.280  26.616  29.399  1.00  0.00     0.031 C 
ATOM     36  C   UNL A   1      43.523  25.070  27.147  1.00  0.00     0.029 A 
ATOM     37  N   UNL A   1      43.495  27.067  28.133  1.00  0.00    -0.354 N 
ATOM     38  C   UNL A   1      39.969  28.763  29.860  1.00  0.00     0.074 A 
ATOM     39  C   UNL A   1      38.937  27.753  30.001  1.00  0.00     0.031 C 
ATOM     40  C   UNL A   1      44.770  25.537  27.110  1.00  0.00     0.029 A 
ATOM     41  C   UNL A   1      44.747  26.906  27.575  1.00  0.00     0.049 A 
ATOM     42  H   UNL A   1      43.240  27.835  28.694  1.00  0.00     0.167 HD
ATOM     43  C   UNL A   1      39.891  30.031  30.349  1.00  0.00     0.034 A 
ATOM     44  C   UNL A   1      45.745  27.770  27.317  1.00  0.00     0.034 A 
ATOM     45  C   UNL A   1      40.947  31.013  30.235  1.00  0.00     0.049 A 
ATOM     46  C   UNL A   1      45.590  29.194  27.730  1.00  0.00     0.074 A 
ATOM     47  C   UNL A   1      40.959  32.328  30.677  1.00  0.00     0.029 A 
ATOM     48  N   UNL A   1      42.179  30.792  29.638  1.00  0.00    -0.354 N 
ATOM     49  N   UNL A   1      44.593  29.757  28.365  1.00  0.00    -0.248 NA
ATOM     50  C   UNL A   1      46.699  30.098  27.407  1.00  0.00     0.031 C 
ATOM     51  C   UNL A   1      42.179  32.909  30.313  1.00  0.00     0.029 A 
ATOM     52  C   UNL A   1      42.949  31.944  29.685  1.00  0.00     0.049 A 
ATOM     53  H   UNL A   1      42.467  29.940  29.239  1.00  0.00     0.167 HD
ATOM     54  C   UNL A   1      44.973  31.076  28.558  1.00  0.00     0.074 A 
ATOM     55  C   UNL A   1      46.295  31.223  27.981  1.00  0.00     0.031 C 
ATOM     56  C   UNL A   1      44.283  32.074  29.157  1.00  0.00     0.034 A 
BRANCH  43  57
ATOM     57  C   UNL A   1      38.613  30.475  31.036  1.00  0.00     0.023 A 
ATOM     58  C   UNL A   1      38.466  30.345  32.431  1.00  0.00     0.012 A 
ATOM     59  C   UNL A   1      37.596  31.126  30.300  1.00  0.00     0.148 A 
ATOM     60  C   UNL A   1      37.319  30.820  33.076  1.00  0.00     0.002 A 
ATOM     61  C   UNL A   1      36.474  31.630  30.954  1.00  0.00     0.091 A 
ATOM     62  F   UNL A   1      37.749  31.251  28.975  1.00  0.00    -0.205 F 
ATOM     63  C   UNL A   1      36.329  31.467  32.340  1.00  0.00     0.022 A 
BRANCH  61  64
ATOM     64  S   UNL A   1      35.178  32.546  30.105  1.00  0.00     0.127 S 
ATOM     65  O   UNL A   1      34.229  32.786  31.191  1.00  0.00    -0.237 OA
ATOM     66  O   UNL A   1      35.891  33.739  29.646  1.00  0.00    -0.237 OA
ATOM     67  O   UNL A   1      34.701  31.676  29.041  1.00  0.00    -0.744 OA
ENDBRANCH  61  64
ENDBRANCH  43  57
BRANCH  44  68
ATOM     68  C   UNL A   1      46.947  27.304  26.563  1.00  0.00     0.023 A 
ATOM     69  C   UNL A   1      47.088  27.647  25.207  1.00  0.00     0.012 A 
ATOM     70  C   UNL A   1      47.979  26.581  27.202  1.00  0.00     0.148 A 
ATOM     71  C   UNL A   1      48.222  27.258  24.493  1.00  0.00     0.002 A 
ATOM     72  C   UNL A   1      49.136  26.259  26.503  1.00  0.00     0.091 A 
ATOM     73  F   UNL A   1      47.824  26.255  28.493  1.00  0.00    -0.205 F 
ATOM     74  C   UNL A   1      49.250  26.579  25.143  1.00  0.00     0.022 A 
BRANCH  72  75
ATOM     75  S   UNL A   1      50.570  25.525  27.301  1.00  0.00     0.127 S 
ATOM     76  O   UNL A   1      50.816  26.463  28.392  1.00  0.00    -0.237 OA
ATOM     77  O   UNL A   1      50.052  24.221  27.715  1.00  0.00    -0.237 OA
ATOM     78  O   UNL A   1      51.601  25.460  26.275  1.00  0.00    -0.744 OA
ENDBRANCH  72  75
ENDBRANCH  44  68
BRANCH  56  79
ATOM     79  C   UNL A   1      44.976  33.401  29.289  1.00  0.00     0.023 A 
ATOM     80  C   UNL A   1      45.753  33.687  30.429  1.00  0.00     0.012 A 
ATOM     81  C   UNL A   1      44.883  34.354  28.257  1.00  0.00     0.148 A 
ATOM     82  C   UNL A   1      46.401  34.915  30.553  1.00  0.00     0.002 A 
ATOM     83  C   UNL A   1      45.574  35.553  28.362  1.00  0.00     0.091 A 
ATOM     84  F   UNL A   1      44.112  34.072  27.196  1.00  0.00    -0.205 F 
ATOM     85  C   UNL A   1      46.322  35.842  29.514  1.00  0.00     0.022 A 
BRANCH  83  86
ATOM     86  S   UNL A   1      45.608  36.764  27.037  1.00  0.00     0.127 S 
ATOM     87  O   UNL A   1      46.164  35.984  25.933  1.00  0.00    -0.237 OA
ATOM     88  O   UNL A   1      44.191  37.101  26.894  1.00  0.00    -0.237 OA
ATOM     89  O   UNL A   1      46.447  37.857  27.510  1.00  0.00    -0.744 OA
ENDBRANCH  83  86
ENDBRANCH  56  79
ENDBRANCH  30  31
ENDBRANCH  23  25
ENDBRANCH  22  23
ENDBRANCH  21  22
ENDBRANCH   1  21
TORSDOF 17
ENDMDL
MODEL 3
REMARK VINA RESULT:     -11.3      5.864     11.587
REMARK SMILES CC1(C)[C@H]2CC[C@]1(C)[C@H](NC(=O)CCC(=O)OCCOC(=O)c1ccc(-c3c4nc(c(-c5cccc(S(=O)(=O)[O-])c5F)c5ccc([nH]5)c(-c5cccc(S(=O)(=O)[O-])c5F)c5nc(c(-c6cccc(S(=O)(=O)[O-])c6F)c6ccc3[nH]6)C=C5)C=C4)cc1)C2
REMARK SMILES IDX 18 1 17 2 15 3 16 4 14 5 13 6 11 7 10 8 12 10 9 11 1 12 2 13
REMARK SMILES IDX 3 14 4 15 7 16 5 17 86 18 6 19 8 20 19 21 20 22 21 23 22 24
REMARK SMILES IDX 23 25 24 26 85 27 25 28 84 29 26 30 27 31 28 32 78 33 29 34
REMARK SMILES IDX 83 35 77 36 79 37 30 38 82 39 76 40 75 41 31 43 63 44 43 45
REMARK SMILES IDX 62 46 44 47 47 48 61 49 80 50 45 51 46 52 60 54 81 55 48 56
REMARK SMILES IDX 32 57 33 58 41 59 34 60 36 61 42 62 35 63 37 64 38 65 39 66
REMARK SMILES IDX 40 67 64 68 65 69 73 70 66 71 68 72 74 73 67 74 69 75 70 76
REMARK SMILES IDX 71 77 72 78 49 79 50 80 58 81 51 82 53 83 59 84 52 85 54 86
REMARK SMILES IDX 55 87 56 88 57 89
REMARK H PARENT 10 9 79 42 47 53
REMARK Flexibility Score: inf
ROOT
ATOM      1  C   UNL A   1      41.571  20.607  27.168  1.00  0.00     0.274 C 
ENDROOT
BRANCH   1   2
ATOM      2  O   UNL A   1      41.449  19.177  26.782  1.00  0.00    -0.462 OA
BRANCH   2   3
ATOM      3  C   UNL A   1      42.572  18.464  26.424  1.00  0.00     0.306 C 
ATOM      4  O   UNL A   1      43.001  17.538  27.107  1.00  0.00    -0.252 OA
BRANCH   3   5
ATOM      5  C   UNL A   1      43.356  18.973  25.124  1.00  0.00     0.132 C 
BRANCH   5   6
ATOM      6  C   UNL A   1      44.882  18.799  24.685  1.00  0.00     0.111 C 
BRANCH   6   7
ATOM      7  C   UNL A   1      46.125  19.661  25.200  1.00  0.00     0.220 C 
ATOM      8  N   UNL A   1      46.112  21.050  25.412  1.00  0.00    -0.353 N 
ATOM      9  H   UNL A   1      46.936  21.521  25.151  1.00  0.00     0.163 HD
ATOM     10  O   UNL A   1      47.228  19.105  25.286  1.00  0.00    -0.275 OA
BRANCH   8  11
ATOM     11  C   UNL A   1      45.036  21.918  25.973  1.00  0.00     0.088 C 
ATOM     12  C   UNL A   1      44.702  25.952  25.734  1.00  0.00     0.012 C 
ATOM     13  C   UNL A   1      44.420  24.455  25.504  1.00  0.00    -0.025 C 
ATOM     14  C   UNL A   1      42.950  24.513  25.122  1.00  0.00     0.012 C 
ATOM     15  C   UNL A   1      45.030  23.711  24.361  1.00  0.00    -0.003 C 
ATOM     16  C   UNL A   1      45.171  23.418  26.531  1.00  0.00    -0.007 C 
ATOM     17  C   UNL A   1      46.544  23.877  24.688  1.00  0.00     0.005 C 
ATOM     18  C   UNL A   1      44.334  22.375  24.794  1.00  0.00     0.029 C 
ATOM     19  C   UNL A   1      46.621  23.788  26.237  1.00  0.00     0.010 C 
ATOM     20  C   UNL A   1      44.623  23.557  27.936  1.00  0.00     0.014 C 
ENDBRANCH   8  11
ENDBRANCH   6   7
ENDBRANCH   5   6
ENDBRANCH   3   5
ENDBRANCH   2   3
ENDBRANCH   1   2
BRANCH   1  21
ATOM     21  C   UNL A   1      40.856  21.705  26.291  1.00  0.00     0.275 C 
BRANCH  21  22
ATOM     22  O   UNL A   1      39.491  21.977  26.741  1.00  0.00    -0.458 OA
BRANCH  22  23
ATOM     23  C   UNL A   1      38.789  23.017  26.173  1.00  0.00     0.338 C 
ATOM     24  O   UNL A   1      37.883  22.879  25.349  1.00  0.00    -0.246 OA
BRANCH  23  25
ATOM     25  C   UNL A   1      39.056  24.321  26.912  1.00  0.00     0.060 A 
ATOM     26  C   UNL A   1      39.753  25.324  26.244  1.00  0.00     0.016 A 
ATOM     27  C   UNL A   1      38.930  24.448  28.312  1.00  0.00     0.016 A 
ATOM     28  C   UNL A   1      40.445  26.306  26.968  1.00  0.00     0.010 A 
ATOM     29  C   UNL A   1      39.461  25.580  29.003  1.00  0.00     0.010 A 
ATOM     30  C   UNL A   1      40.222  26.548  28.331  1.00  0.00    -0.014 A 
BRANCH  30  31
ATOM     31  C   UNL A   1      40.643  27.875  28.927  1.00  0.00     0.031 A 
ATOM     32  C   UNL A   1      39.670  28.947  29.389  1.00  0.00     0.074 A 
ATOM     33  C   UNL A   1      41.969  28.156  29.011  1.00  0.00     0.049 A 
ATOM     34  N   UNL A   1      39.884  30.230  29.582  1.00  0.00    -0.248 NA
ATOM     35  C   UNL A   1      38.297  28.530  29.709  1.00  0.00     0.031 C 
ATOM     36  C   UNL A   1      43.068  27.230  28.707  1.00  0.00     0.029 A 
ATOM     37  N   UNL A   1      42.634  29.320  29.341  1.00  0.00    -0.354 N 
ATOM     38  C   UNL A   1      38.666  30.787  29.971  1.00  0.00     0.074 A 
ATOM     39  C   UNL A   1      37.723  29.687  30.038  1.00  0.00     0.031 C 
ATOM     40  C   UNL A   1      44.243  27.837  28.872  1.00  0.00     0.029 A 
ATOM     41  C   UNL A   1      43.991  29.241  29.103  1.00  0.00     0.049 A 
ATOM     42  H   UNL A   1      42.188  30.119  29.707  1.00  0.00     0.167 HD
ATOM     43  C   UNL A   1      38.364  32.089  30.229  1.00  0.00     0.034 A 
ATOM     44  C   UNL A   1      44.942  30.179  28.939  1.00  0.00     0.034 A 
ATOM     45  C   UNL A   1      39.327  33.168  30.198  1.00  0.00     0.049 A 
ATOM     46  C   UNL A   1      44.568  31.615  29.082  1.00  0.00     0.074 A 
ATOM     47  C   UNL A   1      39.118  34.522  30.423  1.00  0.00     0.029 A 
ATOM     48  N   UNL A   1      40.679  33.023  29.927  1.00  0.00    -0.354 N 
ATOM     49  N   UNL A   1      43.405  32.131  29.389  1.00  0.00    -0.248 NA
ATOM     50  C   UNL A   1      45.638  32.597  28.874  1.00  0.00     0.031 C 
ATOM     51  C   UNL A   1      40.333  35.194  30.249  1.00  0.00     0.029 A 
ATOM     52  C   UNL A   1      41.311  34.256  29.963  1.00  0.00     0.049 A 
ATOM     53  H   UNL A   1      41.126  32.167  29.737  1.00  0.00     0.167 HD
ATOM     54  C   UNL A   1      43.611  33.500  29.453  1.00  0.00     0.074 A 
ATOM     55  C   UNL A   1      45.013  33.730  29.164  1.00  0.00     0.031 C 
ATOM     56  C   UNL A   1      42.714  34.477  29.725  1.00  0.00     0.034 A 
BRANCH  43  57
ATOM     57  C   UNL A   1      36.927  32.460  30.542  1.00  0.00     0.023 A 
ATOM     58  C   UNL A   1      36.423  32.335  31.852  1.00  0.00     0.012 A 
ATOM     59  C   UNL A   1      36.106  33.041  29.548  1.00  0.00     0.148 A 
ATOM     60  C   UNL A   1      35.121  32.745  32.159  1.00  0.00     0.002 A 
ATOM     61  C   UNL A   1      34.824  33.482  29.869  1.00  0.00     0.091 A 
ATOM     62  F   UNL A   1      36.597  33.162  28.307  1.00  0.00    -0.205 F 
ATOM     63  C   UNL A   1      34.326  33.324  31.172  1.00  0.00     0.022 A 
BRANCH  61  64
ATOM     64  S   UNL A   1      33.750  34.309  28.685  1.00  0.00     0.127 S 
ATOM     65  O   UNL A   1      34.600  35.411  28.238  1.00  0.00    -0.237 OA
ATOM     66  O   UNL A   1      33.530  33.264  27.684  1.00  0.00    -0.237 OA
ATOM     67  O   UNL A   1      32.560  34.700  29.426  1.00  0.00    -0.744 OA
ENDBRANCH  61  64
ENDBRANCH  43  57
BRANCH  44  68
ATOM     68  C   UNL A   1      46.323  29.768  28.548  1.00  0.00     0.023 A 
ATOM     69  C   UNL A   1      47.345  29.775  29.514  1.00  0.00     0.012 A 
ATOM     70  C   UNL A   1      46.610  29.309  27.243  1.00  0.00     0.148 A 
ATOM     71  C   UNL A   1      48.634  29.356  29.181  1.00  0.00     0.002 A 
ATOM     72  C   UNL A   1      47.878  28.828  26.940  1.00  0.00     0.091 A 
ATOM     73  F   UNL A   1      45.626  29.317  26.333  1.00  0.00    -0.205 F 
ATOM     74  C   UNL A   1      48.897  28.869  27.903  1.00  0.00     0.022 A 
BRANCH  72  75
ATOM     75  S   UNL A   1      48.259  28.040  25.370  1.00  0.00     0.127 S 
ATOM     76  O   UNL A   1      49.646  28.447  25.162  1.00  0.00    -0.237 OA
ATOM     77  O   UNL A   1      48.074  26.624  25.689  1.00  0.00    -0.237 OA
ATOM     78  O   UNL A   1      47.293  28.570  24.419  1.00  0.00    -0.744 OA
ENDBRANCH  72  75
ENDBRANCH  44  68
BRANCH  56  79
ATOM     79  C   UNL A   1      43.238  35.884  29.799  1.00  0.00     0.023 A 
ATOM     80  C   UNL A   1      43.851  36.355  30.977  1.00  0.00     0.012 A 
ATOM     81  C   UNL A   1      43.151  36.730  28.677  1.00  0.00     0.148 A 
ATOM     82  C   UNL A   1      44.340  37.658  31.047  1.00  0.00     0.002 A 
ATOM     83  C   UNL A   1      43.690  38.009  28.736  1.00  0.00     0.091 A 
ATOM     84  F   UNL A   1      42.536  36.272  27.577  1.00  0.00    -0.205 F 
ATOM     85  C   UNL A   1      44.272  38.479  29.923  1.00  0.00     0.022 A 
BRANCH  83  86
ATOM     86  S   UNL A   1      43.731  39.102  27.312  1.00  0.00     0.127 S 
ATOM     87  O   UNL A   1      43.827  40.415  27.946  1.00  0.00    -0.237 OA
ATOM     88  O   UNL A   1      44.947  38.664  26.625  1.00  0.00    -0.237 OA
ATOM     89  O   UNL A   1      42.498  38.855  26.577  1.00  0.00    -0.744 OA
ENDBRANCH  83  86
ENDBRANCH  56  79
ENDBRANCH  30  31
ENDBRANCH  23  25
ENDBRANCH  22  23
ENDBRANCH  21  22
ENDBRANCH   1  21
TORSDOF 17
ENDMDL
