MODEL 1
REMARK VINA RESULT:     -11.1      0.000      0.000
REMARK SMILES C=C1C=C[C@H](C(=O)OCCOC(=O)c2ccc(-c3c4nc(c(-c5cccc(S(=O)(=O)[O-])c5F)c5ccc([nH]5)c(-c5cccc(S(=O)(=O)[O-])c5F)c5nc(c(-c6cccc(S(=O)(=O)[O-])c6F)c6ccc3[nH]6)C=C5)C=C4)cc2)C(=S)N1
REMARK SMILES IDX 11 1 10 2 9 3 8 4 6 5 7 6 5 7 1 8 2 9 3 10 79 11 4 12 77 13
REMARK SMILES IDX 78 15 12 16 13 17 14 18 15 19 76 20 16 21 75 22 17 23 18 24
REMARK SMILES IDX 19 25 69 26 20 27 74 28 68 29 70 30 21 31 73 32 67 33 66 34
REMARK SMILES IDX 22 36 54 37 34 38 53 39 35 40 38 41 52 42 71 43 36 44 37 45
REMARK SMILES IDX 51 47 72 48 39 49 23 50 24 51 32 52 25 53 27 54 33 55 26 56
REMARK SMILES IDX 28 57 29 58 30 59 31 60 55 61 56 62 64 63 57 64 59 65 65 66
REMARK SMILES IDX 58 67 60 68 61 69 62 70 63 71 40 72 41 73 49 74 42 75 44 76
REMARK SMILES IDX 50 77 43 78 45 79 46 80 47 81 48 82
REMARK H PARENT 79 14 70 35 38 46
REMARK Flexibility Score: inf
ROOT
ATOM      1  O   UNL A   1      36.905  21.459  25.859  1.00  0.00    -0.458 OA
ENDROOT
BRANCH   1   2
ATOM      2  C   UNL A   1      36.219  21.173  24.628  1.00  0.00     0.275 C 
BRANCH   2   3
ATOM      3  C   UNL A   1      35.938  22.476  23.885  1.00  0.00     0.274 C 
BRANCH   3   4
ATOM      4  O   UNL A   1      34.610  22.948  24.189  1.00  0.00    -0.461 OA
BRANCH   4   5
ATOM      5  C   UNL A   1      33.681  22.887  23.197  1.00  0.00     0.319 C 
ATOM      6  O   UNL A   1      33.819  23.431  22.105  1.00  0.00    -0.251 OA
BRANCH   5   7
ATOM      7  C   UNL A   1      32.401  22.163  23.633  1.00  0.00     0.180 C 
ATOM      8  C   UNL A   1      32.903  18.442  25.636  1.00  0.00     0.037 C 
ATOM      9  C   UNL A   1      32.650  19.590  24.999  1.00  0.00     0.031 C 
ATOM     10  C   UNL A   1      32.488  19.652  23.565  1.00  0.00     0.022 C 
ATOM     11  N   UNL A   1      32.491  20.755  25.703  1.00  0.00    -0.350 N 
ATOM     12  C   UNL A   1      32.350  20.822  22.926  1.00  0.00    -0.003 C 
ATOM     13  C   UNL A   1      32.236  21.985  25.148  1.00  0.00     0.098 C 
ATOM     14  H   UNL A   1      32.567  20.706  26.684  1.00  0.00     0.167 HD
ATOM     15  S   UNL A   1      31.686  23.219  26.151  1.00  0.00    -0.064 S 
ENDBRANCH   5   7
ENDBRANCH   4   5
ENDBRANCH   3   4
ENDBRANCH   2   3
ENDBRANCH   1   2
BRANCH   1  16
ATOM     16  C   UNL A   1      38.243  21.277  25.839  1.00  0.00     0.338 C 
ATOM     17  O   UNL A   1      38.867  20.338  25.375  1.00  0.00    -0.246 OA
BRANCH  16  18
ATOM     18  C   UNL A   1      38.889  22.456  26.426  1.00  0.00     0.060 A 
ATOM     19  C   UNL A   1      38.373  23.715  26.124  1.00  0.00     0.016 A 
ATOM     20  C   UNL A   1      40.057  22.325  27.174  1.00  0.00     0.016 A 
ATOM     21  C   UNL A   1      39.071  24.859  26.502  1.00  0.00     0.010 A 
ATOM     22  C   UNL A   1      40.718  23.477  27.614  1.00  0.00     0.010 A 
ATOM     23  C   UNL A   1      40.254  24.755  27.248  1.00  0.00    -0.014 A 
BRANCH  23  24
ATOM     24  C   UNL A   1      41.022  25.975  27.613  1.00  0.00     0.031 A 
ATOM     25  C   UNL A   1      40.377  27.057  28.439  1.00  0.00     0.074 A 
ATOM     26  C   UNL A   1      42.297  26.120  27.202  1.00  0.00     0.049 A 
ATOM     27  N   UNL A   1      40.838  28.239  28.757  1.00  0.00    -0.248 NA
ATOM     28  C   UNL A   1      39.033  26.777  28.972  1.00  0.00     0.031 C 
ATOM     29  C   UNL A   1      43.045  25.145  26.408  1.00  0.00     0.029 A 
ATOM     30  N   UNL A   1      43.188  27.149  27.389  1.00  0.00    -0.354 N 
ATOM     31  C   UNL A   1      39.822  28.867  29.467  1.00  0.00     0.074 A 
ATOM     32  C   UNL A   1      38.721  27.932  29.545  1.00  0.00     0.031 C 
ATOM     33  C   UNL A   1      44.283  25.614  26.185  1.00  0.00     0.029 A 
ATOM     34  C   UNL A   1      44.399  26.946  26.770  1.00  0.00     0.049 A 
ATOM     35  H   UNL A   1      42.978  27.954  27.914  1.00  0.00     0.167 HD
ATOM     36  C   UNL A   1      39.811  30.104  30.019  1.00  0.00     0.034 A 
ATOM     37  C   UNL A   1      45.475  27.751  26.660  1.00  0.00     0.034 A 
ATOM     38  C   UNL A   1      40.929  31.009  30.004  1.00  0.00     0.049 A 
ATOM     39  C   UNL A   1      45.442  29.113  27.295  1.00  0.00     0.074 A 
ATOM     40  C   UNL A   1      41.023  32.270  30.567  1.00  0.00     0.029 A 
ATOM     41  N   UNL A   1      42.152  30.746  29.408  1.00  0.00    -0.354 N 
ATOM     42  N   UNL A   1      44.494  29.664  28.014  1.00  0.00    -0.248 NA
ATOM     43  C   UNL A   1      46.630  29.959  27.117  1.00  0.00     0.031 C 
ATOM     44  C   UNL A   1      42.305  32.769  30.314  1.00  0.00     0.029 A 
ATOM     45  C   UNL A   1      43.010  31.818  29.593  1.00  0.00     0.049 A 
ATOM     46  H   UNL A   1      42.378  29.919  28.923  1.00  0.00     0.167 HD
ATOM     47  C   UNL A   1      44.975  30.914  28.385  1.00  0.00     0.074 A 
ATOM     48  C   UNL A   1      46.312  31.026  27.838  1.00  0.00     0.031 C 
ATOM     49  C   UNL A   1      44.357  31.892  29.091  1.00  0.00     0.034 A 
BRANCH  36  50
ATOM     50  C   UNL A   1      38.557  30.542  30.726  1.00  0.00     0.023 A 
ATOM     51  C   UNL A   1      38.409  30.278  32.102  1.00  0.00     0.012 A 
ATOM     52  C   UNL A   1      37.554  31.260  30.045  1.00  0.00     0.148 A 
ATOM     53  C   UNL A   1      37.271  30.705  32.786  1.00  0.00     0.002 A 
ATOM     54  C   UNL A   1      36.439  31.712  30.743  1.00  0.00     0.091 A 
ATOM     55  F   UNL A   1      37.699  31.476  28.731  1.00  0.00    -0.205 F 
ATOM     56  C   UNL A   1      36.292  31.428  32.110  1.00  0.00     0.022 A 
BRANCH  54  57
ATOM     57  S   UNL A   1      35.162  32.708  29.963  1.00  0.00     0.127 S 
ATOM     58  O   UNL A   1      35.935  33.845  29.468  1.00  0.00    -0.237 OA
ATOM     59  O   UNL A   1      34.658  31.813  28.920  1.00  0.00    -0.237 OA
ATOM     60  O   UNL A   1      34.200  33.005  31.015  1.00  0.00    -0.744 OA
ENDBRANCH  54  57
ENDBRANCH  36  50
BRANCH  37  61
ATOM     61  C   UNL A   1      46.690  27.265  25.948  1.00  0.00     0.023 A 
ATOM     62  C   UNL A   1      46.813  27.493  24.564  1.00  0.00     0.012 A 
ATOM     63  C   UNL A   1      47.742  26.627  26.635  1.00  0.00     0.148 A 
ATOM     64  C   UNL A   1      47.955  27.085  23.875  1.00  0.00     0.002 A 
ATOM     65  C   UNL A   1      48.901  26.275  25.953  1.00  0.00     0.091 A 
ATOM     66  F   UNL A   1      47.595  26.388  27.946  1.00  0.00    -0.205 F 
ATOM     67  C   UNL A   1      49.006  26.491  24.571  1.00  0.00     0.022 A 
BRANCH  65  68
ATOM     68  S   UNL A   1      50.347  25.645  26.814  1.00  0.00     0.127 S 
ATOM     69  O   UNL A   1      50.671  26.753  27.708  1.00  0.00    -0.237 OA
ATOM     70  O   UNL A   1      49.820  24.452  27.477  1.00  0.00    -0.237 OA
ATOM     71  O   UNL A   1      51.319  25.360  25.766  1.00  0.00    -0.744 OA
ENDBRANCH  65  68
ENDBRANCH  37  61
BRANCH  49  72
ATOM     72  C   UNL A   1      45.118  33.167  29.325  1.00  0.00     0.023 A 
ATOM     73  C   UNL A   1      45.952  33.275  30.456  1.00  0.00     0.012 A 
ATOM     74  C   UNL A   1      45.069  34.224  28.396  1.00  0.00     0.148 A 
ATOM     75  C   UNL A   1      46.708  34.426  30.671  1.00  0.00     0.002 A 
ATOM     76  C   UNL A   1      45.856  35.354  28.597  1.00  0.00     0.091 A 
ATOM     77  F   UNL A   1      44.253  34.113  27.339  1.00  0.00    -0.205 F 
ATOM     78  C   UNL A   1      46.670  35.459  29.737  1.00  0.00     0.022 A 
BRANCH  76  79
ATOM     79  S   UNL A   1      45.922  36.691  27.400  1.00  0.00     0.127 S 
ATOM     80  O   UNL A   1      46.881  37.602  28.020  1.00  0.00    -0.237 OA
ATOM     81  O   UNL A   1      46.412  36.017  26.197  1.00  0.00    -0.237 OA
ATOM     82  O   UNL A   1      44.556  37.188  27.293  1.00  0.00    -0.744 OA
ENDBRANCH  76  79
ENDBRANCH  49  72
ENDBRANCH  23  24
ENDBRANCH  16  18
ENDBRANCH   1  16
TORSDOF 14
ENDMDL
MODEL 2
REMARK VINA RESULT:     -11.0      1.582      8.154
REMARK SMILES C=C1C=C[C@H](C(=O)OCCOC(=O)c2ccc(-c3c4nc(c(-c5cccc(S(=O)(=O)[O-])c5F)c5ccc([nH]5)c(-c5cccc(S(=O)(=O)[O-])c5F)c5nc(c(-c6cccc(S(=O)(=O)[O-])c6F)c6ccc3[nH]6)C=C5)C=C4)cc2)C(=S)N1
REMARK SMILES IDX 11 1 10 2 9 3 8 4 6 5 7 6 5 7 1 8 2 9 3 10 79 11 4 12 77 13
REMARK SMILES IDX 78 15 12 16 13 17 14 18 15 19 76 20 16 21 75 22 17 23 18 24
REMARK SMILES IDX 19 25 69 26 20 27 74 28 68 29 70 30 21 31 73 32 67 33 66 34
REMARK SMILES IDX 22 36 54 37 34 38 53 39 35 40 38 41 52 42 71 43 36 44 37 45
REMARK SMILES IDX 51 47 72 48 39 49 23 50 24 51 32 52 25 53 27 54 33 55 26 56
REMARK SMILES IDX 28 57 29 58 30 59 31 60 55 61 56 62 64 63 57 64 59 65 65 66
REMARK SMILES IDX 58 67 60 68 61 69 62 70 63 71 40 72 41 73 49 74 42 75 44 76
REMARK SMILES IDX 50 77 43 78 45 79 46 80 47 81 48 82
REMARK H PARENT 79 14 70 35 38 46
REMARK Flexibility Score: inf
ROOT
ATOM      1  O   UNL A   1      38.416  20.894  25.781  1.00  0.00    -0.458 OA
ENDROOT
BRANCH   1   2
ATOM      2  C   UNL A   1      37.999  19.765  24.995  1.00  0.00     0.275 C 
BRANCH   2   3
ATOM      3  C   UNL A   1      36.517  19.897  24.656  1.00  0.00     0.274 C 
BRANCH   3   4
ATOM      4  O   UNL A   1      35.992  21.133  25.183  1.00  0.00    -0.461 OA
BRANCH   4   5
ATOM      5  C   UNL A   1      35.094  21.809  24.417  1.00  0.00     0.319 C 
ATOM      6  O   UNL A   1      35.415  22.591  23.528  1.00  0.00    -0.251 OA
BRANCH   5   7
ATOM      7  C   UNL A   1      33.645  21.573  24.863  1.00  0.00     0.180 C 
ATOM      8  C   UNL A   1      32.546  17.554  25.725  1.00  0.00     0.037 C 
ATOM      9  C   UNL A   1      32.796  18.840  25.458  1.00  0.00     0.031 C 
ATOM     10  C   UNL A   1      32.619  19.396  24.137  1.00  0.00     0.022 C 
ATOM     11  N   UNL A   1      33.194  19.692  26.454  1.00  0.00    -0.350 N 
ATOM     12  C   UNL A   1      32.982  20.655  23.854  1.00  0.00    -0.003 C 
ATOM     13  C   UNL A   1      33.481  21.024  26.286  1.00  0.00     0.098 C 
ATOM     14  H   UNL A   1      33.281  19.320  27.362  1.00  0.00     0.167 HD
ATOM     15  S   UNL A   1      33.570  22.004  27.650  1.00  0.00    -0.064 S 
ENDBRANCH   5   7
ENDBRANCH   4   5
ENDBRANCH   3   4
ENDBRANCH   2   3
ENDBRANCH   1   2
BRANCH   1  16
ATOM     16  C   UNL A   1      39.654  20.810  26.315  1.00  0.00     0.338 C 
ATOM     17  O   UNL A   1      40.392  19.840  26.351  1.00  0.00    -0.246 OA
BRANCH  16  18
ATOM     18  C   UNL A   1      40.042  22.132  26.818  1.00  0.00     0.060 A 
ATOM     19  C   UNL A   1      39.384  23.253  26.317  1.00  0.00     0.016 A 
ATOM     20  C   UNL A   1      41.119  22.269  27.691  1.00  0.00     0.016 A 
ATOM     21  C   UNL A   1      39.854  24.527  26.623  1.00  0.00     0.010 A 
ATOM     22  C   UNL A   1      41.544  23.551  28.054  1.00  0.00     0.010 A 
ATOM     23  C   UNL A   1      40.942  24.693  27.493  1.00  0.00    -0.014 A 
BRANCH  23  24
ATOM     24  C   UNL A   1      41.470  26.052  27.785  1.00  0.00     0.031 A 
ATOM     25  C   UNL A   1      42.856  26.438  27.337  1.00  0.00     0.074 A 
ATOM     26  C   UNL A   1      40.715  26.943  28.456  1.00  0.00     0.049 A 
ATOM     27  N   UNL A   1      43.536  27.524  27.598  1.00  0.00    -0.248 NA
ATOM     28  C   UNL A   1      43.576  25.471  26.490  1.00  0.00     0.031 C 
ATOM     29  C   UNL A   1      39.353  26.703  28.937  1.00  0.00     0.029 A 
ATOM     30  N   UNL A   1      40.987  28.227  28.859  1.00  0.00    -0.354 N 
ATOM     31  C   UNL A   1      44.781  27.347  27.008  1.00  0.00     0.074 A 
ATOM     32  C   UNL A   1      44.762  26.052  26.363  1.00  0.00     0.031 C 
ATOM     33  C   UNL A   1      38.904  27.805  29.557  1.00  0.00     0.029 A 
ATOM     34  C   UNL A   1      39.963  28.809  29.571  1.00  0.00     0.049 A 
ATOM     35  H   UNL A   1      41.833  28.686  28.658  1.00  0.00     0.167 HD
ATOM     36  C   UNL A   1      45.840  28.192  26.989  1.00  0.00     0.034 A 
ATOM     37  C   UNL A   1      39.892  30.005  30.188  1.00  0.00     0.034 A 
ATOM     38  C   UNL A   1      45.838  29.508  27.569  1.00  0.00     0.049 A 
ATOM     39  C   UNL A   1      41.077  30.929  30.139  1.00  0.00     0.074 A 
ATOM     40  C   UNL A   1      46.853  30.449  27.568  1.00  0.00     0.029 A 
ATOM     41  N   UNL A   1      44.766  30.076  28.238  1.00  0.00    -0.354 N 
ATOM     42  N   UNL A   1      42.223  30.767  29.523  1.00  0.00    -0.248 NA
ATOM     43  C   UNL A   1      40.954  32.206  30.856  1.00  0.00     0.031 C 
ATOM     44  C   UNL A   1      46.393  31.589  28.237  1.00  0.00     0.029 A 
ATOM     45  C   UNL A   1      45.091  31.357  28.653  1.00  0.00     0.049 A 
ATOM     46  H   UNL A   1      43.901  29.634  28.397  1.00  0.00     0.167 HD
ATOM     47  C   UNL A   1      42.952  31.925  29.767  1.00  0.00     0.074 A 
ATOM     48  C   UNL A   1      42.106  32.794  30.560  1.00  0.00     0.031 C 
ATOM     49  C   UNL A   1      44.219  32.231  29.392  1.00  0.00     0.034 A 
BRANCH  36  50
ATOM     50  C   UNL A   1      47.086  27.732  26.281  1.00  0.00     0.023 A 
ATOM     51  C   UNL A   1      48.079  27.041  27.004  1.00  0.00     0.012 A 
ATOM     52  C   UNL A   1      47.249  27.933  24.897  1.00  0.00     0.148 A 
ATOM     53  C   UNL A   1      49.226  26.574  26.363  1.00  0.00     0.002 A 
ATOM     54  C   UNL A   1      48.380  27.435  24.258  1.00  0.00     0.091 A 
ATOM     55  F   UNL A   1      46.308  28.618  24.232  1.00  0.00    -0.205 F 
ATOM     56  C   UNL A   1      49.372  26.763  24.990  1.00  0.00     0.022 A 
BRANCH  54  57
ATOM     57  S   UNL A   1      48.615  27.575  22.482  1.00  0.00     0.127 S 
ATOM     58  O   UNL A   1      48.639  26.172  22.074  1.00  0.00    -0.237 OA
ATOM     59  O   UNL A   1      47.421  28.312  22.064  1.00  0.00    -0.237 OA
ATOM     60  O   UNL A   1      49.863  28.307  22.309  1.00  0.00    -0.744 OA
ENDBRANCH  54  57
ENDBRANCH  36  50
BRANCH  37  61
ATOM     61  C   UNL A   1      38.632  30.406  30.875  1.00  0.00     0.023 A 
ATOM     62  C   UNL A   1      38.483  30.142  32.249  1.00  0.00     0.012 A 
ATOM     63  C   UNL A   1      37.607  31.090  30.192  1.00  0.00     0.148 A 
ATOM     64  C   UNL A   1      37.332  30.540  32.929  1.00  0.00     0.002 A 
ATOM     65  C   UNL A   1      36.489  31.535  30.888  1.00  0.00     0.091 A 
ATOM     66  F   UNL A   1      37.750  31.306  28.877  1.00  0.00    -0.205 F 
ATOM     67  C   UNL A   1      36.342  31.250  32.254  1.00  0.00     0.022 A 
BRANCH  65  68
ATOM     68  S   UNL A   1      35.251  32.582  30.114  1.00  0.00     0.127 S 
ATOM     69  O   UNL A   1      34.319  32.811  31.216  1.00  0.00    -0.237 OA
ATOM     70  O   UNL A   1      36.035  33.751  29.718  1.00  0.00    -0.237 OA
ATOM     71  O   UNL A   1      34.740  31.803  28.993  1.00  0.00    -0.744 OA
ENDBRANCH  65  68
ENDBRANCH  37  61
BRANCH  49  72
ATOM     72  C   UNL A   1      44.768  33.563  29.823  1.00  0.00     0.023 A 
ATOM     73  C   UNL A   1      45.552  33.640  30.991  1.00  0.00     0.012 A 
ATOM     74  C   UNL A   1      44.574  34.717  29.041  1.00  0.00     0.148 A 
ATOM     75  C   UNL A   1      46.116  34.851  31.387  1.00  0.00     0.002 A 
ATOM     76  C   UNL A   1      45.172  35.915  29.421  1.00  0.00     0.091 A 
ATOM     77  F   UNL A   1      43.806  34.629  27.946  1.00  0.00    -0.205 F 
ATOM     78  C   UNL A   1      45.936  35.985  30.597  1.00  0.00     0.022 A 
BRANCH  76  79
ATOM     79  S   UNL A   1      45.053  37.397  28.415  1.00  0.00     0.127 S 
ATOM     80  O   UNL A   1      43.619  37.678  28.464  1.00  0.00    -0.237 OA
ATOM     81  O   UNL A   1      45.885  38.349  29.152  1.00  0.00    -0.237 OA
ATOM     82  O   UNL A   1      45.580  37.028  27.108  1.00  0.00    -0.744 OA
ENDBRANCH  76  79
ENDBRANCH  49  72
ENDBRANCH  23  24
ENDBRANCH  16  18
ENDBRANCH   1  16
TORSDOF 14
ENDMDL
MODEL 3
REMARK VINA RESULT:     -11.0      1.442      1.727
REMARK SMILES C=C1C=C[C@H](C(=O)OCCOC(=O)c2ccc(-c3c4nc(c(-c5cccc(S(=O)(=O)[O-])c5F)c5ccc([nH]5)c(-c5cccc(S(=O)(=O)[O-])c5F)c5nc(c(-c6cccc(S(=O)(=O)[O-])c6F)c6ccc3[nH]6)C=C5)C=C4)cc2)C(=S)N1
REMARK SMILES IDX 11 1 10 2 9 3 8 4 6 5 7 6 5 7 1 8 2 9 3 10 79 11 4 12 77 13
REMARK SMILES IDX 78 15 12 16 13 17 14 18 15 19 76 20 16 21 75 22 17 23 18 24
REMARK SMILES IDX 19 25 69 26 20 27 74 28 68 29 70 30 21 31 73 32 67 33 66 34
REMARK SMILES IDX 22 36 54 37 34 38 53 39 35 40 38 41 52 42 71 43 36 44 37 45
REMARK SMILES IDX 51 47 72 48 39 49 23 50 24 51 32 52 25 53 27 54 33 55 26 56
REMARK SMILES IDX 28 57 29 58 30 59 31 60 55 61 56 62 64 63 57 64 59 65 65 66
REMARK SMILES IDX 58 67 60 68 61 69 62 70 63 71 40 72 41 73 49 74 42 75 44 76
REMARK SMILES IDX 50 77 43 78 45 79 46 80 47 81 48 82
REMARK H PARENT 79 14 70 35 38 46
REMARK Flexibility Score: inf
ROOT
ATOM      1  O   UNL A   1      38.410  21.418  25.784  1.00  0.00    -0.458 OA
ENDROOT
BRANCH   1   2
ATOM      2  C   UNL A   1      37.952  20.321  24.976  1.00  0.00     0.275 C 
BRANCH   2   3
ATOM      3  C   UNL A   1      36.427  20.295  24.964  1.00  0.00     0.274 C 
BRANCH   3   4
ATOM      4  O   UNL A   1      35.902  21.595  25.304  1.00  0.00    -0.461 OA
BRANCH   4   5
ATOM      5  C   UNL A   1      34.976  22.135  24.467  1.00  0.00     0.319 C 
ATOM      6  O   UNL A   1      35.258  22.871  23.527  1.00  0.00    -0.251 OA
BRANCH   5   7
ATOM      7  C   UNL A   1      33.538  21.815  24.897  1.00  0.00     0.180 C 
ATOM      8  C   UNL A   1      32.652  17.730  25.698  1.00  0.00     0.037 C 
ATOM      9  C   UNL A   1      32.834  19.032  25.449  1.00  0.00     0.031 C 
ATOM     10  C   UNL A   1      32.638  19.595  24.134  1.00  0.00     0.022 C 
ATOM     11  N   UNL A   1      33.177  19.891  26.460  1.00  0.00    -0.350 N 
ATOM     12  C   UNL A   1      32.934  20.876  23.870  1.00  0.00    -0.003 C 
ATOM     13  C   UNL A   1      33.392  21.239  26.312  1.00  0.00     0.098 C 
ATOM     14  H   UNL A   1      33.276  19.512  27.364  1.00  0.00     0.167 HD
ATOM     15  S   UNL A   1      33.417  22.204  27.689  1.00  0.00    -0.064 S 
ENDBRANCH   5   7
ENDBRANCH   4   5
ENDBRANCH   3   4
ENDBRANCH   2   3
ENDBRANCH   1   2
BRANCH   1  16
ATOM     16  C   UNL A   1      39.589  21.227  26.416  1.00  0.00     0.338 C 
ATOM     17  O   UNL A   1      40.235  20.197  26.504  1.00  0.00    -0.246 OA
BRANCH  16  18
ATOM     18  C   UNL A   1      40.047  22.511  26.958  1.00  0.00     0.060 A 
ATOM     19  C   UNL A   1      39.456  23.680  26.486  1.00  0.00     0.016 A 
ATOM     20  C   UNL A   1      41.124  22.563  27.840  1.00  0.00     0.016 A 
ATOM     21  C   UNL A   1      39.994  24.917  26.830  1.00  0.00     0.010 A 
ATOM     22  C   UNL A   1      41.618  23.808  28.241  1.00  0.00     0.010 A 
ATOM     23  C   UNL A   1      41.084  24.997  27.709  1.00  0.00    -0.014 A 
BRANCH  23  24
ATOM     24  C   UNL A   1      41.686  26.316  28.042  1.00  0.00     0.031 A 
ATOM     25  C   UNL A   1      40.861  27.373  28.731  1.00  0.00     0.074 A 
ATOM     26  C   UNL A   1      42.969  26.574  27.724  1.00  0.00     0.049 A 
ATOM     27  N   UNL A   1      41.167  28.616  28.995  1.00  0.00    -0.248 NA
ATOM     28  C   UNL A   1      39.512  26.981  29.174  1.00  0.00     0.031 C 
ATOM     29  C   UNL A   1      43.881  25.637  27.067  1.00  0.00     0.029 A 
ATOM     30  N   UNL A   1      43.728  27.705  27.904  1.00  0.00    -0.354 N 
ATOM     31  C   UNL A   1      40.033  29.174  29.573  1.00  0.00     0.074 A 
ATOM     32  C   UNL A   1      39.034  28.130  29.632  1.00  0.00     0.031 C 
ATOM     33  C   UNL A   1      45.078  26.224  26.909  1.00  0.00     0.029 A 
ATOM     34  C   UNL A   1      45.003  27.596  27.400  1.00  0.00     0.049 A 
ATOM     35  H   UNL A   1      43.391  28.514  28.349  1.00  0.00     0.167 HD
ATOM     36  C   UNL A   1      39.845  30.436  30.028  1.00  0.00     0.034 A 
ATOM     37  C   UNL A   1      45.995  28.505  27.317  1.00  0.00     0.034 A 
ATOM     38  C   UNL A   1      40.859  31.456  30.034  1.00  0.00     0.049 A 
ATOM     39  C   UNL A   1      45.764  29.895  27.843  1.00  0.00     0.074 A 
ATOM     40  C   UNL A   1      40.771  32.753  30.508  1.00  0.00     0.029 A 
ATOM     41  N   UNL A   1      42.150  31.290  29.559  1.00  0.00    -0.354 N 
ATOM     42  N   UNL A   1      44.705  30.384  28.441  1.00  0.00    -0.248 NA
ATOM     43  C   UNL A   1      46.869  30.853  27.697  1.00  0.00     0.031 C 
ATOM     44  C   UNL A   1      42.012  33.373  30.320  1.00  0.00     0.029 A 
ATOM     45  C   UNL A   1      42.872  32.460  29.731  1.00  0.00     0.049 A 
ATOM     46  H   UNL A   1      42.503  30.463  29.157  1.00  0.00     0.167 HD
ATOM     47  C   UNL A   1      45.019  31.700  28.754  1.00  0.00     0.074 A 
ATOM     48  C   UNL A   1      46.380  31.924  28.309  1.00  0.00     0.031 C 
ATOM     49  C   UNL A   1      44.242  32.649  29.334  1.00  0.00     0.034 A 
BRANCH  36  50
ATOM     50  C   UNL A   1      38.495  30.778  30.598  1.00  0.00     0.023 A 
ATOM     51  C   UNL A   1      38.227  30.508  31.955  1.00  0.00     0.012 A 
ATOM     52  C   UNL A   1      37.516  31.415  29.810  1.00  0.00     0.148 A 
ATOM     53  C   UNL A   1      36.996  30.848  32.514  1.00  0.00     0.002 A 
ATOM     54  C   UNL A   1      36.303  31.781  30.385  1.00  0.00     0.091 A 
ATOM     55  F   UNL A   1      37.778  31.637  28.515  1.00  0.00    -0.205 F 
ATOM     56  C   UNL A   1      36.039  31.493  31.733  1.00  0.00     0.022 A 
BRANCH  54  57
ATOM     57  S   UNL A   1      35.042  32.674  29.467  1.00  0.00     0.127 S 
ATOM     58  O   UNL A   1      35.813  33.778  28.900  1.00  0.00    -0.237 OA
ATOM     59  O   UNL A   1      34.597  31.676  28.493  1.00  0.00    -0.237 OA
ATOM     60  O   UNL A   1      34.032  33.045  30.450  1.00  0.00    -0.744 OA
ENDBRANCH  54  57
ENDBRANCH  36  50
BRANCH  37  61
ATOM     61  C   UNL A   1      47.311  28.110  26.741  1.00  0.00     0.023 A 
ATOM     62  C   UNL A   1      48.389  27.844  27.606  1.00  0.00     0.012 A 
ATOM     63  C   UNL A   1      47.489  27.946  25.353  1.00  0.00     0.148 A 
ATOM     64  C   UNL A   1      49.623  27.435  27.101  1.00  0.00     0.002 A 
ATOM     65  C   UNL A   1      48.703  27.482  24.861  1.00  0.00     0.091 A 
ATOM     66  F   UNL A   1      46.463  28.234  24.540  1.00  0.00    -0.205 F 
ATOM     67  C   UNL A   1      49.776  27.238  25.731  1.00  0.00     0.022 A 
BRANCH  65  68
ATOM     68  S   UNL A   1      48.920  27.065  23.127  1.00  0.00     0.127 S 
ATOM     69  O   UNL A   1      48.176  25.812  23.023  1.00  0.00    -0.237 OA
ATOM     70  O   UNL A   1      48.302  28.206  22.451  1.00  0.00    -0.237 OA
ATOM     71  O   UNL A   1      50.362  26.973  22.935  1.00  0.00    -0.744 OA
ENDBRANCH  65  68
ENDBRANCH  37  61
BRANCH  49  72
ATOM     72  C   UNL A   1      44.844  34.013  29.531  1.00  0.00     0.023 A 
ATOM     73  C   UNL A   1      45.526  34.299  30.731  1.00  0.00     0.012 A 
ATOM     74  C   UNL A   1      44.800  34.982  28.511  1.00  0.00     0.148 A 
ATOM     75  C   UNL A   1      46.136  35.538  30.920  1.00  0.00     0.002 A 
ATOM     76  C   UNL A   1      45.444  36.202  28.692  1.00  0.00     0.091 A 
ATOM     77  F   UNL A   1      44.126  34.701  27.387  1.00  0.00    -0.205 F 
ATOM     78  C   UNL A   1      46.106  36.484  29.898  1.00  0.00     0.022 A 
BRANCH  76  79
ATOM     79  S   UNL A   1      45.516  37.440  27.393  1.00  0.00     0.127 S 
ATOM     80  O   UNL A   1      46.374  38.458  27.996  1.00  0.00    -0.237 OA
ATOM     81  O   UNL A   1      46.131  36.703  26.287  1.00  0.00    -0.237 OA
ATOM     82  O   UNL A   1      44.136  37.838  27.153  1.00  0.00    -0.744 OA
ENDBRANCH  76  79
ENDBRANCH  49  72
ENDBRANCH  23  24
ENDBRANCH  16  18
ENDBRANCH   1  16
TORSDOF 14
ENDMDL
