MODEL 1
REMARK VINA RESULT:     -12.1      0.000      0.000
REMARK SMILES Cc1cc(S(=O)(=O)N[C@@H](CO)C(=O)OCCOC(=O)c2ccc(-c3c4nc(c(-c5cccc(S(=O)(=O)[O-])c5F)c5ccc([nH]5)c(-c5cccc(S(=O)(=O)[O-])c5F)c5nc(c(-c6cccc(S(=O)(=O)[O-])c6F)c6ccc3[nH]6)C=C5)C=C4)cc2)ccc1OC(C)C
REMARK SMILES IDX 15 1 14 2 12 3 13 4 9 5 8 6 5 8 6 9 7 10 4 11 1 12 2 13 3 14
REMARK SMILES IDX 85 15 84 16 83 17 86 18 87 19 88 20 89 21 10 22 11 23 16 25
REMARK SMILES IDX 17 26 18 27 19 28 20 29 21 30 82 31 22 32 81 33 23 34 24 35
REMARK SMILES IDX 25 36 75 37 26 38 80 39 74 40 76 41 27 42 79 43 73 44 72 45
REMARK SMILES IDX 28 47 60 48 40 49 59 50 41 51 44 52 58 53 77 54 42 55 43 56
REMARK SMILES IDX 57 58 78 59 45 60 29 61 30 62 38 63 31 64 33 65 39 66 32 67
REMARK SMILES IDX 34 68 35 69 36 70 37 71 61 72 62 73 70 74 63 75 65 76 71 77
REMARK SMILES IDX 64 78 66 79 67 80 68 81 69 82 46 83 47 84 55 85 48 86 50 87
REMARK SMILES IDX 56 88 49 89 51 90 52 91 53 92 54 93
REMARK H PARENT 8 7 11 24 76 46 44 57
REMARK Flexibility Score: inf
ROOT
ATOM      1  C   UNL A   1      33.275  29.172  26.498  1.00  0.00     0.274 C 
ENDROOT
BRANCH   1   2
ATOM      2  O   UNL A   1      33.215  29.028  25.080  1.00  0.00    -0.461 OA
BRANCH   2   3
ATOM      3  C   UNL A   1      32.010  29.282  24.526  1.00  0.00     0.326 C 
ATOM      4  O   UNL A   1      31.070  29.780  25.144  1.00  0.00    -0.250 OA
BRANCH   3   5
ATOM      5  C   UNL A   1      31.905  28.780  23.073  1.00  0.00     0.205 C 
BRANCH   5   6
ATOM      6  N   UNL A   1      32.132  27.334  23.223  1.00  0.00    -0.194 NA
ATOM      7  H   UNL A   1      32.836  27.257  23.957  1.00  0.00     0.142 HD
BRANCH   6   8
ATOM      8  S   UNL A   1      32.610  26.277  22.074  1.00  0.00     0.241 S 
ATOM      9  O   UNL A   1      33.884  26.728  21.551  1.00  0.00    -0.207 OA
ATOM     10  O   UNL A   1      31.467  26.135  21.199  1.00  0.00    -0.207 OA
BRANCH   8  11
ATOM     11  C   UNL A   1      32.862  24.684  22.800  1.00  0.00     0.083 A 
ATOM     12  C   UNL A   1      36.110  22.933  23.460  1.00  0.00     0.048 C 
ATOM     13  C   UNL A   1      34.617  23.048  23.394  1.00  0.00    -0.008 A 
ATOM     14  C   UNL A   1      34.202  24.332  22.973  1.00  0.00     0.029 A 
ATOM     15  C   UNL A   1      33.628  22.106  23.703  1.00  0.00     0.122 A 
ATOM     16  C   UNL A   1      32.271  22.501  23.588  1.00  0.00     0.048 A 
ATOM     17  C   UNL A   1      31.876  23.766  23.118  1.00  0.00     0.025 A 
BRANCH  15  18
ATOM     18  O   UNL A   1      33.717  20.807  24.107  1.00  0.00    -0.491 OA
BRANCH  18  19
ATOM     19  C   UNL A   1      32.647  19.896  24.317  1.00  0.00     0.167 C 
ATOM     20  C   UNL A   1      32.323  19.035  23.092  1.00  0.00     0.052 C 
ATOM     21  C   UNL A   1      32.720  19.195  25.675  1.00  0.00     0.052 C 
ENDBRANCH  18  19
ENDBRANCH  15  18
ENDBRANCH   8  11
ENDBRANCH   6   8
ENDBRANCH   5   6
BRANCH   5  22
ATOM     22  C   UNL A   1      30.589  29.193  22.421  1.00  0.00     0.188 C 
BRANCH  22  23
ATOM     23  O   UNL A   1      30.795  30.000  21.266  1.00  0.00    -0.394 OA
ATOM     24  H   UNL A   1      30.114  29.797  20.605  1.00  0.00     0.210 HD
ENDBRANCH  22  23
ENDBRANCH   5  22
ENDBRANCH   3   5
ENDBRANCH   2   3
ENDBRANCH   1   2
BRANCH   1  25
ATOM     25  C   UNL A   1      34.675  29.105  27.154  1.00  0.00     0.275 C 
BRANCH  25  26
ATOM     26  O   UNL A   1      35.278  30.234  27.876  1.00  0.00    -0.458 OA
BRANCH  26  27
ATOM     27  C   UNL A   1      36.370  30.387  28.668  1.00  0.00     0.338 C 
ATOM     28  O   UNL A   1      36.405  31.225  29.558  1.00  0.00    -0.246 OA
BRANCH  27  29
ATOM     29  C   UNL A   1      37.473  29.447  28.472  1.00  0.00     0.060 A 
ATOM     30  C   UNL A   1      38.330  29.567  27.363  1.00  0.00     0.016 A 
ATOM     31  C   UNL A   1      37.760  28.589  29.511  1.00  0.00     0.016 A 
ATOM     32  C   UNL A   1      39.568  28.928  27.366  1.00  0.00     0.010 A 
ATOM     33  C   UNL A   1      39.048  28.159  29.621  1.00  0.00     0.010 A 
ATOM     34  C   UNL A   1      39.932  28.265  28.530  1.00  0.00    -0.014 A 
BRANCH  34  35
ATOM     35  C   UNL A   1      41.064  27.366  28.675  1.00  0.00     0.031 A 
ATOM     36  C   UNL A   1      40.970  25.931  28.396  1.00  0.00     0.074 A 
ATOM     37  C   UNL A   1      42.209  28.063  28.865  1.00  0.00     0.049 A 
ATOM     38  N   UNL A   1      41.712  25.050  28.965  1.00  0.00    -0.248 NA
ATOM     39  C   UNL A   1      40.005  25.354  27.465  1.00  0.00     0.031 C 
ATOM     40  C   UNL A   1      43.599  27.730  28.675  1.00  0.00     0.029 A 
ATOM     41  N   UNL A   1      42.258  29.382  29.347  1.00  0.00    -0.354 N 
ATOM     42  C   UNL A   1      41.550  23.876  28.250  1.00  0.00     0.074 A 
ATOM     43  C   UNL A   1      40.349  24.060  27.475  1.00  0.00     0.031 C 
ATOM     44  C   UNL A   1      44.345  28.672  29.298  1.00  0.00     0.029 A 
ATOM     45  C   UNL A   1      43.439  29.539  30.053  1.00  0.00     0.049 A 
ATOM     46  H   UNL A   1      41.572  30.074  29.207  1.00  0.00     0.167 HD
ATOM     47  C   UNL A   1      42.584  22.989  28.189  1.00  0.00     0.034 A 
ATOM     48  C   UNL A   1      43.350  29.719  31.408  1.00  0.00     0.034 A 
ATOM     49  C   UNL A   1      43.756  23.579  28.856  1.00  0.00     0.049 A 
ATOM     50  C   UNL A   1      43.821  28.454  32.119  1.00  0.00     0.074 A 
ATOM     51  C   UNL A   1      44.819  24.345  28.405  1.00  0.00     0.029 A 
ATOM     52  N   UNL A   1      43.721  23.750  30.222  1.00  0.00    -0.354 N 
ATOM     53  N   UNL A   1      44.217  27.369  31.508  1.00  0.00    -0.248 NA
ATOM     54  C   UNL A   1      43.774  28.286  33.568  1.00  0.00     0.031 C 
ATOM     55  C   UNL A   1      45.367  25.039  29.532  1.00  0.00     0.029 A 
ATOM     56  C   UNL A   1      44.649  24.679  30.661  1.00  0.00     0.049 A 
ATOM     57  H   UNL A   1      43.106  23.265  30.819  1.00  0.00     0.167 HD
ATOM     58  C   UNL A   1      44.333  26.350  32.406  1.00  0.00     0.074 A 
ATOM     59  C   UNL A   1      44.041  26.977  33.687  1.00  0.00     0.031 C 
ATOM     60  C   UNL A   1      44.613  25.054  32.072  1.00  0.00     0.034 A 
BRANCH  47  61
ATOM     61  C   UNL A   1      42.690  21.755  27.307  1.00  0.00     0.023 A 
ATOM     62  C   UNL A   1      41.723  20.745  27.526  1.00  0.00     0.012 A 
ATOM     63  C   UNL A   1      43.624  21.505  26.270  1.00  0.00     0.148 A 
ATOM     64  C   UNL A   1      41.706  19.539  26.821  1.00  0.00     0.002 A 
ATOM     65  C   UNL A   1      43.631  20.277  25.586  1.00  0.00     0.091 A 
ATOM     66  F   UNL A   1      44.475  22.467  25.898  1.00  0.00    -0.205 F 
ATOM     67  C   UNL A   1      42.673  19.296  25.863  1.00  0.00     0.022 A 
BRANCH  65  68
ATOM     68  S   UNL A   1      44.863  19.831  24.343  1.00  0.00     0.127 S 
ATOM     69  O   UNL A   1      46.116  20.152  25.030  1.00  0.00    -0.237 OA
ATOM     70  O   UNL A   1      44.624  18.401  24.162  1.00  0.00    -0.237 OA
ATOM     71  O   UNL A   1      44.586  20.663  23.179  1.00  0.00    -0.744 OA
ENDBRANCH  65  68
ENDBRANCH  47  61
BRANCH  48  72
ATOM     72  C   UNL A   1      42.137  30.549  31.826  1.00  0.00     0.023 A 
ATOM     73  C   UNL A   1      41.901  31.761  31.118  1.00  0.00     0.012 A 
ATOM     74  C   UNL A   1      41.066  30.024  32.579  1.00  0.00     0.148 A 
ATOM     75  C   UNL A   1      40.614  32.305  31.006  1.00  0.00     0.002 A 
ATOM     76  C   UNL A   1      39.793  30.594  32.496  1.00  0.00     0.091 A 
ATOM     77  F   UNL A   1      41.272  28.936  33.324  1.00  0.00    -0.205 F 
ATOM     78  C   UNL A   1      39.554  31.700  31.668  1.00  0.00     0.022 A 
BRANCH  76  79
ATOM     79  S   UNL A   1      38.377  29.909  33.375  1.00  0.00     0.127 S 
ATOM     80  O   UNL A   1      38.795  30.076  34.764  1.00  0.00    -0.237 OA
ATOM     81  O   UNL A   1      37.289  30.787  32.950  1.00  0.00    -0.237 OA
ATOM     82  O   UNL A   1      38.263  28.535  32.911  1.00  0.00    -0.744 OA
ENDBRANCH  76  79
ENDBRANCH  48  72
BRANCH  60  83
ATOM     83  C   UNL A   1      44.894  24.027  33.140  1.00  0.00     0.023 A 
ATOM     84  C   UNL A   1      43.836  23.225  33.614  1.00  0.00     0.012 A 
ATOM     85  C   UNL A   1      46.136  23.914  33.802  1.00  0.00     0.148 A 
ATOM     86  C   UNL A   1      44.025  22.284  34.624  1.00  0.00     0.002 A 
ATOM     87  C   UNL A   1      46.282  23.076  34.898  1.00  0.00     0.091 A 
ATOM     88  F   UNL A   1      47.208  24.571  33.348  1.00  0.00    -0.205 F 
ATOM     89  C   UNL A   1      45.244  22.224  35.281  1.00  0.00     0.022 A 
BRANCH  87  90
ATOM     90  S   UNL A   1      47.732  23.146  35.956  1.00  0.00     0.127 S 
ATOM     91  O   UNL A   1      48.773  22.637  35.061  1.00  0.00    -0.237 OA
ATOM     92  O   UNL A   1      47.819  24.574  36.248  1.00  0.00    -0.237 OA
ATOM     93  O   UNL A   1      47.442  22.279  37.088  1.00  0.00    -0.744 OA
ENDBRANCH  87  90
ENDBRANCH  60  83
ENDBRANCH  34  35
ENDBRANCH  27  29
ENDBRANCH  26  27
ENDBRANCH  25  26
ENDBRANCH   1  25
TORSDOF 21
ENDMDL
MODEL 2
REMARK VINA RESULT:     -12.0      4.560     10.681
REMARK SMILES Cc1cc(S(=O)(=O)N[C@@H](CO)C(=O)OCCOC(=O)c2ccc(-c3c4nc(c(-c5cccc(S(=O)(=O)[O-])c5F)c5ccc([nH]5)c(-c5cccc(S(=O)(=O)[O-])c5F)c5nc(c(-c6cccc(S(=O)(=O)[O-])c6F)c6ccc3[nH]6)C=C5)C=C4)cc2)ccc1OC(C)C
REMARK SMILES IDX 15 1 14 2 12 3 13 4 9 5 8 6 5 8 6 9 7 10 4 11 1 12 2 13 3 14
REMARK SMILES IDX 85 15 84 16 83 17 86 18 87 19 88 20 89 21 10 22 11 23 16 25
REMARK SMILES IDX 17 26 18 27 19 28 20 29 21 30 82 31 22 32 81 33 23 34 24 35
REMARK SMILES IDX 25 36 75 37 26 38 80 39 74 40 76 41 27 42 79 43 73 44 72 45
REMARK SMILES IDX 28 47 60 48 40 49 59 50 41 51 44 52 58 53 77 54 42 55 43 56
REMARK SMILES IDX 57 58 78 59 45 60 29 61 30 62 38 63 31 64 33 65 39 66 32 67
REMARK SMILES IDX 34 68 35 69 36 70 37 71 61 72 62 73 70 74 63 75 65 76 71 77
REMARK SMILES IDX 64 78 66 79 67 80 68 81 69 82 46 83 47 84 55 85 48 86 50 87
REMARK SMILES IDX 56 88 49 89 51 90 52 91 53 92 54 93
REMARK H PARENT 8 7 11 24 76 46 44 57
REMARK Flexibility Score: inf
ROOT
ATOM      1  C   UNL A   1      38.103  21.487  25.420  1.00  0.00     0.274 C 
ENDROOT
BRANCH   1   2
ATOM      2  O   UNL A   1      36.821  22.100  25.554  1.00  0.00    -0.461 OA
BRANCH   2   3
ATOM      3  C   UNL A   1      36.228  22.456  24.395  1.00  0.00     0.326 C 
ATOM      4  O   UNL A   1      36.849  22.842  23.406  1.00  0.00    -0.250 OA
BRANCH   3   5
ATOM      5  C   UNL A   1      34.689  22.433  24.481  1.00  0.00     0.205 C 
BRANCH   5   6
ATOM      6  N   UNL A   1      34.293  22.850  23.128  1.00  0.00    -0.194 NA
ATOM      7  H   UNL A   1      35.124  23.294  22.739  1.00  0.00     0.142 HD
BRANCH   6   8
ATOM      8  S   UNL A   1      33.060  23.835  22.711  1.00  0.00     0.241 S 
ATOM      9  O   UNL A   1      31.818  23.144  22.993  1.00  0.00    -0.207 OA
ATOM     10  O   UNL A   1      33.367  24.270  21.367  1.00  0.00    -0.207 OA
BRANCH   8  11
ATOM     11  C   UNL A   1      33.100  25.294  23.711  1.00  0.00     0.083 A 
ATOM     12  C   UNL A   1      34.102  28.762  22.700  1.00  0.00     0.048 C 
ATOM     13  C   UNL A   1      33.696  27.692  23.668  1.00  0.00    -0.008 A 
ATOM     14  C   UNL A   1      33.460  26.456  23.025  1.00  0.00     0.029 A 
ATOM     15  C   UNL A   1      33.507  27.759  25.054  1.00  0.00     0.122 A 
ATOM     16  C   UNL A   1      33.075  26.587  25.727  1.00  0.00     0.048 A 
ATOM     17  C   UNL A   1      32.894  25.352  25.078  1.00  0.00     0.025 A 
BRANCH  15  18
ATOM     18  O   UNL A   1      33.673  28.785  25.937  1.00  0.00    -0.491 OA
BRANCH  18  19
ATOM     19  C   UNL A   1      32.670  29.660  26.438  1.00  0.00     0.167 C 
ATOM     20  C   UNL A   1      33.227  30.822  27.266  1.00  0.00     0.052 C 
ATOM     21  C   UNL A   1      31.591  29.982  25.402  1.00  0.00     0.052 C 
ENDBRANCH  18  19
ENDBRANCH  15  18
ENDBRANCH   8  11
ENDBRANCH   6   8
ENDBRANCH   5   6
BRANCH   5  22
ATOM     22  C   UNL A   1      34.166  21.080  24.952  1.00  0.00     0.188 C 
BRANCH  22  23
ATOM     23  O   UNL A   1      33.225  20.523  24.039  1.00  0.00    -0.394 OA
ATOM     24  H   UNL A   1      33.365  19.565  23.974  1.00  0.00     0.210 HD
ENDBRANCH  22  23
ENDBRANCH   5  22
ENDBRANCH   3   5
ENDBRANCH   2   3
ENDBRANCH   1   2
BRANCH   1  25
ATOM     25  C   UNL A   1      39.283  22.153  26.166  1.00  0.00     0.275 C 
BRANCH  25  26
ATOM     26  O   UNL A   1      39.380  23.602  26.384  1.00  0.00    -0.458 OA
BRANCH  26  27
ATOM     27  C   UNL A   1      40.357  24.440  26.815  1.00  0.00     0.338 C 
ATOM     28  O   UNL A   1      41.541  24.195  26.632  1.00  0.00    -0.246 OA
BRANCH  27  29
ATOM     29  C   UNL A   1      39.934  25.696  27.434  1.00  0.00     0.060 A 
ATOM     30  C   UNL A   1      39.306  25.701  28.692  1.00  0.00     0.016 A 
ATOM     31  C   UNL A   1      40.359  26.864  26.839  1.00  0.00     0.016 A 
ATOM     32  C   UNL A   1      39.239  26.879  29.434  1.00  0.00     0.010 A 
ATOM     33  C   UNL A   1      40.504  27.952  27.648  1.00  0.00     0.010 A 
ATOM     34  C   UNL A   1      39.890  27.989  28.914  1.00  0.00    -0.014 A 
BRANCH  34  35
ATOM     35  C   UNL A   1      39.769  29.351  29.405  1.00  0.00     0.031 A 
ATOM     36  C   UNL A   1      38.688  30.246  28.986  1.00  0.00     0.074 A 
ATOM     37  C   UNL A   1      40.624  29.568  30.432  1.00  0.00     0.049 A 
ATOM     38  N   UNL A   1      38.800  31.525  28.957  1.00  0.00    -0.248 NA
ATOM     39  C   UNL A   1      37.383  29.773  28.532  1.00  0.00     0.031 C 
ATOM     40  C   UNL A   1      40.646  30.541  31.496  1.00  0.00     0.029 A 
ATOM     41  N   UNL A   1      41.781  28.806  30.669  1.00  0.00    -0.354 N 
ATOM     42  C   UNL A   1      37.520  32.030  28.805  1.00  0.00     0.074 A 
ATOM     43  C   UNL A   1      36.720  30.922  28.347  1.00  0.00     0.031 C 
ATOM     44  C   UNL A   1      41.872  30.507  32.069  1.00  0.00     0.029 A 
ATOM     45  C   UNL A   1      42.722  29.628  31.265  1.00  0.00     0.049 A 
ATOM     46  H   UNL A   1      41.901  27.854  30.449  1.00  0.00     0.167 HD
ATOM     47  C   UNL A   1      37.223  33.251  29.335  1.00  0.00     0.034 A 
ATOM     48  C   UNL A   1      43.843  29.940  30.541  1.00  0.00     0.034 A 
ATOM     49  C   UNL A   1      38.387  33.737  30.093  1.00  0.00     0.049 A 
ATOM     50  C   UNL A   1      43.766  31.397  30.094  1.00  0.00     0.074 A 
ATOM     51  C   UNL A   1      38.770  33.621  31.420  1.00  0.00     0.029 A 
ATOM     52  N   UNL A   1      39.524  34.091  29.402  1.00  0.00    -0.354 N 
ATOM     53  N   UNL A   1      42.765  32.196  30.352  1.00  0.00    -0.248 NA
ATOM     54  C   UNL A   1      44.766  32.022  29.233  1.00  0.00     0.031 C 
ATOM     55  C   UNL A   1      40.184  33.840  31.487  1.00  0.00     0.029 A 
ATOM     56  C   UNL A   1      40.649  34.104  30.208  1.00  0.00     0.049 A 
ATOM     57  H   UNL A   1      39.535  34.311  28.442  1.00  0.00     0.167 HD
ATOM     58  C   UNL A   1      42.884  33.337  29.616  1.00  0.00     0.074 A 
ATOM     59  C   UNL A   1      44.157  33.178  28.927  1.00  0.00     0.031 C 
ATOM     60  C   UNL A   1      41.940  34.324  29.563  1.00  0.00     0.034 A 
BRANCH  47  61
ATOM     61  C   UNL A   1      35.850  33.894  29.458  1.00  0.00     0.023 A 
ATOM     62  C   UNL A   1      35.109  34.022  28.259  1.00  0.00     0.012 A 
ATOM     63  C   UNL A   1      35.209  34.354  30.636  1.00  0.00     0.148 A 
ATOM     64  C   UNL A   1      33.847  34.619  28.203  1.00  0.00     0.002 A 
ATOM     65  C   UNL A   1      33.957  34.990  30.575  1.00  0.00     0.091 A 
ATOM     66  F   UNL A   1      35.775  34.135  31.828  1.00  0.00    -0.205 F 
ATOM     67  C   UNL A   1      33.278  35.121  29.359  1.00  0.00     0.022 A 
BRANCH  65  68
ATOM     68  S   UNL A   1      33.132  35.716  32.008  1.00  0.00     0.127 S 
ATOM     69  O   UNL A   1      32.093  36.534  31.376  1.00  0.00    -0.237 OA
ATOM     70  O   UNL A   1      32.627  34.538  32.711  1.00  0.00    -0.237 OA
ATOM     71  O   UNL A   1      34.148  36.480  32.719  1.00  0.00    -0.744 OA
ENDBRANCH  65  68
ENDBRANCH  47  61
BRANCH  48  72
ATOM     72  C   UNL A   1      44.333  28.788  29.665  1.00  0.00     0.023 A 
ATOM     73  C   UNL A   1      44.490  27.517  30.287  1.00  0.00     0.012 A 
ATOM     74  C   UNL A   1      44.277  28.813  28.255  1.00  0.00     0.148 A 
ATOM     75  C   UNL A   1      44.391  26.327  29.554  1.00  0.00     0.002 A 
ATOM     76  C   UNL A   1      44.220  27.623  27.526  1.00  0.00     0.091 A 
ATOM     77  F   UNL A   1      44.215  29.992  27.632  1.00  0.00    -0.205 F 
ATOM     78  C   UNL A   1      44.222  26.381  28.176  1.00  0.00     0.022 A 
BRANCH  76  79
ATOM     79  S   UNL A   1      44.064  27.606  25.731  1.00  0.00     0.127 S 
ATOM     80  O   UNL A   1      45.398  28.042  25.325  1.00  0.00    -0.237 OA
ATOM     81  O   UNL A   1      43.766  26.202  25.455  1.00  0.00    -0.237 OA
ATOM     82  O   UNL A   1      42.980  28.527  25.428  1.00  0.00    -0.744 OA
ENDBRANCH  76  79
ENDBRANCH  48  72
BRANCH  60  83
ATOM     83  C   UNL A   1      42.228  35.629  28.862  1.00  0.00     0.023 A 
ATOM     84  C   UNL A   1      41.851  35.778  27.513  1.00  0.00     0.012 A 
ATOM     85  C   UNL A   1      42.986  36.671  29.440  1.00  0.00     0.148 A 
ATOM     86  C   UNL A   1      42.121  36.945  26.801  1.00  0.00     0.002 A 
ATOM     87  C   UNL A   1      43.371  37.769  28.685  1.00  0.00     0.091 A 
ATOM     88  F   UNL A   1      43.296  36.643  30.740  1.00  0.00    -0.205 F 
ATOM     89  C   UNL A   1      42.901  37.932  27.381  1.00  0.00     0.022 A 
BRANCH  87  90
ATOM     90  S   UNL A   1      44.594  38.943  29.280  1.00  0.00     0.127 S 
ATOM     91  O   UNL A   1      44.979  39.620  28.039  1.00  0.00    -0.237 OA
ATOM     92  O   UNL A   1      43.803  39.756  30.201  1.00  0.00    -0.237 OA
ATOM     93  O   UNL A   1      45.654  38.148  29.880  1.00  0.00    -0.744 OA
ENDBRANCH  87  90
ENDBRANCH  60  83
ENDBRANCH  34  35
ENDBRANCH  27  29
ENDBRANCH  26  27
ENDBRANCH  25  26
ENDBRANCH   1  25
TORSDOF 21
ENDMDL
MODEL 3
REMARK VINA RESULT:     -11.7      1.558      2.038
REMARK SMILES Cc1cc(S(=O)(=O)N[C@@H](CO)C(=O)OCCOC(=O)c2ccc(-c3c4nc(c(-c5cccc(S(=O)(=O)[O-])c5F)c5ccc([nH]5)c(-c5cccc(S(=O)(=O)[O-])c5F)c5nc(c(-c6cccc(S(=O)(=O)[O-])c6F)c6ccc3[nH]6)C=C5)C=C4)cc2)ccc1OC(C)C
REMARK SMILES IDX 15 1 14 2 12 3 13 4 9 5 8 6 5 8 6 9 7 10 4 11 1 12 2 13 3 14
REMARK SMILES IDX 85 15 84 16 83 17 86 18 87 19 88 20 89 21 10 22 11 23 16 25
REMARK SMILES IDX 17 26 18 27 19 28 20 29 21 30 82 31 22 32 81 33 23 34 24 35
REMARK SMILES IDX 25 36 75 37 26 38 80 39 74 40 76 41 27 42 79 43 73 44 72 45
REMARK SMILES IDX 28 47 60 48 40 49 59 50 41 51 44 52 58 53 77 54 42 55 43 56
REMARK SMILES IDX 57 58 78 59 45 60 29 61 30 62 38 63 31 64 33 65 39 66 32 67
REMARK SMILES IDX 34 68 35 69 36 70 37 71 61 72 62 73 70 74 63 75 65 76 71 77
REMARK SMILES IDX 64 78 66 79 67 80 68 81 69 82 46 83 47 84 55 85 48 86 50 87
REMARK SMILES IDX 56 88 49 89 51 90 52 91 53 92 54 93
REMARK H PARENT 8 7 11 24 76 46 44 57
REMARK Flexibility Score: inf
ROOT
ATOM      1  C   UNL A   1      33.425  29.354  26.591  1.00  0.00     0.274 C 
ENDROOT
BRANCH   1   2
ATOM      2  O   UNL A   1      33.446  29.158  25.178  1.00  0.00    -0.461 OA
BRANCH   2   3
ATOM      3  C   UNL A   1      32.235  29.119  24.583  1.00  0.00     0.326 C 
ATOM      4  O   UNL A   1      31.198  29.489  25.131  1.00  0.00    -0.250 OA
BRANCH   3   5
ATOM      5  C   UNL A   1      32.276  28.458  23.191  1.00  0.00     0.205 C 
BRANCH   5   6
ATOM      6  N   UNL A   1      32.519  27.046  23.521  1.00  0.00    -0.194 NA
ATOM      7  H   UNL A   1      33.327  27.060  24.143  1.00  0.00     0.142 HD
BRANCH   6   8
ATOM      8  S   UNL A   1      32.810  25.818  22.485  1.00  0.00     0.241 S 
ATOM      9  O   UNL A   1      33.660  26.319  21.424  1.00  0.00    -0.207 OA
ATOM     10  O   UNL A   1      31.508  25.267  22.184  1.00  0.00    -0.207 OA
BRANCH   8  11
ATOM     11  C   UNL A   1      33.696  24.534  23.320  1.00  0.00     0.083 A 
ATOM     12  C   UNL A   1      33.313  23.392  26.870  1.00  0.00     0.048 C 
ATOM     13  C   UNL A   1      33.952  23.426  25.514  1.00  0.00    -0.008 A 
ATOM     14  C   UNL A   1      33.278  24.301  24.632  1.00  0.00     0.029 A 
ATOM     15  C   UNL A   1      35.060  22.723  25.025  1.00  0.00     0.122 A 
ATOM     16  C   UNL A   1      35.430  22.919  23.670  1.00  0.00     0.048 A 
ATOM     17  C   UNL A   1      34.779  23.831  22.820  1.00  0.00     0.025 A 
BRANCH  15  18
ATOM     18  O   UNL A   1      35.906  21.843  25.631  1.00  0.00    -0.491 OA
BRANCH  18  19
ATOM     19  C   UNL A   1      37.064  21.238  25.070  1.00  0.00     0.167 C 
ATOM     20  C   UNL A   1      38.377  21.739  25.681  1.00  0.00     0.052 C 
ATOM     21  C   UNL A   1      36.908  19.729  24.869  1.00  0.00     0.052 C 
ENDBRANCH  18  19
ENDBRANCH  15  18
ENDBRANCH   8  11
ENDBRANCH   6   8
ENDBRANCH   5   6
BRANCH   5  22
ATOM     22  C   UNL A   1      31.018  28.757  22.383  1.00  0.00     0.188 C 
BRANCH  22  23
ATOM     23  O   UNL A   1      31.144  29.951  21.618  1.00  0.00    -0.394 OA
ATOM     24  H   UNL A   1      30.365  30.512  21.763  1.00  0.00     0.210 HD
ENDBRANCH  22  23
ENDBRANCH   5  22
ENDBRANCH   3   5
ENDBRANCH   2   3
ENDBRANCH   1   2
BRANCH   1  25
ATOM     25  C   UNL A   1      34.776  29.247  27.338  1.00  0.00     0.275 C 
BRANCH  25  26
ATOM     26  O   UNL A   1      35.383  30.370  28.062  1.00  0.00    -0.458 OA
BRANCH  26  27
ATOM     27  C   UNL A   1      36.507  30.531  28.808  1.00  0.00     0.338 C 
ATOM     28  O   UNL A   1      36.587  31.391  29.673  1.00  0.00    -0.246 OA
BRANCH  27  29
ATOM     29  C   UNL A   1      37.592  29.573  28.594  1.00  0.00     0.060 A 
ATOM     30  C   UNL A   1      38.433  29.680  27.472  1.00  0.00     0.016 A 
ATOM     31  C   UNL A   1      37.879  28.708  29.628  1.00  0.00     0.016 A 
ATOM     32  C   UNL A   1      39.660  29.020  27.456  1.00  0.00     0.010 A 
ATOM     33  C   UNL A   1      39.162  28.257  29.717  1.00  0.00     0.010 A 
ATOM     34  C   UNL A   1      40.031  28.350  28.613  1.00  0.00    -0.014 A 
BRANCH  34  35
ATOM     35  C   UNL A   1      41.150  27.432  28.740  1.00  0.00     0.031 A 
ATOM     36  C   UNL A   1      41.033  26.002  28.442  1.00  0.00     0.074 A 
ATOM     37  C   UNL A   1      42.306  28.108  28.934  1.00  0.00     0.049 A 
ATOM     38  N   UNL A   1      41.764  25.102  28.994  1.00  0.00    -0.248 NA
ATOM     39  C   UNL A   1      40.054  25.453  27.507  1.00  0.00     0.031 C 
ATOM     40  C   UNL A   1      43.690  27.757  28.732  1.00  0.00     0.029 A 
ATOM     41  N   UNL A   1      42.377  29.419  29.434  1.00  0.00    -0.354 N 
ATOM     42  C   UNL A   1      41.580  23.941  28.265  1.00  0.00     0.074 A 
ATOM     43  C   UNL A   1      40.378  24.153  27.498  1.00  0.00     0.031 C 
ATOM     44  C   UNL A   1      44.453  28.679  29.364  1.00  0.00     0.029 A 
ATOM     45  C   UNL A   1      43.564  29.549  30.136  1.00  0.00     0.049 A 
ATOM     46  H   UNL A   1      41.701  30.124  29.307  1.00  0.00     0.167 HD
ATOM     47  C   UNL A   1      42.600  23.040  28.186  1.00  0.00     0.034 A 
ATOM     48  C   UNL A   1      43.484  29.712  31.494  1.00  0.00     0.034 A 
ATOM     49  C   UNL A   1      43.784  23.602  28.855  1.00  0.00     0.049 A 
ATOM     50  C   UNL A   1      43.939  28.429  32.185  1.00  0.00     0.074 A 
ATOM     51  C   UNL A   1      44.856  24.358  28.409  1.00  0.00     0.029 A 
ATOM     52  N   UNL A   1      43.758  23.754  30.223  1.00  0.00    -0.354 N 
ATOM     53  N   UNL A   1      44.316  27.347  31.556  1.00  0.00    -0.248 NA
ATOM     54  C   UNL A   1      43.896  28.243  33.632  1.00  0.00     0.031 C 
ATOM     55  C   UNL A   1      45.420  25.028  29.543  1.00  0.00     0.029 A 
ATOM     56  C   UNL A   1      44.702  24.663  30.671  1.00  0.00     0.049 A 
ATOM     57  H   UNL A   1      43.139  23.271  30.817  1.00  0.00     0.167 HD
ATOM     58  C   UNL A   1      44.421  26.314  32.440  1.00  0.00     0.074 A 
ATOM     59  C   UNL A   1      44.144  26.927  33.731  1.00  0.00     0.031 C 
ATOM     60  C   UNL A   1      44.679  25.019  32.086  1.00  0.00     0.034 A 
BRANCH  47  61
ATOM     61  C   UNL A   1      42.683  21.816  27.287  1.00  0.00     0.023 A 
ATOM     62  C   UNL A   1      41.640  20.868  27.423  1.00  0.00     0.012 A 
ATOM     63  C   UNL A   1      43.663  21.523  26.305  1.00  0.00     0.148 A 
ATOM     64  C   UNL A   1      41.591  19.678  26.692  1.00  0.00     0.002 A 
ATOM     65  C   UNL A   1      43.636  20.309  25.598  1.00  0.00     0.091 A 
ATOM     66  F   UNL A   1      44.597  22.433  26.009  1.00  0.00    -0.205 F 
ATOM     67  C   UNL A   1      42.601  19.388  25.792  1.00  0.00     0.022 A 
BRANCH  65  68
ATOM     68  S   UNL A   1      44.913  19.804  24.426  1.00  0.00     0.127 S 
ATOM     69  O   UNL A   1      44.689  18.359  24.337  1.00  0.00    -0.237 OA
ATOM     70  O   UNL A   1      44.547  20.547  23.221  1.00  0.00    -0.237 OA
ATOM     71  O   UNL A   1      46.188  20.178  25.026  1.00  0.00    -0.744 OA
ENDBRANCH  65  68
ENDBRANCH  47  61
BRANCH  48  72
ATOM     72  C   UNL A   1      42.286  30.554  31.930  1.00  0.00     0.023 A 
ATOM     73  C   UNL A   1      41.086  29.861  32.256  1.00  0.00     0.012 A 
ATOM     74  C   UNL A   1      42.403  31.886  32.378  1.00  0.00     0.148 A 
ATOM     75  C   UNL A   1      40.150  30.400  33.149  1.00  0.00     0.002 A 
ATOM     76  C   UNL A   1      41.445  32.433  33.235  1.00  0.00     0.091 A 
ATOM     77  F   UNL A   1      43.475  32.597  32.021  1.00  0.00    -0.205 F 
ATOM     78  C   UNL A   1      40.348  31.674  33.665  1.00  0.00     0.022 A 
BRANCH  76  79
ATOM     79  S   UNL A   1      41.595  34.102  33.899  1.00  0.00     0.127 S 
ATOM     80  O   UNL A   1      40.434  34.162  34.783  1.00  0.00    -0.237 OA
ATOM     81  O   UNL A   1      42.886  34.054  34.582  1.00  0.00    -0.237 OA
ATOM     82  O   UNL A   1      41.554  34.982  32.742  1.00  0.00    -0.744 OA
ENDBRANCH  76  79
ENDBRANCH  48  72
BRANCH  60  83
ATOM     83  C   UNL A   1      44.949  23.973  33.139  1.00  0.00     0.023 A 
ATOM     84  C   UNL A   1      43.891  23.152  33.576  1.00  0.00     0.012 A 
ATOM     85  C   UNL A   1      46.180  23.858  33.823  1.00  0.00     0.148 A 
ATOM     86  C   UNL A   1      44.069  22.192  34.570  1.00  0.00     0.002 A 
ATOM     87  C   UNL A   1      46.312  22.999  34.904  1.00  0.00     0.091 A 
ATOM     88  F   UNL A   1      47.254  24.534  33.403  1.00  0.00    -0.205 F 
ATOM     89  C   UNL A   1      45.275  22.130  35.249  1.00  0.00     0.022 A 
BRANCH  87  90
ATOM     90  S   UNL A   1      47.741  23.061  35.991  1.00  0.00     0.127 S 
ATOM     91  O   UNL A   1      48.844  22.979  35.032  1.00  0.00    -0.237 OA
ATOM     92  O   UNL A   1      47.576  24.366  36.626  1.00  0.00    -0.237 OA
ATOM     93  O   UNL A   1      47.625  21.905  36.868  1.00  0.00    -0.744 OA
ENDBRANCH  87  90
ENDBRANCH  60  83
ENDBRANCH  34  35
ENDBRANCH  27  29
ENDBRANCH  26  27
ENDBRANCH  25  26
ENDBRANCH   1  25
TORSDOF 21
ENDMDL
