MODEL 1
REMARK VINA RESULT:     -12.8      0.000      0.000
REMARK SMILES CC(=O)Nc1cccc(-c2ccc(F)c(C(=O)OCCOC(=O)c3ccc(-c4c5nc(c(-c6cccc(S(=O)(=O)[O-])c6F)c6ccc([nH]6)c(-c6cccc(S(=O)(=O)[O-])c6F)c6nc(c(-c7cccc(S(=O)(=O)[O-])c7F)c7ccc4[nH]7)C=C6)C=C5)cc3)c2)c1
REMARK SMILES IDX 20 1 19 2 18 3 16 4 17 5 15 6 10 7 11 8 87 9 12 10 13 11
REMARK SMILES IDX 14 12 9 13 5 14 6 15 88 16 7 17 8 18 4 19 1 20 2 21 3 22
REMARK SMILES IDX 21 24 22 25 23 26 24 27 25 28 86 29 26 30 85 31 27 32 28 33
REMARK SMILES IDX 29 34 79 35 30 36 84 37 78 38 80 39 31 40 83 41 77 42 76 43
REMARK SMILES IDX 32 45 64 46 44 47 63 48 45 49 48 50 62 51 81 52 46 53 47 54
REMARK SMILES IDX 61 56 82 57 49 58 33 59 34 60 42 61 35 62 37 63 43 64 36 65
REMARK SMILES IDX 38 66 39 67 40 68 41 69 65 70 66 71 74 72 67 73 69 74 75 75
REMARK SMILES IDX 68 76 70 77 71 78 72 79 73 80 50 81 51 82 59 83 52 84 54 85
REMARK SMILES IDX 60 86 53 87 55 88 56 89 57 90 58 91
REMARK H PARENT 4 23 80 44 48 55
REMARK Flexibility Score: inf
ROOT
ATOM      1  C   UNL A   1      36.175  20.659  24.966  1.00  0.00     0.275 C 
ENDROOT
BRANCH   1   2
ATOM      2  C   UNL A   1      34.737  20.954  25.399  1.00  0.00     0.275 C 
BRANCH   2   3
ATOM      3  O   UNL A   1      34.544  22.372  25.582  1.00  0.00    -0.458 OA
BRANCH   3   4
ATOM      4  C   UNL A   1      33.947  22.768  26.737  1.00  0.00     0.341 C 
ATOM      5  O   UNL A   1      34.380  22.599  27.865  1.00  0.00    -0.246 OA
BRANCH   4   6
ATOM      6  C   UNL A   1      32.702  23.505  26.423  1.00  0.00     0.096 A 
ATOM      7  C   UNL A   1      31.479  25.600  26.212  1.00  0.00    -0.017 A 
ATOM      8  C   UNL A   1      30.326  24.885  25.860  1.00  0.00     0.012 A 
ATOM      9  C   UNL A   1      32.645  24.892  26.558  1.00  0.00     0.027 A 
ATOM     10  C   UNL A   1      30.379  23.500  25.724  1.00  0.00     0.041 A 
ATOM     11  C   UNL A   1      31.580  22.830  25.942  1.00  0.00     0.137 A 
ATOM     12  F   UNL A   1      31.612  21.519  25.671  1.00  0.00    -0.206 F 
BRANCH   7  13
ATOM     13  C   UNL A   1      31.547  27.052  26.034  1.00  0.00    -0.016 A 
ATOM     14  C   UNL A   1      31.317  28.928  24.483  1.00  0.00     0.041 A 
ATOM     15  C   UNL A   1      31.655  29.802  25.517  1.00  0.00     0.026 A 
ATOM     16  C   UNL A   1      31.295  27.565  24.747  1.00  0.00     0.034 A 
ATOM     17  C   UNL A   1      31.883  29.315  26.810  1.00  0.00     0.003 A 
ATOM     18  C   UNL A   1      31.818  27.944  27.071  1.00  0.00     0.009 A 
BRANCH  14  19
ATOM     19  N   UNL A   1      31.074  29.458  23.206  1.00  0.00    -0.326 N 
ATOM     20  C   UNL A   1      28.577  29.538  23.222  1.00  0.00     0.114 C 
ATOM     21  C   UNL A   1      29.905  29.613  22.510  1.00  0.00     0.221 C 
ATOM     22  O   UNL A   1      29.959  29.890  21.310  1.00  0.00    -0.275 OA
ATOM     23  H   UNL A   1      31.878  29.769  22.731  1.00  0.00     0.169 HD
ENDBRANCH  14  19
ENDBRANCH   7  13
ENDBRANCH   4   6
ENDBRANCH   3   4
ENDBRANCH   2   3
ENDBRANCH   1   2
BRANCH   1  24
ATOM     24  O   UNL A   1      37.057  21.703  25.412  1.00  0.00    -0.458 OA
BRANCH  24  25
ATOM     25  C   UNL A   1      38.304  21.302  25.751  1.00  0.00     0.338 C 
ATOM     26  O   UNL A   1      38.846  20.245  25.472  1.00  0.00    -0.246 OA
BRANCH  25  27
ATOM     27  C   UNL A   1      39.013  22.414  26.396  1.00  0.00     0.060 A 
ATOM     28  C   UNL A   1      38.552  23.695  26.125  1.00  0.00     0.016 A 
ATOM     29  C   UNL A   1      40.177  22.233  27.134  1.00  0.00     0.016 A 
ATOM     30  C   UNL A   1      39.285  24.813  26.499  1.00  0.00     0.010 A 
ATOM     31  C   UNL A   1      40.866  23.362  27.601  1.00  0.00     0.010 A 
ATOM     32  C   UNL A   1      40.446  24.666  27.261  1.00  0.00    -0.014 A 
BRANCH  32  33
ATOM     33  C   UNL A   1      41.220  25.869  27.680  1.00  0.00     0.031 A 
ATOM     34  C   UNL A   1      40.571  26.924  28.536  1.00  0.00     0.074 A 
ATOM     35  C   UNL A   1      42.504  26.021  27.294  1.00  0.00     0.049 A 
ATOM     36  N   UNL A   1      41.017  28.108  28.870  1.00  0.00    -0.248 NA
ATOM     37  C   UNL A   1      39.240  26.613  29.080  1.00  0.00     0.031 C 
ATOM     38  C   UNL A   1      43.273  25.059  26.499  1.00  0.00     0.029 A 
ATOM     39  N   UNL A   1      43.389  27.050  27.505  1.00  0.00    -0.354 N 
ATOM     40  C   UNL A   1      39.994  28.712  29.591  1.00  0.00     0.074 A 
ATOM     41  C   UNL A   1      38.908  27.759  29.657  1.00  0.00     0.031 C 
ATOM     42  C   UNL A   1      44.510  25.536  26.300  1.00  0.00     0.029 A 
ATOM     43  C   UNL A   1      44.599  26.873  26.872  1.00  0.00     0.049 A 
ATOM     44  H   UNL A   1      43.179  27.839  28.056  1.00  0.00     0.167 HD
ATOM     45  C   UNL A   1      39.963  29.947  30.146  1.00  0.00     0.034 A 
ATOM     46  C   UNL A   1      45.645  27.708  26.719  1.00  0.00     0.034 A 
ATOM     47  C   UNL A   1      41.068  30.868  30.125  1.00  0.00     0.049 A 
ATOM     48  C   UNL A   1      45.572  29.084  27.319  1.00  0.00     0.074 A 
ATOM     49  C   UNL A   1      41.153  32.122  30.704  1.00  0.00     0.029 A 
ATOM     50  N   UNL A   1      42.279  30.641  29.487  1.00  0.00    -0.354 N 
ATOM     51  N   UNL A   1      44.619  29.620  28.043  1.00  0.00    -0.248 NA
ATOM     52  C   UNL A   1      46.723  29.969  27.090  1.00  0.00     0.031 C 
ATOM     53  C   UNL A   1      42.399  32.669  30.382  1.00  0.00     0.029 A 
ATOM     54  C   UNL A   1      43.109  31.739  29.641  1.00  0.00     0.049 A 
ATOM     55  H   UNL A   1      42.513  29.821  28.996  1.00  0.00     0.167 HD
ATOM     56  C   UNL A   1      45.069  30.890  28.384  1.00  0.00     0.074 A 
ATOM     57  C   UNL A   1      46.388  31.035  27.805  1.00  0.00     0.031 C 
ATOM     58  C   UNL A   1      44.440  31.852  29.102  1.00  0.00     0.034 A 
BRANCH  45  59
ATOM     59  C   UNL A   1      38.686  30.385  30.820  1.00  0.00     0.023 A 
ATOM     60  C   UNL A   1      38.484  30.136  32.192  1.00  0.00     0.012 A 
ATOM     61  C   UNL A   1      37.705  31.090  30.095  1.00  0.00     0.148 A 
ATOM     62  C   UNL A   1      37.308  30.544  32.823  1.00  0.00     0.002 A 
ATOM     63  C   UNL A   1      36.558  31.538  30.741  1.00  0.00     0.091 A 
ATOM     64  F   UNL A   1      37.904  31.302  28.786  1.00  0.00    -0.205 F 
ATOM     65  C   UNL A   1      36.352  31.254  32.100  1.00  0.00     0.022 A 
BRANCH  63  66
ATOM     66  S   UNL A   1      35.307  32.530  29.918  1.00  0.00     0.127 S 
ATOM     67  O   UNL A   1      34.832  31.609  28.886  1.00  0.00    -0.237 OA
ATOM     68  O   UNL A   1      34.353  32.780  30.998  1.00  0.00    -0.237 OA
ATOM     69  O   UNL A   1      35.993  33.718  29.427  1.00  0.00    -0.744 OA
ENDBRANCH  63  66
ENDBRANCH  45  59
BRANCH  46  70
ATOM     70  C   UNL A   1      46.853  27.266  25.963  1.00  0.00     0.023 A 
ATOM     71  C   UNL A   1      47.790  26.421  26.587  1.00  0.00     0.012 A 
ATOM     72  C   UNL A   1      47.067  27.660  24.627  1.00  0.00     0.148 A 
ATOM     73  C   UNL A   1      48.934  26.002  25.906  1.00  0.00     0.002 A 
ATOM     74  C   UNL A   1      48.176  27.190  23.934  1.00  0.00     0.091 A 
ATOM     75  F   UNL A   1      46.172  28.479  24.055  1.00  0.00    -0.205 F 
ATOM     76  C   UNL A   1      49.121  26.376  24.578  1.00  0.00     0.022 A 
BRANCH  74  77
ATOM     77  S   UNL A   1      48.433  27.514  22.186  1.00  0.00     0.127 S 
ATOM     78  O   UNL A   1      49.616  28.371  22.212  1.00  0.00    -0.237 OA
ATOM     79  O   UNL A   1      48.658  26.168  21.661  1.00  0.00    -0.237 OA
ATOM     80  O   UNL A   1      47.207  28.146  21.718  1.00  0.00    -0.744 OA
ENDBRANCH  74  77
ENDBRANCH  46  70
BRANCH  58  81
ATOM     81  C   UNL A   1      45.188  33.137  29.350  1.00  0.00     0.023 A 
ATOM     82  C   UNL A   1      46.034  33.258  30.470  1.00  0.00     0.012 A 
ATOM     83  C   UNL A   1      45.103  34.199  28.428  1.00  0.00     0.148 A 
ATOM     84  C   UNL A   1      46.758  34.429  30.686  1.00  0.00     0.002 A 
ATOM     85  C   UNL A   1      45.869  35.341  28.621  1.00  0.00     0.091 A 
ATOM     86  F   UNL A   1      44.280  34.070  27.379  1.00  0.00    -0.205 F 
ATOM     87  C   UNL A   1      46.687  35.464  29.757  1.00  0.00     0.022 A 
BRANCH  85  88
ATOM     88  S   UNL A   1      45.919  36.682  27.427  1.00  0.00     0.127 S 
ATOM     89  O   UNL A   1      47.057  37.466  27.906  1.00  0.00    -0.237 OA
ATOM     90  O   UNL A   1      46.156  35.969  26.171  1.00  0.00    -0.237 OA
ATOM     91  O   UNL A   1      44.626  37.347  27.512  1.00  0.00    -0.744 OA
ENDBRANCH  85  88
ENDBRANCH  58  81
ENDBRANCH  32  33
ENDBRANCH  25  27
ENDBRANCH  24  25
ENDBRANCH   1  24
TORSDOF 16
ENDMDL
MODEL 2
REMARK VINA RESULT:     -12.7      1.292      1.550
REMARK SMILES CC(=O)Nc1cccc(-c2ccc(F)c(C(=O)OCCOC(=O)c3ccc(-c4c5nc(c(-c6cccc(S(=O)(=O)[O-])c6F)c6ccc([nH]6)c(-c6cccc(S(=O)(=O)[O-])c6F)c6nc(c(-c7cccc(S(=O)(=O)[O-])c7F)c7ccc4[nH]7)C=C6)C=C5)cc3)c2)c1
REMARK SMILES IDX 20 1 19 2 18 3 16 4 17 5 15 6 10 7 11 8 87 9 12 10 13 11
REMARK SMILES IDX 14 12 9 13 5 14 6 15 88 16 7 17 8 18 4 19 1 20 2 21 3 22
REMARK SMILES IDX 21 24 22 25 23 26 24 27 25 28 86 29 26 30 85 31 27 32 28 33
REMARK SMILES IDX 29 34 79 35 30 36 84 37 78 38 80 39 31 40 83 41 77 42 76 43
REMARK SMILES IDX 32 45 64 46 44 47 63 48 45 49 48 50 62 51 81 52 46 53 47 54
REMARK SMILES IDX 61 56 82 57 49 58 33 59 34 60 42 61 35 62 37 63 43 64 36 65
REMARK SMILES IDX 38 66 39 67 40 68 41 69 65 70 66 71 74 72 67 73 69 74 75 75
REMARK SMILES IDX 68 76 70 77 71 78 72 79 73 80 50 81 51 82 59 83 52 84 54 85
REMARK SMILES IDX 60 86 53 87 55 88 56 89 57 90 58 91
REMARK H PARENT 4 23 80 44 48 55
REMARK Flexibility Score: inf
ROOT
ATOM      1  C   UNL A   1      36.157  20.640  24.997  1.00  0.00     0.275 C 
ENDROOT
BRANCH   1   2
ATOM      2  C   UNL A   1      34.700  21.043  25.238  1.00  0.00     0.275 C 
BRANCH   2   3
ATOM      3  O   UNL A   1      34.610  22.443  25.577  1.00  0.00    -0.458 OA
BRANCH   3   4
ATOM      4  C   UNL A   1      33.980  22.755  26.739  1.00  0.00     0.341 C 
ATOM      5  O   UNL A   1      34.391  22.530  27.864  1.00  0.00    -0.246 OA
BRANCH   4   6
ATOM      6  C   UNL A   1      32.724  23.481  26.439  1.00  0.00     0.096 A 
ATOM      7  C   UNL A   1      31.489  25.568  26.209  1.00  0.00    -0.017 A 
ATOM      8  C   UNL A   1      30.329  24.841  25.905  1.00  0.00     0.012 A 
ATOM      9  C   UNL A   1      32.665  24.871  26.541  1.00  0.00     0.027 A 
ATOM     10  C   UNL A   1      30.383  23.453  25.801  1.00  0.00     0.041 A 
ATOM     11  C   UNL A   1      31.592  22.792  26.004  1.00  0.00     0.137 A 
ATOM     12  F   UNL A   1      31.621  21.475  25.765  1.00  0.00    -0.206 F 
BRANCH   7  13
ATOM     13  C   UNL A   1      31.547  27.015  25.993  1.00  0.00    -0.016 A 
ATOM     14  C   UNL A   1      31.278  28.851  24.401  1.00  0.00     0.041 A 
ATOM     15  C   UNL A   1      31.633  29.751  25.406  1.00  0.00     0.026 A 
ATOM     16  C   UNL A   1      31.267  27.494  24.699  1.00  0.00     0.034 A 
ATOM     17  C   UNL A   1      31.890  29.297  26.705  1.00  0.00     0.003 A 
ATOM     18  C   UNL A   1      31.836  27.933  27.002  1.00  0.00     0.009 A 
BRANCH  14  19
ATOM     19  N   UNL A   1      31.007  29.347  23.116  1.00  0.00    -0.326 N 
ATOM     20  C   UNL A   1      28.726  30.301  23.477  1.00  0.00     0.114 C 
ATOM     21  C   UNL A   1      29.856  29.858  22.580  1.00  0.00     0.221 C 
ATOM     22  O   UNL A   1      29.788  30.020  21.360  1.00  0.00    -0.275 OA
ATOM     23  H   UNL A   1      31.772  29.324  22.498  1.00  0.00     0.169 HD
ENDBRANCH  14  19
ENDBRANCH   7  13
ENDBRANCH   4   6
ENDBRANCH   3   4
ENDBRANCH   2   3
ENDBRANCH   1   2
BRANCH   1  24
ATOM     24  O   UNL A   1      37.043  21.691  25.417  1.00  0.00    -0.458 OA
BRANCH  24  25
ATOM     25  C   UNL A   1      38.288  21.292  25.766  1.00  0.00     0.338 C 
ATOM     26  O   UNL A   1      38.832  20.234  25.499  1.00  0.00    -0.246 OA
BRANCH  25  27
ATOM     27  C   UNL A   1      38.994  22.410  26.405  1.00  0.00     0.060 A 
ATOM     28  C   UNL A   1      38.527  23.688  26.131  1.00  0.00     0.016 A 
ATOM     29  C   UNL A   1      40.160  22.237  27.142  1.00  0.00     0.016 A 
ATOM     30  C   UNL A   1      39.256  24.811  26.499  1.00  0.00     0.010 A 
ATOM     31  C   UNL A   1      40.846  23.371  27.603  1.00  0.00     0.010 A 
ATOM     32  C   UNL A   1      40.420  24.671  27.259  1.00  0.00    -0.014 A 
BRANCH  32  33
ATOM     33  C   UNL A   1      41.189  25.879  27.672  1.00  0.00     0.031 A 
ATOM     34  C   UNL A   1      40.533  26.942  28.514  1.00  0.00     0.074 A 
ATOM     35  C   UNL A   1      42.475  26.030  27.292  1.00  0.00     0.049 A 
ATOM     36  N   UNL A   1      40.975  28.129  28.840  1.00  0.00    -0.248 NA
ATOM     37  C   UNL A   1      39.199  26.633  29.053  1.00  0.00     0.031 C 
ATOM     38  C   UNL A   1      43.250  25.062  26.510  1.00  0.00     0.029 A 
ATOM     39  N   UNL A   1      43.357  27.063  27.499  1.00  0.00    -0.354 N 
ATOM     40  C   UNL A   1      39.947  28.737  29.549  1.00  0.00     0.074 A 
ATOM     41  C   UNL A   1      38.862  27.784  29.618  1.00  0.00     0.031 C 
ATOM     42  C   UNL A   1      44.488  25.540  26.314  1.00  0.00     0.029 A 
ATOM     43  C   UNL A   1      44.571  26.882  26.875  1.00  0.00     0.049 A 
ATOM     44  H   UNL A   1      43.143  27.856  28.042  1.00  0.00     0.167 HD
ATOM     45  C   UNL A   1      39.911  29.978  30.093  1.00  0.00     0.034 A 
ATOM     46  C   UNL A   1      45.617  27.717  26.721  1.00  0.00     0.034 A 
ATOM     47  C   UNL A   1      41.015  30.900  30.070  1.00  0.00     0.049 A 
ATOM     48  C   UNL A   1      45.538  29.098  27.308  1.00  0.00     0.074 A 
ATOM     49  C   UNL A   1      41.094  32.160  30.639  1.00  0.00     0.029 A 
ATOM     50  N   UNL A   1      42.229  30.670  29.442  1.00  0.00    -0.354 N 
ATOM     51  N   UNL A   1      44.580  29.639  28.021  1.00  0.00    -0.248 NA
ATOM     52  C   UNL A   1      46.689  29.983  27.077  1.00  0.00     0.031 C 
ATOM     53  C   UNL A   1      42.342  32.706  30.319  1.00  0.00     0.029 A 
ATOM     54  C   UNL A   1      43.057  31.770  29.591  1.00  0.00     0.049 A 
ATOM     55  H   UNL A   1      42.468  29.845  28.960  1.00  0.00     0.167 HD
ATOM     56  C   UNL A   1      45.026  30.912  28.354  1.00  0.00     0.074 A 
ATOM     57  C   UNL A   1      46.349  31.055  27.781  1.00  0.00     0.031 C 
ATOM     58  C   UNL A   1      44.392  31.881  29.059  1.00  0.00     0.034 A 
BRANCH  45  59
ATOM     59  C   UNL A   1      38.630  30.420  30.756  1.00  0.00     0.023 A 
ATOM     60  C   UNL A   1      38.426  30.195  32.132  1.00  0.00     0.012 A 
ATOM     61  C   UNL A   1      37.645  31.104  30.016  1.00  0.00     0.148 A 
ATOM     62  C   UNL A   1      37.245  30.608  32.752  1.00  0.00     0.002 A 
ATOM     63  C   UNL A   1      36.493  31.556  30.650  1.00  0.00     0.091 A 
ATOM     64  F   UNL A   1      37.846  31.293  28.703  1.00  0.00    -0.205 F 
ATOM     65  C   UNL A   1      36.287  31.297  32.014  1.00  0.00     0.022 A 
BRANCH  63  66
ATOM     66  S   UNL A   1      35.238  32.524  29.805  1.00  0.00     0.127 S 
ATOM     67  O   UNL A   1      34.340  32.869  30.907  1.00  0.00    -0.237 OA
ATOM     68  O   UNL A   1      36.017  33.645  29.279  1.00  0.00    -0.237 OA
ATOM     69  O   UNL A   1      34.671  31.649  28.788  1.00  0.00    -0.744 OA
ENDBRANCH  63  66
ENDBRANCH  45  59
BRANCH  46  70
ATOM     70  C   UNL A   1      46.829  27.270  25.976  1.00  0.00     0.023 A 
ATOM     71  C   UNL A   1      46.903  27.476  24.585  1.00  0.00     0.012 A 
ATOM     72  C   UNL A   1      47.915  26.662  26.638  1.00  0.00     0.148 A 
ATOM     73  C   UNL A   1      48.021  27.058  23.862  1.00  0.00     0.002 A 
ATOM     74  C   UNL A   1      49.051  26.303  25.922  1.00  0.00     0.091 A 
ATOM     75  F   UNL A   1      47.820  26.458  27.959  1.00  0.00    -0.205 F 
ATOM     76  C   UNL A   1      49.098  26.483  24.531  1.00  0.00     0.022 A 
BRANCH  74  77
ATOM     77  S   UNL A   1      50.535  25.675  26.715  1.00  0.00     0.127 S 
ATOM     78  O   UNL A   1      50.052  24.433  27.312  1.00  0.00    -0.237 OA
ATOM     79  O   UNL A   1      51.436  25.503  25.575  1.00  0.00    -0.237 OA
ATOM     80  O   UNL A   1      50.947  26.708  27.657  1.00  0.00    -0.744 OA
ENDBRANCH  74  77
ENDBRANCH  46  70
BRANCH  58  81
ATOM     81  C   UNL A   1      45.135  33.168  29.300  1.00  0.00     0.023 A 
ATOM     82  C   UNL A   1      45.974  33.301  30.424  1.00  0.00     0.012 A 
ATOM     83  C   UNL A   1      45.056  34.222  28.367  1.00  0.00     0.148 A 
ATOM     84  C   UNL A   1      46.695  34.475  30.634  1.00  0.00     0.002 A 
ATOM     85  C   UNL A   1      45.819  35.367  28.554  1.00  0.00     0.091 A 
ATOM     86  F   UNL A   1      44.239  34.082  27.314  1.00  0.00    -0.205 F 
ATOM     87  C   UNL A   1      46.629  35.502  29.694  1.00  0.00     0.022 A 
BRANCH  85  88
ATOM     88  S   UNL A   1      45.875  36.697  27.348  1.00  0.00     0.127 S 
ATOM     89  O   UNL A   1      46.544  37.756  28.103  1.00  0.00    -0.237 OA
ATOM     90  O   UNL A   1      46.681  36.108  26.277  1.00  0.00    -0.237 OA
ATOM     91  O   UNL A   1      44.491  36.970  26.984  1.00  0.00    -0.744 OA
ENDBRANCH  85  88
ENDBRANCH  58  81
ENDBRANCH  32  33
ENDBRANCH  25  27
ENDBRANCH  24  25
ENDBRANCH   1  24
TORSDOF 16
ENDMDL
MODEL 3
REMARK VINA RESULT:     -12.5      5.392     10.262
REMARK SMILES CC(=O)Nc1cccc(-c2ccc(F)c(C(=O)OCCOC(=O)c3ccc(-c4c5nc(c(-c6cccc(S(=O)(=O)[O-])c6F)c6ccc([nH]6)c(-c6cccc(S(=O)(=O)[O-])c6F)c6nc(c(-c7cccc(S(=O)(=O)[O-])c7F)c7ccc4[nH]7)C=C6)C=C5)cc3)c2)c1
REMARK SMILES IDX 20 1 19 2 18 3 16 4 17 5 15 6 10 7 11 8 87 9 12 10 13 11
REMARK SMILES IDX 14 12 9 13 5 14 6 15 88 16 7 17 8 18 4 19 1 20 2 21 3 22
REMARK SMILES IDX 21 24 22 25 23 26 24 27 25 28 86 29 26 30 85 31 27 32 28 33
REMARK SMILES IDX 29 34 79 35 30 36 84 37 78 38 80 39 31 40 83 41 77 42 76 43
REMARK SMILES IDX 32 45 64 46 44 47 63 48 45 49 48 50 62 51 81 52 46 53 47 54
REMARK SMILES IDX 61 56 82 57 49 58 33 59 34 60 42 61 35 62 37 63 43 64 36 65
REMARK SMILES IDX 38 66 39 67 40 68 41 69 65 70 66 71 74 72 67 73 69 74 75 75
REMARK SMILES IDX 68 76 70 77 71 78 72 79 73 80 50 81 51 82 59 83 52 84 54 85
REMARK SMILES IDX 60 86 53 87 55 88 56 89 57 90 58 91
REMARK H PARENT 4 23 80 44 48 55
REMARK Flexibility Score: inf
ROOT
ATOM      1  C   UNL A   1      31.572  30.377  25.517  1.00  0.00     0.275 C 
ENDROOT
BRANCH   1   2
ATOM      2  C   UNL A   1      31.317  29.062  24.777  1.00  0.00     0.275 C 
BRANCH   2   3
ATOM      3  O   UNL A   1      32.163  28.015  25.298  1.00  0.00    -0.458 OA
BRANCH   3   4
ATOM      4  C   UNL A   1      31.550  27.003  25.965  1.00  0.00     0.341 C 
ATOM      5  O   UNL A   1      31.082  27.061  27.089  1.00  0.00    -0.246 OA
BRANCH   4   6
ATOM      6  C   UNL A   1      31.472  25.811  25.089  1.00  0.00     0.096 A 
ATOM      7  C   UNL A   1      32.429  23.733  24.253  1.00  0.00    -0.017 A 
ATOM      8  C   UNL A   1      31.330  23.578  23.397  1.00  0.00     0.012 A 
ATOM      9  C   UNL A   1      32.521  24.892  25.046  1.00  0.00     0.027 A 
ATOM     10  C   UNL A   1      30.280  24.492  23.437  1.00  0.00     0.041 A 
ATOM     11  C   UNL A   1      30.330  25.562  24.327  1.00  0.00     0.137 A 
ATOM     12  F   UNL A   1      29.242  26.337  24.421  1.00  0.00    -0.206 F 
BRANCH   7  13
ATOM     13  C   UNL A   1      33.367  22.632  24.479  1.00  0.00    -0.016 A 
ATOM     14  C   UNL A   1      33.644  20.291  25.127  1.00  0.00     0.041 A 
ATOM     15  C   UNL A   1      35.024  20.430  24.976  1.00  0.00     0.026 A 
ATOM     16  C   UNL A   1      32.837  21.399  24.906  1.00  0.00     0.034 A 
ATOM     17  C   UNL A   1      35.569  21.639  24.527  1.00  0.00     0.003 A 
ATOM     18  C   UNL A   1      34.742  22.735  24.268  1.00  0.00     0.009 A 
BRANCH  14  19
ATOM     19  N   UNL A   1      33.135  19.056  25.558  1.00  0.00    -0.326 N 
ATOM     20  C   UNL A   1      32.920  17.872  23.368  1.00  0.00     0.114 C 
ATOM     21  C   UNL A   1      32.643  17.995  24.846  1.00  0.00     0.221 C 
ATOM     22  O   UNL A   1      32.037  17.104  25.446  1.00  0.00    -0.275 OA
ATOM     23  H   UNL A   1      33.130  18.931  26.534  1.00  0.00     0.169 HD
ENDBRANCH  14  19
ENDBRANCH   7  13
ENDBRANCH   4   6
ENDBRANCH   3   4
ENDBRANCH   2   3
ENDBRANCH   1   2
BRANCH   1  24
ATOM     24  O   UNL A   1      32.685  30.238  26.416  1.00  0.00    -0.458 OA
BRANCH  24  25
ATOM     25  C   UNL A   1      33.090  31.382  27.016  1.00  0.00     0.338 C 
ATOM     26  O   UNL A   1      32.434  32.391  27.211  1.00  0.00    -0.246 OA
BRANCH  25  27
ATOM     27  C   UNL A   1      34.437  31.189  27.568  1.00  0.00     0.060 A 
ATOM     28  C   UNL A   1      34.843  29.881  27.793  1.00  0.00     0.016 A 
ATOM     29  C   UNL A   1      35.234  32.249  27.985  1.00  0.00     0.016 A 
ATOM     30  C   UNL A   1      35.996  29.605  28.516  1.00  0.00     0.010 A 
ATOM     31  C   UNL A   1      36.451  31.971  28.627  1.00  0.00     0.010 A 
ATOM     32  C   UNL A   1      36.830  30.646  28.929  1.00  0.00    -0.014 A 
BRANCH  32  33
ATOM     33  C   UNL A   1      38.078  30.345  29.685  1.00  0.00     0.031 A 
ATOM     34  C   UNL A   1      39.130  29.451  29.084  1.00  0.00     0.074 A 
ATOM     35  C   UNL A   1      38.272  30.869  30.914  1.00  0.00     0.049 A 
ATOM     36  N   UNL A   1      40.200  28.943  29.639  1.00  0.00    -0.248 NA
ATOM     37  C   UNL A   1      38.949  29.067  27.675  1.00  0.00     0.031 C 
ATOM     38  C   UNL A   1      37.358  31.784  31.603  1.00  0.00     0.029 A 
ATOM     39  N   UNL A   1      39.299  30.697  31.812  1.00  0.00    -0.354 N 
ATOM     40  C   UNL A   1      40.774  28.120  28.678  1.00  0.00     0.074 A 
ATOM     41  C   UNL A   1      39.941  28.205  27.499  1.00  0.00     0.031 C 
ATOM     42  C   UNL A   1      37.866  32.099  32.803  1.00  0.00     0.029 A 
ATOM     43  C   UNL A   1      39.094  31.343  33.010  1.00  0.00     0.049 A 
ATOM     44  H   UNL A   1      40.103  30.163  31.617  1.00  0.00     0.167 HD
ATOM     45  C   UNL A   1      41.894  27.363  28.770  1.00  0.00     0.034 A 
ATOM     46  C   UNL A   1      39.782  31.294  34.167  1.00  0.00     0.034 A 
ATOM     47  C   UNL A   1      42.750  27.327  29.926  1.00  0.00     0.049 A 
ATOM     48  C   UNL A   1      41.003  30.422  34.252  1.00  0.00     0.074 A 
ATOM     49  C   UNL A   1      43.935  26.632  30.097  1.00  0.00     0.029 A 
ATOM     50  N   UNL A   1      42.514  28.008  31.111  1.00  0.00    -0.354 N 
ATOM     51  N   UNL A   1      41.562  29.691  33.317  1.00  0.00    -0.248 NA
ATOM     52  C   UNL A   1      41.695  30.374  35.547  1.00  0.00     0.031 C 
ATOM     53  C   UNL A   1      44.392  26.861  31.399  1.00  0.00     0.029 A 
ATOM     54  C   UNL A   1      43.518  27.735  32.024  1.00  0.00     0.049 A 
ATOM     55  H   UNL A   1      41.744  28.599  31.278  1.00  0.00     0.167 HD
ATOM     56  C   UNL A   1      42.689  29.124  33.901  1.00  0.00     0.074 A 
ATOM     57  C   UNL A   1      42.744  29.613  35.263  1.00  0.00     0.031 C 
ATOM     58  C   UNL A   1      43.589  28.267  33.361  1.00  0.00     0.034 A 
BRANCH  45  59
ATOM     59  C   UNL A   1      42.258  26.497  27.589  1.00  0.00     0.023 A 
ATOM     60  C   UNL A   1      43.052  27.014  26.546  1.00  0.00     0.012 A 
ATOM     61  C   UNL A   1      41.849  25.149  27.542  1.00  0.00     0.148 A 
ATOM     62  C   UNL A   1      43.398  26.216  25.454  1.00  0.00     0.002 A 
ATOM     63  C   UNL A   1      42.239  24.346  26.475  1.00  0.00     0.091 A 
ATOM     64  F   UNL A   1      41.078  24.679  28.533  1.00  0.00    -0.205 F 
ATOM     65  C   UNL A   1      43.001  24.882  25.426  1.00  0.00     0.022 A 
BRANCH  63  66
ATOM     66  S   UNL A   1      41.847  22.595  26.388  1.00  0.00     0.127 S 
ATOM     67  O   UNL A   1      42.451  22.096  27.622  1.00  0.00    -0.237 OA
ATOM     68  O   UNL A   1      40.385  22.607  26.385  1.00  0.00    -0.237 OA
ATOM     69  O   UNL A   1      42.453  22.108  25.155  1.00  0.00    -0.744 OA
ENDBRANCH  63  66
ENDBRANCH  45  59
BRANCH  46  70
ATOM     70  C   UNL A   1      39.332  32.095  35.342  1.00  0.00     0.023 A 
ATOM     71  C   UNL A   1      38.468  31.513  36.288  1.00  0.00     0.012 A 
ATOM     72  C   UNL A   1      39.769  33.421  35.537  1.00  0.00     0.148 A 
ATOM     73  C   UNL A   1      38.022  32.243  37.390  1.00  0.00     0.002 A 
ATOM     74  C   UNL A   1      39.370  34.123  36.668  1.00  0.00     0.091 A 
ATOM     75  F   UNL A   1      40.577  33.966  34.617  1.00  0.00    -0.205 F 
ATOM     76  C   UNL A   1      38.482  33.543  37.586  1.00  0.00     0.022 A 
BRANCH  74  77
ATOM     77  S   UNL A   1      40.011  35.753  37.070  1.00  0.00     0.127 S 
ATOM     78  O   UNL A   1      41.440  35.485  37.212  1.00  0.00    -0.237 OA
ATOM     79  O   UNL A   1      39.643  36.522  35.882  1.00  0.00    -0.237 OA
ATOM     80  O   UNL A   1      39.322  36.158  38.288  1.00  0.00    -0.744 OA
ENDBRANCH  74  77
ENDBRANCH  46  70
BRANCH  58  81
ATOM     81  C   UNL A   1      44.746  27.836  34.224  1.00  0.00     0.023 A 
ATOM     82  C   UNL A   1      45.920  28.614  34.274  1.00  0.00     0.012 A 
ATOM     83  C   UNL A   1      44.638  26.693  35.041  1.00  0.00     0.148 A 
ATOM     84  C   UNL A   1      46.980  28.243  35.100  1.00  0.00     0.002 A 
ATOM     85  C   UNL A   1      45.676  26.360  35.901  1.00  0.00     0.091 A 
ATOM     86  F   UNL A   1      43.520  25.957  34.965  1.00  0.00    -0.205 F 
ATOM     87  C   UNL A   1      46.854  27.125  35.921  1.00  0.00     0.022 A 
BRANCH  85  88
ATOM     88  S   UNL A   1      45.564  24.998  37.067  1.00  0.00     0.127 S 
ATOM     89  O   UNL A   1      46.937  24.495  37.071  1.00  0.00    -0.237 OA
ATOM     90  O   UNL A   1      45.160  25.679  38.298  1.00  0.00    -0.237 OA
ATOM     91  O   UNL A   1      44.567  24.084  36.525  1.00  0.00    -0.744 OA
ENDBRANCH  85  88
ENDBRANCH  58  81
ENDBRANCH  32  33
ENDBRANCH  25  27
ENDBRANCH  24  25
ENDBRANCH   1  24
TORSDOF 16
ENDMDL
