MODEL 1
REMARK VINA RESULT:     -10.9      0.000      0.000
REMARK SMILES C[N@H+](CCC(=O)Nc1sccc1C#N)CC(=O)OCCOC(=O)c1ccc(-c2c3nc(c(-c4cccc(S(=O)(=O)[O-])c4F)c4ccc([nH]4)c(-c4cccc(S(=O)(=O)[O-])c4F)c4nc(c(-c5cccc(S(=O)(=O)[O-])c5F)c5ccc2[nH]5)C=C4)C=C3)cc1
REMARK SMILES IDX 18 1 16 2 17 3 15 4 2 5 1 6 3 8 4 9 5 10 6 11 7 12 8 14 9 15
REMARK SMILES IDX 12 16 10 17 11 18 13 19 14 20 19 21 20 22 21 23 22 24 23 25
REMARK SMILES IDX 24 26 25 27 86 28 26 29 85 30 27 31 28 32 29 33 79 34 30 35
REMARK SMILES IDX 84 36 78 37 80 38 31 39 83 40 77 41 76 42 32 44 64 45 44 46
REMARK SMILES IDX 63 47 45 48 48 49 62 50 81 51 46 52 47 53 61 55 82 56 49 57
REMARK SMILES IDX 33 58 34 59 42 60 35 61 37 62 43 63 36 64 38 65 39 66 40 67
REMARK SMILES IDX 41 68 65 69 66 70 74 71 67 72 69 73 75 74 68 75 70 76 71 77
REMARK SMILES IDX 72 78 73 79 50 80 51 81 59 82 52 83 54 84 60 85 53 86 55 87
REMARK SMILES IDX 56 88 57 89 58 90
REMARK H PARENT 2 7 7 13 80 43 48 54
REMARK Flexibility Score: inf
ROOT
ATOM      1  O   UNL A   1      30.841  28.537  24.601  1.00  0.00    -0.458 OA
ENDROOT
BRANCH   1   2
ATOM      2  C   UNL A   1      30.862  27.811  23.452  1.00  0.00     0.361 C 
ATOM      3  O   UNL A   1      30.787  28.279  22.323  1.00  0.00    -0.245 OA
BRANCH   2   4
ATOM      4  C   UNL A   1      31.066  26.343  23.750  1.00  0.00     0.386 C 
BRANCH   4   5
ATOM      5  N   UNL A   1      32.060  26.153  24.819  1.00  0.00    -0.328 N 
ATOM      6  C   UNL A   1      33.136  25.298  24.309  1.00  0.00     0.333 C 
ATOM      7  H   UNL A   1      32.422  27.072  25.071  1.00  0.00     0.348 HD
BRANCH   5   8
ATOM      8  C   UNL A   1      31.501  25.617  26.071  1.00  0.00     0.272 C 
BRANCH   8   9
ATOM      9  C   UNL A   1      30.618  24.368  26.020  1.00  0.00     0.161 C 
BRANCH   9  10
ATOM     10  C   UNL A   1      30.719  23.075  26.828  1.00  0.00     0.230 C 
ATOM     11  O   UNL A   1      29.799  22.867  27.640  1.00  0.00    -0.274 OA
ATOM     12  N   UNL A   1      31.619  22.075  26.723  1.00  0.00    -0.316 N 
ATOM     13  H   UNL A   1      31.321  21.243  27.157  1.00  0.00     0.170 HD
BRANCH  12  14
ATOM     14  C   UNL A   1      32.852  21.962  26.149  1.00  0.00     0.113 A 
ATOM     15  S   UNL A   1      34.087  22.470  27.216  1.00  0.00    -0.125 S 
ATOM     16  C   UNL A   1      33.369  21.633  24.919  1.00  0.00     0.087 A 
ATOM     17  C   UNL A   1      35.299  21.783  26.227  1.00  0.00     0.068 A 
ATOM     18  C   UNL A   1      34.789  21.437  24.993  1.00  0.00     0.033 A 
BRANCH  16  19
ATOM     19  C   UNL A   1      32.603  21.529  23.715  1.00  0.00     0.102 C 
ATOM     20  N   UNL A   1      31.976  21.434  22.745  1.00  0.00    -0.192 NA
ENDBRANCH  16  19
ENDBRANCH  12  14
ENDBRANCH   9  10
ENDBRANCH   8   9
ENDBRANCH   5   8
ENDBRANCH   4   5
ENDBRANCH   2   4
ENDBRANCH   1   2
BRANCH   1  21
ATOM     21  C   UNL A   1      31.720  29.666  24.627  1.00  0.00     0.274 C 
BRANCH  21  22
ATOM     22  C   UNL A   1      31.418  30.509  25.865  1.00  0.00     0.275 C 
BRANCH  22  23
ATOM     23  O   UNL A   1      32.441  30.337  26.870  1.00  0.00    -0.458 OA
BRANCH  23  24
ATOM     24  C   UNL A   1      33.098  31.463  27.237  1.00  0.00     0.338 C 
ATOM     25  O   UNL A   1      32.642  32.596  27.275  1.00  0.00    -0.246 OA
BRANCH  24  26
ATOM     26  C   UNL A   1      34.481  31.174  27.659  1.00  0.00     0.060 A 
ATOM     27  C   UNL A   1      34.883  29.874  27.956  1.00  0.00     0.016 A 
ATOM     28  C   UNL A   1      35.338  32.240  27.932  1.00  0.00     0.016 A 
ATOM     29  C   UNL A   1      36.092  29.656  28.624  1.00  0.00     0.010 A 
ATOM     30  C   UNL A   1      36.598  31.999  28.491  1.00  0.00     0.010 A 
ATOM     31  C   UNL A   1      36.983  30.706  28.888  1.00  0.00    -0.014 A 
BRANCH  31  32
ATOM     32  C   UNL A   1      38.300  30.487  29.572  1.00  0.00     0.031 A 
ATOM     33  C   UNL A   1      39.323  29.553  28.965  1.00  0.00     0.074 A 
ATOM     34  C   UNL A   1      38.573  31.058  30.765  1.00  0.00     0.049 A 
ATOM     35  N   UNL A   1      40.337  28.949  29.530  1.00  0.00    -0.248 NA
ATOM     36  C   UNL A   1      39.168  29.237  27.534  1.00  0.00     0.031 C 
ATOM     37  C   UNL A   1      37.726  32.021  31.469  1.00  0.00     0.029 A 
ATOM     38  N   UNL A   1      39.637  30.876  31.621  1.00  0.00    -0.354 N 
ATOM     39  C   UNL A   1      40.868  28.100  28.563  1.00  0.00     0.074 A 
ATOM     40  C   UNL A   1      40.087  28.296  27.361  1.00  0.00     0.031 C 
ATOM     41  C   UNL A   1      38.299  32.355  32.633  1.00  0.00     0.029 A 
ATOM     42  C   UNL A   1      39.480  31.526  32.825  1.00  0.00     0.049 A 
ATOM     43  H   UNL A   1      40.429  30.337  31.395  1.00  0.00     0.167 HD
ATOM     44  C   UNL A   1      41.902  27.229  28.675  1.00  0.00     0.034 A 
ATOM     45  C   UNL A   1      40.139  31.409  33.995  1.00  0.00     0.034 A 
ATOM     46  C   UNL A   1      42.728  27.108  29.849  1.00  0.00     0.049 A 
ATOM     47  C   UNL A   1      41.266  30.427  34.105  1.00  0.00     0.074 A 
ATOM     48  C   UNL A   1      43.838  26.303  30.042  1.00  0.00     0.029 A 
ATOM     49  N   UNL A   1      42.543  27.815  31.028  1.00  0.00    -0.354 N 
ATOM     50  N   UNL A   1      41.755  29.627  33.191  1.00  0.00    -0.248 NA
ATOM     51  C   UNL A   1      41.936  30.333  35.409  1.00  0.00     0.031 C 
ATOM     52  C   UNL A   1      44.303  26.500  31.346  1.00  0.00     0.029 A 
ATOM     53  C   UNL A   1      43.510  27.459  31.953  1.00  0.00     0.049 A 
ATOM     54  H   UNL A   1      41.827  28.474  31.184  1.00  0.00     0.167 HD
ATOM     55  C   UNL A   1      42.808  28.955  33.798  1.00  0.00     0.074 A 
ATOM     56  C   UNL A   1      42.899  29.459  35.153  1.00  0.00     0.031 C 
ATOM     57  C   UNL A   1      43.618  27.999  33.283  1.00  0.00     0.034 A 
BRANCH  44  58
ATOM     58  C   UNL A   1      42.210  26.323  27.506  1.00  0.00     0.023 A 
ATOM     59  C   UNL A   1      43.070  26.750  26.476  1.00  0.00     0.012 A 
ATOM     60  C   UNL A   1      41.711  25.002  27.482  1.00  0.00     0.148 A 
ATOM     61  C   UNL A   1      43.403  25.893  25.425  1.00  0.00     0.002 A 
ATOM     62  C   UNL A   1      42.085  24.139  26.458  1.00  0.00     0.091 A 
ATOM     63  F   UNL A   1      40.881  24.615  28.460  1.00  0.00    -0.205 F 
ATOM     64  C   UNL A   1      42.921  24.586  25.423  1.00  0.00     0.022 A 
BRANCH  62  65
ATOM     65  S   UNL A   1      41.590  22.411  26.415  1.00  0.00     0.127 S 
ATOM     66  O   UNL A   1      42.026  21.947  27.731  1.00  0.00    -0.237 OA
ATOM     67  O   UNL A   1      40.139  22.511  26.254  1.00  0.00    -0.237 OA
ATOM     68  O   UNL A   1      42.288  21.822  25.281  1.00  0.00    -0.744 OA
ENDBRANCH  62  65
ENDBRANCH  44  58
BRANCH  45  69
ATOM     69  C   UNL A   1      39.711  32.227  35.167  1.00  0.00     0.023 A 
ATOM     70  C   UNL A   1      39.986  33.608  35.186  1.00  0.00     0.012 A 
ATOM     71  C   UNL A   1      38.981  31.657  36.230  1.00  0.00     0.148 A 
ATOM     72  C   UNL A   1      39.551  34.402  36.248  1.00  0.00     0.002 A 
ATOM     73  C   UNL A   1      38.490  32.466  37.246  1.00  0.00     0.091 A 
ATOM     74  F   UNL A   1      38.752  30.336  36.206  1.00  0.00    -0.205 F 
ATOM     75  C   UNL A   1      38.789  33.836  37.268  1.00  0.00     0.022 A 
BRANCH  73  76
ATOM     76  S   UNL A   1      37.365  31.850  38.504  1.00  0.00     0.127 S 
ATOM     77  O   UNL A   1      37.124  30.483  38.047  1.00  0.00    -0.237 OA
ATOM     78  O   UNL A   1      38.178  31.961  39.716  1.00  0.00    -0.237 OA
ATOM     79  O   UNL A   1      36.214  32.742  38.472  1.00  0.00    -0.744 OA
ENDBRANCH  73  76
ENDBRANCH  45  69
BRANCH  57  80
ATOM     80  C   UNL A   1      44.717  27.475  34.170  1.00  0.00     0.023 A 
ATOM     81  C   UNL A   1      45.979  28.101  34.178  1.00  0.00     0.012 A 
ATOM     82  C   UNL A   1      44.479  26.384  35.029  1.00  0.00     0.148 A 
ATOM     83  C   UNL A   1      47.000  27.622  34.997  1.00  0.00     0.002 A 
ATOM     84  C   UNL A   1      45.485  25.945  35.880  1.00  0.00     0.091 A 
ATOM     85  F   UNL A   1      43.277  25.790  34.991  1.00  0.00    -0.205 F 
ATOM     86  C   UNL A   1      46.750  26.553  35.855  1.00  0.00     0.022 A 
BRANCH  84  87
ATOM     87  S   UNL A   1      45.225  24.637  37.082  1.00  0.00     0.127 S 
ATOM     88  O   UNL A   1      45.276  23.443  36.239  1.00  0.00    -0.237 OA
ATOM     89  O   UNL A   1      46.373  24.804  37.973  1.00  0.00    -0.237 OA
ATOM     90  O   UNL A   1      43.935  24.909  37.701  1.00  0.00    -0.744 OA
ENDBRANCH  84  87
ENDBRANCH  57  80
ENDBRANCH  31  32
ENDBRANCH  24  26
ENDBRANCH  23  24
ENDBRANCH  22  23
ENDBRANCH  21  22
ENDBRANCH   1  21
TORSDOF 20
ENDMDL
MODEL 2
REMARK VINA RESULT:     -10.8      5.298     10.079
REMARK SMILES C[N@H+](CCC(=O)Nc1sccc1C#N)CC(=O)OCCOC(=O)c1ccc(-c2c3nc(c(-c4cccc(S(=O)(=O)[O-])c4F)c4ccc([nH]4)c(-c4cccc(S(=O)(=O)[O-])c4F)c4nc(c(-c5cccc(S(=O)(=O)[O-])c5F)c5ccc2[nH]5)C=C4)C=C3)cc1
REMARK SMILES IDX 18 1 16 2 17 3 15 4 2 5 1 6 3 8 4 9 5 10 6 11 7 12 8 14 9 15
REMARK SMILES IDX 12 16 10 17 11 18 13 19 14 20 19 21 20 22 21 23 22 24 23 25
REMARK SMILES IDX 24 26 25 27 86 28 26 29 85 30 27 31 28 32 29 33 79 34 30 35
REMARK SMILES IDX 84 36 78 37 80 38 31 39 83 40 77 41 76 42 32 44 64 45 44 46
REMARK SMILES IDX 63 47 45 48 48 49 62 50 81 51 46 52 47 53 61 55 82 56 49 57
REMARK SMILES IDX 33 58 34 59 42 60 35 61 37 62 43 63 36 64 38 65 39 66 40 67
REMARK SMILES IDX 41 68 65 69 66 70 74 71 67 72 69 73 75 74 68 75 70 76 71 77
REMARK SMILES IDX 72 78 73 79 50 80 51 81 59 82 52 83 54 84 60 85 53 86 55 87
REMARK SMILES IDX 56 88 57 89 58 90
REMARK H PARENT 2 7 7 13 80 43 48 54
REMARK Flexibility Score: inf
ROOT
ATOM      1  O   UNL A   1      33.581  21.762  23.876  1.00  0.00    -0.458 OA
ENDROOT
BRANCH   1   2
ATOM      2  C   UNL A   1      32.604  21.512  24.789  1.00  0.00     0.361 C 
ATOM      3  O   UNL A   1      32.134  20.408  25.031  1.00  0.00    -0.245 OA
BRANCH   2   4
ATOM      4  C   UNL A   1      32.223  22.778  25.524  1.00  0.00     0.386 C 
BRANCH   4   5
ATOM      5  N   UNL A   1      30.799  23.095  25.328  1.00  0.00    -0.328 N 
ATOM      6  C   UNL A   1      30.624  23.638  23.977  1.00  0.00     0.333 C 
ATOM      7  H   UNL A   1      30.273  22.229  25.437  1.00  0.00     0.348 HD
BRANCH   5   8
ATOM      8  C   UNL A   1      30.241  24.002  26.344  1.00  0.00     0.272 C 
BRANCH   8   9
ATOM      9  C   UNL A   1      30.004  25.471  25.985  1.00  0.00     0.161 C 
BRANCH   9  10
ATOM     10  C   UNL A   1      30.960  26.659  26.083  1.00  0.00     0.230 C 
ATOM     11  O   UNL A   1      30.894  27.326  27.132  1.00  0.00    -0.274 OA
ATOM     12  N   UNL A   1      31.935  27.039  25.231  1.00  0.00    -0.316 N 
ATOM     13  H   UNL A   1      32.579  27.662  25.638  1.00  0.00     0.170 HD
BRANCH  12  14
ATOM     14  C   UNL A   1      32.224  26.750  23.929  1.00  0.00     0.113 A 
ATOM     15  S   UNL A   1      33.729  25.952  23.786  1.00  0.00    -0.125 S 
ATOM     16  C   UNL A   1      31.680  26.998  22.692  1.00  0.00     0.087 A 
ATOM     17  C   UNL A   1      33.403  25.511  22.168  1.00  0.00     0.068 A 
ATOM     18  C   UNL A   1      32.312  26.200  21.681  1.00  0.00     0.033 A 
BRANCH  16  19
ATOM     19  C   UNL A   1      30.642  27.950  22.436  1.00  0.00     0.102 C 
ATOM     20  N   UNL A   1      29.800  28.715  22.215  1.00  0.00    -0.192 NA
ENDBRANCH  16  19
ENDBRANCH  12  14
ENDBRANCH   9  10
ENDBRANCH   8   9
ENDBRANCH   5   8
ENDBRANCH   4   5
ENDBRANCH   2   4
ENDBRANCH   1   2
BRANCH   1  21
ATOM     21  C   UNL A   1      34.772  22.356  24.403  1.00  0.00     0.274 C 
BRANCH  21  22
ATOM     22  C   UNL A   1      35.640  21.267  25.032  1.00  0.00     0.275 C 
BRANCH  22  23
ATOM     23  O   UNL A   1      36.617  21.839  25.928  1.00  0.00    -0.458 OA
BRANCH  23  24
ATOM     24  C   UNL A   1      37.896  21.437  25.736  1.00  0.00     0.338 C 
ATOM     25  O   UNL A   1      38.264  20.369  25.270  1.00  0.00    -0.246 OA
BRANCH  24  26
ATOM     26  C   UNL A   1      38.860  22.486  26.115  1.00  0.00     0.060 A 
ATOM     27  C   UNL A   1      40.012  22.174  26.833  1.00  0.00     0.016 A 
ATOM     28  C   UNL A   1      38.519  23.822  25.903  1.00  0.00     0.016 A 
ATOM     29  C   UNL A   1      40.757  23.197  27.428  1.00  0.00     0.010 A 
ATOM     30  C   UNL A   1      39.340  24.840  26.402  1.00  0.00     0.010 A 
ATOM     31  C   UNL A   1      40.451  24.548  27.211  1.00  0.00    -0.014 A 
BRANCH  31  32
ATOM     32  C   UNL A   1      41.259  25.660  27.813  1.00  0.00     0.031 A 
ATOM     33  C   UNL A   1      40.590  26.695  28.689  1.00  0.00     0.074 A 
ATOM     34  C   UNL A   1      42.573  25.801  27.535  1.00  0.00     0.049 A 
ATOM     35  N   UNL A   1      40.991  27.899  29.010  1.00  0.00    -0.248 NA
ATOM     36  C   UNL A   1      39.281  26.334  29.263  1.00  0.00     0.031 C 
ATOM     37  C   UNL A   1      43.389  24.871  26.752  1.00  0.00     0.029 A 
ATOM     38  N   UNL A   1      43.451  26.813  27.853  1.00  0.00    -0.354 N 
ATOM     39  C   UNL A   1      39.942  28.479  29.719  1.00  0.00     0.074 A 
ATOM     40  C   UNL A   1      38.902  27.478  29.818  1.00  0.00     0.031 C 
ATOM     41  C   UNL A   1      44.639  25.341  26.659  1.00  0.00     0.029 A 
ATOM     42  C   UNL A   1      44.682  26.670  27.252  1.00  0.00     0.049 A 
ATOM     43  H   UNL A   1      43.223  27.562  28.450  1.00  0.00     0.167 HD
ATOM     44  C   UNL A   1      39.854  29.732  30.228  1.00  0.00     0.034 A 
ATOM     45  C   UNL A   1      45.706  27.534  27.097  1.00  0.00     0.034 A 
ATOM     46  C   UNL A   1      40.932  30.689  30.202  1.00  0.00     0.049 A 
ATOM     47  C   UNL A   1      45.582  28.922  27.649  1.00  0.00     0.074 A 
ATOM     48  C   UNL A   1      40.966  31.962  30.745  1.00  0.00     0.029 A 
ATOM     49  N   UNL A   1      42.167  30.478  29.608  1.00  0.00    -0.354 N 
ATOM     50  N   UNL A   1      44.589  29.460  28.311  1.00  0.00    -0.248 NA
ATOM     51  C   UNL A   1      46.723  29.822  27.436  1.00  0.00     0.031 C 
ATOM     52  C   UNL A   1      42.210  32.532  30.452  1.00  0.00     0.029 A 
ATOM     53  C   UNL A   1      42.967  31.598  29.763  1.00  0.00     0.049 A 
ATOM     54  H   UNL A   1      42.437  29.652  29.144  1.00  0.00     0.167 HD
ATOM     55  C   UNL A   1      44.994  30.752  28.620  1.00  0.00     0.074 A 
ATOM     56  C   UNL A   1      46.333  30.907  28.090  1.00  0.00     0.031 C 
ATOM     57  C   UNL A   1      44.313  31.726  29.271  1.00  0.00     0.034 A 
BRANCH  44  58
ATOM     58  C   UNL A   1      38.550  30.165  30.858  1.00  0.00     0.023 A 
ATOM     59  C   UNL A   1      38.281  29.885  32.212  1.00  0.00     0.012 A 
ATOM     60  C   UNL A   1      37.626  30.935  30.117  1.00  0.00     0.148 A 
ATOM     61  C   UNL A   1      37.103  30.335  32.810  1.00  0.00     0.002 A 
ATOM     62  C   UNL A   1      36.479  31.419  30.733  1.00  0.00     0.091 A 
ATOM     63  F   UNL A   1      37.888  31.179  28.826  1.00  0.00    -0.205 F 
ATOM     64  C   UNL A   1      36.209  31.111  32.076  1.00  0.00     0.022 A 
BRANCH  62  65
ATOM     65  S   UNL A   1      35.311  32.503  29.898  1.00  0.00     0.127 S 
ATOM     66  O   UNL A   1      34.915  31.682  28.755  1.00  0.00    -0.237 OA
ATOM     67  O   UNL A   1      34.272  32.676  30.913  1.00  0.00    -0.237 OA
ATOM     68  O   UNL A   1      36.050  33.714  29.571  1.00  0.00    -0.744 OA
ENDBRANCH  62  65
ENDBRANCH  44  58
BRANCH  45  69
ATOM     69  C   UNL A   1      46.923  27.107  26.347  1.00  0.00     0.023 A 
ATOM     70  C   UNL A   1      47.811  26.186  26.934  1.00  0.00     0.012 A 
ATOM     71  C   UNL A   1      47.171  27.562  25.036  1.00  0.00     0.148 A 
ATOM     72  C   UNL A   1      48.930  25.734  26.231  1.00  0.00     0.002 A 
ATOM     73  C   UNL A   1      48.246  27.053  24.318  1.00  0.00     0.091 A 
ATOM     74  F   UNL A   1      46.328  28.459  24.504  1.00  0.00    -0.205 F 
ATOM     75  C   UNL A   1      49.137  26.153  24.919  1.00  0.00     0.022 A 
BRANCH  73  76
ATOM     76  S   UNL A   1      48.489  27.411  22.574  1.00  0.00     0.127 S 
ATOM     77  O   UNL A   1      47.298  28.197  22.260  1.00  0.00    -0.237 OA
ATOM     78  O   UNL A   1      49.742  28.168  22.593  1.00  0.00    -0.237 OA
ATOM     79  O   UNL A   1      48.585  26.114  21.916  1.00  0.00    -0.744 OA
ENDBRANCH  73  76
ENDBRANCH  45  69
BRANCH  57  80
ATOM     80  C   UNL A   1      45.029  33.030  29.504  1.00  0.00     0.023 A 
ATOM     81  C   UNL A   1      45.872  33.185  30.622  1.00  0.00     0.012 A 
ATOM     82  C   UNL A   1      44.896  34.089  28.585  1.00  0.00     0.148 A 
ATOM     83  C   UNL A   1      46.539  34.390  30.844  1.00  0.00     0.002 A 
ATOM     84  C   UNL A   1      45.604  35.267  28.784  1.00  0.00     0.091 A 
ATOM     85  F   UNL A   1      44.073  33.927  27.538  1.00  0.00    -0.205 F 
ATOM     86  C   UNL A   1      46.414  35.425  29.920  1.00  0.00     0.022 A 
BRANCH  84  87
ATOM     87  S   UNL A   1      45.576  36.617  27.600  1.00  0.00     0.127 S 
ATOM     88  O   UNL A   1      44.341  37.309  27.967  1.00  0.00    -0.237 OA
ATOM     89  O   UNL A   1      46.802  37.343  27.931  1.00  0.00    -0.237 OA
ATOM     90  O   UNL A   1      45.577  35.998  26.282  1.00  0.00    -0.744 OA
ENDBRANCH  84  87
ENDBRANCH  57  80
ENDBRANCH  31  32
ENDBRANCH  24  26
ENDBRANCH  23  24
ENDBRANCH  22  23
ENDBRANCH  21  22
ENDBRANCH   1  21
TORSDOF 20
ENDMDL
MODEL 3
REMARK VINA RESULT:     -10.6      5.330     10.132
REMARK SMILES C[N@H+](CCC(=O)Nc1sccc1C#N)CC(=O)OCCOC(=O)c1ccc(-c2c3nc(c(-c4cccc(S(=O)(=O)[O-])c4F)c4ccc([nH]4)c(-c4cccc(S(=O)(=O)[O-])c4F)c4nc(c(-c5cccc(S(=O)(=O)[O-])c5F)c5ccc2[nH]5)C=C4)C=C3)cc1
REMARK SMILES IDX 18 1 16 2 17 3 15 4 2 5 1 6 3 8 4 9 5 10 6 11 7 12 8 14 9 15
REMARK SMILES IDX 12 16 10 17 11 18 13 19 14 20 19 21 20 22 21 23 22 24 23 25
REMARK SMILES IDX 24 26 25 27 86 28 26 29 85 30 27 31 28 32 29 33 79 34 30 35
REMARK SMILES IDX 84 36 78 37 80 38 31 39 83 40 77 41 76 42 32 44 64 45 44 46
REMARK SMILES IDX 63 47 45 48 48 49 62 50 81 51 46 52 47 53 61 55 82 56 49 57
REMARK SMILES IDX 33 58 34 59 42 60 35 61 37 62 43 63 36 64 38 65 39 66 40 67
REMARK SMILES IDX 41 68 65 69 66 70 74 71 67 72 69 73 75 74 68 75 70 76 71 77
REMARK SMILES IDX 72 78 73 79 50 80 51 81 59 82 52 83 54 84 60 85 53 86 55 87
REMARK SMILES IDX 56 88 57 89 58 90
REMARK H PARENT 2 7 7 13 80 43 48 54
REMARK Flexibility Score: inf
ROOT
ATOM      1  O   UNL A   1      34.375  22.135  24.133  1.00  0.00    -0.458 OA
ENDROOT
BRANCH   1   2
ATOM      2  C   UNL A   1      33.700  22.750  25.141  1.00  0.00     0.361 C 
ATOM      3  O   UNL A   1      34.210  23.187  26.164  1.00  0.00    -0.245 OA
BRANCH   2   4
ATOM      4  C   UNL A   1      32.234  22.888  24.796  1.00  0.00     0.386 C 
BRANCH   4   5
ATOM      5  N   UNL A   1      31.575  23.872  25.671  1.00  0.00    -0.328 N 
ATOM      6  C   UNL A   1      30.630  23.164  26.540  1.00  0.00     0.333 C 
ATOM      7  H   UNL A   1      32.301  24.327  26.225  1.00  0.00     0.348 HD
BRANCH   5   8
ATOM      8  C   UNL A   1      30.915  24.971  24.947  1.00  0.00     0.272 C 
BRANCH   8   9
ATOM      9  C   UNL A   1      31.732  25.818  23.969  1.00  0.00     0.161 C 
BRANCH   9  10
ATOM     10  C   UNL A   1      33.087  26.495  24.170  1.00  0.00     0.230 C 
ATOM     11  O   UNL A   1      34.084  25.824  23.848  1.00  0.00    -0.274 OA
ATOM     12  N   UNL A   1      33.357  27.758  24.563  1.00  0.00    -0.316 N 
ATOM     13  H   UNL A   1      34.279  28.034  24.359  1.00  0.00     0.170 HD
BRANCH  12  14
ATOM     14  C   UNL A   1      32.634  28.735  25.183  1.00  0.00     0.113 A 
ATOM     15  S   UNL A   1      33.167  28.984  26.788  1.00  0.00    -0.125 S 
ATOM     16  C   UNL A   1      31.540  29.517  24.901  1.00  0.00     0.087 A 
ATOM     17  C   UNL A   1      32.286  30.443  26.912  1.00  0.00     0.068 A 
ATOM     18  C   UNL A   1      31.398  30.571  25.865  1.00  0.00     0.033 A 
BRANCH  16  19
ATOM     19  C   UNL A   1      30.639  29.294  23.812  1.00  0.00     0.102 C 
ATOM     20  N   UNL A   1      29.920  29.113  22.920  1.00  0.00    -0.192 NA
ENDBRANCH  16  19
ENDBRANCH  12  14
ENDBRANCH   9  10
ENDBRANCH   8   9
ENDBRANCH   5   8
ENDBRANCH   4   5
ENDBRANCH   2   4
ENDBRANCH   1   2
BRANCH   1  21
ATOM     21  C   UNL A   1      35.610  22.755  23.758  1.00  0.00     0.274 C 
BRANCH  21  22
ATOM     22  C   UNL A   1      36.754  21.766  23.978  1.00  0.00     0.275 C 
BRANCH  22  23
ATOM     23  O   UNL A   1      37.027  21.594  25.385  1.00  0.00    -0.458 OA
BRANCH  23  24
ATOM     24  C   UNL A   1      38.318  21.344  25.706  1.00  0.00     0.338 C 
ATOM     25  O   UNL A   1      38.959  20.341  25.428  1.00  0.00    -0.246 OA
BRANCH  24  26
ATOM     26  C   UNL A   1      38.932  22.478  26.421  1.00  0.00     0.060 A 
ATOM     27  C   UNL A   1      38.504  23.784  26.194  1.00  0.00     0.016 A 
ATOM     28  C   UNL A   1      40.069  22.249  27.195  1.00  0.00     0.016 A 
ATOM     29  C   UNL A   1      39.277  24.857  26.650  1.00  0.00     0.010 A 
ATOM     30  C   UNL A   1      40.767  23.329  27.749  1.00  0.00     0.010 A 
ATOM     31  C   UNL A   1      40.410  24.656  27.451  1.00  0.00    -0.014 A 
BRANCH  31  32
ATOM     32  C   UNL A   1      41.230  25.795  27.979  1.00  0.00     0.031 A 
ATOM     33  C   UNL A   1      40.581  26.870  28.822  1.00  0.00     0.074 A 
ATOM     34  C   UNL A   1      42.537  25.923  27.661  1.00  0.00     0.049 A 
ATOM     35  N   UNL A   1      40.988  28.088  29.075  1.00  0.00    -0.248 NA
ATOM     36  C   UNL A   1      39.288  26.536  29.445  1.00  0.00     0.031 C 
ATOM     37  C   UNL A   1      43.334  24.959  26.903  1.00  0.00     0.029 A 
ATOM     38  N   UNL A   1      43.421  26.951  27.909  1.00  0.00    -0.354 N 
ATOM     39  C   UNL A   1      39.956  28.700  29.782  1.00  0.00     0.074 A 
ATOM     40  C   UNL A   1      38.920  27.705  29.954  1.00  0.00     0.031 C 
ATOM     41  C   UNL A   1      44.581  25.425  26.756  1.00  0.00     0.029 A 
ATOM     42  C   UNL A   1      44.636  26.780  27.285  1.00  0.00     0.049 A 
ATOM     43  H   UNL A   1      43.206  27.727  28.475  1.00  0.00     0.167 HD
ATOM     44  C   UNL A   1      39.879  29.976  30.233  1.00  0.00     0.034 A 
ATOM     45  C   UNL A   1      45.654  27.636  27.063  1.00  0.00     0.034 A 
ATOM     46  C   UNL A   1      40.954  30.931  30.135  1.00  0.00     0.049 A 
ATOM     47  C   UNL A   1      45.542  29.049  27.552  1.00  0.00     0.074 A 
ATOM     48  C   UNL A   1      40.999  32.229  30.616  1.00  0.00     0.029 A 
ATOM     49  N   UNL A   1      42.174  30.693  29.521  1.00  0.00    -0.354 N 
ATOM     50  N   UNL A   1      44.564  29.617  28.213  1.00  0.00    -0.248 NA
ATOM     51  C   UNL A   1      46.675  29.939  27.268  1.00  0.00     0.031 C 
ATOM     52  C   UNL A   1      42.234  32.785  30.265  1.00  0.00     0.029 A 
ATOM     53  C   UNL A   1      42.975  31.821  29.603  1.00  0.00     0.049 A 
ATOM     54  H   UNL A   1      42.434  29.847  29.090  1.00  0.00     0.167 HD
ATOM     55  C   UNL A   1      44.974  30.923  28.449  1.00  0.00     0.074 A 
ATOM     56  C   UNL A   1      46.300  31.053  27.880  1.00  0.00     0.031 C 
ATOM     57  C   UNL A   1      44.309  31.926  29.071  1.00  0.00     0.034 A 
BRANCH  44  58
ATOM     58  C   UNL A   1      38.590  30.437  30.874  1.00  0.00     0.023 A 
ATOM     59  C   UNL A   1      38.374  30.261  32.255  1.00  0.00     0.012 A 
ATOM     60  C   UNL A   1      37.627  31.132  30.110  1.00  0.00     0.148 A 
ATOM     61  C   UNL A   1      37.210  30.739  32.859  1.00  0.00     0.002 A 
ATOM     62  C   UNL A   1      36.493  31.646  30.728  1.00  0.00     0.091 A 
ATOM     63  F   UNL A   1      37.839  31.277  28.795  1.00  0.00    -0.205 F 
ATOM     64  C   UNL A   1      36.277  31.441  32.099  1.00  0.00     0.022 A 
BRANCH  62  65
ATOM     65  S   UNL A   1      35.278  32.642  29.853  1.00  0.00     0.127 S 
ATOM     66  O   UNL A   1      36.099  33.749  29.366  1.00  0.00    -0.237 OA
ATOM     67  O   UNL A   1      34.817  31.722  28.812  1.00  0.00    -0.237 OA
ATOM     68  O   UNL A   1      34.267  32.999  30.839  1.00  0.00    -0.744 OA
ENDBRANCH  62  65
ENDBRANCH  44  58
BRANCH  45  69
ATOM     69  C   UNL A   1      46.853  27.176  26.304  1.00  0.00     0.023 A 
ATOM     70  C   UNL A   1      46.964  27.477  24.933  1.00  0.00     0.012 A 
ATOM     71  C   UNL A   1      47.909  26.497  26.947  1.00  0.00     0.148 A 
ATOM     72  C   UNL A   1      48.099  27.101  24.214  1.00  0.00     0.002 A 
ATOM     73  C   UNL A   1      49.066  26.190  26.241  1.00  0.00     0.091 A 
ATOM     74  F   UNL A   1      47.774  26.196  28.246  1.00  0.00    -0.205 F 
ATOM     75  C   UNL A   1      49.156  26.474  24.871  1.00  0.00     0.022 A 
BRANCH  73  76
ATOM     76  S   UNL A   1      50.533  25.535  27.045  1.00  0.00     0.127 S 
ATOM     77  O   UNL A   1      50.021  24.310  27.654  1.00  0.00    -0.237 OA
ATOM     78  O   UNL A   1      51.433  25.331  25.908  1.00  0.00    -0.237 OA
ATOM     79  O   UNL A   1      50.968  26.572  27.972  1.00  0.00    -0.744 OA
ENDBRANCH  73  76
ENDBRANCH  45  69
BRANCH  57  80
ATOM     80  C   UNL A   1      45.027  33.240  29.224  1.00  0.00     0.023 A 
ATOM     81  C   UNL A   1      45.861  33.466  30.337  1.00  0.00     0.012 A 
ATOM     82  C   UNL A   1      44.907  34.236  28.235  1.00  0.00     0.148 A 
ATOM     83  C   UNL A   1      46.530  34.680  30.485  1.00  0.00     0.002 A 
ATOM     84  C   UNL A   1      45.618  35.422  28.363  1.00  0.00     0.091 A 
ATOM     85  F   UNL A   1      44.093  34.008  27.194  1.00  0.00    -0.205 F 
ATOM     86  C   UNL A   1      46.418  35.652  29.494  1.00  0.00     0.022 A 
BRANCH  84  87
ATOM     87  S   UNL A   1      45.606  36.691  27.092  1.00  0.00     0.127 S 
ATOM     88  O   UNL A   1      46.422  37.737  27.708  1.00  0.00    -0.237 OA
ATOM     89  O   UNL A   1      46.241  36.006  25.966  1.00  0.00    -0.237 OA
ATOM     90  O   UNL A   1      44.207  37.036  26.880  1.00  0.00    -0.744 OA
ENDBRANCH  84  87
ENDBRANCH  57  80
ENDBRANCH  31  32
ENDBRANCH  24  26
ENDBRANCH  23  24
ENDBRANCH  22  23
ENDBRANCH  21  22
ENDBRANCH   1  21
TORSDOF 20
ENDMDL
