MODEL 1
REMARK VINA RESULT:     -13.2      0.000      0.000
REMARK SMILES Cc1c(CC(=O)OCCOC(=O)c2ccc(-c3c4nc(c(-c5cccc(S(=O)(=O)[O-])c5F)c5ccc([nH]5)c(-c5cccc(S(=O)(=O)[O-])c5F)c5nc(c(-c6cccc(S(=O)(=O)[O-])c6F)c6ccc3[nH]6)C=C5)C=C4)cc2)cccc1-c1ccn(C(F)F)c(=O)c1
REMARK SMILES IDX 8 1 7 2 5 3 6 4 4 5 3 6 1 7 2 8 79 9 76 10 78 11 77 12 80 13
REMARK SMILES IDX 81 14 89 15 82 16 87 17 83 18 88 19 84 20 85 21 86 22 9 23
REMARK SMILES IDX 10 24 11 25 12 26 13 27 14 28 75 29 15 30 74 31 16 32 17 33
REMARK SMILES IDX 18 34 68 35 19 36 73 37 67 38 69 39 20 40 72 41 66 42 65 43
REMARK SMILES IDX 21 45 53 46 33 47 52 48 34 49 37 50 51 51 70 52 35 53 36 54
REMARK SMILES IDX 50 56 71 57 38 58 22 59 23 60 31 61 24 62 26 63 32 64 25 65
REMARK SMILES IDX 27 66 28 67 29 68 30 69 54 70 55 71 63 72 56 73 58 74 64 75
REMARK SMILES IDX 57 76 59 77 60 78 61 79 62 80 39 81 40 82 48 83 41 84 43 85
REMARK SMILES IDX 49 86 42 87 44 88 45 89 46 90 47 91
REMARK H PARENT 69 44 37 55
REMARK Flexibility Score: inf
ROOT
ATOM      1  C   UNL A   1      32.388  36.118  31.485  1.00  0.00     0.274 C 
ENDROOT
BRANCH   1   2
ATOM      2  O   UNL A   1      32.785  34.965  30.723  1.00  0.00    -0.462 OA
BRANCH   2   3
ATOM      3  C   UNL A   1      32.884  35.149  29.288  1.00  0.00     0.310 C 
ATOM      4  O   UNL A   1      32.943  36.414  29.142  1.00  0.00    -0.252 OA
BRANCH   3   5
ATOM      5  C   UNL A   1      33.001  33.549  27.834  1.00  0.00     0.158 C 
BRANCH   5   6
ATOM      6  C   UNL A   1      33.847  32.025  27.719  1.00  0.00    -0.033 A 
ATOM      7  C   UNL A   1      31.818  30.904  26.612  1.00  0.00     0.045 C 
ATOM      8  C   UNL A   1      33.202  30.851  27.218  1.00  0.00    -0.039 A 
ATOM      9  C   UNL A   1      33.920  29.623  27.202  1.00  0.00    -0.015 A 
ATOM     10  C   UNL A   1      35.249  31.966  27.900  1.00  0.00     0.004 A 
ATOM     11  C   UNL A   1      35.263  29.581  27.597  1.00  0.00     0.009 A 
ATOM     12  C   UNL A   1      35.933  30.754  27.905  1.00  0.00     0.001 A 
BRANCH   9  13
ATOM     13  C   UNL A   1      33.317  28.366  26.716  1.00  0.00    -0.011 A 
ATOM     14  C   UNL A   1      31.897  28.095  26.828  1.00  0.00     0.027 A 
ATOM     15  C   UNL A   1      34.135  27.417  26.232  1.00  0.00     0.080 A 
ATOM     16  C   UNL A   1      31.426  26.867  26.588  1.00  0.00     0.095 A 
ATOM     17  C   UNL A   1      33.601  26.082  25.849  1.00  0.00     0.255 A 
ATOM     18  N   UNL A   1      32.266  25.859  26.149  1.00  0.00    -0.258 N 
ATOM     19  O   UNL A   1      34.358  25.280  25.311  1.00  0.00    -0.269 OA
BRANCH  18  20
ATOM     20  C   UNL A   1      31.761  24.526  25.950  1.00  0.00     0.451 C 
ATOM     21  F   UNL A   1      31.467  23.940  27.138  1.00  0.00    -0.185 F 
ATOM     22  F   UNL A   1      30.636  24.526  25.198  1.00  0.00    -0.185 F 
ENDBRANCH  18  20
ENDBRANCH   9  13
ENDBRANCH   5   6
ENDBRANCH   3   5
ENDBRANCH   2   3
ENDBRANCH   1   2
BRANCH   1  23
ATOM     23  C   UNL A   1      33.493  36.415  32.505  1.00  0.00     0.275 C 
BRANCH  23  24
ATOM     24  O   UNL A   1      34.833  36.002  32.111  1.00  0.00    -0.458 OA
BRANCH  24  25
ATOM     25  C   UNL A   1      35.504  34.974  32.708  1.00  0.00     0.338 C 
ATOM     26  O   UNL A   1      36.004  35.045  33.820  1.00  0.00    -0.246 OA
BRANCH  25  27
ATOM     27  C   UNL A   1      35.855  33.875  31.782  1.00  0.00     0.060 A 
ATOM     28  C   UNL A   1      35.509  32.195  32.352  1.00  0.00     0.016 A 
ATOM     29  C   UNL A   1      37.173  34.182  30.591  1.00  0.00     0.016 A 
ATOM     30  C   UNL A   1      36.655  30.848  31.890  1.00  0.00     0.010 A 
ATOM     31  C   UNL A   1      38.288  32.839  30.133  1.00  0.00     0.010 A 
ATOM     32  C   UNL A   1      38.085  31.200  30.866  1.00  0.00    -0.014 A 
BRANCH  32  33
ATOM     33  C   UNL A   1      39.355  30.486  30.975  1.00  0.00     0.031 A 
ATOM     34  C   UNL A   1      39.572  29.201  30.289  1.00  0.00     0.074 A 
ATOM     35  C   UNL A   1      40.434  31.174  31.426  1.00  0.00     0.049 A 
ATOM     36  N   UNL A   1      40.645  28.506  30.449  1.00  0.00    -0.248 NA
ATOM     37  C   UNL A   1      38.607  28.555  29.408  1.00  0.00     0.031 C 
ATOM     38  C   UNL A   1      41.842  30.922  31.126  1.00  0.00     0.029 A 
ATOM     39  N   UNL A   1      40.500  32.189  32.377  1.00  0.00    -0.354 N 
ATOM     40  C   UNL A   1      40.667  27.553  29.465  1.00  0.00     0.074 A 
ATOM     41  C   UNL A   1      39.321  27.515  28.956  1.00  0.00     0.031 C 
ATOM     42  C   UNL A   1      42.602  31.522  32.055  1.00  0.00     0.029 A 
ATOM     43  C   UNL A   1      41.710  32.055  33.064  1.00  0.00     0.049 A 
ATOM     44  H   UNL A   1      39.816  32.878  32.537  1.00  0.00     0.167 HD
ATOM     45  C   UNL A   1      41.866  27.015  29.114  1.00  0.00     0.034 A 
ATOM     46  C   UNL A   1      41.803  31.870  34.414  1.00  0.00     0.034 A 
ATOM     47  C   UNL A   1      42.919  27.361  30.084  1.00  0.00     0.049 A 
ATOM     48  C   UNL A   1      42.471  30.539  34.755  1.00  0.00     0.074 A 
ATOM     49  C   UNL A   1      44.065  28.133  30.077  1.00  0.00     0.029 A 
ATOM     50  N   UNL A   1      42.702  27.030  31.413  1.00  0.00    -0.354 N 
ATOM     51  N   UNL A   1      43.076  29.755  33.902  1.00  0.00    -0.248 NA
ATOM     52  C   UNL A   1      42.366  29.926  36.079  1.00  0.00     0.031 C 
ATOM     53  C   UNL A   1      44.489  28.303  31.436  1.00  0.00     0.029 A 
ATOM     54  C   UNL A   1      43.638  27.586  32.261  1.00  0.00     0.049 A 
ATOM     55  H   UNL A   1      41.960  26.459  31.718  1.00  0.00     0.167 HD
ATOM     56  C   UNL A   1      43.169  28.491  34.441  1.00  0.00     0.074 A 
ATOM     57  C   UNL A   1      42.743  28.666  35.820  1.00  0.00     0.031 C 
ATOM     58  C   UNL A   1      43.482  27.377  33.702  1.00  0.00     0.034 A 
BRANCH  45  59
ATOM     59  C   UNL A   1      42.125  26.240  27.840  1.00  0.00     0.023 A 
ATOM     60  C   UNL A   1      42.521  26.973  26.700  1.00  0.00     0.012 A 
ATOM     61  C   UNL A   1      41.923  24.850  27.651  1.00  0.00     0.148 A 
ATOM     62  C   UNL A   1      42.714  26.366  25.452  1.00  0.00     0.002 A 
ATOM     63  C   UNL A   1      42.198  24.232  26.427  1.00  0.00     0.091 A 
ATOM     64  F   UNL A   1      41.354  24.116  28.614  1.00  0.00    -0.205 F 
ATOM     65  C   UNL A   1      42.577  24.991  25.319  1.00  0.00     0.022 A 
BRANCH  63  66
ATOM     66  S   UNL A   1      42.116  22.443  26.224  1.00  0.00     0.127 S 
ATOM     67  O   UNL A   1      40.675  22.201  26.214  1.00  0.00    -0.237 OA
ATOM     68  O   UNL A   1      42.777  22.238  24.935  1.00  0.00    -0.237 OA
ATOM     69  O   UNL A   1      42.840  21.882  27.360  1.00  0.00    -0.744 OA
ENDBRANCH  63  66
ENDBRANCH  45  59
BRANCH  46  70
ATOM     70  C   UNL A   1      40.665  32.490  35.168  1.00  0.00     0.023 A 
ATOM     71  C   UNL A   1      39.775  31.611  35.833  1.00  0.00     0.012 A 
ATOM     72  C   UNL A   1      40.684  33.839  35.559  1.00  0.00     0.148 A 
ATOM     73  C   UNL A   1      39.053  32.030  36.954  1.00  0.00     0.002 A 
ATOM     74  C   UNL A   1      39.958  34.251  36.673  1.00  0.00     0.091 A 
ATOM     75  F   UNL A   1      41.473  34.702  34.908  1.00  0.00    -0.205 F 
ATOM     76  C   UNL A   1      39.174  33.344  37.396  1.00  0.00     0.022 A 
BRANCH  74  77
ATOM     77  S   UNL A   1      40.213  35.906  37.335  1.00  0.00     0.127 S 
ATOM     78  O   UNL A   1      39.309  35.937  38.484  1.00  0.00    -0.237 OA
ATOM     79  O   UNL A   1      41.624  35.926  37.700  1.00  0.00    -0.237 OA
ATOM     80  O   UNL A   1      39.816  36.745  36.209  1.00  0.00    -0.744 OA
ENDBRANCH  74  77
ENDBRANCH  46  70
BRANCH  58  81
ATOM     81  C   UNL A   1      43.604  25.972  34.300  1.00  0.00     0.023 A 
ATOM     82  C   UNL A   1      42.464  25.274  34.750  1.00  0.00     0.012 A 
ATOM     83  C   UNL A   1      44.853  25.338  34.548  1.00  0.00     0.148 A 
ATOM     84  C   UNL A   1      42.540  23.991  35.307  1.00  0.00     0.002 A 
ATOM     85  C   UNL A   1      44.935  24.100  35.183  1.00  0.00     0.091 A 
ATOM     86  F   UNL A   1      45.991  25.922  34.166  1.00  0.00    -0.205 F 
ATOM     87  C   UNL A   1      43.777  23.405  35.529  1.00  0.00     0.022 A 
BRANCH  85  88
ATOM     88  S   UNL A   1      46.502  23.364  35.677  1.00  0.00     0.127 S 
ATOM     89  O   UNL A   1      47.224  24.531  36.187  1.00  0.00    -0.237 OA
ATOM     90  O   UNL A   1      46.079  22.411  36.701  1.00  0.00    -0.237 OA
ATOM     91  O   UNL A   1      47.075  22.771  34.478  1.00  0.00    -0.744 OA
ENDBRANCH  85  88
ENDBRANCH  58  81
ENDBRANCH  32  33
ENDBRANCH  25  27
ENDBRANCH  24  25
ENDBRANCH  23  24
ENDBRANCH   1  23
TORSDOF 17
ENDMDL
MODEL 2
REMARK VINA RESULT:     -12.8      2.752      4.397
REMARK SMILES Cc1c(CC(=O)OCCOC(=O)c2ccc(-c3c4nc(c(-c5cccc(S(=O)(=O)[O-])c5F)c5ccc([nH]5)c(-c5cccc(S(=O)(=O)[O-])c5F)c5nc(c(-c6cccc(S(=O)(=O)[O-])c6F)c6ccc3[nH]6)C=C5)C=C4)cc2)cccc1-c1ccn(C(F)F)c(=O)c1
REMARK SMILES IDX 8 1 7 2 5 3 6 4 4 5 3 6 1 7 2 8 79 9 76 10 78 11 77 12 80 13
REMARK SMILES IDX 81 14 89 15 82 16 87 17 83 18 88 19 84 20 85 21 86 22 9 23
REMARK SMILES IDX 10 24 11 25 12 26 13 27 14 28 75 29 15 30 74 31 16 32 17 33
REMARK SMILES IDX 18 34 68 35 19 36 73 37 67 38 69 39 20 40 72 41 66 42 65 43
REMARK SMILES IDX 21 45 53 46 33 47 52 48 34 49 37 50 51 51 70 52 35 53 36 54
REMARK SMILES IDX 50 56 71 57 38 58 22 59 23 60 31 61 24 62 26 63 32 64 25 65
REMARK SMILES IDX 27 66 28 67 29 68 30 69 54 70 55 71 63 72 56 73 58 74 64 75
REMARK SMILES IDX 57 76 59 77 60 78 61 79 62 80 39 81 40 82 48 83 41 84 43 85
REMARK SMILES IDX 49 86 42 87 44 88 45 89 46 90 47 91
REMARK H PARENT 69 44 37 55
REMARK Flexibility Score: inf
ROOT
ATOM      1  C   UNL A   1      32.236  30.599  26.912  1.00  0.00     0.274 C 
ENDROOT
BRANCH   1   2
ATOM      2  O   UNL A   1      31.774  29.261  27.163  1.00  0.00    -0.462 OA
BRANCH   2   3
ATOM      3  C   UNL A   1      31.656  28.397  26.005  1.00  0.00     0.310 C 
ATOM      4  O   UNL A   1      31.336  29.189  25.059  1.00  0.00    -0.252 OA
BRANCH   3   5
ATOM      5  C   UNL A   1      32.059  26.270  25.995  1.00  0.00     0.158 C 
BRANCH   5   6
ATOM      6  C   UNL A   1      32.478  25.084  24.783  1.00  0.00    -0.033 A 
ATOM      7  C   UNL A   1      32.607  23.223  26.551  1.00  0.00     0.045 C 
ATOM      8  C   UNL A   1      32.787  23.733  25.138  1.00  0.00    -0.039 A 
ATOM      9  C   UNL A   1      33.180  22.824  24.117  1.00  0.00    -0.015 A 
ATOM     10  C   UNL A   1      32.300  25.367  23.408  1.00  0.00     0.004 A 
ATOM     11  C   UNL A   1      33.187  23.224  22.775  1.00  0.00     0.009 A 
ATOM     12  C   UNL A   1      32.710  24.476  22.421  1.00  0.00     0.001 A 
BRANCH   9  13
ATOM     13  C   UNL A   1      33.530  21.420  24.407  1.00  0.00    -0.011 A 
ATOM     14  C   UNL A   1      34.874  21.016  24.774  1.00  0.00     0.027 A 
ATOM     15  C   UNL A   1      32.582  20.483  24.240  1.00  0.00     0.080 A 
ATOM     16  C   UNL A   1      35.202  19.721  24.807  1.00  0.00     0.095 A 
ATOM     17  C   UNL A   1      32.910  19.039  24.391  1.00  0.00     0.255 A 
ATOM     18  N   UNL A   1      34.252  18.743  24.575  1.00  0.00    -0.258 N 
ATOM     19  O   UNL A   1      31.997  18.221  24.338  1.00  0.00    -0.269 OA
BRANCH  18  20
ATOM     20  C   UNL A   1      34.628  17.353  24.553  1.00  0.00     0.451 C 
ATOM     21  F   UNL A   1      33.972  16.663  25.519  1.00  0.00    -0.185 F 
ATOM     22  F   UNL A   1      34.339  16.778  23.363  1.00  0.00    -0.185 F 
ENDBRANCH  18  20
ENDBRANCH   9  13
ENDBRANCH   5   6
ENDBRANCH   3   5
ENDBRANCH   2   3
ENDBRANCH   1   2
BRANCH   1  23
ATOM     23  C   UNL A   1      33.664  30.718  27.457  1.00  0.00     0.275 C 
BRANCH  23  24
ATOM     24  O   UNL A   1      34.222  32.063  27.456  1.00  0.00    -0.458 OA
BRANCH  24  25
ATOM     25  C   UNL A   1      33.845  33.030  28.342  1.00  0.00     0.338 C 
ATOM     26  O   UNL A   1      32.866  33.745  28.189  1.00  0.00    -0.246 OA
BRANCH  25  27
ATOM     27  C   UNL A   1      34.886  33.363  29.338  1.00  0.00     0.060 A 
ATOM     28  C   UNL A   1      36.334  34.257  28.729  1.00  0.00     0.016 A 
ATOM     29  C   UNL A   1      35.011  32.305  30.793  1.00  0.00     0.016 A 
ATOM     30  C   UNL A   1      37.971  33.895  29.457  1.00  0.00     0.010 A 
ATOM     31  C   UNL A   1      36.632  31.968  31.510  1.00  0.00     0.010 A 
ATOM     32  C   UNL A   1      38.118  32.686  30.774  1.00  0.00    -0.014 A 
BRANCH  32  33
ATOM     33  C   UNL A   1      39.292  31.835  30.965  1.00  0.00     0.031 A 
ATOM     34  C   UNL A   1      39.456  30.579  30.215  1.00  0.00     0.074 A 
ATOM     35  C   UNL A   1      40.375  32.377  31.575  1.00  0.00     0.049 A 
ATOM     36  N   UNL A   1      40.431  29.766  30.437  1.00  0.00    -0.248 NA
ATOM     37  C   UNL A   1      38.538  30.093  29.192  1.00  0.00     0.031 C 
ATOM     38  C   UNL A   1      41.777  31.996  31.409  1.00  0.00     0.029 A 
ATOM     39  N   UNL A   1      40.434  33.320  32.599  1.00  0.00    -0.354 N 
ATOM     40  C   UNL A   1      40.469  28.877  29.394  1.00  0.00     0.074 A 
ATOM     41  C   UNL A   1      39.191  29.014  28.744  1.00  0.00     0.031 C 
ATOM     42  C   UNL A   1      42.483  32.455  32.453  1.00  0.00     0.029 A 
ATOM     43  C   UNL A   1      41.540  33.017  33.398  1.00  0.00     0.049 A 
ATOM     44  H   UNL A   1      39.808  34.066  32.735  1.00  0.00     0.167 HD
ATOM     45  C   UNL A   1      41.641  28.238  29.133  1.00  0.00     0.034 A 
ATOM     46  C   UNL A   1      41.463  32.741  34.733  1.00  0.00     0.034 A 
ATOM     47  C   UNL A   1      42.607  28.411  30.231  1.00  0.00     0.049 A 
ATOM     48  C   UNL A   1      41.953  31.328  35.047  1.00  0.00     0.074 A 
ATOM     49  C   UNL A   1      43.818  29.056  30.401  1.00  0.00     0.029 A 
ATOM     50  N   UNL A   1      42.211  28.025  31.503  1.00  0.00    -0.354 N 
ATOM     51  N   UNL A   1      42.570  30.538  34.208  1.00  0.00    -0.248 NA
ATOM     52  C   UNL A   1      41.641  30.650  36.304  1.00  0.00     0.031 C 
ATOM     53  C   UNL A   1      44.101  29.098  31.806  1.00  0.00     0.029 A 
ATOM     54  C   UNL A   1      43.096  28.426  32.483  1.00  0.00     0.049 A 
ATOM     55  H   UNL A   1      41.387  27.518  31.686  1.00  0.00     0.167 HD
ATOM     56  C   UNL A   1      42.477  29.241  34.660  1.00  0.00     0.074 A 
ATOM     57  C   UNL A   1      41.918  29.376  35.997  1.00  0.00     0.031 C 
ATOM     58  C   UNL A   1      42.760  28.147  33.880  1.00  0.00     0.034 A 
BRANCH  45  59
ATOM     59  C   UNL A   1      41.963  27.519  27.841  1.00  0.00     0.023 A 
ATOM     60  C   UNL A   1      42.031  28.294  26.664  1.00  0.00     0.012 A 
ATOM     61  C   UNL A   1      42.119  26.120  27.679  1.00  0.00     0.148 A 
ATOM     62  C   UNL A   1      42.248  27.721  25.404  1.00  0.00     0.002 A 
ATOM     63  C   UNL A   1      42.422  25.558  26.435  1.00  0.00     0.091 A 
ATOM     64  F   UNL A   1      41.868  25.293  28.700  1.00  0.00    -0.205 F 
ATOM     65  C   UNL A   1      42.468  26.356  25.290  1.00  0.00     0.022 A 
BRANCH  63  66
ATOM     66  S   UNL A   1      42.796  23.806  26.247  1.00  0.00     0.127 S 
ATOM     67  O   UNL A   1      43.901  23.625  27.187  1.00  0.00    -0.237 OA
ATOM     68  O   UNL A   1      41.543  23.166  26.650  1.00  0.00    -0.237 OA
ATOM     69  O   UNL A   1      43.132  23.621  24.838  1.00  0.00    -0.744 OA
ENDBRANCH  63  66
ENDBRANCH  45  59
BRANCH  46  70
ATOM     70  C   UNL A   1      40.314  33.431  35.406  1.00  0.00     0.023 A 
ATOM     71  C   UNL A   1      39.056  32.779  35.368  1.00  0.00     0.012 A 
ATOM     72  C   UNL A   1      40.513  34.435  36.367  1.00  0.00     0.148 A 
ATOM     73  C   UNL A   1      38.097  33.009  36.358  1.00  0.00     0.002 A 
ATOM     74  C   UNL A   1      39.551  34.664  37.347  1.00  0.00     0.091 A 
ATOM     75  F   UNL A   1      41.671  35.107  36.387  1.00  0.00    -0.205 F 
ATOM     76  C   UNL A   1      38.361  33.927  37.370  1.00  0.00     0.022 A 
BRANCH  74  77
ATOM     77  S   UNL A   1      39.938  35.744  38.735  1.00  0.00     0.127 S 
ATOM     78  O   UNL A   1      40.063  37.054  38.098  1.00  0.00    -0.237 OA
ATOM     79  O   UNL A   1      38.776  35.625  39.607  1.00  0.00    -0.237 OA
ATOM     80  O   UNL A   1      41.186  35.169  39.225  1.00  0.00    -0.744 OA
ENDBRANCH  74  77
ENDBRANCH  46  70
BRANCH  58  81
ATOM     81  C   UNL A   1      42.675  26.703  34.385  1.00  0.00     0.023 A 
ATOM     82  C   UNL A   1      41.557  26.257  35.120  1.00  0.00     0.012 A 
ATOM     83  C   UNL A   1      43.741  25.771  34.257  1.00  0.00     0.148 A 
ATOM     84  C   UNL A   1      41.449  24.946  35.601  1.00  0.00     0.002 A 
ATOM     85  C   UNL A   1      43.671  24.495  34.812  1.00  0.00     0.091 A 
ATOM     86  F   UNL A   1      44.846  26.101  33.585  1.00  0.00    -0.205 F 
ATOM     87  C   UNL A   1      42.509  24.064  35.453  1.00  0.00     0.022 A 
BRANCH  85  88
ATOM     88  S   UNL A   1      45.072  23.364  34.827  1.00  0.00     0.127 S 
ATOM     89  O   UNL A   1      45.165  22.996  33.413  1.00  0.00    -0.237 OA
ATOM     90  O   UNL A   1      46.151  24.226  35.306  1.00  0.00    -0.237 OA
ATOM     91  O   UNL A   1      44.711  22.271  35.718  1.00  0.00    -0.744 OA
ENDBRANCH  85  88
ENDBRANCH  58  81
ENDBRANCH  32  33
ENDBRANCH  25  27
ENDBRANCH  24  25
ENDBRANCH  23  24
ENDBRANCH   1  23
TORSDOF 17
ENDMDL
MODEL 3
REMARK VINA RESULT:     -12.3      5.975     10.890
REMARK SMILES Cc1c(CC(=O)OCCOC(=O)c2ccc(-c3c4nc(c(-c5cccc(S(=O)(=O)[O-])c5F)c5ccc([nH]5)c(-c5cccc(S(=O)(=O)[O-])c5F)c5nc(c(-c6cccc(S(=O)(=O)[O-])c6F)c6ccc3[nH]6)C=C5)C=C4)cc2)cccc1-c1ccn(C(F)F)c(=O)c1
REMARK SMILES IDX 8 1 7 2 5 3 6 4 4 5 3 6 1 7 2 8 79 9 76 10 78 11 77 12 80 13
REMARK SMILES IDX 81 14 89 15 82 16 87 17 83 18 88 19 84 20 85 21 86 22 9 23
REMARK SMILES IDX 10 24 11 25 12 26 13 27 14 28 75 29 15 30 74 31 16 32 17 33
REMARK SMILES IDX 18 34 68 35 19 36 73 37 67 38 69 39 20 40 72 41 66 42 65 43
REMARK SMILES IDX 21 45 53 46 33 47 52 48 34 49 37 50 51 51 70 52 35 53 36 54
REMARK SMILES IDX 50 56 71 57 38 58 22 59 23 60 31 61 24 62 26 63 32 64 25 65
REMARK SMILES IDX 27 66 28 67 29 68 30 69 54 70 55 71 63 72 56 73 58 74 64 75
REMARK SMILES IDX 57 76 59 77 60 78 61 79 62 80 39 81 40 82 48 83 41 84 43 85
REMARK SMILES IDX 49 86 42 87 44 88 45 89 46 90 47 91
REMARK H PARENT 69 44 37 55
REMARK Flexibility Score: inf
ROOT
ATOM      1  C   UNL A   1      31.917  31.668  27.124  1.00  0.00     0.274 C 
ENDROOT
BRANCH   1   2
ATOM      2  O   UNL A   1      32.842  30.698  26.602  1.00  0.00    -0.462 OA
BRANCH   2   3
ATOM      3  C   UNL A   1      32.260  29.571  25.901  1.00  0.00     0.310 C 
ATOM      4  O   UNL A   1      31.275  30.075  25.269  1.00  0.00    -0.252 OA
BRANCH   3   5
ATOM      5  C   UNL A   1      33.045  27.553  25.922  1.00  0.00     0.158 C 
BRANCH   5   6
ATOM      6  C   UNL A   1      33.308  26.302  24.732  1.00  0.00    -0.033 A 
ATOM      7  C   UNL A   1      33.244  24.476  26.538  1.00  0.00     0.045 C 
ATOM      8  C   UNL A   1      33.463  24.932  25.113  1.00  0.00    -0.039 A 
ATOM      9  C   UNL A   1      33.735  23.964  24.107  1.00  0.00    -0.015 A 
ATOM     10  C   UNL A   1      33.145  26.576  23.353  1.00  0.00     0.004 A 
ATOM     11  C   UNL A   1      33.771  24.333  22.757  1.00  0.00     0.009 A 
ATOM     12  C   UNL A   1      33.437  25.624  22.381  1.00  0.00     0.001 A 
BRANCH   9  13
ATOM     13  C   UNL A   1      33.925  22.534  24.424  1.00  0.00    -0.011 A 
ATOM     14  C   UNL A   1      35.209  21.994  24.828  1.00  0.00     0.027 A 
ATOM     15  C   UNL A   1      32.885  21.703  24.248  1.00  0.00     0.080 A 
ATOM     16  C   UNL A   1      35.395  20.672  24.885  1.00  0.00     0.095 A 
ATOM     17  C   UNL A   1      33.052  20.234  24.425  1.00  0.00     0.255 A 
ATOM     18  N   UNL A   1      34.349  19.798  24.644  1.00  0.00    -0.258 N 
ATOM     19  O   UNL A   1      32.057  19.519  24.361  1.00  0.00    -0.269 OA
BRANCH  18  20
ATOM     20  C   UNL A   1      34.573  18.376  24.649  1.00  0.00     0.451 C 
ATOM     21  F   UNL A   1      34.004  17.795  23.564  1.00  0.00    -0.185 F 
ATOM     22  F   UNL A   1      35.893  18.079  24.636  1.00  0.00    -0.185 F 
ENDBRANCH  18  20
ENDBRANCH   9  13
ENDBRANCH   5   6
ENDBRANCH   3   5
ENDBRANCH   2   3
ENDBRANCH   1   2
BRANCH   1  23
ATOM     23  C   UNL A   1      32.724  32.865  27.638  1.00  0.00     0.275 C 
BRANCH  23  24
ATOM     24  O   UNL A   1      34.104  32.576  28.003  1.00  0.00    -0.458 OA
BRANCH  24  25
ATOM     25  C   UNL A   1      34.610  32.798  29.251  1.00  0.00     0.338 C 
ATOM     26  O   UNL A   1      34.035  33.448  30.110  1.00  0.00    -0.246 OA
BRANCH  25  27
ATOM     27  C   UNL A   1      36.045  32.462  29.380  1.00  0.00     0.060 A 
ATOM     28  C   UNL A   1      36.498  31.358  30.737  1.00  0.00     0.016 A 
ATOM     29  C   UNL A   1      37.237  33.648  28.731  1.00  0.00     0.016 A 
ATOM     30  C   UNL A   1      38.091  31.615  31.596  1.00  0.00     0.010 A 
ATOM     31  C   UNL A   1      38.812  33.882  29.581  1.00  0.00     0.010 A 
ATOM     32  C   UNL A   1      39.188  32.934  31.072  1.00  0.00    -0.014 A 
BRANCH  32  33
ATOM     33  C   UNL A   1      40.065  33.668  31.983  1.00  0.00     0.031 A 
ATOM     34  C   UNL A   1      39.535  34.329  33.188  1.00  0.00     0.074 A 
ATOM     35  C   UNL A   1      41.400  33.446  31.895  1.00  0.00     0.049 A 
ATOM     36  N   UNL A   1      40.270  35.062  33.951  1.00  0.00    -0.248 NA
ATOM     37  C   UNL A   1      38.146  34.275  33.625  1.00  0.00     0.031 C 
ATOM     38  C   UNL A   1      42.399  33.577  32.954  1.00  0.00     0.029 A 
ATOM     39  N   UNL A   1      42.179  33.178  30.772  1.00  0.00    -0.354 N 
ATOM     40  C   UNL A   1      39.575  35.267  35.115  1.00  0.00     0.074 A 
ATOM     41  C   UNL A   1      38.216  34.907  34.803  1.00  0.00     0.031 C 
ATOM     42  C   UNL A   1      43.616  33.682  32.400  1.00  0.00     0.029 A 
ATOM     43  C   UNL A   1      43.429  33.771  30.966  1.00  0.00     0.049 A 
ATOM     44  H   UNL A   1      41.898  32.662  29.982  1.00  0.00     0.167 HD
ATOM     45  C   UNL A   1      40.275  35.585  36.237  1.00  0.00     0.034 A 
ATOM     46  C   UNL A   1      43.966  34.710  30.132  1.00  0.00     0.034 A 
ATOM     47  C   UNL A   1      41.668  35.941  35.922  1.00  0.00     0.049 A 
ATOM     48  C   UNL A   1      44.202  36.035  30.853  1.00  0.00     0.074 A 
ATOM     49  C   UNL A   1      42.915  35.392  36.158  1.00  0.00     0.029 A 
ATOM     50  N   UNL A   1      41.881  36.964  35.011  1.00  0.00    -0.354 N 
ATOM     51  N   UNL A   1      44.115  36.221  32.144  1.00  0.00    -0.248 NA
ATOM     52  C   UNL A   1      44.409  37.293  30.135  1.00  0.00     0.031 C 
ATOM     53  C   UNL A   1      43.861  36.071  35.321  1.00  0.00     0.029 A 
ATOM     54  C   UNL A   1      43.202  37.071  34.625  1.00  0.00     0.049 A 
ATOM     55  H   UNL A   1      41.165  37.552  34.675  1.00  0.00     0.167 HD
ATOM     56  C   UNL A   1      43.960  37.565  32.396  1.00  0.00     0.074 A 
ATOM     57  C   UNL A   1      44.190  38.193  31.104  1.00  0.00     0.031 C 
ATOM     58  C   UNL A   1      43.552  38.064  33.608  1.00  0.00     0.034 A 
BRANCH  45  59
ATOM     59  C   UNL A   1      39.733  35.495  37.647  1.00  0.00     0.023 A 
ATOM     60  C   UNL A   1      39.805  36.655  38.448  1.00  0.00     0.012 A 
ATOM     61  C   UNL A   1      39.235  34.328  38.279  1.00  0.00     0.148 A 
ATOM     62  C   UNL A   1      39.401  36.663  39.790  1.00  0.00     0.002 A 
ATOM     63  C   UNL A   1      38.753  34.357  39.591  1.00  0.00     0.091 A 
ATOM     64  F   UNL A   1      39.322  33.143  37.666  1.00  0.00    -0.205 F 
ATOM     65  C   UNL A   1      38.852  35.521  40.356  1.00  0.00     0.022 A 
BRANCH  63  66
ATOM     66  S   UNL A   1      37.957  32.928  40.345  1.00  0.00     0.127 S 
ATOM     67  O   UNL A   1      37.370  33.504  41.553  1.00  0.00    -0.237 OA
ATOM     68  O   UNL A   1      36.985  32.529  39.327  1.00  0.00    -0.237 OA
ATOM     69  O   UNL A   1      39.021  31.953  40.566  1.00  0.00    -0.744 OA
ENDBRANCH  63  66
ENDBRANCH  45  59
BRANCH  46  70
ATOM     70  C   UNL A   1      43.503  34.562  28.713  1.00  0.00     0.023 A 
ATOM     71  C   UNL A   1      42.476  35.435  28.274  1.00  0.00     0.012 A 
ATOM     72  C   UNL A   1      44.283  33.913  27.743  1.00  0.00     0.148 A 
ATOM     73  C   UNL A   1      42.346  35.770  26.924  1.00  0.00     0.002 A 
ATOM     74  C   UNL A   1      44.144  34.247  26.399  1.00  0.00     0.091 A 
ATOM     75  F   UNL A   1      45.220  33.039  28.129  1.00  0.00    -0.205 F 
ATOM     76  C   UNL A   1      43.206  35.202  25.990  1.00  0.00     0.022 A 
BRANCH  74  77
ATOM     77  S   UNL A   1      45.338  33.626  25.203  1.00  0.00     0.127 S 
ATOM     78  O   UNL A   1      45.291  32.180  25.421  1.00  0.00    -0.237 OA
ATOM     79  O   UNL A   1      44.796  34.042  23.916  1.00  0.00    -0.237 OA
ATOM     80  O   UNL A   1      46.568  34.280  25.638  1.00  0.00    -0.744 OA
ENDBRANCH  74  77
ENDBRANCH  46  70
BRANCH  58  81
ATOM     81  C   UNL A   1      43.395  39.560  33.898  1.00  0.00     0.023 A 
ATOM     82  C   UNL A   1      42.635  40.388  33.046  1.00  0.00     0.012 A 
ATOM     83  C   UNL A   1      44.085  40.225  34.950  1.00  0.00     0.148 A 
ATOM     84  C   UNL A   1      42.476  41.761  33.278  1.00  0.00     0.002 A 
ATOM     85  C   UNL A   1      43.997  41.604  35.128  1.00  0.00     0.091 A 
ATOM     86  F   UNL A   1      44.836  39.529  35.806  1.00  0.00    -0.205 F 
ATOM     87  C   UNL A   1      43.162  42.371  34.317  1.00  0.00     0.022 A 
BRANCH  85  88
ATOM     88  S   UNL A   1      45.002  42.493  36.329  1.00  0.00     0.127 S 
ATOM     89  O   UNL A   1      44.145  42.449  37.515  1.00  0.00    -0.237 OA
ATOM     90  O   UNL A   1      46.195  41.653  36.406  1.00  0.00    -0.237 OA
ATOM     91  O   UNL A   1      45.216  43.825  35.783  1.00  0.00    -0.744 OA
ENDBRANCH  85  88
ENDBRANCH  58  81
ENDBRANCH  32  33
ENDBRANCH  25  27
ENDBRANCH  24  25
ENDBRANCH  23  24
ENDBRANCH   1  23
TORSDOF 17
ENDMDL
