MODEL 1
REMARK VINA RESULT:     -10.7      0.000      0.000
REMARK SMILES C=CCN(CC(=O)OCCOC(=O)c1ccc(-c2c3nc(c(-c4cccc(S(=O)(=O)[O-])c4F)c4ccc([nH]4)c(-c4cccc(S(=O)(=O)[O-])c4F)c4nc(c(-c5cccc(S(=O)(=O)[O-])c5F)c5ccc2[nH]5)C=C4)C=C3)cc1)c1ccc([N+](=O)[O-])cc1Br
REMARK SMILES IDX 9 1 8 2 6 3 7 4 5 5 4 6 3 7 2 8 1 9 77 10 78 11 85 12 79 13
REMARK SMILES IDX 84 14 86 15 80 16 81 17 82 18 83 19 10 20 11 21 12 22 13 23
REMARK SMILES IDX 14 24 15 25 76 26 16 27 75 28 17 29 18 30 19 31 69 32 20 33
REMARK SMILES IDX 74 34 68 35 70 36 21 37 73 38 67 39 66 40 22 42 54 43 34 44
REMARK SMILES IDX 53 45 35 46 38 47 52 48 71 49 36 50 37 51 51 53 72 54 39 55
REMARK SMILES IDX 23 56 24 57 32 58 25 59 27 60 33 61 26 62 28 63 29 64 30 65
REMARK SMILES IDX 31 66 55 67 56 68 64 69 57 70 59 71 65 72 58 73 60 74 61 75
REMARK SMILES IDX 62 76 63 77 40 78 41 79 49 80 42 81 44 82 50 83 43 84 45 85
REMARK SMILES IDX 46 86 47 87 48 88
REMARK H PARENT 70 41 38 52
REMARK Flexibility Score: inf
ROOT
ATOM      1  C   UNL A   1      36.143  21.845  24.053  1.00  0.00     0.274 C 
ENDROOT
BRANCH   1   2
ATOM      2  O   UNL A   1      36.191  23.271  24.258  1.00  0.00    -0.461 OA
BRANCH   2   3
ATOM      3  C   UNL A   1      35.080  23.965  23.884  1.00  0.00     0.325 C 
ATOM      4  O   UNL A   1      34.796  24.241  22.721  1.00  0.00    -0.250 OA
BRANCH   3   5
ATOM      5  C   UNL A   1      34.161  24.343  25.045  1.00  0.00     0.239 C 
BRANCH   5   6
ATOM      6  N   UNL A   1      32.858  23.668  25.057  1.00  0.00    -0.356 N 
BRANCH   6   7
ATOM      7  C   UNL A   1      31.646  24.447  25.240  1.00  0.00     0.144 C 
BRANCH   7   8
ATOM      8  C   UNL A   1      31.031  24.053  26.552  1.00  0.00    -0.014 C 
ATOM      9  C   UNL A   1      30.046  23.158  26.698  1.00  0.00     0.006 C 
ENDBRANCH   7   8
ENDBRANCH   6   7
BRANCH   6  10
ATOM     10  C   UNL A   1      32.792  22.290  24.918  1.00  0.00     0.052 A 
ATOM     11  C   UNL A   1      32.371  21.753  23.688  1.00  0.00     0.034 A 
ATOM     12  C   UNL A   1      33.125  21.381  25.948  1.00  0.00     0.048 A 
ATOM     13  C   UNL A   1      32.271  20.375  23.483  1.00  0.00     0.088 A 
ATOM     14  C   UNL A   1      33.046  19.996  25.752  1.00  0.00     0.103 A 
ATOM     15  Br  UNL A   1      33.767  21.963  27.644  1.00  0.00    -0.048 Br
ATOM     16  C   UNL A   1      32.614  19.503  24.518  1.00  0.00     0.270 A 
BRANCH  16  17
ATOM     17  N   UNL A   1      32.555  18.058  24.296  1.00  0.00     0.062 N 
ATOM     18  O   UNL A   1      32.012  17.364  25.168  1.00  0.00    -0.258 OA
ATOM     19  O   UNL A   1      33.017  17.625  23.232  1.00  0.00    -0.258 OA
ENDBRANCH  16  17
ENDBRANCH   6  10
ENDBRANCH   5   6
ENDBRANCH   3   5
ENDBRANCH   2   3
ENDBRANCH   1   2
BRANCH   1  20
ATOM     20  C   UNL A   1      36.658  21.122  25.293  1.00  0.00     0.275 C 
BRANCH  20  21
ATOM     21  O   UNL A   1      37.449  22.027  26.081  1.00  0.00    -0.458 OA
BRANCH  21  22
ATOM     22  C   UNL A   1      38.772  21.756  26.129  1.00  0.00     0.338 C 
ATOM     23  O   UNL A   1      39.321  20.696  25.858  1.00  0.00    -0.246 OA
BRANCH  22  24
ATOM     24  C   UNL A   1      39.508  22.936  26.608  1.00  0.00     0.060 A 
ATOM     25  C   UNL A   1      40.510  22.819  27.576  1.00  0.00     0.016 A 
ATOM     26  C   UNL A   1      39.136  24.191  26.125  1.00  0.00     0.016 A 
ATOM     27  C   UNL A   1      41.105  23.965  28.102  1.00  0.00     0.010 A 
ATOM     28  C   UNL A   1      39.782  25.331  26.601  1.00  0.00     0.010 A 
ATOM     29  C   UNL A   1      40.755  25.232  27.610  1.00  0.00    -0.014 A 
BRANCH  29  30
ATOM     30  C   UNL A   1      41.413  26.465  28.107  1.00  0.00     0.031 A 
ATOM     31  C   UNL A   1      40.609  27.517  28.820  1.00  0.00     0.074 A 
ATOM     32  C   UNL A   1      42.714  26.675  27.831  1.00  0.00     0.049 A 
ATOM     33  N   UNL A   1      40.961  28.726  29.172  1.00  0.00    -0.248 NA
ATOM     34  C   UNL A   1      39.223  27.168  29.174  1.00  0.00     0.031 C 
ATOM     35  C   UNL A   1      43.587  25.736  27.124  1.00  0.00     0.029 A 
ATOM     36  N   UNL A   1      43.518  27.761  28.070  1.00  0.00    -0.354 N 
ATOM     37  C   UNL A   1      39.830  29.301  29.741  1.00  0.00     0.074 A 
ATOM     38  C   UNL A   1      38.781  28.307  29.692  1.00  0.00     0.031 C 
ATOM     39  C   UNL A   1      44.798  26.292  26.971  1.00  0.00     0.029 A 
ATOM     40  C   UNL A   1      44.773  27.643  27.521  1.00  0.00     0.049 A 
ATOM     41  H   UNL A   1      43.224  28.549  28.584  1.00  0.00     0.167 HD
ATOM     42  C   UNL A   1      39.686  30.541  30.266  1.00  0.00     0.034 A 
ATOM     43  C   UNL A   1      45.781  28.533  27.436  1.00  0.00     0.034 A 
ATOM     44  C   UNL A   1      40.749  31.508  30.351  1.00  0.00     0.049 A 
ATOM     45  C   UNL A   1      45.599  29.898  28.036  1.00  0.00     0.074 A 
ATOM     46  C   UNL A   1      40.723  32.768  30.923  1.00  0.00     0.029 A 
ATOM     47  N   UNL A   1      42.029  31.323  29.850  1.00  0.00    -0.354 N 
ATOM     48  N   UNL A   1      44.557  30.388  28.662  1.00  0.00    -0.248 NA
ATOM     49  C   UNL A   1      46.733  30.826  27.934  1.00  0.00     0.031 C 
ATOM     50  C   UNL A   1      41.987  33.347  30.762  1.00  0.00     0.029 A 
ATOM     51  C   UNL A   1      42.800  32.446  30.093  1.00  0.00     0.049 A 
ATOM     52  H   UNL A   1      42.343  30.511  29.389  1.00  0.00     0.167 HD
ATOM     53  C   UNL A   1      44.913  31.675  29.045  1.00  0.00     0.074 A 
ATOM     54  C   UNL A   1      46.279  31.878  28.602  1.00  0.00     0.031 C 
ATOM     55  C   UNL A   1      44.172  32.611  29.686  1.00  0.00     0.034 A 
BRANCH  42  56
ATOM     56  C   UNL A   1      38.345  30.912  30.836  1.00  0.00     0.023 A 
ATOM     57  C   UNL A   1      38.067  30.632  32.189  1.00  0.00     0.012 A 
ATOM     58  C   UNL A   1      37.387  31.599  30.062  1.00  0.00     0.148 A 
ATOM     59  C   UNL A   1      36.851  31.010  32.758  1.00  0.00     0.002 A 
ATOM     60  C   UNL A   1      36.190  32.002  30.645  1.00  0.00     0.091 A 
ATOM     61  F   UNL A   1      37.657  31.833  28.770  1.00  0.00    -0.205 F 
ATOM     62  C   UNL A   1      35.919  31.703  31.991  1.00  0.00     0.022 A 
BRANCH  60  63
ATOM     63  S   UNL A   1      34.961  32.961  29.751  1.00  0.00     0.127 S 
ATOM     64  O   UNL A   1      34.053  33.354  30.826  1.00  0.00    -0.237 OA
ATOM     65  O   UNL A   1      35.759  34.056  29.197  1.00  0.00    -0.237 OA
ATOM     66  O   UNL A   1      34.405  32.058  28.753  1.00  0.00    -0.744 OA
ENDBRANCH  60  63
ENDBRANCH  42  56
BRANCH  43  67
ATOM     67  C   UNL A   1      47.061  28.128  26.791  1.00  0.00     0.023 A 
ATOM     68  C   UNL A   1      48.116  27.657  27.595  1.00  0.00     0.012 A 
ATOM     69  C   UNL A   1      47.211  28.125  25.390  1.00  0.00     0.148 A 
ATOM     70  C   UNL A   1      49.299  27.197  27.016  1.00  0.00     0.002 A 
ATOM     71  C   UNL A   1      48.370  27.612  24.818  1.00  0.00     0.091 A 
ATOM     72  F   UNL A   1      46.206  28.601  24.640  1.00  0.00    -0.205 F 
ATOM     73  C   UNL A   1      49.421  27.159  25.629  1.00  0.00     0.022 A 
BRANCH  71  74
ATOM     74  S   UNL A   1      48.525  27.390  23.042  1.00  0.00     0.127 S 
ATOM     75  O   UNL A   1      49.882  27.869  22.795  1.00  0.00    -0.237 OA
ATOM     76  O   UNL A   1      48.346  25.945  22.890  1.00  0.00    -0.237 OA
ATOM     77  O   UNL A   1      47.447  28.183  22.464  1.00  0.00    -0.744 OA
ENDBRANCH  71  74
ENDBRANCH  43  67
BRANCH  55  78
ATOM     78  C   UNL A   1      44.821  33.941  29.954  1.00  0.00     0.023 A 
ATOM     79  C   UNL A   1      45.546  34.125  31.148  1.00  0.00     0.012 A 
ATOM     80  C   UNL A   1      44.773  34.978  29.003  1.00  0.00     0.148 A 
ATOM     81  C   UNL A   1      46.197  35.331  31.402  1.00  0.00     0.002 A 
ATOM     82  C   UNL A   1      45.455  36.164  29.247  1.00  0.00     0.091 A 
ATOM     83  F   UNL A   1      44.057  34.790  27.885  1.00  0.00    -0.205 F 
ATOM     84  C   UNL A   1      46.161  36.346  30.447  1.00  0.00     0.022 A 
BRANCH  82  85
ATOM     85  S   UNL A   1      45.521  37.490  28.035  1.00  0.00     0.127 S 
ATOM     86  O   UNL A   1      46.473  38.412  28.653  1.00  0.00    -0.237 OA
ATOM     87  O   UNL A   1      46.024  36.804  26.843  1.00  0.00    -0.237 OA
ATOM     88  O   UNL A   1      44.156  37.980  27.912  1.00  0.00    -0.744 OA
ENDBRANCH  82  85
ENDBRANCH  55  78
ENDBRANCH  29  30
ENDBRANCH  22  24
ENDBRANCH  21  22
ENDBRANCH  20  21
ENDBRANCH   1  20
TORSDOF 19
ENDMDL
MODEL 2
REMARK VINA RESULT:     -10.6      5.287      9.822
REMARK SMILES C=CCN(CC(=O)OCCOC(=O)c1ccc(-c2c3nc(c(-c4cccc(S(=O)(=O)[O-])c4F)c4ccc([nH]4)c(-c4cccc(S(=O)(=O)[O-])c4F)c4nc(c(-c5cccc(S(=O)(=O)[O-])c5F)c5ccc2[nH]5)C=C4)C=C3)cc1)c1ccc([N+](=O)[O-])cc1Br
REMARK SMILES IDX 9 1 8 2 6 3 7 4 5 5 4 6 3 7 2 8 1 9 77 10 78 11 85 12 79 13
REMARK SMILES IDX 84 14 86 15 80 16 81 17 82 18 83 19 10 20 11 21 12 22 13 23
REMARK SMILES IDX 14 24 15 25 76 26 16 27 75 28 17 29 18 30 19 31 69 32 20 33
REMARK SMILES IDX 74 34 68 35 70 36 21 37 73 38 67 39 66 40 22 42 54 43 34 44
REMARK SMILES IDX 53 45 35 46 38 47 52 48 71 49 36 50 37 51 51 53 72 54 39 55
REMARK SMILES IDX 23 56 24 57 32 58 25 59 27 60 33 61 26 62 28 63 29 64 30 65
REMARK SMILES IDX 31 66 55 67 56 68 64 69 57 70 59 71 65 72 58 73 60 74 61 75
REMARK SMILES IDX 62 76 63 77 40 78 41 79 49 80 42 81 44 82 50 83 43 84 45 85
REMARK SMILES IDX 46 86 47 87 48 88
REMARK H PARENT 70 41 38 52
REMARK Flexibility Score: inf
ROOT
ATOM      1  C   UNL A   1      31.774  29.059  23.866  1.00  0.00     0.274 C 
ENDROOT
BRANCH   1   2
ATOM      2  O   UNL A   1      33.025  28.354  23.755  1.00  0.00    -0.461 OA
BRANCH   2   3
ATOM      3  C   UNL A   1      33.095  27.414  22.770  1.00  0.00     0.325 C 
ATOM      4  O   UNL A   1      34.029  27.310  21.979  1.00  0.00    -0.250 OA
BRANCH   3   5
ATOM      5  C   UNL A   1      31.918  26.441  22.753  1.00  0.00     0.239 C 
BRANCH   5   6
ATOM      6  N   UNL A   1      31.994  25.350  23.732  1.00  0.00    -0.356 N 
BRANCH   6   7
ATOM      7  C   UNL A   1      30.777  24.851  24.349  1.00  0.00     0.144 C 
BRANCH   7   8
ATOM      8  C   UNL A   1      30.162  25.968  25.141  1.00  0.00    -0.014 C 
ATOM      9  C   UNL A   1      30.653  26.455  26.288  1.00  0.00     0.006 C 
ENDBRANCH   7   8
ENDBRANCH   6   7
BRANCH   6  10
ATOM     10  C   UNL A   1      33.226  24.817  24.081  1.00  0.00     0.052 A 
ATOM     11  C   UNL A   1      33.805  25.198  25.304  1.00  0.00     0.034 A 
ATOM     12  C   UNL A   1      33.942  23.904  23.274  1.00  0.00     0.048 A 
ATOM     13  C   UNL A   1      35.049  24.709  25.712  1.00  0.00     0.088 A 
ATOM     14  C   UNL A   1      35.182  23.393  23.678  1.00  0.00     0.103 A 
ATOM     15  Br  UNL A   1      33.252  23.254  21.622  1.00  0.00    -0.048 Br
ATOM     16  C   UNL A   1      35.728  23.803  24.896  1.00  0.00     0.270 A 
BRANCH  16  17
ATOM     17  N   UNL A   1      37.010  23.252  25.338  1.00  0.00     0.062 N 
ATOM     18  O   UNL A   1      37.832  24.034  25.835  1.00  0.00    -0.258 OA
ATOM     19  O   UNL A   1      37.175  22.031  25.221  1.00  0.00    -0.258 OA
ENDBRANCH  16  17
ENDBRANCH   6  10
ENDBRANCH   5   6
ENDBRANCH   3   5
ENDBRANCH   2   3
ENDBRANCH   1   2
BRANCH   1  20
ATOM     20  C   UNL A   1      31.667  29.719  25.236  1.00  0.00     0.275 C 
BRANCH  20  21
ATOM     21  O   UNL A   1      32.984  29.987  25.744  1.00  0.00    -0.458 OA
BRANCH  21  22
ATOM     22  C   UNL A   1      33.061  30.954  26.685  1.00  0.00     0.338 C 
ATOM     23  O   UNL A   1      32.268  31.866  26.876  1.00  0.00    -0.246 OA
BRANCH  22  24
ATOM     24  C   UNL A   1      34.296  30.793  27.469  1.00  0.00     0.060 A 
ATOM     25  C   UNL A   1      35.149  31.875  27.703  1.00  0.00     0.016 A 
ATOM     26  C   UNL A   1      34.635  29.516  27.917  1.00  0.00     0.016 A 
ATOM     27  C   UNL A   1      36.372  31.670  28.341  1.00  0.00     0.010 A 
ATOM     28  C   UNL A   1      35.826  29.326  28.617  1.00  0.00     0.010 A 
ATOM     29  C   UNL A   1      36.717  30.395  28.815  1.00  0.00    -0.014 A 
BRANCH  29  30
ATOM     30  C   UNL A   1      37.983  30.158  29.549  1.00  0.00     0.031 A 
ATOM     31  C   UNL A   1      39.014  29.214  28.995  1.00  0.00     0.074 A 
ATOM     32  C   UNL A   1      38.158  30.721  30.760  1.00  0.00     0.049 A 
ATOM     33  N   UNL A   1      40.095  28.746  29.565  1.00  0.00    -0.248 NA
ATOM     34  C   UNL A   1      38.797  28.722  27.625  1.00  0.00     0.031 C 
ATOM     35  C   UNL A   1      37.215  31.634  31.409  1.00  0.00     0.029 A 
ATOM     36  N   UNL A   1      39.167  30.576  31.680  1.00  0.00    -0.354 N 
ATOM     37  C   UNL A   1      40.658  27.868  28.646  1.00  0.00     0.074 A 
ATOM     38  C   UNL A   1      39.804  27.870  27.479  1.00  0.00     0.031 C 
ATOM     39  C   UNL A   1      37.679  31.953  32.627  1.00  0.00     0.029 A 
ATOM     40  C   UNL A   1      38.923  31.230  32.865  1.00  0.00     0.049 A 
ATOM     41  H   UNL A   1      39.984  30.054  31.508  1.00  0.00     0.167 HD
ATOM     42  C   UNL A   1      41.792  27.136  28.763  1.00  0.00     0.034 A 
ATOM     43  C   UNL A   1      39.604  31.221  34.028  1.00  0.00     0.034 A 
ATOM     44  C   UNL A   1      42.661  27.175  29.910  1.00  0.00     0.049 A 
ATOM     45  C   UNL A   1      40.863  30.408  34.128  1.00  0.00     0.074 A 
ATOM     46  C   UNL A   1      43.866  26.521  30.100  1.00  0.00     0.029 A 
ATOM     47  N   UNL A   1      42.417  27.907  31.062  1.00  0.00    -0.354 N 
ATOM     48  N   UNL A   1      41.436  29.665  33.213  1.00  0.00    -0.248 NA
ATOM     49  C   UNL A   1      41.579  30.446  35.410  1.00  0.00     0.031 C 
ATOM     50  C   UNL A   1      44.348  26.854  31.371  1.00  0.00     0.029 A 
ATOM     51  C   UNL A   1      43.445  27.718  31.971  1.00  0.00     0.049 A 
ATOM     52  H   UNL A   1      41.630  28.478  31.213  1.00  0.00     0.167 HD
ATOM     53  C   UNL A   1      42.589  29.159  33.800  1.00  0.00     0.074 A 
ATOM     54  C   UNL A   1      42.645  29.703  35.143  1.00  0.00     0.031 C 
ATOM     55  C   UNL A   1      43.506  28.306  33.284  1.00  0.00     0.034 A 
BRANCH  42  56
ATOM     56  C   UNL A   1      42.190  26.265  27.603  1.00  0.00     0.023 A 
ATOM     57  C   UNL A   1      42.968  26.812  26.564  1.00  0.00     0.012 A 
ATOM     58  C   UNL A   1      41.860  24.895  27.572  1.00  0.00     0.148 A 
ATOM     59  C   UNL A   1      43.394  26.016  25.501  1.00  0.00     0.002 A 
ATOM     60  C   UNL A   1      42.316  24.100  26.526  1.00  0.00     0.091 A 
ATOM     61  F   UNL A   1      41.096  24.398  28.556  1.00  0.00    -0.205 F 
ATOM     62  C   UNL A   1      43.078  24.660  25.488  1.00  0.00     0.022 A 
BRANCH  60  63
ATOM     63  S   UNL A   1      42.016  22.329  26.464  1.00  0.00     0.127 S 
ATOM     64  O   UNL A   1      42.648  21.877  27.702  1.00  0.00    -0.237 OA
ATOM     65  O   UNL A   1      40.554  22.257  26.466  1.00  0.00    -0.237 OA
ATOM     66  O   UNL A   1      42.638  21.866  25.231  1.00  0.00    -0.744 OA
ENDBRANCH  60  63
ENDBRANCH  42  56
BRANCH  43  67
ATOM     67  C   UNL A   1      39.115  32.047  35.166  1.00  0.00     0.023 A 
ATOM     68  C   UNL A   1      38.203  31.487  36.079  1.00  0.00     0.012 A 
ATOM     69  C   UNL A   1      39.608  33.347  35.397  1.00  0.00     0.148 A 
ATOM     70  C   UNL A   1      37.785  32.208  37.199  1.00  0.00     0.002 A 
ATOM     71  C   UNL A   1      39.232  34.037  36.544  1.00  0.00     0.091 A 
ATOM     72  F   UNL A   1      40.457  33.876  34.503  1.00  0.00    -0.205 F 
ATOM     73  C   UNL A   1      38.310  33.475  37.440  1.00  0.00     0.022 A 
BRANCH  71  74
ATOM     74  S   UNL A   1      39.991  35.603  36.993  1.00  0.00     0.127 S 
ATOM     75  O   UNL A   1      41.401  35.238  37.092  1.00  0.00    -0.237 OA
ATOM     76  O   UNL A   1      39.654  36.454  35.851  1.00  0.00    -0.237 OA
ATOM     77  O   UNL A   1      39.341  35.998  38.236  1.00  0.00    -0.744 OA
ENDBRANCH  71  74
ENDBRANCH  43  67
BRANCH  55  78
ATOM     78  C   UNL A   1      44.655  27.909  34.169  1.00  0.00     0.023 A 
ATOM     79  C   UNL A   1      45.790  28.741  34.239  1.00  0.00     0.012 A 
ATOM     80  C   UNL A   1      44.586  26.759  34.979  1.00  0.00     0.148 A 
ATOM     81  C   UNL A   1      46.849  28.423  35.087  1.00  0.00     0.002 A 
ATOM     82  C   UNL A   1      45.631  26.468  35.847  1.00  0.00     0.091 A 
ATOM     83  F   UNL A   1      43.508  25.968  34.878  1.00  0.00    -0.205 F 
ATOM     84  C   UNL A   1      46.765  27.293  35.898  1.00  0.00     0.022 A 
BRANCH  82  85
ATOM     85  S   UNL A   1      45.565  25.075  36.981  1.00  0.00     0.127 S 
ATOM     86  O   UNL A   1      46.663  25.383  37.897  1.00  0.00    -0.237 OA
ATOM     87  O   UNL A   1      44.229  25.205  37.566  1.00  0.00    -0.237 OA
ATOM     88  O   UNL A   1      45.745  23.887  36.157  1.00  0.00    -0.744 OA
ENDBRANCH  82  85
ENDBRANCH  55  78
ENDBRANCH  29  30
ENDBRANCH  22  24
ENDBRANCH  21  22
ENDBRANCH  20  21
ENDBRANCH   1  20
TORSDOF 19
ENDMDL
MODEL 3
REMARK VINA RESULT:     -10.4      2.463      3.685
REMARK SMILES C=CCN(CC(=O)OCCOC(=O)c1ccc(-c2c3nc(c(-c4cccc(S(=O)(=O)[O-])c4F)c4ccc([nH]4)c(-c4cccc(S(=O)(=O)[O-])c4F)c4nc(c(-c5cccc(S(=O)(=O)[O-])c5F)c5ccc2[nH]5)C=C4)C=C3)cc1)c1ccc([N+](=O)[O-])cc1Br
REMARK SMILES IDX 9 1 8 2 6 3 7 4 5 5 4 6 3 7 2 8 1 9 77 10 78 11 85 12 79 13
REMARK SMILES IDX 84 14 86 15 80 16 81 17 82 18 83 19 10 20 11 21 12 22 13 23
REMARK SMILES IDX 14 24 15 25 76 26 16 27 75 28 17 29 18 30 19 31 69 32 20 33
REMARK SMILES IDX 74 34 68 35 70 36 21 37 73 38 67 39 66 40 22 42 54 43 34 44
REMARK SMILES IDX 53 45 35 46 38 47 52 48 71 49 36 50 37 51 51 53 72 54 39 55
REMARK SMILES IDX 23 56 24 57 32 58 25 59 27 60 33 61 26 62 28 63 29 64 30 65
REMARK SMILES IDX 31 66 55 67 56 68 64 69 57 70 59 71 65 72 58 73 60 74 61 75
REMARK SMILES IDX 62 76 63 77 40 78 41 79 49 80 42 81 44 82 50 83 43 84 45 85
REMARK SMILES IDX 46 86 47 87 48 88
REMARK H PARENT 70 41 38 52
REMARK Flexibility Score: inf
ROOT
ATOM      1  C   UNL A   1      35.412  22.131  23.868  1.00  0.00     0.274 C 
ENDROOT
BRANCH   1   2
ATOM      2  O   UNL A   1      35.226  23.464  24.380  1.00  0.00    -0.461 OA
BRANCH   2   3
ATOM      3  C   UNL A   1      34.329  24.241  23.709  1.00  0.00     0.325 C 
ATOM      4  O   UNL A   1      34.473  24.616  22.548  1.00  0.00    -0.250 OA
BRANCH   3   5
ATOM      5  C   UNL A   1      33.075  24.580  24.512  1.00  0.00     0.239 C 
BRANCH   5   6
ATOM      6  N   UNL A   1      32.969  25.978  24.949  1.00  0.00    -0.356 N 
BRANCH   6   7
ATOM      7  C   UNL A   1      33.807  26.457  26.034  1.00  0.00     0.144 C 
BRANCH   7   8
ATOM      8  C   UNL A   1      33.485  27.904  26.269  1.00  0.00    -0.014 C 
ATOM      9  C   UNL A   1      32.800  28.376  27.318  1.00  0.00     0.006 C 
ENDBRANCH   7   8
ENDBRANCH   6   7
BRANCH   6  10
ATOM     10  C   UNL A   1      32.056  26.826  24.341  1.00  0.00     0.052 A 
ATOM     11  C   UNL A   1      32.516  27.730  23.367  1.00  0.00     0.034 A 
ATOM     12  C   UNL A   1      30.675  26.836  24.642  1.00  0.00     0.048 A 
ATOM     13  C   UNL A   1      31.652  28.619  22.723  1.00  0.00     0.088 A 
ATOM     14  C   UNL A   1      29.794  27.711  23.993  1.00  0.00     0.103 A 
ATOM     15  Br  UNL A   1      29.902  25.627  25.894  1.00  0.00    -0.048 Br
ATOM     16  C   UNL A   1      30.293  28.600  23.038  1.00  0.00     0.270 A 
BRANCH  16  17
ATOM     17  N   UNL A   1      29.374  29.498  22.335  1.00  0.00     0.062 N 
ATOM     18  O   UNL A   1      28.357  29.867  22.939  1.00  0.00    -0.258 OA
ATOM     19  O   UNL A   1      29.694  29.863  21.197  1.00  0.00    -0.258 OA
ENDBRANCH  16  17
ENDBRANCH   6  10
ENDBRANCH   5   6
ENDBRANCH   3   5
ENDBRANCH   2   3
ENDBRANCH   1   2
BRANCH   1  20
ATOM     20  C   UNL A   1      35.717  21.171  25.013  1.00  0.00     0.275 C 
BRANCH  20  21
ATOM     21  O   UNL A   1      36.646  21.786  25.920  1.00  0.00    -0.458 OA
BRANCH  21  22
ATOM     22  C   UNL A   1      37.946  21.469  25.728  1.00  0.00     0.338 C 
ATOM     23  O   UNL A   1      38.394  20.429  25.265  1.00  0.00    -0.246 OA
BRANCH  22  24
ATOM     24  C   UNL A   1      38.804  22.566  26.202  1.00  0.00     0.060 A 
ATOM     25  C   UNL A   1      39.877  22.322  27.064  1.00  0.00     0.016 A 
ATOM     26  C   UNL A   1      38.481  23.870  25.827  1.00  0.00     0.016 A 
ATOM     27  C   UNL A   1      40.597  23.392  27.597  1.00  0.00     0.010 A 
ATOM     28  C   UNL A   1      39.246  24.933  26.305  1.00  0.00     0.010 A 
ATOM     29  C   UNL A   1      40.296  24.707  27.211  1.00  0.00    -0.014 A 
BRANCH  29  30
ATOM     30  C   UNL A   1      41.082  25.861  27.714  1.00  0.00     0.031 A 
ATOM     31  C   UNL A   1      40.413  26.936  28.525  1.00  0.00     0.074 A 
ATOM     32  C   UNL A   1      42.375  25.983  27.358  1.00  0.00     0.049 A 
ATOM     33  N   UNL A   1      40.884  28.097  28.902  1.00  0.00    -0.248 NA
ATOM     34  C   UNL A   1      39.030  26.680  28.958  1.00  0.00     0.031 C 
ATOM     35  C   UNL A   1      43.122  25.014  26.553  1.00  0.00     0.029 A 
ATOM     36  N   UNL A   1      43.277  26.991  27.587  1.00  0.00    -0.354 N 
ATOM     37  C   UNL A   1      39.842  28.730  29.572  1.00  0.00     0.074 A 
ATOM     38  C   UNL A   1      38.715  27.823  29.553  1.00  0.00     0.031 C 
ATOM     39  C   UNL A   1      44.361  25.481  26.341  1.00  0.00     0.029 A 
ATOM     40  C   UNL A   1      44.481  26.802  26.948  1.00  0.00     0.049 A 
ATOM     41  H   UNL A   1      43.082  27.773  28.153  1.00  0.00     0.167 HD
ATOM     42  C   UNL A   1      39.833  29.951  30.158  1.00  0.00     0.034 A 
ATOM     43  C   UNL A   1      45.549  27.615  26.832  1.00  0.00     0.034 A 
ATOM     44  C   UNL A   1      40.973  30.827  30.210  1.00  0.00     0.049 A 
ATOM     45  C   UNL A   1      45.516  28.960  27.500  1.00  0.00     0.074 A 
ATOM     46  C   UNL A   1      41.086  32.057  30.836  1.00  0.00     0.029 A 
ATOM     47  N   UNL A   1      42.198  30.568  29.615  1.00  0.00    -0.354 N 
ATOM     48  N   UNL A   1      44.560  29.499  28.217  1.00  0.00    -0.248 NA
ATOM     49  C   UNL A   1      46.712  29.801  27.359  1.00  0.00     0.031 C 
ATOM     50  C   UNL A   1      42.379  32.544  30.613  1.00  0.00     0.029 A 
ATOM     51  C   UNL A   1      43.072  31.615  29.852  1.00  0.00     0.049 A 
ATOM     52  H   UNL A   1      42.416  29.758  29.099  1.00  0.00     0.167 HD
ATOM     53  C   UNL A   1      45.043  30.734  28.629  1.00  0.00     0.074 A 
ATOM     54  C   UNL A   1      46.389  30.852  28.102  1.00  0.00     0.031 C 
ATOM     55  C   UNL A   1      44.423  31.693  29.358  1.00  0.00     0.034 A 
BRANCH  42  56
ATOM     56  C   UNL A   1      38.565  30.397  30.834  1.00  0.00     0.023 A 
ATOM     57  C   UNL A   1      38.382  30.128  32.205  1.00  0.00     0.012 A 
ATOM     58  C   UNL A   1      37.590  31.141  30.139  1.00  0.00     0.148 A 
ATOM     59  C   UNL A   1      37.240  30.573  32.870  1.00  0.00     0.002 A 
ATOM     60  C   UNL A   1      36.470  31.610  30.817  1.00  0.00     0.091 A 
ATOM     61  F   UNL A   1      37.768  31.364  28.830  1.00  0.00    -0.205 F 
ATOM     62  C   UNL A   1      36.291  31.323  32.180  1.00  0.00     0.022 A 
BRANCH  60  63
ATOM     63  S   UNL A   1      35.231  32.643  30.025  1.00  0.00     0.127 S 
ATOM     64  O   UNL A   1      34.691  31.736  29.013  1.00  0.00    -0.237 OA
ATOM     65  O   UNL A   1      34.315  32.938  31.129  1.00  0.00    -0.237 OA
ATOM     66  O   UNL A   1      35.950  33.802  29.515  1.00  0.00    -0.744 OA
ENDBRANCH  60  63
ENDBRANCH  42  56
BRANCH  43  67
ATOM     67  C   UNL A   1      46.747  27.143  26.084  1.00  0.00     0.023 A 
ATOM     68  C   UNL A   1      46.857  27.433  24.711  1.00  0.00     0.012 A 
ATOM     69  C   UNL A   1      47.811  26.487  26.735  1.00  0.00     0.148 A 
ATOM     70  C   UNL A   1      48.001  27.073  23.998  1.00  0.00     0.002 A 
ATOM     71  C   UNL A   1      48.971  26.182  26.032  1.00  0.00     0.091 A 
ATOM     72  F   UNL A   1      47.679  26.195  28.037  1.00  0.00    -0.205 F 
ATOM     73  C   UNL A   1      49.064  26.463  24.660  1.00  0.00     0.022 A 
BRANCH  71  74
ATOM     74  S   UNL A   1      50.433  25.542  26.858  1.00  0.00     0.127 S 
ATOM     75  O   UNL A   1      49.910  24.344  27.510  1.00  0.00    -0.237 OA
ATOM     76  O   UNL A   1      51.339  25.287  25.737  1.00  0.00    -0.237 OA
ATOM     77  O   UNL A   1      50.871  26.615  27.740  1.00  0.00    -0.744 OA
ENDBRANCH  71  74
ENDBRANCH  43  67
BRANCH  55  78
ATOM     78  C   UNL A   1      45.192  32.954  29.637  1.00  0.00     0.023 A 
ATOM     79  C   UNL A   1      46.008  33.024  30.783  1.00  0.00     0.012 A 
ATOM     80  C   UNL A   1      45.164  34.037  28.737  1.00  0.00     0.148 A 
ATOM     81  C   UNL A   1      46.769  34.162  31.042  1.00  0.00     0.002 A 
ATOM     82  C   UNL A   1      45.953  35.154  28.984  1.00  0.00     0.091 A 
ATOM     83  F   UNL A   1      44.362  33.959  27.666  1.00  0.00    -0.205 F 
ATOM     84  C   UNL A   1      46.750  35.222  30.138  1.00  0.00     0.022 A 
BRANCH  82  85
ATOM     85  S   UNL A   1      46.044  36.528  27.828  1.00  0.00     0.127 S 
ATOM     86  O   UNL A   1      44.663  37.007  27.824  1.00  0.00    -0.237 OA
ATOM     87  O   UNL A   1      46.998  37.427  28.481  1.00  0.00    -0.237 OA
ATOM     88  O   UNL A   1      46.519  35.958  26.575  1.00  0.00    -0.744 OA
ENDBRANCH  82  85
ENDBRANCH  55  78
ENDBRANCH  29  30
ENDBRANCH  22  24
ENDBRANCH  21  22
ENDBRANCH  20  21
ENDBRANCH   1  20
TORSDOF 19
ENDMDL
