MODEL 1
REMARK VINA RESULT:     -11.5      0.000      0.000
REMARK SMILES O=C(OCCOC(=O)c1ccc(-c2c3nc(c(-c4cccc(S(=O)(=O)[O-])c4F)c4ccc([nH]4)c(-c4cccc(S(=O)(=O)[O-])c4F)c4nc(c(-c5cccc(S(=O)(=O)[O-])c5F)c5ccc2[nH]5)C=C4)C=C3)cc1)C1=CCc2ccccc21
REMARK SMILES IDX 6 1 5 2 4 3 3 4 2 5 1 6 72 7 73 8 80 9 74 10 75 11 79 12
REMARK SMILES IDX 76 13 78 14 77 15 7 16 8 17 9 18 10 19 71 20 11 21 70 22
REMARK SMILES IDX 12 23 13 24 14 25 64 26 15 27 69 28 63 29 65 30 16 31 68 32
REMARK SMILES IDX 62 33 61 34 17 36 49 37 29 38 48 39 30 40 33 41 47 42 66 43
REMARK SMILES IDX 31 44 32 45 46 47 67 48 34 49 18 50 19 51 27 52 20 53 22 54
REMARK SMILES IDX 28 55 21 56 23 57 24 58 25 59 26 60 50 61 51 62 59 63 52 64
REMARK SMILES IDX 54 65 60 66 53 67 55 68 56 69 57 70 58 71 35 72 36 73 44 74
REMARK SMILES IDX 37 75 39 76 45 77 38 78 40 79 41 80 42 81 43 82
REMARK H PARENT 65 35 33 46
REMARK Flexibility Score: inf
ROOT
ATOM      1  O   UNL A   1      33.566  32.570  28.560  1.00  0.00    -0.458 OA
ENDROOT
BRANCH   1   2
ATOM      2  C   UNL A   1      33.054  33.655  27.773  1.00  0.00     0.275 C 
BRANCH   2   3
ATOM      3  C   UNL A   1      33.170  34.992  28.521  1.00  0.00     0.275 C 
BRANCH   3   4
ATOM      4  O   UNL A   1      32.604  34.922  29.850  1.00  0.00    -0.458 OA
BRANCH   4   5
ATOM      5  C   UNL A   1      32.838  35.807  30.862  1.00  0.00     0.338 C 
ATOM      6  O   UNL A   1      32.021  36.678  31.136  1.00  0.00    -0.246 OA
BRANCH   5   7
ATOM      7  C   UNL A   1      33.964  35.515  31.756  1.00  0.00     0.063 C 
ATOM      8  C   UNL A   1      34.070  36.307  32.841  1.00  0.00    -0.006 C 
ATOM      9  C   UNL A   1      34.708  34.288  32.014  1.00  0.00    -0.008 A 
ATOM     10  C   UNL A   1      34.771  35.621  33.975  1.00  0.00     0.064 C 
ATOM     11  C   UNL A   1      35.049  34.276  33.373  1.00  0.00    -0.036 A 
ATOM     12  C   UNL A   1      35.040  33.216  31.203  1.00  0.00     0.009 A 
ATOM     13  C   UNL A   1      35.545  33.137  33.981  1.00  0.00     0.004 A 
ATOM     14  C   UNL A   1      35.569  32.067  31.798  1.00  0.00     0.001 A 
ATOM     15  C   UNL A   1      35.781  32.015  33.184  1.00  0.00     0.000 A 
ENDBRANCH   5   7
ENDBRANCH   4   5
ENDBRANCH   3   4
ENDBRANCH   2   3
ENDBRANCH   1   2
BRANCH   1  16
ATOM     16  C   UNL A   1      33.970  31.504  27.814  1.00  0.00     0.338 C 
ATOM     17  O   UNL A   1      33.333  30.999  26.908  1.00  0.00    -0.246 OA
BRANCH  16  18
ATOM     18  C   UNL A   1      35.368  31.129  28.151  1.00  0.00     0.060 A 
ATOM     19  C   UNL A   1      35.597  29.789  28.484  1.00  0.00     0.016 A 
ATOM     20  C   UNL A   1      36.443  32.028  28.114  1.00  0.00     0.016 A 
ATOM     21  C   UNL A   1      36.872  29.366  28.855  1.00  0.00     0.010 A 
ATOM     22  C   UNL A   1      37.731  31.591  28.457  1.00  0.00     0.010 A 
ATOM     23  C   UNL A   1      37.943  30.270  28.882  1.00  0.00    -0.014 A 
BRANCH  23  24
ATOM     24  C   UNL A   1      39.226  29.826  29.487  1.00  0.00     0.031 A 
ATOM     25  C   UNL A   1      39.619  30.335  30.850  1.00  0.00     0.074 A 
ATOM     26  C   UNL A   1      39.988  28.895  28.884  1.00  0.00     0.049 A 
ATOM     27  N   UNL A   1      40.557  29.902  31.652  1.00  0.00    -0.248 NA
ATOM     28  C   UNL A   1      38.857  31.477  31.383  1.00  0.00     0.031 C 
ATOM     29  C   UNL A   1      39.763  28.351  27.545  1.00  0.00     0.029 A 
ATOM     30  N   UNL A   1      41.107  28.235  29.332  1.00  0.00    -0.354 N 
ATOM     31  C   UNL A   1      40.490  30.704  32.785  1.00  0.00     0.074 A 
ATOM     32  C   UNL A   1      39.456  31.687  32.546  1.00  0.00     0.031 C 
ATOM     33  C   UNL A   1      40.713  27.436  27.281  1.00  0.00     0.029 A 
ATOM     34  C   UNL A   1      41.604  27.318  28.435  1.00  0.00     0.049 A 
ATOM     35  H   UNL A   1      41.515  28.401  30.212  1.00  0.00     0.167 HD
ATOM     36  C   UNL A   1      41.188  30.609  33.941  1.00  0.00     0.034 A 
ATOM     37  C   UNL A   1      42.642  26.466  28.540  1.00  0.00     0.034 A 
ATOM     38  C   UNL A   1      42.208  29.628  34.197  1.00  0.00     0.049 A 
ATOM     39  C   UNL A   1      43.396  26.367  29.843  1.00  0.00     0.074 A 
ATOM     40  C   UNL A   1      42.936  29.428  35.357  1.00  0.00     0.029 A 
ATOM     41  N   UNL A   1      42.650  28.690  33.280  1.00  0.00    -0.354 N 
ATOM     42  N   UNL A   1      43.193  27.007  30.969  1.00  0.00    -0.248 NA
ATOM     43  C   UNL A   1      44.489  25.384  29.905  1.00  0.00     0.031 C 
ATOM     44  C   UNL A   1      43.832  28.377  35.136  1.00  0.00     0.029 A 
ATOM     45  C   UNL A   1      43.649  27.911  33.844  1.00  0.00     0.049 A 
ATOM     46  H   UNL A   1      42.307  28.590  32.363  1.00  0.00     0.167 HD
ATOM     47  C   UNL A   1      44.111  26.487  31.877  1.00  0.00     0.074 A 
ATOM     48  C   UNL A   1      44.845  25.452  31.181  1.00  0.00     0.031 C 
ATOM     49  C   UNL A   1      44.342  26.848  33.164  1.00  0.00     0.034 A 
BRANCH  36  50
ATOM     50  C   UNL A   1      40.818  31.552  35.053  1.00  0.00     0.023 A 
ATOM     51  C   UNL A   1      41.583  32.722  35.240  1.00  0.00     0.012 A 
ATOM     52  C   UNL A   1      39.690  31.323  35.865  1.00  0.00     0.148 A 
ATOM     53  C   UNL A   1      41.245  33.641  36.231  1.00  0.00     0.002 A 
ATOM     54  C   UNL A   1      39.338  32.264  36.826  1.00  0.00     0.091 A 
ATOM     55  F   UNL A   1      38.991  30.193  35.687  1.00  0.00    -0.205 F 
ATOM     56  C   UNL A   1      40.118  33.417  37.017  1.00  0.00     0.022 A 
BRANCH  54  57
ATOM     57  S   UNL A   1      37.865  32.107  37.843  1.00  0.00     0.127 S 
ATOM     58  O   UNL A   1      38.377  32.479  39.161  1.00  0.00    -0.237 OA
ATOM     59  O   UNL A   1      36.966  33.089  37.237  1.00  0.00    -0.237 OA
ATOM     60  O   UNL A   1      37.433  30.722  37.711  1.00  0.00    -0.744 OA
ENDBRANCH  54  57
ENDBRANCH  36  50
BRANCH  37  61
ATOM     61  C   UNL A   1      42.996  25.575  27.397  1.00  0.00     0.023 A 
ATOM     62  C   UNL A   1      43.858  26.042  26.387  1.00  0.00     0.012 A 
ATOM     63  C   UNL A   1      42.470  24.273  27.305  1.00  0.00     0.148 A 
ATOM     64  C   UNL A   1      44.159  25.242  25.283  1.00  0.00     0.002 A 
ATOM     65  C   UNL A   1      42.816  23.461  26.231  1.00  0.00     0.091 A 
ATOM     66  F   UNL A   1      41.632  23.854  28.263  1.00  0.00    -0.205 F 
ATOM     67  C   UNL A   1      43.646  23.950  25.209  1.00  0.00     0.022 A 
BRANCH  65  68
ATOM     68  S   UNL A   1      42.292  21.746  26.121  1.00  0.00     0.127 S 
ATOM     69  O   UNL A   1      40.867  21.887  25.836  1.00  0.00    -0.237 OA
ATOM     70  O   UNL A   1      43.098  21.251  25.005  1.00  0.00    -0.237 OA
ATOM     71  O   UNL A   1      42.630  21.155  27.409  1.00  0.00    -0.744 OA
ENDBRANCH  65  68
ENDBRANCH  37  61
BRANCH  49  72
ATOM     72  C   UNL A   1      45.427  26.118  33.915  1.00  0.00     0.023 A 
ATOM     73  C   UNL A   1      46.747  26.615  33.885  1.00  0.00     0.012 A 
ATOM     74  C   UNL A   1      45.139  24.979  34.691  1.00  0.00     0.148 A 
ATOM     75  C   UNL A   1      47.767  25.967  34.581  1.00  0.00     0.002 A 
ATOM     76  C   UNL A   1      46.153  24.364  35.420  1.00  0.00     0.091 A 
ATOM     77  F   UNL A   1      43.884  24.506  34.698  1.00  0.00    -0.205 F 
ATOM     78  C   UNL A   1      47.470  24.849  35.355  1.00  0.00     0.022 A 
BRANCH  76  79
ATOM     79  S   UNL A   1      45.839  22.975  36.515  1.00  0.00     0.127 S 
ATOM     80  O   UNL A   1      44.949  22.148  35.702  1.00  0.00    -0.237 OA
ATOM     81  O   UNL A   1      47.178  22.418  36.711  1.00  0.00    -0.237 OA
ATOM     82  O   UNL A   1      45.247  23.547  37.718  1.00  0.00    -0.744 OA
ENDBRANCH  76  79
ENDBRANCH  49  72
ENDBRANCH  23  24
ENDBRANCH  16  18
ENDBRANCH   1  16
TORSDOF 14
ENDMDL
MODEL 2
REMARK VINA RESULT:     -11.5      3.209      5.306
REMARK SMILES O=C(OCCOC(=O)c1ccc(-c2c3nc(c(-c4cccc(S(=O)(=O)[O-])c4F)c4ccc([nH]4)c(-c4cccc(S(=O)(=O)[O-])c4F)c4nc(c(-c5cccc(S(=O)(=O)[O-])c5F)c5ccc2[nH]5)C=C4)C=C3)cc1)C1=CCc2ccccc21
REMARK SMILES IDX 6 1 5 2 4 3 3 4 2 5 1 6 72 7 73 8 80 9 74 10 75 11 79 12
REMARK SMILES IDX 76 13 78 14 77 15 7 16 8 17 9 18 10 19 71 20 11 21 70 22
REMARK SMILES IDX 12 23 13 24 14 25 64 26 15 27 69 28 63 29 65 30 16 31 68 32
REMARK SMILES IDX 62 33 61 34 17 36 49 37 29 38 48 39 30 40 33 41 47 42 66 43
REMARK SMILES IDX 31 44 32 45 46 47 67 48 34 49 18 50 19 51 27 52 20 53 22 54
REMARK SMILES IDX 28 55 21 56 23 57 24 58 25 59 26 60 50 61 51 62 59 63 52 64
REMARK SMILES IDX 54 65 60 66 53 67 55 68 56 69 57 70 58 71 35 72 36 73 44 74
REMARK SMILES IDX 37 75 39 76 45 77 38 78 40 79 41 80 42 81 43 82
REMARK H PARENT 65 35 33 46
REMARK Flexibility Score: inf
ROOT
ATOM      1  O   UNL A   1      32.529  30.426  27.190  1.00  0.00    -0.458 OA
ENDROOT
BRANCH   1   2
ATOM      2  C   UNL A   1      31.884  30.357  25.911  1.00  0.00     0.275 C 
BRANCH   2   3
ATOM      3  C   UNL A   1      32.622  29.399  24.963  1.00  0.00     0.275 C 
BRANCH   3   4
ATOM      4  O   UNL A   1      32.116  28.047  25.055  1.00  0.00    -0.458 OA
BRANCH   4   5
ATOM      5  C   UNL A   1      31.871  27.215  24.002  1.00  0.00     0.338 C 
ATOM      6  O   UNL A   1      32.683  26.357  23.677  1.00  0.00    -0.246 OA
BRANCH   5   7
ATOM      7  C   UNL A   1      30.512  27.221  23.450  1.00  0.00     0.063 C 
ATOM      8  C   UNL A   1      29.674  26.292  23.949  1.00  0.00    -0.006 C 
ATOM      9  C   UNL A   1      29.710  28.281  22.851  1.00  0.00    -0.008 A 
ATOM     10  C   UNL A   1      28.239  26.717  23.858  1.00  0.00     0.064 C 
ATOM     11  C   UNL A   1      28.378  28.071  23.228  1.00  0.00    -0.036 A 
ATOM     12  C   UNL A   1      30.053  29.386  22.089  1.00  0.00     0.009 A 
ATOM     13  C   UNL A   1      27.409  29.037  23.023  1.00  0.00     0.004 A 
ATOM     14  C   UNL A   1      29.078  30.359  21.848  1.00  0.00     0.001 A 
ATOM     15  C   UNL A   1      27.776  30.203  22.349  1.00  0.00     0.000 A 
ENDBRANCH   5   7
ENDBRANCH   4   5
ENDBRANCH   3   4
ENDBRANCH   2   3
ENDBRANCH   1   2
BRANCH   1  16
ATOM     16  C   UNL A   1      33.180  31.603  27.404  1.00  0.00     0.338 C 
ATOM     17  O   UNL A   1      32.666  32.706  27.374  1.00  0.00    -0.246 OA
BRANCH  16  18
ATOM     18  C   UNL A   1      34.582  31.356  27.832  1.00  0.00     0.060 A 
ATOM     19  C   UNL A   1      34.925  30.032  28.126  1.00  0.00     0.016 A 
ATOM     20  C   UNL A   1      35.557  32.359  27.915  1.00  0.00     0.016 A 
ATOM     21  C   UNL A   1      36.207  29.722  28.577  1.00  0.00     0.010 A 
ATOM     22  C   UNL A   1      36.856  32.039  28.338  1.00  0.00     0.010 A 
ATOM     23  C   UNL A   1      37.174  30.728  28.723  1.00  0.00    -0.014 A 
BRANCH  23  24
ATOM     24  C   UNL A   1      38.448  30.386  29.407  1.00  0.00     0.031 A 
ATOM     25  C   UNL A   1      38.689  30.870  30.813  1.00  0.00     0.074 A 
ATOM     26  C   UNL A   1      39.344  29.565  28.828  1.00  0.00     0.049 A 
ATOM     27  N   UNL A   1      39.607  30.498  31.667  1.00  0.00    -0.248 NA
ATOM     28  C   UNL A   1      37.778  31.906  31.330  1.00  0.00     0.031 C 
ATOM     29  C   UNL A   1      39.272  29.062  27.456  1.00  0.00     0.029 A 
ATOM     30  N   UNL A   1      40.490  29.000  29.334  1.00  0.00    -0.354 N 
ATOM     31  C   UNL A   1      39.377  31.237  32.821  1.00  0.00     0.074 A 
ATOM     32  C   UNL A   1      38.267  32.122  32.541  1.00  0.00     0.031 C 
ATOM     33  C   UNL A   1      40.327  28.259  27.230  1.00  0.00     0.029 A 
ATOM     34  C   UNL A   1      41.141  28.178  28.443  1.00  0.00     0.049 A 
ATOM     35  H   UNL A   1      40.814  29.166  30.248  1.00  0.00     0.167 HD
ATOM     36  C   UNL A   1      39.997  31.160  34.022  1.00  0.00     0.034 A 
ATOM     37  C   UNL A   1      42.251  27.430  28.594  1.00  0.00     0.034 A 
ATOM     38  C   UNL A   1      41.091  30.276  34.317  1.00  0.00     0.049 A 
ATOM     39  C   UNL A   1      42.916  27.348  29.946  1.00  0.00     0.074 A 
ATOM     40  C   UNL A   1      41.751  30.097  35.520  1.00  0.00     0.029 A 
ATOM     41  N   UNL A   1      41.692  29.428  33.402  1.00  0.00    -0.354 N 
ATOM     42  N   UNL A   1      42.569  27.913  31.077  1.00  0.00    -0.248 NA
ATOM     43  C   UNL A   1      44.097  26.477  30.054  1.00  0.00     0.031 C 
ATOM     44  C   UNL A   1      42.764  29.151  35.328  1.00  0.00     0.029 A 
ATOM     45  C   UNL A   1      42.723  28.728  34.010  1.00  0.00     0.049 A 
ATOM     46  H   UNL A   1      41.428  29.336  32.459  1.00  0.00     0.167 HD
ATOM     47  C   UNL A   1      43.468  27.447  32.031  1.00  0.00     0.074 A 
ATOM     48  C   UNL A   1      44.352  26.523  31.355  1.00  0.00     0.031 C 
ATOM     49  C   UNL A   1      43.568  27.771  33.345  1.00  0.00     0.034 A 
BRANCH  36  50
ATOM     50  C   UNL A   1      39.453  32.010  35.137  1.00  0.00     0.023 A 
ATOM     51  C   UNL A   1      38.500  31.456  36.017  1.00  0.00     0.012 A 
ATOM     52  C   UNL A   1      39.923  33.319  35.359  1.00  0.00     0.148 A 
ATOM     53  C   UNL A   1      38.006  32.197  37.088  1.00  0.00     0.002 A 
ATOM     54  C   UNL A   1      39.453  34.039  36.451  1.00  0.00     0.091 A 
ATOM     55  F   UNL A   1      40.810  33.836  34.496  1.00  0.00    -0.205 F 
ATOM     56  C   UNL A   1      38.490  33.484  37.311  1.00  0.00     0.022 A 
BRANCH  54  57
ATOM     57  S   UNL A   1      40.062  35.676  36.869  1.00  0.00     0.127 S 
ATOM     58  O   UNL A   1      39.349  35.946  38.117  1.00  0.00    -0.237 OA
ATOM     59  O   UNL A   1      41.497  35.442  37.024  1.00  0.00    -0.237 OA
ATOM     60  O   UNL A   1      39.703  36.536  35.749  1.00  0.00    -0.744 OA
ENDBRANCH  54  57
ENDBRANCH  36  50
BRANCH  37  61
ATOM     61  C   UNL A   1      42.775  26.632  27.449  1.00  0.00     0.023 A 
ATOM     62  C   UNL A   1      43.647  27.230  26.520  1.00  0.00     0.012 A 
ATOM     63  C   UNL A   1      42.400  25.286  27.273  1.00  0.00     0.148 A 
ATOM     64  C   UNL A   1      44.106  26.514  25.413  1.00  0.00     0.002 A 
ATOM     65  C   UNL A   1      42.904  24.562  26.198  1.00  0.00     0.091 A 
ATOM     66  F   UNL A   1      41.549  24.741  28.153  1.00  0.00    -0.205 F 
ATOM     67  C   UNL A   1      43.742  25.179  25.257  1.00  0.00     0.022 A 
BRANCH  65  68
ATOM     68  S   UNL A   1      42.577  22.808  25.991  1.00  0.00     0.127 S 
ATOM     69  O   UNL A   1      43.274  22.236  27.140  1.00  0.00    -0.237 OA
ATOM     70  O   UNL A   1      41.117  22.757  26.070  1.00  0.00    -0.237 OA
ATOM     71  O   UNL A   1      43.116  22.465  24.682  1.00  0.00    -0.744 OA
ENDBRANCH  65  68
ENDBRANCH  37  61
BRANCH  49  72
ATOM     72  C   UNL A   1      44.666  27.120  34.148  1.00  0.00     0.023 A 
ATOM     73  C   UNL A   1      45.950  27.704  34.169  1.00  0.00     0.012 A 
ATOM     74  C   UNL A   1      44.421  25.969  34.921  1.00  0.00     0.148 A 
ATOM     75  C   UNL A   1      46.980  27.130  34.913  1.00  0.00     0.002 A 
ATOM     76  C   UNL A   1      45.442  25.428  35.698  1.00  0.00     0.091 A 
ATOM     77  F   UNL A   1      43.201  25.413  34.879  1.00  0.00    -0.205 F 
ATOM     78  C   UNL A   1      46.725  25.999  35.684  1.00  0.00     0.022 A 
BRANCH  76  79
ATOM     79  S   UNL A   1      45.174  24.028  36.792  1.00  0.00     0.127 S 
ATOM     80  O   UNL A   1      46.529  23.755  37.266  1.00  0.00    -0.237 OA
ATOM     81  O   UNL A   1      44.276  24.585  37.803  1.00  0.00    -0.237 OA
ATOM     82  O   UNL A   1      44.573  22.990  35.964  1.00  0.00    -0.744 OA
ENDBRANCH  76  79
ENDBRANCH  49  72
ENDBRANCH  23  24
ENDBRANCH  16  18
ENDBRANCH   1  16
TORSDOF 14
ENDMDL
MODEL 3
REMARK VINA RESULT:     -11.4      5.159     12.775
REMARK SMILES O=C(OCCOC(=O)c1ccc(-c2c3nc(c(-c4cccc(S(=O)(=O)[O-])c4F)c4ccc([nH]4)c(-c4cccc(S(=O)(=O)[O-])c4F)c4nc(c(-c5cccc(S(=O)(=O)[O-])c5F)c5ccc2[nH]5)C=C4)C=C3)cc1)C1=CCc2ccccc21
REMARK SMILES IDX 6 1 5 2 4 3 3 4 2 5 1 6 72 7 73 8 80 9 74 10 75 11 79 12
REMARK SMILES IDX 76 13 78 14 77 15 7 16 8 17 9 18 10 19 71 20 11 21 70 22
REMARK SMILES IDX 12 23 13 24 14 25 64 26 15 27 69 28 63 29 65 30 16 31 68 32
REMARK SMILES IDX 62 33 61 34 17 36 49 37 29 38 48 39 30 40 33 41 47 42 66 43
REMARK SMILES IDX 31 44 32 45 46 47 67 48 34 49 18 50 19 51 27 52 20 53 22 54
REMARK SMILES IDX 28 55 21 56 23 57 24 58 25 59 26 60 50 61 51 62 59 63 52 64
REMARK SMILES IDX 54 65 60 66 53 67 55 68 56 69 57 70 58 71 35 72 36 73 44 74
REMARK SMILES IDX 37 75 39 76 45 77 38 78 40 79 41 80 42 81 43 82
REMARK H PARENT 65 35 33 46
REMARK Flexibility Score: inf
ROOT
ATOM      1  O   UNL A   1      39.909  20.616  26.853  1.00  0.00    -0.458 OA
ENDROOT
BRANCH   1   2
ATOM      2  C   UNL A   1      40.341  19.660  25.875  1.00  0.00     0.275 C 
BRANCH   2   3
ATOM      3  C   UNL A   1      41.733  19.105  26.210  1.00  0.00     0.275 C 
BRANCH   3   4
ATOM      4  O   UNL A   1      42.633  19.175  25.080  1.00  0.00    -0.458 OA
BRANCH   4   5
ATOM      5  C   UNL A   1      43.993  19.084  25.138  1.00  0.00     0.338 C 
ATOM      6  O   UNL A   1      44.565  18.041  24.847  1.00  0.00    -0.246 OA
BRANCH   5   7
ATOM      7  C   UNL A   1      44.738  20.336  25.310  1.00  0.00     0.063 C 
ATOM      8  C   UNL A   1      46.035  20.298  24.948  1.00  0.00    -0.006 C 
ATOM      9  C   UNL A   1      44.309  21.729  25.321  1.00  0.00    -0.008 A 
ATOM     10  C   UNL A   1      46.549  21.649  24.545  1.00  0.00     0.064 C 
ATOM     11  C   UNL A   1      45.320  22.489  24.719  1.00  0.00    -0.036 A 
ATOM     12  C   UNL A   1      43.139  22.336  25.745  1.00  0.00     0.009 A 
ATOM     13  C   UNL A   1      45.112  23.809  24.359  1.00  0.00     0.004 A 
ATOM     14  C   UNL A   1      42.926  23.678  25.414  1.00  0.00     0.001 A 
ATOM     15  C   UNL A   1      43.889  24.395  24.690  1.00  0.00     0.000 A 
ENDBRANCH   5   7
ENDBRANCH   4   5
ENDBRANCH   3   4
ENDBRANCH   2   3
ENDBRANCH   1   2
BRANCH   1  16
ATOM     16  C   UNL A   1      39.374  21.744  26.308  1.00  0.00     0.338 C 
ATOM     17  O   UNL A   1      38.530  21.767  25.432  1.00  0.00    -0.246 OA
BRANCH  16  18
ATOM     18  C   UNL A   1      39.848  22.951  27.032  1.00  0.00     0.060 A 
ATOM     19  C   UNL A   1      39.308  24.179  26.632  1.00  0.00     0.016 A 
ATOM     20  C   UNL A   1      40.760  22.910  28.096  1.00  0.00     0.016 A 
ATOM     21  C   UNL A   1      39.733  25.362  27.232  1.00  0.00     0.010 A 
ATOM     22  C   UNL A   1      41.161  24.101  28.720  1.00  0.00     0.010 A 
ATOM     23  C   UNL A   1      40.691  25.339  28.255  1.00  0.00    -0.014 A 
BRANCH  23  24
ATOM     24  C   UNL A   1      41.268  26.630  28.711  1.00  0.00     0.031 A 
ATOM     25  C   UNL A   1      42.711  26.945  28.414  1.00  0.00     0.074 A 
ATOM     26  C   UNL A   1      40.493  27.566  29.292  1.00  0.00     0.049 A 
ATOM     27  N   UNL A   1      43.342  28.087  28.507  1.00  0.00    -0.248 NA
ATOM     28  C   UNL A   1      43.556  25.832  27.950  1.00  0.00     0.031 C 
ATOM     29  C   UNL A   1      39.097  27.385  29.688  1.00  0.00     0.029 A 
ATOM     30  N   UNL A   1      40.776  28.865  29.638  1.00  0.00    -0.354 N 
ATOM     31  C   UNL A   1      44.647  27.836  28.100  1.00  0.00     0.074 A 
ATOM     32  C   UNL A   1      44.735  26.421  27.813  1.00  0.00     0.031 C 
ATOM     33  C   UNL A   1      38.643  28.534  30.221  1.00  0.00     0.029 A 
ATOM     34  C   UNL A   1      39.709  29.535  30.191  1.00  0.00     0.049 A 
ATOM     35  H   UNL A   1      41.659  29.279  29.503  1.00  0.00     0.167 HD
ATOM     36  C   UNL A   1      45.670  28.706  27.933  1.00  0.00     0.034 A 
ATOM     37  C   UNL A   1      39.597  30.813  30.603  1.00  0.00     0.034 A 
ATOM     38  C   UNL A   1      45.592  30.116  28.201  1.00  0.00     0.049 A 
ATOM     39  C   UNL A   1      40.747  31.767  30.393  1.00  0.00     0.074 A 
ATOM     40  C   UNL A   1      46.567  31.081  28.017  1.00  0.00     0.029 A 
ATOM     41  N   UNL A   1      44.482  30.763  28.717  1.00  0.00    -0.354 N 
ATOM     42  N   UNL A   1      41.912  31.551  29.832  1.00  0.00    -0.248 NA
ATOM     43  C   UNL A   1      40.543  33.159  30.825  1.00  0.00     0.031 C 
ATOM     44  C   UNL A   1      46.050  32.312  28.437  1.00  0.00     0.029 A 
ATOM     45  C   UNL A   1      44.748  32.115  28.866  1.00  0.00     0.049 A 
ATOM     46  H   UNL A   1      43.629  30.327  28.944  1.00  0.00     0.167 HD
ATOM     47  C   UNL A   1      42.565  32.780  29.818  1.00  0.00     0.074 A 
ATOM     48  C   UNL A   1      41.651  33.744  30.392  1.00  0.00     0.031 C 
ATOM     49  C   UNL A   1      43.817  33.080  29.391  1.00  0.00     0.034 A 
BRANCH  36  50
ATOM     50  C   UNL A   1      46.952  28.164  27.362  1.00  0.00     0.023 A 
ATOM     51  C   UNL A   1      47.985  27.780  28.244  1.00  0.00     0.012 A 
ATOM     52  C   UNL A   1      47.117  27.973  25.977  1.00  0.00     0.148 A 
ATOM     53  C   UNL A   1      49.169  27.234  27.756  1.00  0.00     0.002 A 
ATOM     54  C   UNL A   1      48.287  27.393  25.501  1.00  0.00     0.091 A 
ATOM     55  F   UNL A   1      46.134  28.368  25.155  1.00  0.00    -0.205 F 
ATOM     56  C   UNL A   1      49.316  27.031  26.387  1.00  0.00     0.022 A 
BRANCH  54  57
ATOM     57  S   UNL A   1      48.549  27.023  23.762  1.00  0.00     0.127 S 
ATOM     58  O   UNL A   1      49.995  26.811  23.721  1.00  0.00    -0.237 OA
ATOM     59  O   UNL A   1      47.749  25.811  23.581  1.00  0.00    -0.237 OA
ATOM     60  O   UNL A   1      48.068  28.185  23.028  1.00  0.00    -0.744 OA
ENDBRANCH  54  57
ENDBRANCH  36  50
BRANCH  37  61
ATOM     61  C   UNL A   1      38.318  31.296  31.198  1.00  0.00     0.023 A 
ATOM     62  C   UNL A   1      38.093  31.160  32.581  1.00  0.00     0.012 A 
ATOM     63  C   UNL A   1      37.320  31.877  30.393  1.00  0.00     0.148 A 
ATOM     64  C   UNL A   1      36.881  31.559  33.147  1.00  0.00     0.002 A 
ATOM     65  C   UNL A   1      36.136  32.322  30.971  1.00  0.00     0.091 A 
ATOM     66  F   UNL A   1      37.541  31.975  29.075  1.00  0.00    -0.205 F 
ATOM     67  C   UNL A   1      35.907  32.147  32.344  1.00  0.00     0.022 A 
BRANCH  65  68
ATOM     68  S   UNL A   1      34.882  33.195  30.027  1.00  0.00     0.127 S 
ATOM     69  O   UNL A   1      34.337  32.127  29.193  1.00  0.00    -0.237 OA
ATOM     70  O   UNL A   1      33.984  33.673  31.079  1.00  0.00    -0.237 OA
ATOM     71  O   UNL A   1      35.593  34.254  29.324  1.00  0.00    -0.744 OA
ENDBRANCH  65  68
ENDBRANCH  37  61
BRANCH  49  72
ATOM     72  C   UNL A   1      44.278  34.511  29.517  1.00  0.00     0.023 A 
ATOM     73  C   UNL A   1      45.001  34.909  30.660  1.00  0.00     0.012 A 
ATOM     74  C   UNL A   1      44.049  35.445  28.488  1.00  0.00     0.148 A 
ATOM     75  C   UNL A   1      45.451  36.222  30.796  1.00  0.00     0.002 A 
ATOM     76  C   UNL A   1      44.540  36.742  28.611  1.00  0.00     0.091 A 
ATOM     77  F   UNL A   1      43.345  35.059  27.414  1.00  0.00    -0.205 F 
ATOM     78  C   UNL A   1      45.230  37.135  29.769  1.00  0.00     0.022 A 
BRANCH  76  79
ATOM     79  S   UNL A   1      44.380  37.955  27.295  1.00  0.00     0.127 S 
ATOM     80  O   UNL A   1      45.571  37.684  26.492  1.00  0.00    -0.237 OA
ATOM     81  O   UNL A   1      43.118  37.569  26.661  1.00  0.00    -0.237 OA
ATOM     82  O   UNL A   1      44.345  39.252  27.956  1.00  0.00    -0.744 OA
ENDBRANCH  76  79
ENDBRANCH  49  72
ENDBRANCH  23  24
ENDBRANCH  16  18
ENDBRANCH   1  16
TORSDOF 14
ENDMDL
