MODEL 1
REMARK VINA RESULT:     -12.7      0.000      0.000
REMARK SMILES Cc1cc(C(=O)OCCOC(=O)c2ccc(-c3c4nc(c(-c5cccc(S(=O)(=O)[O-])c5F)c5ccc([nH]5)c(-c5cccc(S(=O)(=O)[O-])c5F)c5nc(c(-c6cccc(S(=O)(=O)[O-])c6F)c6ccc3[nH]6)C=C5)C=C4)cc2)c(O)c(S(=O)(=O)N2CCCc3cc(F)cc(F)c32)c1
REMARK SMILES IDX 9 1 8 2 7 3 5 4 6 5 4 6 1 7 2 8 3 9 94 10 78 11 76 12 79 13
REMARK SMILES IDX 80 14 81 15 82 16 83 17 93 18 84 19 86 20 91 21 85 22 87 23
REMARK SMILES IDX 90 24 92 25 88 26 89 27 77 28 10 30 11 31 12 32 13 33 14 34
REMARK SMILES IDX 75 35 15 36 74 37 16 38 17 39 18 40 68 41 19 42 73 43 67 44
REMARK SMILES IDX 69 45 20 46 72 47 66 48 65 49 21 51 53 52 33 53 52 54 34 55
REMARK SMILES IDX 37 56 51 57 70 58 35 59 36 60 50 62 71 63 38 64 22 65 23 66
REMARK SMILES IDX 31 67 24 68 26 69 32 70 25 71 27 72 28 73 29 74 30 75 54 76
REMARK SMILES IDX 55 77 63 78 56 79 58 80 64 81 57 82 59 83 60 84 61 85 62 86
REMARK SMILES IDX 39 87 40 88 48 89 41 90 43 91 49 92 42 93 44 94 45 95 46 96
REMARK SMILES IDX 47 97
REMARK H PARENT 77 29 69 50 37 61
REMARK Flexibility Score: inf
ROOT
ATOM      1  C   UNL A   1      36.594  20.386  25.014  1.00  0.00     0.275 C 
ENDROOT
BRANCH   1   2
ATOM      2  C   UNL A   1      35.144  20.694  25.378  1.00  0.00     0.275 C 
BRANCH   2   3
ATOM      3  O   UNL A   1      34.425  21.220  24.245  1.00  0.00    -0.458 OA
BRANCH   3   4
ATOM      4  C   UNL A   1      33.095  20.971  24.203  1.00  0.00     0.342 C 
ATOM      5  O   UNL A   1      32.555  19.937  23.830  1.00  0.00    -0.246 OA
BRANCH   4   6
ATOM      6  C   UNL A   1      32.315  22.127  24.696  1.00  0.00     0.103 A 
ATOM      7  C   UNL A   1      29.609  22.848  27.256  1.00  0.00     0.044 C 
ATOM      8  C   UNL A   1      30.536  23.067  26.091  1.00  0.00    -0.049 A 
ATOM      9  C   UNL A   1      31.351  21.988  25.696  1.00  0.00     0.023 A 
ATOM     10  C   UNL A   1      30.605  24.285  25.395  1.00  0.00     0.029 A 
ATOM     11  C   UNL A   1      31.556  24.416  24.385  1.00  0.00     0.130 A 
ATOM     12  C   UNL A   1      32.446  23.358  24.079  1.00  0.00     0.150 A 
BRANCH  11  13
ATOM     13  S   UNL A   1      31.787  25.799  23.341  1.00  0.00     0.268 S 
ATOM     14  O   UNL A   1      31.638  25.189  22.025  1.00  0.00    -0.201 OA
ATOM     15  O   UNL A   1      30.802  26.768  23.782  1.00  0.00    -0.201 OA
BRANCH  13  16
ATOM     16  N   UNL A   1      33.339  26.620  23.348  1.00  0.00    -0.263 N 
ATOM     17  C   UNL A   1      33.682  27.482  22.183  1.00  0.00     0.136 C 
ATOM     18  C   UNL A   1      33.342  27.346  24.646  1.00  0.00     0.091 A 
ATOM     19  C   UNL A   1      33.606  28.984  22.467  1.00  0.00     0.028 C 
ATOM     20  C   UNL A   1      32.567  28.528  24.663  1.00  0.00    -0.018 A 
ATOM     21  C   UNL A   1      33.507  26.616  25.834  1.00  0.00     0.150 A 
ATOM     22  C   UNL A   1      32.454  29.340  23.401  1.00  0.00     0.040 C 
ATOM     23  C   UNL A   1      31.734  28.766  25.763  1.00  0.00     0.045 A 
ATOM     24  C   UNL A   1      32.719  26.891  26.945  1.00  0.00     0.080 A 
ATOM     25  F   UNL A   1      34.313  25.544  25.857  1.00  0.00    -0.205 F 
ATOM     26  C   UNL A   1      31.786  27.916  26.867  1.00  0.00     0.126 A 
ATOM     27  F   UNL A   1      30.889  28.067  27.852  1.00  0.00    -0.207 F 
ENDBRANCH  13  16
ENDBRANCH  11  13
BRANCH  12  28
ATOM     28  O   UNL A   1      33.441  23.484  23.136  1.00  0.00    -0.506 OA
ATOM     29  H   UNL A   1      33.400  24.173  22.502  1.00  0.00     0.293 HD
ENDBRANCH  12  28
ENDBRANCH   4   6
ENDBRANCH   3   4
ENDBRANCH   2   3
ENDBRANCH   1   2
BRANCH   1  30
ATOM     30  O   UNL A   1      37.433  21.514  25.315  1.00  0.00    -0.458 OA
BRANCH  30  31
ATOM     31  C   UNL A   1      38.639  21.190  25.830  1.00  0.00     0.338 C 
ATOM     32  O   UNL A   1      39.262  20.153  25.685  1.00  0.00    -0.246 OA
BRANCH  31  33
ATOM     33  C   UNL A   1      39.204  22.347  26.534  1.00  0.00     0.060 A 
ATOM     34  C   UNL A   1      38.726  23.603  26.185  1.00  0.00     0.016 A 
ATOM     35  C   UNL A   1      40.312  22.224  27.362  1.00  0.00     0.016 A 
ATOM     36  C   UNL A   1      39.430  24.746  26.531  1.00  0.00     0.010 A 
ATOM     37  C   UNL A   1      40.942  23.385  27.826  1.00  0.00     0.010 A 
ATOM     38  C   UNL A   1      40.541  24.658  27.375  1.00  0.00    -0.014 A 
BRANCH  38  39
ATOM     39  C   UNL A   1      41.283  25.891  27.757  1.00  0.00     0.031 A 
ATOM     40  C   UNL A   1      40.616  26.950  28.596  1.00  0.00     0.074 A 
ATOM     41  C   UNL A   1      42.557  26.066  27.348  1.00  0.00     0.049 A 
ATOM     42  N   UNL A   1      41.031  28.154  28.891  1.00  0.00    -0.248 NA
ATOM     43  C   UNL A   1      39.299  26.618  29.166  1.00  0.00     0.031 C 
ATOM     44  C   UNL A   1      43.333  25.111  26.552  1.00  0.00     0.029 A 
ATOM     45  N   UNL A   1      43.424  27.115  27.535  1.00  0.00    -0.354 N 
ATOM     46  C   UNL A   1      39.996  28.753  29.599  1.00  0.00     0.074 A 
ATOM     47  C   UNL A   1      38.935  27.774  29.703  1.00  0.00     0.031 C 
ATOM     48  C   UNL A   1      44.561  25.603  26.341  1.00  0.00     0.029 A 
ATOM     49  C   UNL A   1      44.630  26.948  26.894  1.00  0.00     0.049 A 
ATOM     50  H   UNL A   1      43.204  27.909  28.074  1.00  0.00     0.167 HD
ATOM     51  C   UNL A   1      39.935  30.005  30.115  1.00  0.00     0.034 A 
ATOM     52  C   UNL A   1      45.659  27.798  26.716  1.00  0.00     0.034 A 
ATOM     53  C   UNL A   1      41.020  30.948  30.061  1.00  0.00     0.049 A 
ATOM     54  C   UNL A   1      45.563  29.181  27.290  1.00  0.00     0.074 A 
ATOM     55  C   UNL A   1      41.081  32.220  30.603  1.00  0.00     0.029 A 
ATOM     56  N   UNL A   1      42.233  30.727  29.425  1.00  0.00    -0.354 N 
ATOM     57  N   UNL A   1      44.599  29.713  28.000  1.00  0.00    -0.248 NA
ATOM     58  C   UNL A   1      46.703  30.076  27.052  1.00  0.00     0.031 C 
ATOM     59  C   UNL A   1      42.318  32.780  30.265  1.00  0.00     0.029 A 
ATOM     60  C   UNL A   1      43.044  31.842  29.550  1.00  0.00     0.049 A 
ATOM     61  H   UNL A   1      42.481  29.898  28.955  1.00  0.00     0.167 HD
ATOM     62  C   UNL A   1      45.024  30.996  28.317  1.00  0.00     0.074 A 
ATOM     63  C   UNL A   1      46.345  31.151  27.741  1.00  0.00     0.031 C 
ATOM     64  C   UNL A   1      44.375  31.964  29.009  1.00  0.00     0.034 A 
BRANCH  51  65
ATOM     65  C   UNL A   1      38.650  30.431  30.781  1.00  0.00     0.023 A 
ATOM     66  C   UNL A   1      38.446  30.186  32.154  1.00  0.00     0.012 A 
ATOM     67  C   UNL A   1      37.661  31.119  30.050  1.00  0.00     0.148 A 
ATOM     68  C   UNL A   1      37.262  30.581  32.778  1.00  0.00     0.002 A 
ATOM     69  C   UNL A   1      36.506  31.553  30.688  1.00  0.00     0.091 A 
ATOM     70  F   UNL A   1      37.862  31.326  28.740  1.00  0.00    -0.205 F 
ATOM     71  C   UNL A   1      36.297  31.272  32.048  1.00  0.00     0.022 A 
BRANCH  69  72
ATOM     72  S   UNL A   1      35.244  32.523  29.855  1.00  0.00     0.127 S 
ATOM     73  O   UNL A   1      34.277  32.736  30.930  1.00  0.00    -0.237 OA
ATOM     74  O   UNL A   1      35.988  33.720  29.459  1.00  0.00    -0.237 OA
ATOM     75  O   UNL A   1      34.776  31.705  28.745  1.00  0.00    -0.744 OA
ENDBRANCH  69  72
ENDBRANCH  51  65
BRANCH  52  76
ATOM     76  C   UNL A   1      46.863  27.357  25.956  1.00  0.00     0.023 A 
ATOM     77  C   UNL A   1      46.944  27.613  24.574  1.00  0.00     0.012 A 
ATOM     78  C   UNL A   1      47.946  26.727  26.603  1.00  0.00     0.148 A 
ATOM     79  C   UNL A   1      48.071  27.231  23.846  1.00  0.00     0.002 A 
ATOM     80  C   UNL A   1      49.090  26.404  25.883  1.00  0.00     0.091 A 
ATOM     81  F   UNL A   1      47.843  26.478  27.916  1.00  0.00    -0.205 F 
ATOM     82  C   UNL A   1      49.148  26.640  24.501  1.00  0.00     0.022 A 
BRANCH  80  83
ATOM     83  S   UNL A   1      50.575  25.770  26.668  1.00  0.00     0.127 S 
ATOM     84  O   UNL A   1      50.089  24.530  27.268  1.00  0.00    -0.237 OA
ATOM     85  O   UNL A   1      51.468  25.591  25.522  1.00  0.00    -0.237 OA
ATOM     86  O   UNL A   1      51.000  26.802  27.605  1.00  0.00    -0.744 OA
ENDBRANCH  80  83
ENDBRANCH  52  76
BRANCH  64  87
ATOM     87  C   UNL A   1      45.102  33.264  29.229  1.00  0.00     0.023 A 
ATOM     88  C   UNL A   1      45.941  33.424  30.350  1.00  0.00     0.012 A 
ATOM     89  C   UNL A   1      44.998  34.306  28.288  1.00  0.00     0.148 A 
ATOM     90  C   UNL A   1      46.636  34.616  30.548  1.00  0.00     0.002 A 
ATOM     91  C   UNL A   1      45.736  35.469  28.463  1.00  0.00     0.091 A 
ATOM     92  F   UNL A   1      44.179  34.141  27.239  1.00  0.00    -0.205 F 
ATOM     93  C   UNL A   1      46.544  35.632  29.600  1.00  0.00     0.022 A 
BRANCH  91  94
ATOM     94  S   UNL A   1      45.756  36.789  27.245  1.00  0.00     0.127 S 
ATOM     95  O   UNL A   1      46.609  37.782  27.896  1.00  0.00    -0.237 OA
ATOM     96  O   UNL A   1      46.361  36.132  26.086  1.00  0.00    -0.237 OA
ATOM     97  O   UNL A   1      44.367  37.187  27.059  1.00  0.00    -0.744 OA
ENDBRANCH  91  94
ENDBRANCH  64  87
ENDBRANCH  38  39
ENDBRANCH  31  33
ENDBRANCH  30  31
ENDBRANCH   1  30
TORSDOF 17
ENDMDL
MODEL 2
REMARK VINA RESULT:     -12.7      4.743      9.716
REMARK SMILES Cc1cc(C(=O)OCCOC(=O)c2ccc(-c3c4nc(c(-c5cccc(S(=O)(=O)[O-])c5F)c5ccc([nH]5)c(-c5cccc(S(=O)(=O)[O-])c5F)c5nc(c(-c6cccc(S(=O)(=O)[O-])c6F)c6ccc3[nH]6)C=C5)C=C4)cc2)c(O)c(S(=O)(=O)N2CCCc3cc(F)cc(F)c32)c1
REMARK SMILES IDX 9 1 8 2 7 3 5 4 6 5 4 6 1 7 2 8 3 9 94 10 78 11 76 12 79 13
REMARK SMILES IDX 80 14 81 15 82 16 83 17 93 18 84 19 86 20 91 21 85 22 87 23
REMARK SMILES IDX 90 24 92 25 88 26 89 27 77 28 10 30 11 31 12 32 13 33 14 34
REMARK SMILES IDX 75 35 15 36 74 37 16 38 17 39 18 40 68 41 19 42 73 43 67 44
REMARK SMILES IDX 69 45 20 46 72 47 66 48 65 49 21 51 53 52 33 53 52 54 34 55
REMARK SMILES IDX 37 56 51 57 70 58 35 59 36 60 50 62 71 63 38 64 22 65 23 66
REMARK SMILES IDX 31 67 24 68 26 69 32 70 25 71 27 72 28 73 29 74 30 75 54 76
REMARK SMILES IDX 55 77 63 78 56 79 58 80 64 81 57 82 59 83 60 84 61 85 62 86
REMARK SMILES IDX 39 87 40 88 48 89 41 90 43 91 49 92 42 93 44 94 45 95 46 96
REMARK SMILES IDX 47 97
REMARK H PARENT 77 29 69 50 37 61
REMARK Flexibility Score: inf
ROOT
ATOM      1  C   UNL A   1      31.406  30.274  25.615  1.00  0.00     0.275 C 
ENDROOT
BRANCH   1   2
ATOM      2  C   UNL A   1      31.243  29.237  24.507  1.00  0.00     0.275 C 
BRANCH   2   3
ATOM      3  O   UNL A   1      31.515  27.909  24.995  1.00  0.00    -0.458 OA
BRANCH   3   4
ATOM      4  C   UNL A   1      30.677  26.929  24.581  1.00  0.00     0.342 C 
ATOM      5  O   UNL A   1      29.743  27.047  23.798  1.00  0.00    -0.246 OA
BRANCH   4   6
ATOM      6  C   UNL A   1      31.031  25.628  25.188  1.00  0.00     0.103 A 
ATOM      7  C   UNL A   1      29.366  22.902  27.237  1.00  0.00     0.044 C 
ATOM      8  C   UNL A   1      30.463  23.695  26.580  1.00  0.00    -0.049 A 
ATOM      9  C   UNL A   1      30.100  24.882  25.914  1.00  0.00     0.023 A 
ATOM     10  C   UNL A   1      31.812  23.301  26.618  1.00  0.00     0.029 A 
ATOM     11  C   UNL A   1      32.741  24.057  25.908  1.00  0.00     0.130 A 
ATOM     12  C   UNL A   1      32.339  25.183  25.148  1.00  0.00     0.150 A 
BRANCH  11  13
ATOM     13  S   UNL A   1      34.471  23.808  25.858  1.00  0.00     0.268 S 
ATOM     14  O   UNL A   1      34.959  25.123  26.255  1.00  0.00    -0.201 OA
ATOM     15  O   UNL A   1      34.710  22.676  26.733  1.00  0.00    -0.201 OA
BRANCH  13  16
ATOM     16  N   UNL A   1      35.231  23.426  24.322  1.00  0.00    -0.263 N 
ATOM     17  C   UNL A   1      36.719  23.397  24.264  1.00  0.00     0.136 C 
ATOM     18  C   UNL A   1      34.596  22.138  23.932  1.00  0.00     0.091 A 
ATOM     19  C   UNL A   1      37.319  21.991  24.183  1.00  0.00     0.028 C 
ATOM     20  C   UNL A   1      35.093  21.004  24.611  1.00  0.00    -0.018 A 
ATOM     21  C   UNL A   1      33.264  22.144  23.489  1.00  0.00     0.150 A 
ATOM     22  C   UNL A   1      36.543  20.980  25.021  1.00  0.00     0.040 C 
ATOM     23  C   UNL A   1      34.180  20.064  25.103  1.00  0.00     0.045 A 
ATOM     24  C   UNL A   1      32.370  21.176  23.932  1.00  0.00     0.080 A 
ATOM     25  F   UNL A   1      32.801  23.172  22.762  1.00  0.00    -0.205 F 
ATOM     26  C   UNL A   1      32.826  20.191  24.798  1.00  0.00     0.126 A 
ATOM     27  F   UNL A   1      31.943  19.371  25.385  1.00  0.00    -0.207 F 
ENDBRANCH  13  16
ENDBRANCH  11  13
BRANCH  12  28
ATOM     28  O   UNL A   1      33.224  25.905  24.381  1.00  0.00    -0.506 OA
ATOM     29  H   UNL A   1      33.549  25.546  23.578  1.00  0.00     0.293 HD
ENDBRANCH  12  28
ENDBRANCH   4   6
ENDBRANCH   3   4
ENDBRANCH   2   3
ENDBRANCH   1   2
BRANCH   1  30
ATOM     30  O   UNL A   1      32.653  30.078  26.302  1.00  0.00    -0.458 OA
BRANCH  30  31
ATOM     31  C   UNL A   1      33.080  31.153  27.001  1.00  0.00     0.338 C 
ATOM     32  O   UNL A   1      32.437  32.131  27.339  1.00  0.00    -0.246 OA
BRANCH  31  33
ATOM     33  C   UNL A   1      34.465  30.942  27.437  1.00  0.00     0.060 A 
ATOM     34  C   UNL A   1      34.858  29.639  27.713  1.00  0.00     0.016 A 
ATOM     35  C   UNL A   1      35.295  32.007  27.763  1.00  0.00     0.016 A 
ATOM     36  C   UNL A   1      36.005  29.389  28.447  1.00  0.00     0.010 A 
ATOM     37  C   UNL A   1      36.522  31.744  28.383  1.00  0.00     0.010 A 
ATOM     38  C   UNL A   1      36.868  30.437  28.779  1.00  0.00    -0.014 A 
BRANCH  38  39
ATOM     39  C   UNL A   1      38.110  30.160  29.555  1.00  0.00     0.031 A 
ATOM     40  C   UNL A   1      39.181  29.269  28.982  1.00  0.00     0.074 A 
ATOM     41  C   UNL A   1      38.277  30.706  30.778  1.00  0.00     0.049 A 
ATOM     42  N   UNL A   1      40.245  28.779  29.561  1.00  0.00    -0.248 NA
ATOM     43  C   UNL A   1      39.027  28.860  27.575  1.00  0.00     0.031 C 
ATOM     44  C   UNL A   1      37.331  31.606  31.443  1.00  0.00     0.029 A 
ATOM     45  N   UNL A   1      39.298  30.573  31.688  1.00  0.00    -0.354 N 
ATOM     46  C   UNL A   1      40.836  27.936  28.626  1.00  0.00     0.074 A 
ATOM     47  C   UNL A   1      40.018  27.993  27.433  1.00  0.00     0.031 C 
ATOM     48  C   UNL A   1      37.823  31.964  32.637  1.00  0.00     0.029 A 
ATOM     49  C   UNL A   1      39.066  31.241  32.869  1.00  0.00     0.049 A 
ATOM     50  H   UNL A   1      40.114  30.052  31.513  1.00  0.00     0.167 HD
ATOM     51  C   UNL A   1      41.957  27.185  28.750  1.00  0.00     0.034 A 
ATOM     52  C   UNL A   1      39.741  31.231  34.034  1.00  0.00     0.034 A 
ATOM     53  C   UNL A   1      42.797  27.186  29.919  1.00  0.00     0.049 A 
ATOM     54  C   UNL A   1      40.975  30.384  34.148  1.00  0.00     0.074 A 
ATOM     55  C   UNL A   1      43.985  26.506  30.124  1.00  0.00     0.029 A 
ATOM     56  N   UNL A   1      42.539  27.897  31.082  1.00  0.00    -0.354 N 
ATOM     57  N   UNL A   1      41.546  29.634  33.239  1.00  0.00    -0.248 NA
ATOM     58  C   UNL A   1      41.664  30.393  35.445  1.00  0.00     0.031 C 
ATOM     59  C   UNL A   1      44.425  26.779  31.423  1.00  0.00     0.029 A 
ATOM     60  C   UNL A   1      43.536  27.663  32.012  1.00  0.00     0.049 A 
ATOM     61  H   UNL A   1      41.761  28.484  31.224  1.00  0.00     0.167 HD
ATOM     62  C   UNL A   1      42.678  29.102  33.842  1.00  0.00     0.074 A 
ATOM     63  C   UNL A   1      42.722  29.636  35.189  1.00  0.00     0.031 C 
ATOM     64  C   UNL A   1      43.590  28.238  33.333  1.00  0.00     0.034 A 
BRANCH  51  65
ATOM     65  C   UNL A   1      42.340  26.294  27.595  1.00  0.00     0.023 A 
ATOM     66  C   UNL A   1      43.170  26.783  26.565  1.00  0.00     0.012 A 
ATOM     67  C   UNL A   1      41.912  24.952  27.556  1.00  0.00     0.148 A 
ATOM     68  C   UNL A   1      43.532  25.963  25.496  1.00  0.00     0.002 A 
ATOM     69  C   UNL A   1      42.317  24.127  26.514  1.00  0.00     0.091 A 
ATOM     70  F   UNL A   1      41.107  24.509  28.533  1.00  0.00    -0.205 F 
ATOM     71  C   UNL A   1      43.114  24.635  25.475  1.00  0.00     0.022 A 
BRANCH  69  72
ATOM     72  S   UNL A   1      41.900  22.381  26.442  1.00  0.00     0.127 S 
ATOM     73  O   UNL A   1      42.394  21.906  27.732  1.00  0.00    -0.237 OA
ATOM     74  O   UNL A   1      40.442  22.418  26.323  1.00  0.00    -0.237 OA
ATOM     75  O   UNL A   1      42.590  21.852  25.274  1.00  0.00    -0.744 OA
ENDBRANCH  69  72
ENDBRANCH  51  65
BRANCH  52  76
ATOM     76  C   UNL A   1      39.256  32.051  35.180  1.00  0.00     0.023 A 
ATOM     77  C   UNL A   1      38.348  31.492  36.098  1.00  0.00     0.012 A 
ATOM     78  C   UNL A   1      39.723  33.365  35.390  1.00  0.00     0.148 A 
ATOM     79  C   UNL A   1      37.896  32.231  37.192  1.00  0.00     0.002 A 
ATOM     80  C   UNL A   1      39.318  34.073  36.514  1.00  0.00     0.091 A 
ATOM     81  F   UNL A   1      40.576  33.885  34.496  1.00  0.00    -0.205 F 
ATOM     82  C   UNL A   1      38.391  33.515  37.408  1.00  0.00     0.022 A 
BRANCH  80  83
ATOM     83  S   UNL A   1      40.008  35.674  36.945  1.00  0.00     0.127 S 
ATOM     84  O   UNL A   1      39.351  35.948  38.221  1.00  0.00    -0.237 OA
ATOM     85  O   UNL A   1      41.436  35.369  37.041  1.00  0.00    -0.237 OA
ATOM     86  O   UNL A   1      39.655  36.566  35.849  1.00  0.00    -0.744 OA
ENDBRANCH  80  83
ENDBRANCH  52  76
BRANCH  64  87
ATOM     87  C   UNL A   1      44.746  27.852  34.217  1.00  0.00     0.023 A 
ATOM     88  C   UNL A   1      45.912  28.641  34.241  1.00  0.00     0.012 A 
ATOM     89  C   UNL A   1      44.648  26.735  35.070  1.00  0.00     0.148 A 
ATOM     90  C   UNL A   1      46.978  28.303  35.074  1.00  0.00     0.002 A 
ATOM     91  C   UNL A   1      45.691  26.436  35.937  1.00  0.00     0.091 A 
ATOM     92  F   UNL A   1      43.538  25.985  35.018  1.00  0.00    -0.205 F 
ATOM     93  C   UNL A   1      46.863  27.211  35.930  1.00  0.00     0.022 A 
BRANCH  91  94
ATOM     94  S   UNL A   1      45.591  25.109  37.143  1.00  0.00     0.127 S 
ATOM     95  O   UNL A   1      44.338  25.423  37.828  1.00  0.00    -0.237 OA
ATOM     96  O   UNL A   1      45.539  23.921  36.291  1.00  0.00    -0.237 OA
ATOM     97  O   UNL A   1      46.793  25.216  37.960  1.00  0.00    -0.744 OA
ENDBRANCH  91  94
ENDBRANCH  64  87
ENDBRANCH  38  39
ENDBRANCH  31  33
ENDBRANCH  30  31
ENDBRANCH   1  30
TORSDOF 17
ENDMDL
MODEL 3
REMARK VINA RESULT:     -12.6      1.380      2.029
REMARK SMILES Cc1cc(C(=O)OCCOC(=O)c2ccc(-c3c4nc(c(-c5cccc(S(=O)(=O)[O-])c5F)c5ccc([nH]5)c(-c5cccc(S(=O)(=O)[O-])c5F)c5nc(c(-c6cccc(S(=O)(=O)[O-])c6F)c6ccc3[nH]6)C=C5)C=C4)cc2)c(O)c(S(=O)(=O)N2CCCc3cc(F)cc(F)c32)c1
REMARK SMILES IDX 9 1 8 2 7 3 5 4 6 5 4 6 1 7 2 8 3 9 94 10 78 11 76 12 79 13
REMARK SMILES IDX 80 14 81 15 82 16 83 17 93 18 84 19 86 20 91 21 85 22 87 23
REMARK SMILES IDX 90 24 92 25 88 26 89 27 77 28 10 30 11 31 12 32 13 33 14 34
REMARK SMILES IDX 75 35 15 36 74 37 16 38 17 39 18 40 68 41 19 42 73 43 67 44
REMARK SMILES IDX 69 45 20 46 72 47 66 48 65 49 21 51 53 52 33 53 52 54 34 55
REMARK SMILES IDX 37 56 51 57 70 58 35 59 36 60 50 62 71 63 38 64 22 65 23 66
REMARK SMILES IDX 31 67 24 68 26 69 32 70 25 71 27 72 28 73 29 74 30 75 54 76
REMARK SMILES IDX 55 77 63 78 56 79 58 80 64 81 57 82 59 83 60 84 61 85 62 86
REMARK SMILES IDX 39 87 40 88 48 89 41 90 43 91 49 92 42 93 44 94 45 95 46 96
REMARK SMILES IDX 47 97
REMARK H PARENT 77 29 69 50 37 61
REMARK Flexibility Score: inf
ROOT
ATOM      1  C   UNL A   1      36.532  20.553  25.002  1.00  0.00     0.275 C 
ENDROOT
BRANCH   1   2
ATOM      2  C   UNL A   1      35.268  21.283  25.451  1.00  0.00     0.275 C 
BRANCH   2   3
ATOM      3  O   UNL A   1      34.196  21.092  24.508  1.00  0.00    -0.458 OA
BRANCH   3   4
ATOM      4  C   UNL A   1      33.039  21.746  24.767  1.00  0.00     0.342 C 
ATOM      5  O   UNL A   1      32.129  21.363  25.493  1.00  0.00    -0.246 OA
BRANCH   4   6
ATOM      6  C   UNL A   1      32.986  23.045  24.064  1.00  0.00     0.103 A 
ATOM      7  C   UNL A   1      32.881  24.344  20.500  1.00  0.00     0.044 C 
ATOM      8  C   UNL A   1      33.023  24.359  21.998  1.00  0.00    -0.049 A 
ATOM      9  C   UNL A   1      32.968  23.123  22.670  1.00  0.00     0.023 A 
ATOM     10  C   UNL A   1      33.215  25.543  22.730  1.00  0.00     0.029 A 
ATOM     11  C   UNL A   1      33.251  25.461  24.120  1.00  0.00     0.130 A 
ATOM     12  C   UNL A   1      33.077  24.222  24.784  1.00  0.00     0.150 A 
BRANCH  11  13
ATOM     13  S   UNL A   1      33.544  26.775  25.236  1.00  0.00     0.268 S 
ATOM     14  O   UNL A   1      34.679  26.258  25.991  1.00  0.00    -0.201 OA
ATOM     15  O   UNL A   1      33.730  27.943  24.397  1.00  0.00    -0.201 OA
BRANCH  13  16
ATOM     16  N   UNL A   1      32.301  27.189  26.406  1.00  0.00    -0.263 N 
ATOM     17  C   UNL A   1      32.638  28.180  27.466  1.00  0.00     0.136 C 
ATOM     18  C   UNL A   1      31.148  27.595  25.559  1.00  0.00     0.091 A 
ATOM     19  C   UNL A   1      32.006  29.560  27.261  1.00  0.00     0.028 C 
ATOM     20  C   UNL A   1      31.247  28.891  25.006  1.00  0.00    -0.018 A 
ATOM     21  C   UNL A   1      30.434  26.605  24.864  1.00  0.00     0.150 A 
ATOM     22  C   UNL A   1      31.956  29.963  25.791  1.00  0.00     0.040 C 
ATOM     23  C   UNL A   1      30.916  29.072  23.657  1.00  0.00     0.045 A 
ATOM     24  C   UNL A   1      30.054  26.807  23.543  1.00  0.00     0.080 A 
ATOM     25  F   UNL A   1      30.251  25.396  25.416  1.00  0.00    -0.205 F 
ATOM     26  C   UNL A   1      30.370  28.014  22.932  1.00  0.00     0.126 A 
ATOM     27  F   UNL A   1      30.187  28.151  21.612  1.00  0.00    -0.207 F 
ENDBRANCH  13  16
ENDBRANCH  11  13
BRANCH  12  28
ATOM     28  O   UNL A   1      33.037  24.123  26.156  1.00  0.00    -0.506 OA
ATOM     29  H   UNL A   1      33.148  24.889  26.684  1.00  0.00     0.293 HD
ENDBRANCH  12  28
ENDBRANCH   4   6
ENDBRANCH   3   4
ENDBRANCH   2   3
ENDBRANCH   1   2
BRANCH   1  30
ATOM     30  O   UNL A   1      37.650  21.457  24.984  1.00  0.00    -0.458 OA
BRANCH  30  31
ATOM     31  C   UNL A   1      38.696  21.064  25.743  1.00  0.00     0.338 C 
ATOM     32  O   UNL A   1      39.212  19.961  25.795  1.00  0.00    -0.246 OA
BRANCH  31  33
ATOM     33  C   UNL A   1      39.252  22.219  26.456  1.00  0.00     0.060 A 
ATOM     34  C   UNL A   1      38.743  23.472  26.139  1.00  0.00     0.016 A 
ATOM     35  C   UNL A   1      40.377  22.104  27.262  1.00  0.00     0.016 A 
ATOM     36  C   UNL A   1      39.431  24.622  26.492  1.00  0.00     0.010 A 
ATOM     37  C   UNL A   1      40.993  23.269  27.735  1.00  0.00     0.010 A 
ATOM     38  C   UNL A   1      40.559  24.541  27.314  1.00  0.00    -0.014 A 
BRANCH  38  39
ATOM     39  C   UNL A   1      41.284  25.782  27.704  1.00  0.00     0.031 A 
ATOM     40  C   UNL A   1      40.597  26.833  28.537  1.00  0.00     0.074 A 
ATOM     41  C   UNL A   1      42.561  25.970  27.308  1.00  0.00     0.049 A 
ATOM     42  N   UNL A   1      40.997  28.041  28.836  1.00  0.00    -0.248 NA
ATOM     43  C   UNL A   1      39.278  26.487  29.094  1.00  0.00     0.031 C 
ATOM     44  C   UNL A   1      43.354  25.024  26.520  1.00  0.00     0.029 A 
ATOM     45  N   UNL A   1      43.414  27.028  27.505  1.00  0.00    -0.354 N 
ATOM     46  C   UNL A   1      39.948  28.629  29.534  1.00  0.00     0.074 A 
ATOM     47  C   UNL A   1      38.897  27.639  29.627  1.00  0.00     0.031 C 
ATOM     48  C   UNL A   1      44.579  25.528  26.321  1.00  0.00     0.029 A 
ATOM     49  C   UNL A   1      44.629  26.873  26.877  1.00  0.00     0.049 A 
ATOM     50  H   UNL A   1      43.181  27.819  28.042  1.00  0.00     0.167 HD
ATOM     51  C   UNL A   1      39.869  29.879  30.051  1.00  0.00     0.034 A 
ATOM     52  C   UNL A   1      45.650  27.735  26.709  1.00  0.00     0.034 A 
ATOM     53  C   UNL A   1      40.945  30.834  30.008  1.00  0.00     0.049 A 
ATOM     54  C   UNL A   1      45.534  29.116  27.283  1.00  0.00     0.074 A 
ATOM     55  C   UNL A   1      40.987  32.106  30.551  1.00  0.00     0.029 A 
ATOM     56  N   UNL A   1      42.167  30.626  29.384  1.00  0.00    -0.354 N 
ATOM     57  N   UNL A   1      44.557  29.637  27.983  1.00  0.00    -0.248 NA
ATOM     58  C   UNL A   1      46.667  30.023  27.057  1.00  0.00     0.031 C 
ATOM     59  C   UNL A   1      42.222  32.679  30.226  1.00  0.00     0.029 A 
ATOM     60  C   UNL A   1      42.965  31.749  29.518  1.00  0.00     0.049 A 
ATOM     61  H   UNL A   1      42.428  29.800  28.917  1.00  0.00     0.167 HD
ATOM     62  C   UNL A   1      44.966  30.925  28.306  1.00  0.00     0.074 A 
ATOM     63  C   UNL A   1      46.291  31.094  27.743  1.00  0.00     0.031 C 
ATOM     64  C   UNL A   1      44.299  31.886  28.991  1.00  0.00     0.034 A 
BRANCH  51  65
ATOM     65  C   UNL A   1      38.573  30.292  30.703  1.00  0.00     0.023 A 
ATOM     66  C   UNL A   1      38.335  29.996  32.061  1.00  0.00     0.012 A 
ATOM     67  C   UNL A   1      37.607  31.017  29.978  1.00  0.00     0.148 A 
ATOM     68  C   UNL A   1      37.141  30.378  32.672  1.00  0.00     0.002 A 
ATOM     69  C   UNL A   1      36.441  31.437  30.606  1.00  0.00     0.091 A 
ATOM     70  F   UNL A   1      37.840  31.273  28.682  1.00  0.00    -0.205 F 
ATOM     71  C   UNL A   1      36.199  31.105  31.949  1.00  0.00     0.022 A 
BRANCH  69  72
ATOM     72  S   UNL A   1      35.208  32.451  29.783  1.00  0.00     0.127 S 
ATOM     73  O   UNL A   1      34.275  32.725  30.874  1.00  0.00    -0.237 OA
ATOM     74  O   UNL A   1      35.997  33.606  29.352  1.00  0.00    -0.237 OA
ATOM     75  O   UNL A   1      34.679  31.638  28.697  1.00  0.00    -0.744 OA
ENDBRANCH  69  72
ENDBRANCH  51  65
BRANCH  52  76
ATOM     76  C   UNL A   1      46.867  27.306  25.961  1.00  0.00     0.023 A 
ATOM     77  C   UNL A   1      46.974  27.594  24.588  1.00  0.00     0.012 A 
ATOM     78  C   UNL A   1      47.936  26.658  26.613  1.00  0.00     0.148 A 
ATOM     79  C   UNL A   1      48.112  27.224  23.871  1.00  0.00     0.002 A 
ATOM     80  C   UNL A   1      49.092  26.348  25.907  1.00  0.00     0.091 A 
ATOM     81  F   UNL A   1      47.808  26.380  27.918  1.00  0.00    -0.205 F 
ATOM     82  C   UNL A   1      49.176  26.615  24.532  1.00  0.00     0.022 A 
BRANCH  80  83
ATOM     83  S   UNL A   1      50.561  25.691  26.705  1.00  0.00     0.127 S 
ATOM     84  O   UNL A   1      51.477  25.554  25.575  1.00  0.00    -0.237 OA
ATOM     85  O   UNL A   1      50.897  26.761  27.644  1.00  0.00    -0.237 OA
ATOM     86  O   UNL A   1      50.145  24.445  27.336  1.00  0.00    -0.744 OA
ENDBRANCH  80  83
ENDBRANCH  52  76
BRANCH  64  87
ATOM     87  C   UNL A   1      45.011  33.193  29.219  1.00  0.00     0.023 A 
ATOM     88  C   UNL A   1      45.836  33.361  30.349  1.00  0.00     0.012 A 
ATOM     89  C   UNL A   1      44.906  34.235  28.277  1.00  0.00     0.148 A 
ATOM     90  C   UNL A   1      46.517  34.561  30.555  1.00  0.00     0.002 A 
ATOM     91  C   UNL A   1      45.629  35.405  28.460  1.00  0.00     0.091 A 
ATOM     92  F   UNL A   1      44.100  34.061  27.219  1.00  0.00    -0.205 F 
ATOM     93  C   UNL A   1      46.424  35.576  29.606  1.00  0.00     0.022 A 
BRANCH  91  94
ATOM     94  S   UNL A   1      45.649  36.726  27.243  1.00  0.00     0.127 S 
ATOM     95  O   UNL A   1      46.394  37.769  27.947  1.00  0.00    -0.237 OA
ATOM     96  O   UNL A   1      46.369  36.109  26.129  1.00  0.00    -0.237 OA
ATOM     97  O   UNL A   1      44.254  37.037  26.963  1.00  0.00    -0.744 OA
ENDBRANCH  91  94
ENDBRANCH  64  87
ENDBRANCH  38  39
ENDBRANCH  31  33
ENDBRANCH  30  31
ENDBRANCH   1  30
TORSDOF 17
ENDMDL
