MODEL 1
REMARK VINA RESULT:     -12.6      0.000      0.000
REMARK SMILES Cc1ccc(N2C(=O)C[C@H](Sc3ccccc3C(=O)OCCOC(=O)c3ccc(-c4c5nc(c(-c6cccc(S(=O)(=O)[O-])c6F)c6ccc([nH]6)c(-c6cccc(S(=O)(=O)[O-])c6F)c6nc(c(-c7cccc(S(=O)(=O)[O-])c7F)c7ccc4[nH]7)C=C6)C=C5)cc3)C2=O)cc1
REMARK SMILES IDX 21 1 20 2 18 3 19 4 17 5 12 6 13 7 14 8 16 9 15 10 11 11
REMARK SMILES IDX 10 12 6 13 7 14 89 15 8 16 9 17 90 18 5 19 1 20 2 21 3 22
REMARK SMILES IDX 92 23 4 24 91 25 22 26 23 27 24 28 25 29 26 30 27 31 88 32
REMARK SMILES IDX 28 33 87 34 29 35 30 36 31 37 81 38 32 39 86 40 80 41 82 42
REMARK SMILES IDX 33 43 85 44 79 45 78 46 34 48 66 49 46 50 65 51 47 52 50 53
REMARK SMILES IDX 64 54 83 55 48 56 49 57 63 59 84 60 51 61 35 62 36 63 44 64
REMARK SMILES IDX 37 65 39 66 45 67 38 68 40 69 41 70 42 71 43 72 67 73 68 74
REMARK SMILES IDX 76 75 69 76 71 77 77 78 70 79 72 80 73 81 74 82 75 83 52 84
REMARK SMILES IDX 53 85 61 86 54 87 56 88 62 89 55 90 57 91 58 92 59 93 60 94
REMARK H PARENT 82 47 50 58
REMARK Flexibility Score: inf
ROOT
ATOM      1  C   UNL A   1      42.476  19.008  25.509  1.00  0.00     0.275 C 
ENDROOT
BRANCH   1   2
ATOM      2  O   UNL A   1      41.483  19.444  26.466  1.00  0.00    -0.458 OA
BRANCH   2   3
ATOM      3  C   UNL A   1      40.323  20.002  26.029  1.00  0.00     0.339 C 
ATOM      4  O   UNL A   1      39.410  19.398  25.482  1.00  0.00    -0.246 OA
BRANCH   3   5
ATOM      5  C   UNL A   1      40.275  21.392  26.552  1.00  0.00     0.073 A 
ATOM      6  C   UNL A   1      39.300  22.400  26.311  1.00  0.00     0.023 A 
ATOM      7  C   UNL A   1      39.419  23.574  27.099  1.00  0.00     0.016 A 
ATOM      8  C   UNL A   1      40.407  23.725  28.089  1.00  0.00     0.001 A 
ATOM      9  C   UNL A   1      41.295  21.588  27.513  1.00  0.00     0.017 A 
ATOM     10  C   UNL A   1      41.348  22.730  28.295  1.00  0.00     0.001 A 
BRANCH   6  11
ATOM     11  S   UNL A   1      37.619  22.142  25.745  1.00  0.00    -0.111 SA
BRANCH  11  12
ATOM     12  C   UNL A   1      36.206  23.527  25.693  1.00  0.00     0.151 C 
ATOM     13  N   UNL A   1      34.713  21.905  24.978  1.00  0.00    -0.250 N 
ATOM     14  C   UNL A   1      34.765  22.776  23.929  1.00  0.00     0.235 C 
ATOM     15  C   UNL A   1      35.115  22.536  26.141  1.00  0.00     0.247 C 
ATOM     16  O   UNL A   1      34.239  22.664  22.829  1.00  0.00    -0.274 OA
ATOM     17  C   UNL A   1      35.376  24.040  24.498  1.00  0.00     0.126 C 
ATOM     18  O   UNL A   1      34.745  22.320  27.285  1.00  0.00    -0.273 OA
BRANCH  13  19
ATOM     19  C   UNL A   1      34.526  20.521  24.899  1.00  0.00     0.052 A 
ATOM     20  C   UNL A   1      34.098  16.338  24.000  1.00  0.00     0.044 C 
ATOM     21  C   UNL A   1      34.219  17.794  24.324  1.00  0.00    -0.051 A 
ATOM     22  C   UNL A   1      35.478  18.330  24.633  1.00  0.00     0.005 A 
ATOM     23  C   UNL A   1      33.103  18.634  24.320  1.00  0.00     0.005 A 
ATOM     24  C   UNL A   1      35.633  19.690  24.888  1.00  0.00     0.027 A 
ATOM     25  C   UNL A   1      33.255  19.988  24.629  1.00  0.00     0.027 A 
ENDBRANCH  13  19
ENDBRANCH  11  12
ENDBRANCH   6  11
ENDBRANCH   3   5
ENDBRANCH   2   3
ENDBRANCH   1   2
BRANCH   1  26
ATOM     26  C   UNL A   1      43.827  19.768  25.525  1.00  0.00     0.275 C 
BRANCH  26  27
ATOM     27  O   UNL A   1      43.775  21.102  24.999  1.00  0.00    -0.458 OA
BRANCH  27  28
ATOM     28  C   UNL A   1      44.913  21.781  25.263  1.00  0.00     0.338 C 
ATOM     29  O   UNL A   1      45.949  21.659  24.639  1.00  0.00    -0.246 OA
BRANCH  28  30
ATOM     30  C   UNL A   1      44.617  23.006  26.008  1.00  0.00     0.060 A 
ATOM     31  C   UNL A   1      44.879  23.044  27.397  1.00  0.00     0.016 A 
ATOM     32  C   UNL A   1      44.575  24.152  25.222  1.00  0.00     0.016 A 
ATOM     33  C   UNL A   1      45.138  24.255  27.998  1.00  0.00     0.010 A 
ATOM     34  C   UNL A   1      45.055  25.297  25.758  1.00  0.00     0.010 A 
ATOM     35  C   UNL A   1      45.177  25.357  27.156  1.00  0.00    -0.014 A 
BRANCH  35  36
ATOM     36  C   UNL A   1      44.820  26.678  27.620  1.00  0.00     0.031 A 
ATOM     37  C   UNL A   1      43.447  27.113  27.425  1.00  0.00     0.074 A 
ATOM     38  C   UNL A   1      45.775  27.069  28.498  1.00  0.00     0.049 A 
ATOM     39  N   UNL A   1      43.103  28.342  27.278  1.00  0.00    -0.248 NA
ATOM     40  C   UNL A   1      42.339  26.169  27.244  1.00  0.00     0.031 C 
ATOM     41  C   UNL A   1      45.720  27.778  29.756  1.00  0.00     0.029 A 
ATOM     42  N   UNL A   1      47.133  26.720  28.381  1.00  0.00    -0.354 N 
ATOM     43  C   UNL A   1      41.739  28.342  27.484  1.00  0.00     0.074 A 
ATOM     44  C   UNL A   1      41.299  27.003  27.168  1.00  0.00     0.031 C 
ATOM     45  C   UNL A   1      46.987  28.030  30.159  1.00  0.00     0.029 A 
ATOM     46  C   UNL A   1      47.898  27.633  29.083  1.00  0.00     0.049 A 
ATOM     47  H   UNL A   1      47.483  25.948  27.879  1.00  0.00     0.167 HD
ATOM     48  C   UNL A   1      41.209  29.294  28.304  1.00  0.00     0.034 A 
ATOM     49  C   UNL A   1      48.782  28.421  28.398  1.00  0.00     0.034 A 
ATOM     50  C   UNL A   1      42.309  30.079  28.913  1.00  0.00     0.049 A 
ATOM     51  C   UNL A   1      48.206  29.821  28.303  1.00  0.00     0.074 A 
ATOM     52  C   UNL A   1      42.928  29.967  30.151  1.00  0.00     0.029 A 
ATOM     53  N   UNL A   1      43.168  30.839  28.123  1.00  0.00    -0.354 N 
ATOM     54  N   UNL A   1      46.983  30.130  28.633  1.00  0.00    -0.248 NA
ATOM     55  C   UNL A   1      48.945  30.957  27.766  1.00  0.00     0.031 C 
ATOM     56  C   UNL A   1      44.189  30.619  30.078  1.00  0.00     0.029 A 
ATOM     57  C   UNL A   1      44.356  31.117  28.796  1.00  0.00     0.049 A 
ATOM     58  H   UNL A   1      42.964  31.139  27.208  1.00  0.00     0.167 HD
ATOM     59  C   UNL A   1      46.697  31.385  28.192  1.00  0.00     0.074 A 
ATOM     60  C   UNL A   1      47.986  31.896  27.747  1.00  0.00     0.031 C 
ATOM     61  C   UNL A   1      45.421  31.869  28.132  1.00  0.00     0.034 A 
BRANCH  48  62
ATOM     62  C   UNL A   1      39.813  29.239  28.906  1.00  0.00     0.023 A 
ATOM     63  C   UNL A   1      38.728  29.311  28.003  1.00  0.00     0.012 A 
ATOM     64  C   UNL A   1      39.470  29.109  30.275  1.00  0.00     0.148 A 
ATOM     65  C   UNL A   1      37.396  29.346  28.421  1.00  0.00     0.002 A 
ATOM     66  C   UNL A   1      38.137  29.193  30.699  1.00  0.00     0.091 A 
ATOM     67  F   UNL A   1      40.419  28.822  31.174  1.00  0.00    -0.205 F 
ATOM     68  C   UNL A   1      37.099  29.314  29.772  1.00  0.00     0.022 A 
BRANCH  66  69
ATOM     69  S   UNL A   1      37.659  29.205  32.438  1.00  0.00     0.127 S 
ATOM     70  O   UNL A   1      36.284  29.706  32.380  1.00  0.00    -0.237 OA
ATOM     71  O   UNL A   1      37.774  27.795  32.804  1.00  0.00    -0.237 OA
ATOM     72  O   UNL A   1      38.588  30.109  33.106  1.00  0.00    -0.744 OA
ENDBRANCH  66  69
ENDBRANCH  48  62
BRANCH  49  73
ATOM     73  C   UNL A   1      49.428  27.716  27.220  1.00  0.00     0.023 A 
ATOM     74  C   UNL A   1      50.436  26.753  27.489  1.00  0.00     0.012 A 
ATOM     75  C   UNL A   1      48.805  27.680  25.958  1.00  0.00     0.148 A 
ATOM     76  C   UNL A   1      50.719  25.720  26.586  1.00  0.00     0.002 A 
ATOM     77  C   UNL A   1      49.070  26.629  25.080  1.00  0.00     0.091 A 
ATOM     78  F   UNL A   1      47.896  28.611  25.647  1.00  0.00    -0.205 F 
ATOM     79  C   UNL A   1      50.011  25.639  25.393  1.00  0.00     0.022 A 
BRANCH  77  80
ATOM     80  S   UNL A   1      48.039  26.414  23.622  1.00  0.00     0.127 S 
ATOM     81  O   UNL A   1      48.903  26.904  22.545  1.00  0.00    -0.237 OA
ATOM     82  O   UNL A   1      47.810  24.977  23.587  1.00  0.00    -0.237 OA
ATOM     83  O   UNL A   1      46.896  27.264  23.931  1.00  0.00    -0.744 OA
ENDBRANCH  77  80
ENDBRANCH  49  73
BRANCH  61  84
ATOM     84  C   UNL A   1      45.081  33.143  27.413  1.00  0.00     0.023 A 
ATOM     85  C   UNL A   1      45.160  33.246  26.011  1.00  0.00     0.012 A 
ATOM     86  C   UNL A   1      44.543  34.241  28.120  1.00  0.00     0.148 A 
ATOM     87  C   UNL A   1      44.841  34.432  25.350  1.00  0.00     0.002 A 
ATOM     88  C   UNL A   1      44.102  35.367  27.442  1.00  0.00     0.091 A 
ATOM     89  F   UNL A   1      44.472  34.203  29.459  1.00  0.00    -0.205 F 
ATOM     90  C   UNL A   1      44.296  35.490  26.064  1.00  0.00     0.022 A 
BRANCH  88  91
ATOM     91  S   UNL A   1      43.142  36.620  28.296  1.00  0.00     0.127 S 
ATOM     92  O   UNL A   1      44.123  37.173  29.226  1.00  0.00    -0.237 OA
ATOM     93  O   UNL A   1      42.758  37.521  27.208  1.00  0.00    -0.237 OA
ATOM     94  O   UNL A   1      42.025  35.897  28.890  1.00  0.00    -0.744 OA
ENDBRANCH  88  91
ENDBRANCH  61  84
ENDBRANCH  35  36
ENDBRANCH  28  30
ENDBRANCH  27  28
ENDBRANCH  26  27
ENDBRANCH   1  26
TORSDOF 17
ENDMDL
MODEL 2
REMARK VINA RESULT:     -12.5      3.930     10.020
REMARK SMILES Cc1ccc(N2C(=O)C[C@H](Sc3ccccc3C(=O)OCCOC(=O)c3ccc(-c4c5nc(c(-c6cccc(S(=O)(=O)[O-])c6F)c6ccc([nH]6)c(-c6cccc(S(=O)(=O)[O-])c6F)c6nc(c(-c7cccc(S(=O)(=O)[O-])c7F)c7ccc4[nH]7)C=C6)C=C5)cc3)C2=O)cc1
REMARK SMILES IDX 21 1 20 2 18 3 19 4 17 5 12 6 13 7 14 8 16 9 15 10 11 11
REMARK SMILES IDX 10 12 6 13 7 14 89 15 8 16 9 17 90 18 5 19 1 20 2 21 3 22
REMARK SMILES IDX 92 23 4 24 91 25 22 26 23 27 24 28 25 29 26 30 27 31 88 32
REMARK SMILES IDX 28 33 87 34 29 35 30 36 31 37 81 38 32 39 86 40 80 41 82 42
REMARK SMILES IDX 33 43 85 44 79 45 78 46 34 48 66 49 46 50 65 51 47 52 50 53
REMARK SMILES IDX 64 54 83 55 48 56 49 57 63 59 84 60 51 61 35 62 36 63 44 64
REMARK SMILES IDX 37 65 39 66 45 67 38 68 40 69 41 70 42 71 43 72 67 73 68 74
REMARK SMILES IDX 76 75 69 76 71 77 77 78 70 79 72 80 73 81 74 82 75 83 52 84
REMARK SMILES IDX 53 85 61 86 54 87 56 88 62 89 55 90 57 91 58 92 59 93 60 94
REMARK H PARENT 82 47 50 58
REMARK Flexibility Score: inf
ROOT
ATOM      1  C   UNL A   1      32.274  29.138  27.269  1.00  0.00     0.275 C 
ENDROOT
BRANCH   1   2
ATOM      2  O   UNL A   1      32.321  28.116  26.246  1.00  0.00    -0.458 OA
BRANCH   2   3
ATOM      3  C   UNL A   1      31.597  28.268  25.106  1.00  0.00     0.339 C 
ATOM      4  O   UNL A   1      30.968  29.272  24.796  1.00  0.00    -0.246 OA
BRANCH   3   5
ATOM      5  C   UNL A   1      31.912  27.115  24.223  1.00  0.00     0.073 A 
ATOM      6  C   UNL A   1      32.374  25.819  24.583  1.00  0.00     0.023 A 
ATOM      7  C   UNL A   1      32.408  24.864  23.535  1.00  0.00     0.016 A 
ATOM      8  C   UNL A   1      31.973  25.155  22.229  1.00  0.00     0.001 A 
ATOM      9  C   UNL A   1      31.533  27.404  22.891  1.00  0.00     0.017 A 
ATOM     10  C   UNL A   1      31.536  26.429  21.907  1.00  0.00     0.001 A 
BRANCH   6  11
ATOM     11  S   UNL A   1      32.221  25.043  26.191  1.00  0.00    -0.111 SA
BRANCH  11  12
ATOM     12  C   UNL A   1      31.167  23.413  26.577  1.00  0.00     0.151 C 
ATOM     13  N   UNL A   1      32.997  22.141  25.944  1.00  0.00    -0.250 N 
ATOM     14  C   UNL A   1      32.045  21.810  25.024  1.00  0.00     0.235 C 
ATOM     15  C   UNL A   1      32.401  22.645  27.085  1.00  0.00     0.247 C 
ATOM     16  O   UNL A   1      32.168  21.101  24.034  1.00  0.00    -0.274 OA
ATOM     17  C   UNL A   1      30.736  22.274  25.629  1.00  0.00     0.126 C 
ATOM     18  O   UNL A   1      32.791  22.566  28.240  1.00  0.00    -0.273 OA
BRANCH  13  19
ATOM     19  C   UNL A   1      34.377  22.207  25.724  1.00  0.00     0.052 A 
ATOM     20  C   UNL A   1      38.676  22.297  25.708  1.00  0.00     0.044 C 
ATOM     21  C   UNL A   1      37.179  22.292  25.700  1.00  0.00    -0.051 A 
ATOM     22  C   UNL A   1      36.493  21.074  25.590  1.00  0.00     0.005 A 
ATOM     23  C   UNL A   1      36.450  23.478  25.807  1.00  0.00     0.005 A 
ATOM     24  C   UNL A   1      35.102  21.031  25.631  1.00  0.00     0.027 A 
ATOM     25  C   UNL A   1      35.053  23.435  25.796  1.00  0.00     0.027 A 
ENDBRANCH  13  19
ENDBRANCH  11  12
ENDBRANCH   6  11
ENDBRANCH   3   5
ENDBRANCH   2   3
ENDBRANCH   1   2
BRANCH   1  26
ATOM     26  C   UNL A   1      33.391  30.213  27.218  1.00  0.00     0.275 C 
BRANCH  26  27
ATOM     27  O   UNL A   1      34.645  29.807  27.785  1.00  0.00    -0.458 OA
BRANCH  27  28
ATOM     28  C   UNL A   1      35.532  30.825  27.801  1.00  0.00     0.338 C 
ATOM     29  O   UNL A   1      35.232  32.003  27.769  1.00  0.00    -0.246 OA
BRANCH  28  30
ATOM     30  C   UNL A   1      36.807  30.384  28.370  1.00  0.00     0.060 A 
ATOM     31  C   UNL A   1      36.796  29.565  29.523  1.00  0.00     0.016 A 
ATOM     32  C   UNL A   1      37.865  30.394  27.468  1.00  0.00     0.016 A 
ATOM     33  C   UNL A   1      37.855  28.716  29.752  1.00  0.00     0.010 A 
ATOM     34  C   UNL A   1      38.780  29.403  27.565  1.00  0.00     0.010 A 
ATOM     35  C   UNL A   1      38.840  28.693  28.776  1.00  0.00    -0.014 A 
BRANCH  35  36
ATOM     36  C   UNL A   1      40.217  28.392  29.096  1.00  0.00     0.031 A 
ATOM     37  C   UNL A   1      40.744  27.107  28.668  1.00  0.00     0.074 A 
ATOM     38  C   UNL A   1      40.828  29.565  29.393  1.00  0.00     0.049 A 
ATOM     39  N   UNL A   1      41.683  26.482  29.281  1.00  0.00    -0.248 NA
ATOM     40  C   UNL A   1      40.153  26.341  27.564  1.00  0.00     0.031 C 
ATOM     41  C   UNL A   1      42.135  30.096  29.081  1.00  0.00     0.029 A 
ATOM     42  N   UNL A   1      40.185  30.637  30.038  1.00  0.00    -0.354 N 
ATOM     43  C   UNL A   1      42.110  25.533  28.376  1.00  0.00     0.074 A 
ATOM     44  C   UNL A   1      40.986  25.298  27.500  1.00  0.00     0.031 C 
ATOM     45  C   UNL A   1      42.286  31.268  29.742  1.00  0.00     0.029 A 
ATOM     46  C   UNL A   1      41.138  31.444  30.633  1.00  0.00     0.049 A 
ATOM     47  H   UNL A   1      39.213  30.790  30.062  1.00  0.00     0.167 HD
ATOM     48  C   UNL A   1      43.450  25.384  28.178  1.00  0.00     0.034 A 
ATOM     49  C   UNL A   1      41.143  31.566  31.996  1.00  0.00     0.034 A 
ATOM     50  C   UNL A   1      44.174  26.427  28.942  1.00  0.00     0.049 A 
ATOM     51  C   UNL A   1      42.298  30.751  32.547  1.00  0.00     0.074 A 
ATOM     52  C   UNL A   1      44.684  27.656  28.546  1.00  0.00     0.029 A 
ATOM     53  N   UNL A   1      44.101  26.474  30.333  1.00  0.00    -0.354 N 
ATOM     54  N   UNL A   1      43.006  29.916  31.839  1.00  0.00    -0.248 NA
ATOM     55  C   UNL A   1      42.692  30.769  33.951  1.00  0.00     0.031 C 
ATOM     56  C   UNL A   1      44.864  28.458  29.706  1.00  0.00     0.029 A 
ATOM     57  C   UNL A   1      44.451  27.735  30.812  1.00  0.00     0.049 A 
ATOM     58  H   UNL A   1      43.835  25.717  30.903  1.00  0.00     0.167 HD
ATOM     59  C   UNL A   1      43.778  29.161  32.665  1.00  0.00     0.074 A 
ATOM     60  C   UNL A   1      43.622  29.800  33.964  1.00  0.00     0.031 C 
ATOM     61  C   UNL A   1      44.401  28.019  32.246  1.00  0.00     0.034 A 
BRANCH  48  62
ATOM     62  C   UNL A   1      44.077  24.652  27.000  1.00  0.00     0.023 A 
ATOM     63  C   UNL A   1      44.811  25.436  26.082  1.00  0.00     0.012 A 
ATOM     64  C   UNL A   1      44.021  23.264  26.722  1.00  0.00     0.148 A 
ATOM     65  C   UNL A   1      45.377  24.909  24.919  1.00  0.00     0.002 A 
ATOM     66  C   UNL A   1      44.545  22.742  25.531  1.00  0.00     0.091 A 
ATOM     67  F   UNL A   1      43.533  22.420  27.638  1.00  0.00    -0.205 F 
ATOM     68  C   UNL A   1      45.221  23.565  24.627  1.00  0.00     0.022 A 
BRANCH  66  69
ATOM     69  S   UNL A   1      44.352  21.015  25.046  1.00  0.00     0.127 S 
ATOM     70  O   UNL A   1      44.521  21.079  23.593  1.00  0.00    -0.237 OA
ATOM     71  O   UNL A   1      45.452  20.366  25.756  1.00  0.00    -0.237 OA
ATOM     72  O   UNL A   1      43.012  20.625  25.468  1.00  0.00    -0.744 OA
ENDBRANCH  66  69
ENDBRANCH  48  62
BRANCH  49  73
ATOM     73  C   UNL A   1      39.755  31.543  32.607  1.00  0.00     0.023 A 
ATOM     74  C   UNL A   1      39.351  30.371  33.302  1.00  0.00     0.012 A 
ATOM     75  C   UNL A   1      39.046  32.732  32.858  1.00  0.00     0.148 A 
ATOM     76  C   UNL A   1      38.367  30.417  34.298  1.00  0.00     0.002 A 
ATOM     77  C   UNL A   1      38.090  32.774  33.874  1.00  0.00     0.091 A 
ATOM     78  F   UNL A   1      39.358  33.840  32.175  1.00  0.00    -0.205 F 
ATOM     79  C   UNL A   1      37.759  31.627  34.607  1.00  0.00     0.022 A 
BRANCH  77  80
ATOM     80  S   UNL A   1      37.429  34.361  34.401  1.00  0.00     0.127 S 
ATOM     81  O   UNL A   1      36.462  33.977  35.432  1.00  0.00    -0.237 OA
ATOM     82  O   UNL A   1      38.601  35.053  34.918  1.00  0.00    -0.237 OA
ATOM     83  O   UNL A   1      36.845  34.871  33.166  1.00  0.00    -0.744 OA
ENDBRANCH  77  80
ENDBRANCH  49  73
BRANCH  61  84
ATOM     84  C   UNL A   1      45.035  27.055  33.208  1.00  0.00     0.023 A 
ATOM     85  C   UNL A   1      46.412  27.099  33.502  1.00  0.00     0.012 A 
ATOM     86  C   UNL A   1      44.236  26.157  33.949  1.00  0.00     0.148 A 
ATOM     87  C   UNL A   1      46.992  26.202  34.398  1.00  0.00     0.002 A 
ATOM     88  C   UNL A   1      44.801  25.362  34.935  1.00  0.00     0.091 A 
ATOM     89  F   UNL A   1      42.924  26.058  33.688  1.00  0.00    -0.205 F 
ATOM     90  C   UNL A   1      46.184  25.342  35.128  1.00  0.00     0.022 A 
BRANCH  88  91
ATOM     91  S   UNL A   1      43.755  24.458  36.078  1.00  0.00     0.127 S 
ATOM     92  O   UNL A   1      44.733  23.887  37.001  1.00  0.00    -0.237 OA
ATOM     93  O   UNL A   1      42.922  25.518  36.652  1.00  0.00    -0.237 OA
ATOM     94  O   UNL A   1      43.021  23.511  35.248  1.00  0.00    -0.744 OA
ENDBRANCH  88  91
ENDBRANCH  61  84
ENDBRANCH  35  36
ENDBRANCH  28  30
ENDBRANCH  27  28
ENDBRANCH  26  27
ENDBRANCH   1  26
TORSDOF 17
ENDMDL
MODEL 3
REMARK VINA RESULT:     -12.5      4.169      6.501
REMARK SMILES Cc1ccc(N2C(=O)C[C@H](Sc3ccccc3C(=O)OCCOC(=O)c3ccc(-c4c5nc(c(-c6cccc(S(=O)(=O)[O-])c6F)c6ccc([nH]6)c(-c6cccc(S(=O)(=O)[O-])c6F)c6nc(c(-c7cccc(S(=O)(=O)[O-])c7F)c7ccc4[nH]7)C=C6)C=C5)cc3)C2=O)cc1
REMARK SMILES IDX 21 1 20 2 18 3 19 4 17 5 12 6 13 7 14 8 16 9 15 10 11 11
REMARK SMILES IDX 10 12 6 13 7 14 89 15 8 16 9 17 90 18 5 19 1 20 2 21 3 22
REMARK SMILES IDX 92 23 4 24 91 25 22 26 23 27 24 28 25 29 26 30 27 31 88 32
REMARK SMILES IDX 28 33 87 34 29 35 30 36 31 37 81 38 32 39 86 40 80 41 82 42
REMARK SMILES IDX 33 43 85 44 79 45 78 46 34 48 66 49 46 50 65 51 47 52 50 53
REMARK SMILES IDX 64 54 83 55 48 56 49 57 63 59 84 60 51 61 35 62 36 63 44 64
REMARK SMILES IDX 37 65 39 66 45 67 38 68 40 69 41 70 42 71 43 72 67 73 68 74
REMARK SMILES IDX 76 75 69 76 71 77 77 78 70 79 72 80 73 81 74 82 75 83 52 84
REMARK SMILES IDX 53 85 61 86 54 87 56 88 62 89 55 90 57 91 58 92 59 93 60 94
REMARK H PARENT 82 47 50 58
REMARK Flexibility Score: inf
ROOT
ATOM      1  C   UNL A   1      36.408  23.707  25.143  1.00  0.00     0.275 C 
ENDROOT
BRANCH   1   2
ATOM      2  O   UNL A   1      35.154  24.307  25.543  1.00  0.00    -0.458 OA
BRANCH   2   3
ATOM      3  C   UNL A   1      34.112  24.339  24.671  1.00  0.00     0.339 C 
ATOM      4  O   UNL A   1      34.200  24.570  23.472  1.00  0.00    -0.246 OA
BRANCH   3   5
ATOM      5  C   UNL A   1      32.920  23.810  25.384  1.00  0.00     0.073 A 
ATOM      6  C   UNL A   1      32.040  24.490  26.271  1.00  0.00     0.023 A 
ATOM      7  C   UNL A   1      30.876  23.773  26.653  1.00  0.00     0.016 A 
ATOM      8  C   UNL A   1      30.580  22.490  26.159  1.00  0.00     0.001 A 
ATOM      9  C   UNL A   1      32.632  22.497  24.944  1.00  0.00     0.017 A 
ATOM     10  C   UNL A   1      31.461  21.850  25.304  1.00  0.00     0.001 A 
BRANCH   6  11
ATOM     11  S   UNL A   1      31.802  26.263  26.383  1.00  0.00    -0.111 SA
BRANCH  11  12
ATOM     12  C   UNL A   1      33.242  27.594  26.647  1.00  0.00     0.151 C 
ATOM     13  N   UNL A   1      32.330  28.848  24.926  1.00  0.00    -0.250 N 
ATOM     14  C   UNL A   1      33.562  28.503  24.450  1.00  0.00     0.235 C 
ATOM     15  C   UNL A   1      32.316  28.775  26.307  1.00  0.00     0.247 C 
ATOM     16  O   UNL A   1      34.024  28.708  23.336  1.00  0.00    -0.274 OA
ATOM     17  C   UNL A   1      34.343  28.059  25.670  1.00  0.00     0.126 C 
ATOM     18  O   UNL A   1      31.664  29.447  27.093  1.00  0.00    -0.273 OA
BRANCH  13  19
ATOM     19  C   UNL A   1      31.167  29.021  24.169  1.00  0.00     0.052 A 
ATOM     20  C   UNL A   1      27.262  29.469  22.424  1.00  0.00     0.044 C 
ATOM     21  C   UNL A   1      28.628  29.291  23.012  1.00  0.00    -0.051 A 
ATOM     22  C   UNL A   1      29.285  30.394  23.575  1.00  0.00     0.005 A 
ATOM     23  C   UNL A   1      29.259  28.046  23.015  1.00  0.00     0.005 A 
ATOM     24  C   UNL A   1      30.533  30.252  24.176  1.00  0.00     0.027 A 
ATOM     25  C   UNL A   1      30.534  27.918  23.573  1.00  0.00     0.027 A 
ENDBRANCH  13  19
ENDBRANCH  11  12
ENDBRANCH   6  11
ENDBRANCH   3   5
ENDBRANCH   2   3
ENDBRANCH   1   2
BRANCH   1  26
ATOM     26  C   UNL A   1      37.456  23.490  26.266  1.00  0.00     0.275 C 
BRANCH  26  27
ATOM     27  O   UNL A   1      38.792  23.890  25.929  1.00  0.00    -0.458 OA
BRANCH  27  28
ATOM     28  C   UNL A   1      39.632  23.734  26.975  1.00  0.00     0.338 C 
ATOM     29  O   UNL A   1      40.307  22.744  27.178  1.00  0.00    -0.246 OA
BRANCH  28  30
ATOM     30  C   UNL A   1      40.017  25.039  27.518  1.00  0.00     0.060 A 
ATOM     31  C   UNL A   1      40.471  26.043  26.634  1.00  0.00     0.016 A 
ATOM     32  C   UNL A   1      39.448  25.329  28.754  1.00  0.00     0.016 A 
ATOM     33  C   UNL A   1      40.317  27.366  26.984  1.00  0.00     0.010 A 
ATOM     34  C   UNL A   1      39.086  26.611  28.990  1.00  0.00     0.010 A 
ATOM     35  C   UNL A   1      39.659  27.606  28.182  1.00  0.00    -0.014 A 
BRANCH  35  36
ATOM     36  C   UNL A   1      39.940  28.778  28.978  1.00  0.00     0.031 A 
ATOM     37  C   UNL A   1      38.952  29.845  28.980  1.00  0.00     0.074 A 
ATOM     38  C   UNL A   1      40.906  28.442  29.866  1.00  0.00     0.049 A 
ATOM     39  N   UNL A   1      39.240  31.083  29.162  1.00  0.00    -0.248 NA
ATOM     40  C   UNL A   1      37.543  29.615  28.640  1.00  0.00     0.031 C 
ATOM     41  C   UNL A   1      41.111  28.759  31.261  1.00  0.00     0.029 A 
ATOM     42  N   UNL A   1      41.942  27.532  29.583  1.00  0.00    -0.354 N 
ATOM     43  C   UNL A   1      38.029  31.678  29.444  1.00  0.00     0.074 A 
ATOM     44  C   UNL A   1      37.029  30.833  28.835  1.00  0.00     0.031 C 
ATOM     45  C   UNL A   1      42.317  28.273  31.635  1.00  0.00     0.029 A 
ATOM     46  C   UNL A   1      43.000  27.770  30.442  1.00  0.00     0.049 A 
ATOM     47  H   UNL A   1      41.918  26.837  28.886  1.00  0.00     0.167 HD
ATOM     48  C   UNL A   1      37.960  32.533  30.504  1.00  0.00     0.034 A 
ATOM     49  C   UNL A   1      44.194  28.186  29.919  1.00  0.00     0.034 A 
ATOM     50  C   UNL A   1      39.257  32.527  31.220  1.00  0.00     0.049 A 
ATOM     51  C   UNL A   1      44.357  29.666  30.208  1.00  0.00     0.074 A 
ATOM     52  C   UNL A   1      39.668  31.836  32.351  1.00  0.00     0.029 A 
ATOM     53  N   UNL A   1      40.423  32.957  30.590  1.00  0.00    -0.354 N 
ATOM     54  N   UNL A   1      43.407  30.426  30.677  1.00  0.00    -0.248 NA
ATOM     55  C   UNL A   1      45.578  30.409  29.923  1.00  0.00     0.031 C 
ATOM     56  C   UNL A   1      41.089  31.808  32.365  1.00  0.00     0.029 A 
ATOM     57  C   UNL A   1      41.555  32.465  31.238  1.00  0.00     0.049 A 
ATOM     58  H   UNL A   1      40.446  33.532  29.792  1.00  0.00     0.167 HD
ATOM     59  C   UNL A   1      43.778  31.731  30.578  1.00  0.00     0.074 A 
ATOM     60  C   UNL A   1      45.181  31.662  30.195  1.00  0.00     0.031 C 
ATOM     61  C   UNL A   1      42.889  32.760  30.717  1.00  0.00     0.034 A 
BRANCH  48  62
ATOM     62  C   UNL A   1      36.668  33.000  31.158  1.00  0.00     0.023 A 
ATOM     63  C   UNL A   1      36.371  32.466  32.432  1.00  0.00     0.012 A 
ATOM     64  C   UNL A   1      35.727  33.925  30.641  1.00  0.00     0.148 A 
ATOM     65  C   UNL A   1      35.186  32.749  33.115  1.00  0.00     0.002 A 
ATOM     66  C   UNL A   1      34.515  34.172  31.301  1.00  0.00     0.091 A 
ATOM     67  F   UNL A   1      36.024  34.637  29.547  1.00  0.00    -0.205 F 
ATOM     68  C   UNL A   1      34.243  33.581  32.538  1.00  0.00     0.022 A 
BRANCH  66  69
ATOM     69  S   UNL A   1      33.210  35.206  30.607  1.00  0.00     0.127 S 
ATOM     70  O   UNL A   1      32.174  35.135  31.640  1.00  0.00    -0.237 OA
ATOM     71  O   UNL A   1      33.867  36.506  30.496  1.00  0.00    -0.237 OA
ATOM     72  O   UNL A   1      32.829  34.581  29.346  1.00  0.00    -0.744 OA
ENDBRANCH  66  69
ENDBRANCH  48  62
BRANCH  49  73
ATOM     73  C   UNL A   1      44.505  27.573  28.567  1.00  0.00     0.023 A 
ATOM     74  C   UNL A   1      44.109  28.286  27.404  1.00  0.00     0.012 A 
ATOM     75  C   UNL A   1      45.491  26.578  28.423  1.00  0.00     0.148 A 
ATOM     76  C   UNL A   1      44.761  28.102  26.177  1.00  0.00     0.002 A 
ATOM     77  C   UNL A   1      46.156  26.426  27.206  1.00  0.00     0.091 A 
ATOM     78  F   UNL A   1      45.843  25.844  29.485  1.00  0.00    -0.205 F 
ATOM     79  C   UNL A   1      45.808  27.193  26.087  1.00  0.00     0.022 A 
BRANCH  77  80
ATOM     80  S   UNL A   1      47.622  25.388  27.124  1.00  0.00     0.127 S 
ATOM     81  O   UNL A   1      48.080  25.591  25.747  1.00  0.00    -0.237 OA
ATOM     82  O   UNL A   1      48.498  25.971  28.130  1.00  0.00    -0.237 OA
ATOM     83  O   UNL A   1      47.074  24.066  27.403  1.00  0.00    -0.744 OA
ENDBRANCH  77  80
ENDBRANCH  49  73
BRANCH  61  84
ATOM     84  C   UNL A   1      43.241  34.175  30.356  1.00  0.00     0.023 A 
ATOM     85  C   UNL A   1      43.663  35.104  31.326  1.00  0.00     0.012 A 
ATOM     86  C   UNL A   1      43.285  34.576  29.003  1.00  0.00     0.148 A 
ATOM     87  C   UNL A   1      43.989  36.415  30.983  1.00  0.00     0.002 A 
ATOM     88  C   UNL A   1      43.741  35.840  28.658  1.00  0.00     0.091 A 
ATOM     89  F   UNL A   1      42.868  33.737  28.043  1.00  0.00    -0.205 F 
ATOM     90  C   UNL A   1      44.044  36.781  29.645  1.00  0.00     0.022 A 
BRANCH  88  91
ATOM     91  S   UNL A   1      44.089  36.240  26.945  1.00  0.00     0.127 S 
ATOM     92  O   UNL A   1      42.809  35.959  26.299  1.00  0.00    -0.237 OA
ATOM     93  O   UNL A   1      44.437  37.661  27.015  1.00  0.00    -0.237 OA
ATOM     94  O   UNL A   1      45.202  35.374  26.576  1.00  0.00    -0.744 OA
ENDBRANCH  88  91
ENDBRANCH  61  84
ENDBRANCH  35  36
ENDBRANCH  28  30
ENDBRANCH  27  28
ENDBRANCH  26  27
ENDBRANCH   1  26
TORSDOF 17
ENDMDL
