MODEL 1
REMARK VINA RESULT:     -12.7      0.000      0.000
REMARK SMILES Cc1ccc(Nc2c(Cl)cccc2Cl)c(CC(=O)OCCOC(=O)c2ccc(-c3c4nc(c(-c5cccc(S(=O)(=O)[O-])c5F)c5ccc([nH]5)c(-c5cccc(S(=O)(=O)[O-])c5F)c5nc(c(-c6cccc(S(=O)(=O)[O-])c6F)c6ccc3[nH]6)C=C5)C=C4)cc2)c1
REMARK SMILES IDX 20 1 19 2 17 3 18 4 16 5 15 6 1 7 2 8 3 9 88 10 4 11 5 12
REMARK SMILES IDX 6 13 7 15 8 16 13 17 9 18 10 19 12 20 14 21 11 22 21 23
REMARK SMILES IDX 22 24 23 25 24 26 25 27 26 28 87 29 27 30 86 31 28 32 29 33
REMARK SMILES IDX 30 34 80 35 31 36 85 37 79 38 81 39 32 40 84 41 78 42 77 43
REMARK SMILES IDX 33 45 65 46 45 47 64 48 46 49 49 50 63 51 82 52 47 53 48 54
REMARK SMILES IDX 62 56 83 57 50 58 34 59 35 60 43 61 36 62 38 63 44 64 37 65
REMARK SMILES IDX 39 66 40 67 41 68 42 69 66 70 67 71 75 72 68 73 70 74 76 75
REMARK SMILES IDX 69 76 71 77 72 78 73 79 74 80 51 81 52 82 60 83 53 84 55 85
REMARK SMILES IDX 61 86 54 87 56 88 57 89 58 90 59 91
REMARK H PARENT 6 14 81 44 49 55
REMARK Flexibility Score: inf
ROOT
ATOM      1  C   UNL A   1      32.837  30.547  26.633  1.00  0.00     0.274 C 
ENDROOT
BRANCH   1   2
ATOM      2  O   UNL A   1      31.795  29.840  27.283  1.00  0.00    -0.462 OA
BRANCH   2   3
ATOM      3  C   UNL A   1      31.812  28.489  27.191  1.00  0.00     0.310 C 
ATOM      4  O   UNL A   1      31.400  27.750  28.059  1.00  0.00    -0.252 OA
BRANCH   3   5
ATOM      5  C   UNL A   1      32.353  28.145  25.821  1.00  0.00     0.160 C 
BRANCH   5   6
ATOM      6  C   UNL A   1      31.350  27.598  24.845  1.00  0.00    -0.013 A 
ATOM      7  C   UNL A   1      28.880  29.544  22.769  1.00  0.00     0.044 C 
ATOM      8  C   UNL A   1      29.561  28.380  23.415  1.00  0.00    -0.051 A 
ATOM      9  C   UNL A   1      28.930  27.154  23.605  1.00  0.00     0.005 A 
ATOM     10  C   UNL A   1      30.794  28.581  24.011  1.00  0.00     0.009 A 
ATOM     11  C   UNL A   1      29.586  26.111  24.273  1.00  0.00     0.026 A 
ATOM     12  C   UNL A   1      30.860  26.277  24.820  1.00  0.00     0.042 A 
BRANCH  12  13
ATOM     13  N   UNL A   1      31.534  25.201  25.442  1.00  0.00    -0.353 N 
ATOM     14  H   UNL A   1      31.763  25.352  26.387  1.00  0.00     0.167 HD
BRANCH  13  15
ATOM     15  C   UNL A   1      31.939  23.931  24.928  1.00  0.00     0.076 A 
ATOM     16  C   UNL A   1      32.946  23.777  23.951  1.00  0.00     0.066 A 
ATOM     17  C   UNL A   1      31.478  22.740  25.537  1.00  0.00     0.066 A 
ATOM     18  Cl  UNL A   1      33.730  25.119  23.190  1.00  0.00    -0.082 Cl
ATOM     19  C   UNL A   1      33.385  22.502  23.548  1.00  0.00     0.023 A 
ATOM     20  C   UNL A   1      31.982  21.477  25.192  1.00  0.00     0.023 A 
ATOM     21  Cl  UNL A   1      30.158  22.710  26.647  1.00  0.00    -0.082 Cl
ATOM     22  C   UNL A   1      32.917  21.353  24.177  1.00  0.00     0.003 A 
ENDBRANCH  13  15
ENDBRANCH  12  13
ENDBRANCH   5   6
ENDBRANCH   3   5
ENDBRANCH   2   3
ENDBRANCH   1   2
BRANCH   1  23
ATOM     23  C   UNL A   1      33.933  31.130  27.560  1.00  0.00     0.275 C 
BRANCH  23  24
ATOM     24  O   UNL A   1      35.313  30.591  27.631  1.00  0.00    -0.458 OA
BRANCH  24  25
ATOM     25  C   UNL A   1      36.572  30.979  27.987  1.00  0.00     0.338 C 
ATOM     26  O   UNL A   1      36.861  32.163  28.081  1.00  0.00    -0.246 OA
BRANCH  25  27
ATOM     27  C   UNL A   1      37.513  29.955  28.438  1.00  0.00     0.060 A 
ATOM     28  C   UNL A   1      37.286  29.026  29.470  1.00  0.00     0.016 A 
ATOM     29  C   UNL A   1      38.613  29.823  27.646  1.00  0.00     0.016 A 
ATOM     30  C   UNL A   1      38.180  27.955  29.617  1.00  0.00     0.010 A 
ATOM     31  C   UNL A   1      39.110  28.574  27.487  1.00  0.00     0.010 A 
ATOM     32  C   UNL A   1      39.110  27.760  28.604  1.00  0.00    -0.014 A 
BRANCH  32  33
ATOM     33  C   UNL A   1      40.365  27.026  28.639  1.00  0.00     0.031 A 
ATOM     34  C   UNL A   1      40.413  25.592  28.394  1.00  0.00     0.074 A 
ATOM     35  C   UNL A   1      41.453  27.845  28.645  1.00  0.00     0.049 A 
ATOM     36  N   UNL A   1      41.240  24.812  28.989  1.00  0.00    -0.248 NA
ATOM     37  C   UNL A   1      39.538  24.915  27.439  1.00  0.00     0.031 C 
ATOM     38  C   UNL A   1      42.845  27.645  28.297  1.00  0.00     0.029 A 
ATOM     39  N   UNL A   1      41.424  29.213  28.985  1.00  0.00    -0.354 N 
ATOM     40  C   UNL A   1      41.256  23.649  28.254  1.00  0.00     0.074 A 
ATOM     41  C   UNL A   1      40.068  23.684  27.428  1.00  0.00     0.031 C 
ATOM     42  C   UNL A   1      43.552  28.712  28.740  1.00  0.00     0.029 A 
ATOM     43  C   UNL A   1      42.647  29.567  29.510  1.00  0.00     0.049 A 
ATOM     44  H   UNL A   1      40.655  29.816  28.867  1.00  0.00     0.167 HD
ATOM     45  C   UNL A   1      42.409  22.928  28.186  1.00  0.00     0.034 A 
ATOM     46  C   UNL A   1      42.645  29.855  30.845  1.00  0.00     0.034 A 
ATOM     47  C   UNL A   1      43.507  23.694  28.803  1.00  0.00     0.049 A 
ATOM     48  C   UNL A   1      43.392  28.791  31.600  1.00  0.00     0.074 A 
ATOM     49  C   UNL A   1      44.474  24.517  28.242  1.00  0.00     0.029 A 
ATOM     50  N   UNL A   1      43.490  23.986  30.161  1.00  0.00    -0.354 N 
ATOM     51  N   UNL A   1      43.732  27.644  31.084  1.00  0.00    -0.248 NA
ATOM     52  C   UNL A   1      43.805  28.928  32.987  1.00  0.00     0.031 C 
ATOM     53  C   UNL A   1      44.996  25.349  29.268  1.00  0.00     0.029 A 
ATOM     54  C   UNL A   1      44.355  25.033  30.454  1.00  0.00     0.049 A 
ATOM     55  H   UNL A   1      42.939  23.513  30.827  1.00  0.00     0.167 HD
ATOM     56  C   UNL A   1      44.258  26.844  32.048  1.00  0.00     0.074 A 
ATOM     57  C   UNL A   1      44.371  27.728  33.200  1.00  0.00     0.031 C 
ATOM     58  C   UNL A   1      44.486  25.515  31.828  1.00  0.00     0.034 A 
BRANCH  45  59
ATOM     59  C   UNL A   1      42.647  21.766  27.243  1.00  0.00     0.023 A 
ATOM     60  C   UNL A   1      41.921  20.576  27.484  1.00  0.00     0.012 A 
ATOM     61  C   UNL A   1      43.504  21.761  26.116  1.00  0.00     0.148 A 
ATOM     62  C   UNL A   1      42.078  19.425  26.711  1.00  0.00     0.002 A 
ATOM     63  C   UNL A   1      43.689  20.594  25.361  1.00  0.00     0.091 A 
ATOM     64  F   UNL A   1      44.104  22.899  25.742  1.00  0.00    -0.205 F 
ATOM     65  C   UNL A   1      42.976  19.426  25.659  1.00  0.00     0.022 A 
BRANCH  63  66
ATOM     66  S   UNL A   1      44.871  20.473  24.007  1.00  0.00     0.127 S 
ATOM     67  O   UNL A   1      46.149  20.681  24.695  1.00  0.00    -0.237 OA
ATOM     68  O   UNL A   1      44.660  19.110  23.524  1.00  0.00    -0.237 OA
ATOM     69  O   UNL A   1      44.524  21.537  23.074  1.00  0.00    -0.744 OA
ENDBRANCH  63  66
ENDBRANCH  45  59
BRANCH  46  70
ATOM     70  C   UNL A   1      41.359  30.506  31.328  1.00  0.00     0.023 A 
ATOM     71  C   UNL A   1      40.975  31.746  30.749  1.00  0.00     0.012 A 
ATOM     72  C   UNL A   1      40.392  29.821  32.093  1.00  0.00     0.148 A 
ATOM     73  C   UNL A   1      39.662  32.230  30.844  1.00  0.00     0.002 A 
ATOM     74  C   UNL A   1      39.093  30.333  32.217  1.00  0.00     0.091 A 
ATOM     75  F   UNL A   1      40.714  28.647  32.653  1.00  0.00    -0.205 F 
ATOM     76  C   UNL A   1      38.716  31.515  31.567  1.00  0.00     0.022 A 
BRANCH  74  77
ATOM     77  S   UNL A   1      37.889  29.489  33.258  1.00  0.00     0.127 S 
ATOM     78  O   UNL A   1      38.072  28.080  32.906  1.00  0.00    -0.237 OA
ATOM     79  O   UNL A   1      38.307  29.824  34.614  1.00  0.00    -0.237 OA
ATOM     80  O   UNL A   1      36.626  30.058  32.799  1.00  0.00    -0.744 OA
ENDBRANCH  74  77
ENDBRANCH  46  70
BRANCH  58  81
ATOM     81  C   UNL A   1      44.853  24.532  32.909  1.00  0.00     0.023 A 
ATOM     82  C   UNL A   1      44.039  23.432  33.233  1.00  0.00     0.012 A 
ATOM     83  C   UNL A   1      46.116  24.607  33.543  1.00  0.00     0.148 A 
ATOM     84  C   UNL A   1      44.410  22.507  34.208  1.00  0.00     0.002 A 
ATOM     85  C   UNL A   1      46.541  23.604  34.402  1.00  0.00     0.091 A 
ATOM     86  F   UNL A   1      46.912  25.666  33.336  1.00  0.00    -0.205 F 
ATOM     87  C   UNL A   1      45.673  22.578  34.776  1.00  0.00     0.022 A 
BRANCH  85  88
ATOM     88  S   UNL A   1      48.257  23.505  34.917  1.00  0.00     0.127 S 
ATOM     89  O   UNL A   1      48.359  22.118  35.364  1.00  0.00    -0.237 OA
ATOM     90  O   UNL A   1      48.973  23.801  33.675  1.00  0.00    -0.237 OA
ATOM     91  O   UNL A   1      48.407  24.525  35.948  1.00  0.00    -0.744 OA
ENDBRANCH  85  88
ENDBRANCH  58  81
ENDBRANCH  32  33
ENDBRANCH  25  27
ENDBRANCH  24  25
ENDBRANCH  23  24
ENDBRANCH   1  23
TORSDOF 17
ENDMDL
MODEL 2
REMARK VINA RESULT:     -12.6      1.857      2.294
REMARK SMILES Cc1ccc(Nc2c(Cl)cccc2Cl)c(CC(=O)OCCOC(=O)c2ccc(-c3c4nc(c(-c5cccc(S(=O)(=O)[O-])c5F)c5ccc([nH]5)c(-c5cccc(S(=O)(=O)[O-])c5F)c5nc(c(-c6cccc(S(=O)(=O)[O-])c6F)c6ccc3[nH]6)C=C5)C=C4)cc2)c1
REMARK SMILES IDX 20 1 19 2 17 3 18 4 16 5 15 6 1 7 2 8 3 9 88 10 4 11 5 12
REMARK SMILES IDX 6 13 7 15 8 16 13 17 9 18 10 19 12 20 14 21 11 22 21 23
REMARK SMILES IDX 22 24 23 25 24 26 25 27 26 28 87 29 27 30 86 31 28 32 29 33
REMARK SMILES IDX 30 34 80 35 31 36 85 37 79 38 81 39 32 40 84 41 78 42 77 43
REMARK SMILES IDX 33 45 65 46 45 47 64 48 46 49 49 50 63 51 82 52 47 53 48 54
REMARK SMILES IDX 62 56 83 57 50 58 34 59 35 60 43 61 36 62 38 63 44 64 37 65
REMARK SMILES IDX 39 66 40 67 41 68 42 69 66 70 67 71 75 72 68 73 70 74 76 75
REMARK SMILES IDX 69 76 71 77 72 78 73 79 74 80 51 81 52 82 60 83 53 84 55 85
REMARK SMILES IDX 61 86 54 87 56 88 57 89 58 90 59 91
REMARK H PARENT 6 14 81 44 49 55
REMARK Flexibility Score: inf
ROOT
ATOM      1  C   UNL A   1      34.044  28.438  26.039  1.00  0.00     0.274 C 
ENDROOT
BRANCH   1   2
ATOM      2  O   UNL A   1      33.499  29.347  25.098  1.00  0.00    -0.462 OA
BRANCH   2   3
ATOM      3  C   UNL A   1      32.155  29.334  24.932  1.00  0.00     0.310 C 
ATOM      4  O   UNL A   1      31.367  29.629  25.804  1.00  0.00    -0.252 OA
BRANCH   3   5
ATOM      5  C   UNL A   1      31.891  28.968  23.488  1.00  0.00     0.160 C 
BRANCH   5   6
ATOM      6  C   UNL A   1      30.448  28.770  23.122  1.00  0.00    -0.013 A 
ATOM      7  C   UNL A   1      27.714  31.363  23.099  1.00  0.00     0.044 C 
ATOM      8  C   UNL A   1      28.379  30.025  23.051  1.00  0.00    -0.051 A 
ATOM      9  C   UNL A   1      27.700  28.840  23.318  1.00  0.00     0.005 A 
ATOM     10  C   UNL A   1      29.755  29.974  22.916  1.00  0.00     0.009 A 
ATOM     11  C   UNL A   1      28.380  27.614  23.324  1.00  0.00     0.026 A 
ATOM     12  C   UNL A   1      29.759  27.540  23.120  1.00  0.00     0.042 A 
BRANCH  12  13
ATOM     13  N   UNL A   1      30.424  26.294  23.071  1.00  0.00    -0.353 N 
ATOM     14  H   UNL A   1      30.118  25.693  22.354  1.00  0.00     0.167 HD
BRANCH  13  15
ATOM     15  C   UNL A   1      31.467  25.759  23.889  1.00  0.00     0.076 A 
ATOM     16  C   UNL A   1      32.793  25.588  23.437  1.00  0.00     0.066 A 
ATOM     17  C   UNL A   1      31.253  25.563  25.274  1.00  0.00     0.066 A 
ATOM     18  Cl  UNL A   1      33.280  25.910  21.807  1.00  0.00    -0.082 Cl
ATOM     19  C   UNL A   1      33.812  25.153  24.306  1.00  0.00     0.023 A 
ATOM     20  C   UNL A   1      32.291  25.216  26.152  1.00  0.00     0.023 A 
ATOM     21  Cl  UNL A   1      29.684  25.590  25.988  1.00  0.00    -0.082 Cl
ATOM     22  C   UNL A   1      33.567  24.982  25.664  1.00  0.00     0.003 A 
ENDBRANCH  13  15
ENDBRANCH  12  13
ENDBRANCH   5   6
ENDBRANCH   3   5
ENDBRANCH   2   3
ENDBRANCH   1   2
BRANCH   1  23
ATOM     23  C   UNL A   1      34.414  29.039  27.417  1.00  0.00     0.275 C 
BRANCH  23  24
ATOM     24  O   UNL A   1      35.023  30.382  27.586  1.00  0.00    -0.458 OA
BRANCH  24  25
ATOM     25  C   UNL A   1      36.138  30.968  28.110  1.00  0.00     0.338 C 
ATOM     26  O   UNL A   1      36.147  32.157  28.392  1.00  0.00    -0.246 OA
BRANCH  25  27
ATOM     27  C   UNL A   1      37.253  30.109  28.506  1.00  0.00     0.060 A 
ATOM     28  C   UNL A   1      37.250  29.200  29.580  1.00  0.00     0.016 A 
ATOM     29  C   UNL A   1      38.292  30.106  27.626  1.00  0.00     0.016 A 
ATOM     30  C   UNL A   1      38.302  28.277  29.678  1.00  0.00     0.010 A 
ATOM     31  C   UNL A   1      38.952  28.936  27.459  1.00  0.00     0.010 A 
ATOM     32  C   UNL A   1      39.164  28.177  28.594  1.00  0.00    -0.014 A 
BRANCH  32  33
ATOM     33  C   UNL A   1      40.512  27.634  28.539  1.00  0.00     0.031 A 
ATOM     34  C   UNL A   1      40.752  26.220  28.289  1.00  0.00     0.074 A 
ATOM     35  C   UNL A   1      41.467  28.602  28.472  1.00  0.00     0.049 A 
ATOM     36  N   UNL A   1      41.722  25.573  28.822  1.00  0.00    -0.248 NA
ATOM     37  C   UNL A   1      39.920  25.415  27.395  1.00  0.00     0.031 C 
ATOM     38  C   UNL A   1      42.845  28.604  28.028  1.00  0.00     0.029 A 
ATOM     39  N   UNL A   1      41.262  29.954  28.817  1.00  0.00    -0.354 N 
ATOM     40  C   UNL A   1      41.857  24.419  28.085  1.00  0.00     0.074 A 
ATOM     41  C   UNL A   1      40.623  24.275  27.344  1.00  0.00     0.031 C 
ATOM     42  C   UNL A   1      43.418  29.766  28.424  1.00  0.00     0.029 A 
ATOM     43  C   UNL A   1      42.454  30.486  29.256  1.00  0.00     0.049 A 
ATOM     44  H   UNL A   1      40.407  30.437  28.754  1.00  0.00     0.167 HD
ATOM     45  C   UNL A   1      43.095  23.874  27.936  1.00  0.00     0.034 A 
ATOM     46  C   UNL A   1      42.502  30.781  30.589  1.00  0.00     0.034 A 
ATOM     47  C   UNL A   1      44.110  24.796  28.477  1.00  0.00     0.049 A 
ATOM     48  C   UNL A   1      43.446  29.843  31.288  1.00  0.00     0.074 A 
ATOM     49  C   UNL A   1      44.905  25.746  27.853  1.00  0.00     0.029 A 
ATOM     50  N   UNL A   1      44.144  25.092  29.833  1.00  0.00    -0.354 N 
ATOM     51  N   UNL A   1      43.913  28.753  30.747  1.00  0.00    -0.248 NA
ATOM     52  C   UNL A   1      43.930  30.049  32.643  1.00  0.00     0.031 C 
ATOM     53  C   UNL A   1      45.370  26.653  28.841  1.00  0.00     0.029 A 
ATOM     54  C   UNL A   1      44.866  26.257  30.068  1.00  0.00     0.049 A 
ATOM     55  H   UNL A   1      43.715  24.550  30.535  1.00  0.00     0.167 HD
ATOM     56  C   UNL A   1      44.616  28.046  31.670  1.00  0.00     0.074 A 
ATOM     57  C   UNL A   1      44.678  28.946  32.814  1.00  0.00     0.031 C 
ATOM     58  C   UNL A   1      45.019  26.762  31.431  1.00  0.00     0.034 A 
BRANCH  45  59
ATOM     59  C   UNL A   1      43.434  22.751  26.975  1.00  0.00     0.023 A 
ATOM     60  C   UNL A   1      44.340  23.042  25.930  1.00  0.00     0.012 A 
ATOM     61  C   UNL A   1      42.956  21.420  27.039  1.00  0.00     0.148 A 
ATOM     62  C   UNL A   1      44.704  22.106  24.961  1.00  0.00     0.002 A 
ATOM     63  C   UNL A   1      43.292  20.489  26.045  1.00  0.00     0.091 A 
ATOM     64  F   UNL A   1      42.216  21.037  28.088  1.00  0.00    -0.205 F 
ATOM     65  C   UNL A   1      44.165  20.833  25.006  1.00  0.00     0.022 A 
BRANCH  63  66
ATOM     66  S   UNL A   1      42.605  18.825  25.981  1.00  0.00     0.127 S 
ATOM     67  O   UNL A   1      42.868  18.330  27.335  1.00  0.00    -0.237 OA
ATOM     68  O   UNL A   1      41.194  19.076  25.693  1.00  0.00    -0.237 OA
ATOM     69  O   UNL A   1      43.348  18.124  24.942  1.00  0.00    -0.744 OA
ENDBRANCH  63  66
ENDBRANCH  45  59
BRANCH  46  70
ATOM     70  C   UNL A   1      41.172  31.241  31.162  1.00  0.00     0.023 A 
ATOM     71  C   UNL A   1      40.584  32.422  30.632  1.00  0.00     0.012 A 
ATOM     72  C   UNL A   1      40.359  30.420  31.971  1.00  0.00     0.148 A 
ATOM     73  C   UNL A   1      39.226  32.718  30.815  1.00  0.00     0.002 A 
ATOM     74  C   UNL A   1      39.012  30.745  32.184  1.00  0.00     0.091 A 
ATOM     75  F   UNL A   1      40.874  29.296  32.487  1.00  0.00    -0.205 F 
ATOM     76  C   UNL A   1      38.435  31.870  31.580  1.00  0.00     0.022 A 
BRANCH  74  77
ATOM     77  S   UNL A   1      38.004  29.731  33.279  1.00  0.00     0.127 S 
ATOM     78  O   UNL A   1      36.636  30.083  32.896  1.00  0.00    -0.237 OA
ATOM     79  O   UNL A   1      38.386  28.366  32.939  1.00  0.00    -0.237 OA
ATOM     80  O   UNL A   1      38.394  30.214  34.601  1.00  0.00    -0.744 OA
ENDBRANCH  74  77
ENDBRANCH  46  70
BRANCH  58  81
ATOM     81  C   UNL A   1      45.599  25.851  32.481  1.00  0.00     0.023 A 
ATOM     82  C   UNL A   1      46.984  25.721  32.680  1.00  0.00     0.012 A 
ATOM     83  C   UNL A   1      44.750  25.197  33.406  1.00  0.00     0.148 A 
ATOM     84  C   UNL A   1      47.507  24.904  33.683  1.00  0.00     0.002 A 
ATOM     85  C   UNL A   1      45.277  24.507  34.488  1.00  0.00     0.091 A 
ATOM     86  F   UNL A   1      43.420  25.219  33.233  1.00  0.00    -0.205 F 
ATOM     87  C   UNL A   1      46.654  24.316  34.605  1.00  0.00     0.022 A 
BRANCH  85  88
ATOM     88  S   UNL A   1      44.223  23.992  35.847  1.00  0.00     0.127 S 
ATOM     89  O   UNL A   1      43.345  23.022  35.198  1.00  0.00    -0.237 OA
ATOM     90  O   UNL A   1      45.186  23.413  36.786  1.00  0.00    -0.237 OA
ATOM     91  O   UNL A   1      43.589  25.215  36.325  1.00  0.00    -0.744 OA
ENDBRANCH  85  88
ENDBRANCH  58  81
ENDBRANCH  32  33
ENDBRANCH  25  27
ENDBRANCH  24  25
ENDBRANCH  23  24
ENDBRANCH   1  23
TORSDOF 17
ENDMDL
MODEL 3
REMARK VINA RESULT:     -12.4      1.875      3.288
REMARK SMILES Cc1ccc(Nc2c(Cl)cccc2Cl)c(CC(=O)OCCOC(=O)c2ccc(-c3c4nc(c(-c5cccc(S(=O)(=O)[O-])c5F)c5ccc([nH]5)c(-c5cccc(S(=O)(=O)[O-])c5F)c5nc(c(-c6cccc(S(=O)(=O)[O-])c6F)c6ccc3[nH]6)C=C5)C=C4)cc2)c1
REMARK SMILES IDX 20 1 19 2 17 3 18 4 16 5 15 6 1 7 2 8 3 9 88 10 4 11 5 12
REMARK SMILES IDX 6 13 7 15 8 16 13 17 9 18 10 19 12 20 14 21 11 22 21 23
REMARK SMILES IDX 22 24 23 25 24 26 25 27 26 28 87 29 27 30 86 31 28 32 29 33
REMARK SMILES IDX 30 34 80 35 31 36 85 37 79 38 81 39 32 40 84 41 78 42 77 43
REMARK SMILES IDX 33 45 65 46 45 47 64 48 46 49 49 50 63 51 82 52 47 53 48 54
REMARK SMILES IDX 62 56 83 57 50 58 34 59 35 60 43 61 36 62 38 63 44 64 37 65
REMARK SMILES IDX 39 66 40 67 41 68 42 69 66 70 67 71 75 72 68 73 70 74 76 75
REMARK SMILES IDX 69 76 71 77 72 78 73 79 74 80 51 81 52 82 60 83 53 84 55 85
REMARK SMILES IDX 61 86 54 87 56 88 57 89 58 90 59 91
REMARK H PARENT 6 14 81 44 49 55
REMARK Flexibility Score: inf
ROOT
ATOM      1  C   UNL A   1      32.757  29.416  26.178  1.00  0.00     0.274 C 
ENDROOT
BRANCH   1   2
ATOM      2  O   UNL A   1      32.862  28.049  26.538  1.00  0.00    -0.462 OA
BRANCH   2   3
ATOM      3  C   UNL A   1      33.474  27.222  25.658  1.00  0.00     0.310 C 
ATOM      4  O   UNL A   1      34.049  27.606  24.662  1.00  0.00    -0.252 OA
BRANCH   3   5
ATOM      5  C   UNL A   1      33.348  25.818  26.207  1.00  0.00     0.160 C 
BRANCH   5   6
ATOM      6  C   UNL A   1      33.903  24.728  25.336  1.00  0.00    -0.013 A 
ATOM      7  C   UNL A   1      37.478  23.555  25.133  1.00  0.00     0.044 C 
ATOM      8  C   UNL A   1      36.032  23.717  24.787  1.00  0.00    -0.051 A 
ATOM      9  C   UNL A   1      35.532  23.453  23.515  1.00  0.00     0.005 A 
ATOM     10  C   UNL A   1      35.195  24.322  25.707  1.00  0.00     0.009 A 
ATOM     11  C   UNL A   1      34.181  23.680  23.220  1.00  0.00     0.026 A 
ATOM     12  C   UNL A   1      33.306  24.227  24.161  1.00  0.00     0.042 A 
BRANCH  12  13
ATOM     13  N   UNL A   1      31.934  24.399  23.870  1.00  0.00    -0.353 N 
ATOM     14  H   UNL A   1      31.401  23.572  23.903  1.00  0.00     0.167 HD
BRANCH  13  15
ATOM     15  C   UNL A   1      31.189  25.571  23.535  1.00  0.00     0.076 A 
ATOM     16  C   UNL A   1      30.237  26.155  24.398  1.00  0.00     0.066 A 
ATOM     17  C   UNL A   1      31.529  26.324  22.386  1.00  0.00     0.066 A 
ATOM     18  Cl  UNL A   1      29.789  25.455  25.916  1.00  0.00    -0.082 Cl
ATOM     19  C   UNL A   1      29.600  27.368  24.072  1.00  0.00     0.023 A 
ATOM     20  C   UNL A   1      30.955  27.574  22.110  1.00  0.00     0.023 A 
ATOM     21  Cl  UNL A   1      32.565  25.717  21.147  1.00  0.00    -0.082 Cl
ATOM     22  C   UNL A   1      29.969  28.085  22.939  1.00  0.00     0.003 A 
ENDBRANCH  13  15
ENDBRANCH  12  13
ENDBRANCH   5   6
ENDBRANCH   3   5
ENDBRANCH   2   3
ENDBRANCH   1   2
BRANCH   1  23
ATOM     23  C   UNL A   1      33.597  30.401  27.029  1.00  0.00     0.275 C 
BRANCH  23  24
ATOM     24  O   UNL A   1      35.052  30.236  27.270  1.00  0.00    -0.458 OA
BRANCH  24  25
ATOM     25  C   UNL A   1      36.079  30.841  27.934  1.00  0.00     0.338 C 
ATOM     26  O   UNL A   1      35.988  32.003  28.303  1.00  0.00    -0.246 OA
BRANCH  25  27
ATOM     27  C   UNL A   1      37.210  30.019  28.362  1.00  0.00     0.060 A 
ATOM     28  C   UNL A   1      37.235  29.180  29.490  1.00  0.00     0.016 A 
ATOM     29  C   UNL A   1      38.232  29.969  27.464  1.00  0.00     0.016 A 
ATOM     30  C   UNL A   1      38.297  28.273  29.627  1.00  0.00     0.010 A 
ATOM     31  C   UNL A   1      38.901  28.797  27.358  1.00  0.00     0.010 A 
ATOM     32  C   UNL A   1      39.141  28.113  28.535  1.00  0.00    -0.014 A 
BRANCH  32  33
ATOM     33  C   UNL A   1      40.493  27.579  28.489  1.00  0.00     0.031 A 
ATOM     34  C   UNL A   1      40.744  26.166  28.245  1.00  0.00     0.074 A 
ATOM     35  C   UNL A   1      41.441  28.553  28.424  1.00  0.00     0.049 A 
ATOM     36  N   UNL A   1      41.715  25.528  28.786  1.00  0.00    -0.248 NA
ATOM     37  C   UNL A   1      39.923  25.352  27.350  1.00  0.00     0.031 C 
ATOM     38  C   UNL A   1      42.822  28.563  27.986  1.00  0.00     0.029 A 
ATOM     39  N   UNL A   1      41.225  29.905  28.763  1.00  0.00    -0.354 N 
ATOM     40  C   UNL A   1      41.862  24.372  28.053  1.00  0.00     0.074 A 
ATOM     41  C   UNL A   1      40.633  24.216  27.306  1.00  0.00     0.031 C 
ATOM     42  C   UNL A   1      43.384  29.731  28.381  1.00  0.00     0.029 A 
ATOM     43  C   UNL A   1      42.411  30.447  29.206  1.00  0.00     0.049 A 
ATOM     44  H   UNL A   1      40.367  30.383  28.693  1.00  0.00     0.167 HD
ATOM     45  C   UNL A   1      43.105  23.835  27.912  1.00  0.00     0.034 A 
ATOM     46  C   UNL A   1      42.450  30.747  30.538  1.00  0.00     0.034 A 
ATOM     47  C   UNL A   1      44.111  24.766  28.455  1.00  0.00     0.049 A 
ATOM     48  C   UNL A   1      43.397  29.818  31.245  1.00  0.00     0.074 A 
ATOM     49  C   UNL A   1      44.902  25.720  27.832  1.00  0.00     0.029 A 
ATOM     50  N   UNL A   1      44.136  25.067  29.811  1.00  0.00    -0.354 N 
ATOM     51  N   UNL A   1      43.874  28.730  30.711  1.00  0.00    -0.248 NA
ATOM     52  C   UNL A   1      43.872  30.033  32.602  1.00  0.00     0.031 C 
ATOM     53  C   UNL A   1      45.356  26.634  28.820  1.00  0.00     0.029 A 
ATOM     54  C   UNL A   1      44.848  26.238  30.045  1.00  0.00     0.049 A 
ATOM     55  H   UNL A   1      43.707  24.524  30.512  1.00  0.00     0.167 HD
ATOM     56  C   UNL A   1      44.577  28.031  31.640  1.00  0.00     0.074 A 
ATOM     57  C   UNL A   1      44.627  28.935  32.781  1.00  0.00     0.031 C 
ATOM     58  C   UNL A   1      44.991  26.749  31.408  1.00  0.00     0.034 A 
BRANCH  45  59
ATOM     59  C   UNL A   1      43.457  22.711  26.958  1.00  0.00     0.023 A 
ATOM     60  C   UNL A   1      44.373  23.003  25.921  1.00  0.00     0.012 A 
ATOM     61  C   UNL A   1      42.982  21.379  27.019  1.00  0.00     0.148 A 
ATOM     62  C   UNL A   1      44.748  22.066  24.957  1.00  0.00     0.002 A 
ATOM     63  C   UNL A   1      43.330  20.447  26.031  1.00  0.00     0.091 A 
ATOM     64  F   UNL A   1      42.233  20.995  28.062  1.00  0.00    -0.205 F 
ATOM     65  C   UNL A   1      44.213  20.791  25.000  1.00  0.00     0.022 A 
BRANCH  63  66
ATOM     66  S   UNL A   1      42.649  18.780  25.963  1.00  0.00     0.127 S 
ATOM     67  O   UNL A   1      41.242  19.035  25.642  1.00  0.00    -0.237 OA
ATOM     68  O   UNL A   1      43.415  18.170  24.879  1.00  0.00    -0.237 OA
ATOM     69  O   UNL A   1      42.858  18.208  27.287  1.00  0.00    -0.744 OA
ENDBRANCH  63  66
ENDBRANCH  45  59
BRANCH  46  70
ATOM     70  C   UNL A   1      41.113  31.200  31.103  1.00  0.00     0.023 A 
ATOM     71  C   UNL A   1      40.517  32.370  30.559  1.00  0.00     0.012 A 
ATOM     72  C   UNL A   1      40.306  30.379  31.917  1.00  0.00     0.148 A 
ATOM     73  C   UNL A   1      39.155  32.655  30.736  1.00  0.00     0.002 A 
ATOM     74  C   UNL A   1      38.955  30.693  32.122  1.00  0.00     0.091 A 
ATOM     75  F   UNL A   1      40.830  29.265  32.445  1.00  0.00    -0.205 F 
ATOM     76  C   UNL A   1      38.369  31.806  31.507  1.00  0.00     0.022 A 
BRANCH  74  77
ATOM     77  S   UNL A   1      37.953  29.679  33.224  1.00  0.00     0.127 S 
ATOM     78  O   UNL A   1      38.334  30.155  34.555  1.00  0.00    -0.237 OA
ATOM     79  O   UNL A   1      36.584  30.003  32.844  1.00  0.00    -0.237 OA
ATOM     80  O   UNL A   1      38.420  28.330  32.919  1.00  0.00    -0.744 OA
ENDBRANCH  74  77
ENDBRANCH  46  70
BRANCH  58  81
ATOM     81  C   UNL A   1      45.571  25.846  32.464  1.00  0.00     0.023 A 
ATOM     82  C   UNL A   1      46.955  25.748  32.691  1.00  0.00     0.012 A 
ATOM     83  C   UNL A   1      44.720  25.164  33.367  1.00  0.00     0.148 A 
ATOM     84  C   UNL A   1      47.478  24.938  33.699  1.00  0.00     0.002 A 
ATOM     85  C   UNL A   1      45.242  24.481  34.455  1.00  0.00     0.091 A 
ATOM     86  F   UNL A   1      43.394  25.154  33.167  1.00  0.00    -0.205 F 
ATOM     87  C   UNL A   1      46.620  24.323  34.599  1.00  0.00     0.022 A 
BRANCH  85  88
ATOM     88  S   UNL A   1      44.173  23.931  35.789  1.00  0.00     0.127 S 
ATOM     89  O   UNL A   1      43.061  23.330  35.057  1.00  0.00    -0.237 OA
ATOM     90  O   UNL A   1      45.027  22.974  36.497  1.00  0.00    -0.237 OA
ATOM     91  O   UNL A   1      43.866  25.133  36.554  1.00  0.00    -0.744 OA
ENDBRANCH  85  88
ENDBRANCH  58  81
ENDBRANCH  32  33
ENDBRANCH  25  27
ENDBRANCH  24  25
ENDBRANCH  23  24
ENDBRANCH   1  23
TORSDOF 17
ENDMDL
