MODEL 1
REMARK VINA RESULT:     -12.2      0.000      0.000
REMARK SMILES COc1cc2c(cc1OC)-c1c(c(C(=O)Nc3ccc(C(=O)OCCOC(=O)c4ccc(-c5c6nc(c(-c7cccc(S(=O)(=O)[O-])c7F)c7ccc([nH]7)c(-c7cccc(S(=O)(=O)[O-])c7F)c7nc(c(-c8cccc(S(=O)(=O)[O-])c8F)c8ccc5[nH]8)C=C7)C=C6)cc4)cc3)nn1-c1ccc(F)cc1)C2
REMARK SMILES IDX 24 1 23 2 21 3 22 4 20 5 17 6 18 7 93 8 19 9 92 10 16 11
REMARK SMILES IDX 14 12 15 13 13 15 3 16 4 17 8 18 5 19 7 20 6 21 103 22 11 23
REMARK SMILES IDX 12 24 95 25 94 26 2 27 1 28 9 29 10 30 96 31 97 32 102 33
REMARK SMILES IDX 98 34 101 35 99 36 100 37 25 38 26 39 27 40 28 41 29 42
REMARK SMILES IDX 30 43 91 44 31 45 90 46 32 47 33 48 34 49 84 50 35 51 89 52
REMARK SMILES IDX 83 53 85 54 36 55 88 56 82 57 81 58 37 60 69 61 49 62 68 63
REMARK SMILES IDX 50 64 53 65 67 66 86 67 51 68 52 69 66 71 87 72 54 73 38 74
REMARK SMILES IDX 39 75 47 76 40 77 42 78 48 79 41 80 43 81 44 82 45 83 46 84
REMARK SMILES IDX 70 85 71 86 79 87 72 88 74 89 80 90 73 91 75 92 76 93 77 94
REMARK SMILES IDX 78 95 55 96 56 97 64 98 57 99 59 100 65 101 58 102 60 103
REMARK SMILES IDX 61 104 62 105 63 106
REMARK H PARENT 16 14 85 59 53 70
REMARK Flexibility Score: inf
ROOT
ATOM      1  C   UNL A   1      38.665  21.452  25.850  1.00  0.00     0.275 C 
ENDROOT
BRANCH   1   2
ATOM      2  O   UNL A   1      38.585  22.832  25.406  1.00  0.00    -0.458 OA
BRANCH   2   3
ATOM      3  C   UNL A   1      37.526  23.562  25.856  1.00  0.00     0.338 C 
ATOM      4  O   UNL A   1      37.581  24.462  26.678  1.00  0.00    -0.246 OA
BRANCH   3   5
ATOM      5  C   UNL A   1      36.289  23.221  25.094  1.00  0.00     0.060 A 
ATOM      6  C   UNL A   1      33.760  22.916  23.888  1.00  0.00     0.041 A 
ATOM      7  C   UNL A   1      33.914  22.632  25.232  1.00  0.00     0.027 A 
ATOM      8  C   UNL A   1      34.900  23.177  23.115  1.00  0.00     0.027 A 
ATOM      9  C   UNL A   1      35.186  22.747  25.805  1.00  0.00     0.018 A 
ATOM     10  C   UNL A   1      36.154  23.382  23.719  1.00  0.00     0.018 A 
BRANCH   6  11
ATOM     11  N   UNL A   1      32.525  22.809  23.247  1.00  0.00    -0.321 N 
ATOM     12  C   UNL A   1      31.326  23.483  23.406  1.00  0.00     0.276 C 
ATOM     13  O   UNL A   1      30.326  22.892  22.984  1.00  0.00    -0.267 OA
ATOM     14  H   UNL A   1      32.502  22.121  22.545  1.00  0.00     0.170 HD
BRANCH  12  15
ATOM     15  C   UNL A   1      31.234  24.896  23.878  1.00  0.00     0.155 A 
ATOM     16  C   UNL A   1      33.957  29.288  26.969  1.00  0.00     0.161 A 
ATOM     17  C   UNL A   1      34.392  28.129  26.276  1.00  0.00     0.055 A 
ATOM     18  C   UNL A   1      32.655  29.801  26.796  1.00  0.00     0.161 A 
ATOM     19  C   UNL A   1      33.476  27.380  25.550  1.00  0.00    -0.030 A 
ATOM     20  C   UNL A   1      31.745  29.064  26.044  1.00  0.00     0.061 A 
ATOM     21  C   UNL A   1      32.173  27.884  25.459  1.00  0.00     0.008 A 
ATOM     22  C   UNL A   1      33.623  25.982  24.858  1.00  0.00     0.076 C 
ATOM     23  C   UNL A   1      31.448  26.904  24.743  1.00  0.00     0.079 A 
ATOM     24  C   UNL A   1      32.182  25.783  24.471  1.00  0.00     0.016 A 
ATOM     25  N   UNL A   1      30.374  26.891  23.927  1.00  0.00    -0.232 N 
ATOM     26  N   UNL A   1      30.090  25.610  23.590  1.00  0.00    -0.162 NA
BRANCH  16  27
ATOM     27  O   UNL A   1      34.863  29.857  27.832  1.00  0.00    -0.493 OA
ATOM     28  C   UNL A   1      36.196  29.398  27.561  1.00  0.00     0.278 C 
ENDBRANCH  16  27
BRANCH  18  29
ATOM     29  O   UNL A   1      32.111  30.942  27.317  1.00  0.00    -0.493 OA
ATOM     30  C   UNL A   1      31.311  31.768  26.486  1.00  0.00     0.278 C 
ENDBRANCH  18  29
BRANCH  25  31
ATOM     31  C   UNL A   1      29.821  28.043  23.313  1.00  0.00     0.065 A 
ATOM     32  C   UNL A   1      30.601  28.885  22.526  1.00  0.00     0.031 A 
ATOM     33  C   UNL A   1      28.424  28.245  23.404  1.00  0.00     0.031 A 
ATOM     34  C   UNL A   1      29.957  29.860  21.748  1.00  0.00     0.041 A 
ATOM     35  C   UNL A   1      27.797  29.226  22.644  1.00  0.00     0.041 A 
ATOM     36  C   UNL A   1      28.569  30.010  21.802  1.00  0.00     0.123 A 
ATOM     37  F   UNL A   1      27.964  30.916  21.023  1.00  0.00    -0.207 F 
ENDBRANCH  25  31
ENDBRANCH  12  15
ENDBRANCH   6  11
ENDBRANCH   3   5
ENDBRANCH   2   3
ENDBRANCH   1   2
BRANCH   1  38
ATOM     38  C   UNL A   1      40.057  21.096  26.393  1.00  0.00     0.275 C 
BRANCH  38  39
ATOM     39  O   UNL A   1      40.926  22.232  26.264  1.00  0.00    -0.458 OA
BRANCH  39  40
ATOM     40  C   UNL A   1      41.823  22.294  27.278  1.00  0.00     0.338 C 
ATOM     41  O   UNL A   1      42.443  21.353  27.711  1.00  0.00    -0.246 OA
BRANCH  40  42
ATOM     42  C   UNL A   1      42.180  23.706  27.550  1.00  0.00     0.060 A 
ATOM     43  C   UNL A   1      42.980  24.152  28.599  1.00  0.00     0.016 A 
ATOM     44  C   UNL A   1      41.451  24.623  26.808  1.00  0.00     0.016 A 
ATOM     45  C   UNL A   1      42.849  25.477  29.028  1.00  0.00     0.010 A 
ATOM     46  C   UNL A   1      41.363  25.938  27.189  1.00  0.00     0.010 A 
ATOM     47  C   UNL A   1      41.942  26.325  28.385  1.00  0.00    -0.014 A 
BRANCH  47  48
ATOM     48  C   UNL A   1      41.603  27.661  28.845  1.00  0.00     0.031 A 
ATOM     49  C   UNL A   1      42.456  28.712  28.264  1.00  0.00     0.074 A 
ATOM     50  C   UNL A   1      40.545  28.036  29.593  1.00  0.00     0.049 A 
ATOM     51  N   UNL A   1      43.609  29.035  28.740  1.00  0.00    -0.248 NA
ATOM     52  C   UNL A   1      42.116  29.365  26.996  1.00  0.00     0.031 C 
ATOM     53  C   UNL A   1      39.413  27.272  30.122  1.00  0.00     0.029 A 
ATOM     54  N   UNL A   1      40.257  29.304  29.998  1.00  0.00    -0.354 N 
ATOM     55  C   UNL A   1      44.018  30.125  27.999  1.00  0.00     0.074 A 
ATOM     56  C   UNL A   1      43.198  30.130  26.812  1.00  0.00     0.031 C 
ATOM     57  C   UNL A   1      38.462  28.122  30.588  1.00  0.00     0.029 A 
ATOM     58  C   UNL A   1      39.021  29.460  30.603  1.00  0.00     0.049 A 
ATOM     59  H   UNL A   1      40.881  30.056  29.869  1.00  0.00     0.167 HD
ATOM     60  C   UNL A   1      44.816  31.074  28.556  1.00  0.00     0.034 A 
ATOM     61  C   UNL A   1      38.559  30.595  31.176  1.00  0.00     0.034 A 
ATOM     62  C   UNL A   1      45.204  30.719  29.904  1.00  0.00     0.049 A 
ATOM     63  C   UNL A   1      39.766  31.300  31.676  1.00  0.00     0.074 A 
ATOM     64  C   UNL A   1      45.845  29.646  30.495  1.00  0.00     0.029 A 
ATOM     65  N   UNL A   1      44.526  31.355  30.921  1.00  0.00    -0.354 N 
ATOM     66  N   UNL A   1      40.535  30.827  32.621  1.00  0.00    -0.248 NA
ATOM     67  C   UNL A   1      40.352  32.357  30.870  1.00  0.00     0.031 C 
ATOM     68  C   UNL A   1      45.143  29.424  31.718  1.00  0.00     0.029 A 
ATOM     69  C   UNL A   1      44.147  30.397  31.827  1.00  0.00     0.049 A 
ATOM     70  H   UNL A   1      44.344  32.320  30.985  1.00  0.00     0.167 HD
ATOM     71  C   UNL A   1      41.820  31.191  32.242  1.00  0.00     0.074 A 
ATOM     72  C   UNL A   1      41.631  32.234  31.237  1.00  0.00     0.031 C 
ATOM     73  C   UNL A   1      42.904  30.427  32.572  1.00  0.00     0.034 A 
BRANCH  60  74
ATOM     74  C   UNL A   1      44.982  32.480  28.064  1.00  0.00     0.023 A 
ATOM     75  C   UNL A   1      46.286  32.874  27.697  1.00  0.00     0.012 A 
ATOM     76  C   UNL A   1      44.000  33.486  28.160  1.00  0.00     0.148 A 
ATOM     77  C   UNL A   1      46.606  34.212  27.462  1.00  0.00     0.002 A 
ATOM     78  C   UNL A   1      44.305  34.805  27.847  1.00  0.00     0.091 A 
ATOM     79  F   UNL A   1      42.803  33.204  28.688  1.00  0.00    -0.205 F 
ATOM     80  C   UNL A   1      45.611  35.178  27.522  1.00  0.00     0.022 A 
BRANCH  78  81
ATOM     81  S   UNL A   1      43.040  36.079  27.861  1.00  0.00     0.127 S 
ATOM     82  O   UNL A   1      42.675  36.111  29.273  1.00  0.00    -0.237 OA
ATOM     83  O   UNL A   1      43.779  37.247  27.383  1.00  0.00    -0.237 OA
ATOM     84  O   UNL A   1      42.019  35.603  26.937  1.00  0.00    -0.744 OA
ENDBRANCH  78  81
ENDBRANCH  60  74
BRANCH  61  85
ATOM     85  C   UNL A   1      37.204  31.187  31.236  1.00  0.00     0.023 A 
ATOM     86  C   UNL A   1      36.536  31.252  32.478  1.00  0.00     0.012 A 
ATOM     87  C   UNL A   1      36.699  31.963  30.170  1.00  0.00     0.148 A 
ATOM     88  C   UNL A   1      35.449  32.111  32.675  1.00  0.00     0.002 A 
ATOM     89  C   UNL A   1      35.613  32.815  30.370  1.00  0.00     0.091 A 
ATOM     90  F   UNL A   1      37.343  31.941  28.994  1.00  0.00    -0.205 F 
ATOM     91  C   UNL A   1      34.997  32.904  31.626  1.00  0.00     0.022 A 
BRANCH  89  92
ATOM     92  S   UNL A   1      34.978  33.883  29.067  1.00  0.00     0.127 S 
ATOM     93  O   UNL A   1      36.139  34.721  28.760  1.00  0.00    -0.237 OA
ATOM     94  O   UNL A   1      34.630  32.919  28.027  1.00  0.00    -0.237 OA
ATOM     95  O   UNL A   1      33.864  34.607  29.665  1.00  0.00    -0.744 OA
ENDBRANCH  89  92
ENDBRANCH  61  85
BRANCH  73  96
ATOM     96  C   UNL A   1      42.719  29.323  33.589  1.00  0.00     0.023 A 
ATOM     97  C   UNL A   1      42.084  28.108  33.257  1.00  0.00     0.012 A 
ATOM     98  C   UNL A   1      43.373  29.429  34.829  1.00  0.00     0.148 A 
ATOM     99  C   UNL A   1      42.096  27.024  34.140  1.00  0.00     0.002 A 
ATOM    100  C   UNL A   1      43.416  28.337  35.689  1.00  0.00     0.091 A 
ATOM    101  F   UNL A   1      43.981  30.587  35.125  1.00  0.00    -0.205 F 
ATOM    102  C   UNL A   1      42.774  27.134  35.350  1.00  0.00     0.022 A 
BRANCH 100 103
ATOM    103  S   UNL A   1      44.362  28.360  37.215  1.00  0.00     0.127 S 
ATOM    104  O   UNL A   1      43.890  27.151  37.888  1.00  0.00    -0.237 OA
ATOM    105  O   UNL A   1      45.740  28.286  36.725  1.00  0.00    -0.237 OA
ATOM    106  O   UNL A   1      44.029  29.611  37.882  1.00  0.00    -0.744 OA
ENDBRANCH 100 103
ENDBRANCH  73  96
ENDBRANCH  47  48
ENDBRANCH  40  42
ENDBRANCH  39  40
ENDBRANCH  38  39
ENDBRANCH   1  38
TORSDOF 19
ENDMDL
MODEL 2
REMARK VINA RESULT:     -12.0      4.402      8.429
REMARK SMILES COc1cc2c(cc1OC)-c1c(c(C(=O)Nc3ccc(C(=O)OCCOC(=O)c4ccc(-c5c6nc(c(-c7cccc(S(=O)(=O)[O-])c7F)c7ccc([nH]7)c(-c7cccc(S(=O)(=O)[O-])c7F)c7nc(c(-c8cccc(S(=O)(=O)[O-])c8F)c8ccc5[nH]8)C=C7)C=C6)cc4)cc3)nn1-c1ccc(F)cc1)C2
REMARK SMILES IDX 24 1 23 2 21 3 22 4 20 5 17 6 18 7 93 8 19 9 92 10 16 11
REMARK SMILES IDX 14 12 15 13 13 15 3 16 4 17 8 18 5 19 7 20 6 21 103 22 11 23
REMARK SMILES IDX 12 24 95 25 94 26 2 27 1 28 9 29 10 30 96 31 97 32 102 33
REMARK SMILES IDX 98 34 101 35 99 36 100 37 25 38 26 39 27 40 28 41 29 42
REMARK SMILES IDX 30 43 91 44 31 45 90 46 32 47 33 48 34 49 84 50 35 51 89 52
REMARK SMILES IDX 83 53 85 54 36 55 88 56 82 57 81 58 37 60 69 61 49 62 68 63
REMARK SMILES IDX 50 64 53 65 67 66 86 67 51 68 52 69 66 71 87 72 54 73 38 74
REMARK SMILES IDX 39 75 47 76 40 77 42 78 48 79 41 80 43 81 44 82 45 83 46 84
REMARK SMILES IDX 70 85 71 86 79 87 72 88 74 89 80 90 73 91 75 92 76 93 77 94
REMARK SMILES IDX 78 95 55 96 56 97 64 98 57 99 59 100 65 101 58 102 60 103
REMARK SMILES IDX 61 104 62 105 63 106
REMARK H PARENT 16 14 85 59 53 70
REMARK Flexibility Score: inf
ROOT
ATOM      1  C   UNL A   1      44.688  24.322  36.632  1.00  0.00     0.275 C 
ENDROOT
BRANCH   1   2
ATOM      2  O   UNL A   1      45.163  25.047  35.467  1.00  0.00    -0.458 OA
BRANCH   2   3
ATOM      3  C   UNL A   1      45.179  24.367  34.286  1.00  0.00     0.338 C 
ATOM      4  O   UNL A   1      44.937  23.180  34.146  1.00  0.00    -0.246 OA
BRANCH   3   5
ATOM      5  C   UNL A   1      45.384  25.304  33.142  1.00  0.00     0.060 A 
ATOM      6  C   UNL A   1      45.888  26.702  30.747  1.00  0.00     0.041 A 
ATOM      7  C   UNL A   1      46.935  26.097  31.418  1.00  0.00     0.027 A 
ATOM      8  C   UNL A   1      44.630  26.759  31.364  1.00  0.00     0.027 A 
ATOM      9  C   UNL A   1      46.673  25.444  32.628  1.00  0.00     0.018 A 
ATOM     10  C   UNL A   1      44.361  26.020  32.531  1.00  0.00     0.018 A 
BRANCH   6  11
ATOM     11  N   UNL A   1      46.076  27.383  29.544  1.00  0.00    -0.321 N 
ATOM     12  C   UNL A   1      45.524  27.228  28.283  1.00  0.00     0.276 C 
ATOM     13  O   UNL A   1      46.184  27.705  27.354  1.00  0.00    -0.267 OA
ATOM     14  H   UNL A   1      46.729  28.117  29.602  1.00  0.00     0.170 HD
BRANCH  12  15
ATOM     15  C   UNL A   1      44.151  26.693  28.048  1.00  0.00     0.155 A 
ATOM     16  C   UNL A   1      40.779  21.737  27.477  1.00  0.00     0.161 A 
ATOM     17  C   UNL A   1      42.010  22.047  28.112  1.00  0.00     0.055 A 
ATOM     18  C   UNL A   1      39.905  22.751  27.037  1.00  0.00     0.161 A 
ATOM     19  C   UNL A   1      42.450  23.363  28.148  1.00  0.00    -0.030 A 
ATOM     20  C   UNL A   1      40.335  24.073  27.100  1.00  0.00     0.061 A 
ATOM     21  C   UNL A   1      41.584  24.337  27.636  1.00  0.00     0.008 A 
ATOM     22  C   UNL A   1      43.824  23.966  28.599  1.00  0.00     0.076 C 
ATOM     23  C   UNL A   1      42.302  25.551  27.726  1.00  0.00     0.079 A 
ATOM     24  C   UNL A   1      43.587  25.387  28.162  1.00  0.00     0.016 A 
ATOM     25  N   UNL A   1      41.991  26.856  27.868  1.00  0.00    -0.232 N 
ATOM     26  N   UNL A   1      43.130  27.590  27.816  1.00  0.00    -0.162 NA
BRANCH  16  27
ATOM     27  O   UNL A   1      40.509  20.402  27.293  1.00  0.00    -0.493 OA
ATOM     28  C   UNL A   1      41.454  19.799  26.396  1.00  0.00     0.278 C 
ENDBRANCH  16  27
BRANCH  18  29
ATOM     29  O   UNL A   1      38.658  22.626  26.489  1.00  0.00    -0.493 OA
ATOM     30  C   UNL A   1      37.915  23.796  26.185  1.00  0.00     0.278 C 
ENDBRANCH  18  29
BRANCH  25  31
ATOM     31  C   UNL A   1      40.723  27.338  28.279  1.00  0.00     0.065 A 
ATOM     32  C   UNL A   1      40.211  27.038  29.538  1.00  0.00     0.031 A 
ATOM     33  C   UNL A   1      40.045  28.247  27.434  1.00  0.00     0.031 A 
ATOM     34  C   UNL A   1      39.079  27.736  29.984  1.00  0.00     0.041 A 
ATOM     35  C   UNL A   1      38.913  28.921  27.876  1.00  0.00     0.041 A 
ATOM     36  C   UNL A   1      38.453  28.675  29.160  1.00  0.00     0.123 A 
ATOM     37  F   UNL A   1      37.397  29.365  29.614  1.00  0.00    -0.207 F 
ENDBRANCH  25  31
ENDBRANCH  12  15
ENDBRANCH   6  11
ENDBRANCH   3   5
ENDBRANCH   2   3
ENDBRANCH   1   2
BRANCH   1  38
ATOM     38  C   UNL A   1      43.529  25.046  37.334  1.00  0.00     0.275 C 
BRANCH  38  39
ATOM     39  O   UNL A   1      42.316  24.837  36.594  1.00  0.00    -0.458 OA
BRANCH  39  40
ATOM     40  C   UNL A   1      41.544  25.950  36.575  1.00  0.00     0.338 C 
ATOM     41  O   UNL A   1      40.832  26.314  37.480  1.00  0.00    -0.246 OA
BRANCH  40  42
ATOM     42  C   UNL A   1      41.945  26.823  35.447  1.00  0.00     0.060 A 
ATOM     43  C   UNL A   1      42.909  27.826  35.501  1.00  0.00     0.016 A 
ATOM     44  C   UNL A   1      41.104  26.741  34.346  1.00  0.00     0.016 A 
ATOM     45  C   UNL A   1      42.855  28.863  34.564  1.00  0.00     0.010 A 
ATOM     46  C   UNL A   1      41.084  27.726  33.392  1.00  0.00     0.010 A 
ATOM     47  C   UNL A   1      41.855  28.859  33.586  1.00  0.00    -0.014 A 
BRANCH  47  48
ATOM     48  C   UNL A   1      41.599  29.958  32.671  1.00  0.00     0.031 A 
ATOM     49  C   UNL A   1      42.759  30.297  31.828  1.00  0.00     0.074 A 
ATOM     50  C   UNL A   1      40.425  30.571  32.419  1.00  0.00     0.049 A 
ATOM     51  N   UNL A   1      43.714  31.073  32.211  1.00  0.00    -0.248 NA
ATOM     52  C   UNL A   1      42.987  29.643  30.536  1.00  0.00     0.031 C 
ATOM     53  C   UNL A   1      39.072  30.314  32.918  1.00  0.00     0.029 A 
ATOM     54  N   UNL A   1      40.225  31.597  31.546  1.00  0.00    -0.354 N 
ATOM     55  C   UNL A   1      44.524  31.229  31.104  1.00  0.00     0.074 A 
ATOM     56  C   UNL A   1      44.175  30.159  30.202  1.00  0.00     0.031 C 
ATOM     57  C   UNL A   1      38.170  31.013  32.182  1.00  0.00     0.029 A 
ATOM     58  C   UNL A   1      38.899  31.933  31.330  1.00  0.00     0.049 A 
ATOM     59  H   UNL A   1      40.968  32.064  31.099  1.00  0.00     0.167 HD
ATOM     60  C   UNL A   1      45.224  32.380  30.923  1.00  0.00     0.034 A 
ATOM     61  C   UNL A   1      38.458  32.978  30.591  1.00  0.00     0.034 A 
ATOM     62  C   UNL A   1      45.061  33.284  32.040  1.00  0.00     0.049 A 
ATOM     63  C   UNL A   1      39.517  34.012  30.706  1.00  0.00     0.074 A 
ATOM     64  C   UNL A   1      45.277  33.215  33.404  1.00  0.00     0.029 A 
ATOM     65  N   UNL A   1      44.187  34.333  31.853  1.00  0.00    -0.354 N 
ATOM     66  N   UNL A   1      39.825  34.603  31.830  1.00  0.00    -0.248 NA
ATOM     67  C   UNL A   1      40.507  34.130  29.650  1.00  0.00     0.031 C 
ATOM     68  C   UNL A   1      44.170  33.903  33.988  1.00  0.00     0.029 A 
ATOM     69  C   UNL A   1      43.369  34.390  32.952  1.00  0.00     0.049 A 
ATOM     70  H   UNL A   1      44.154  34.930  31.072  1.00  0.00     0.167 HD
ATOM     71  C   UNL A   1      41.203  34.763  31.775  1.00  0.00     0.074 A 
ATOM     72  C   UNL A   1      41.544  34.576  30.367  1.00  0.00     0.031 C 
ATOM     73  C   UNL A   1      41.968  34.759  32.908  1.00  0.00     0.034 A 
BRANCH  60  74
ATOM     74  C   UNL A   1      45.775  32.874  29.620  1.00  0.00     0.023 A 
ATOM     75  C   UNL A   1      47.094  33.376  29.638  1.00  0.00     0.012 A 
ATOM     76  C   UNL A   1      45.013  33.089  28.454  1.00  0.00     0.148 A 
ATOM     77  C   UNL A   1      47.622  34.083  28.557  1.00  0.00     0.002 A 
ATOM     78  C   UNL A   1      45.570  33.723  27.351  1.00  0.00     0.091 A 
ATOM     79  F   UNL A   1      43.704  32.810  28.451  1.00  0.00    -0.205 F 
ATOM     80  C   UNL A   1      46.864  34.244  27.405  1.00  0.00     0.022 A 
BRANCH  78  81
ATOM     81  S   UNL A   1      44.647  33.909  25.822  1.00  0.00     0.127 S 
ATOM     82  O   UNL A   1      44.248  32.531  25.555  1.00  0.00    -0.237 OA
ATOM     83  O   UNL A   1      43.562  34.802  26.228  1.00  0.00    -0.237 OA
ATOM     84  O   UNL A   1      45.590  34.505  24.886  1.00  0.00    -0.744 OA
ENDBRANCH  78  81
ENDBRANCH  60  74
BRANCH  61  85
ATOM     85  C   UNL A   1      37.280  33.132  29.708  1.00  0.00     0.023 A 
ATOM     86  C   UNL A   1      37.093  32.219  28.647  1.00  0.00     0.012 A 
ATOM     87  C   UNL A   1      36.191  33.950  30.080  1.00  0.00     0.148 A 
ATOM     88  C   UNL A   1      35.847  32.075  28.026  1.00  0.00     0.002 A 
ATOM     89  C   UNL A   1      34.953  33.805  29.455  1.00  0.00     0.091 A 
ATOM     90  F   UNL A   1      36.342  34.795  31.110  1.00  0.00    -0.205 F 
ATOM     91  C   UNL A   1      34.774  32.855  28.440  1.00  0.00     0.022 A 
BRANCH  89  92
ATOM     92  S   UNL A   1      33.513  34.768  29.943  1.00  0.00     0.127 S 
ATOM     93  O   UNL A   1      33.909  36.127  29.572  1.00  0.00    -0.237 OA
ATOM     94  O   UNL A   1      32.464  34.189  29.109  1.00  0.00    -0.237 OA
ATOM     95  O   UNL A   1      33.374  34.560  31.379  1.00  0.00    -0.744 OA
ENDBRANCH  89  92
ENDBRANCH  61  85
BRANCH  73  96
ATOM     96  C   UNL A   1      41.267  34.850  34.244  1.00  0.00     0.023 A 
ATOM     97  C   UNL A   1      40.911  36.092  34.811  1.00  0.00     0.012 A 
ATOM     98  C   UNL A   1      40.779  33.672  34.835  1.00  0.00     0.148 A 
ATOM     99  C   UNL A   1      40.091  36.160  35.941  1.00  0.00     0.002 A 
ATOM    100  C   UNL A   1      39.933  33.743  35.937  1.00  0.00     0.091 A 
ATOM    101  F   UNL A   1      41.118  32.500  34.278  1.00  0.00    -0.205 F 
ATOM    102  C   UNL A   1      39.591  34.986  36.496  1.00  0.00     0.022 A 
BRANCH 100 103
ATOM    103  S   UNL A   1      39.156  32.285  36.640  1.00  0.00     0.127 S 
ATOM    104  O   UNL A   1      38.845  32.728  37.998  1.00  0.00    -0.237 OA
ATOM    105  O   UNL A   1      37.990  32.108  35.774  1.00  0.00    -0.237 OA
ATOM    106  O   UNL A   1      40.141  31.215  36.547  1.00  0.00    -0.744 OA
ENDBRANCH 100 103
ENDBRANCH  73  96
ENDBRANCH  47  48
ENDBRANCH  40  42
ENDBRANCH  39  40
ENDBRANCH  38  39
ENDBRANCH   1  38
TORSDOF 19
ENDMDL
MODEL 3
REMARK VINA RESULT:     -11.7      3.234      8.964
REMARK SMILES COc1cc2c(cc1OC)-c1c(c(C(=O)Nc3ccc(C(=O)OCCOC(=O)c4ccc(-c5c6nc(c(-c7cccc(S(=O)(=O)[O-])c7F)c7ccc([nH]7)c(-c7cccc(S(=O)(=O)[O-])c7F)c7nc(c(-c8cccc(S(=O)(=O)[O-])c8F)c8ccc5[nH]8)C=C7)C=C6)cc4)cc3)nn1-c1ccc(F)cc1)C2
REMARK SMILES IDX 24 1 23 2 21 3 22 4 20 5 17 6 18 7 93 8 19 9 92 10 16 11
REMARK SMILES IDX 14 12 15 13 13 15 3 16 4 17 8 18 5 19 7 20 6 21 103 22 11 23
REMARK SMILES IDX 12 24 95 25 94 26 2 27 1 28 9 29 10 30 96 31 97 32 102 33
REMARK SMILES IDX 98 34 101 35 99 36 100 37 25 38 26 39 27 40 28 41 29 42
REMARK SMILES IDX 30 43 91 44 31 45 90 46 32 47 33 48 34 49 84 50 35 51 89 52
REMARK SMILES IDX 83 53 85 54 36 55 88 56 82 57 81 58 37 60 69 61 49 62 68 63
REMARK SMILES IDX 50 64 53 65 67 66 86 67 51 68 52 69 66 71 87 72 54 73 38 74
REMARK SMILES IDX 39 75 47 76 40 77 42 78 48 79 41 80 43 81 44 82 45 83 46 84
REMARK SMILES IDX 70 85 71 86 79 87 72 88 74 89 80 90 73 91 75 92 76 93 77 94
REMARK SMILES IDX 78 95 55 96 56 97 64 98 57 99 59 100 65 101 58 102 60 103
REMARK SMILES IDX 61 104 62 105 63 106
REMARK H PARENT 16 14 85 59 53 70
REMARK Flexibility Score: inf
ROOT
ATOM      1  C   UNL A   1      34.022  31.217  27.602  1.00  0.00     0.275 C 
ENDROOT
BRANCH   1   2
ATOM      2  O   UNL A   1      33.820  29.921  26.982  1.00  0.00    -0.458 OA
BRANCH   2   3
ATOM      3  C   UNL A   1      32.531  29.548  26.744  1.00  0.00     0.338 C 
ATOM      4  O   UNL A   1      31.556  29.918  27.377  1.00  0.00    -0.246 OA
BRANCH   3   5
ATOM      5  C   UNL A   1      32.439  28.737  25.494  1.00  0.00     0.060 A 
ATOM      6  C   UNL A   1      31.830  27.333  23.128  1.00  0.00     0.041 A 
ATOM      7  C   UNL A   1      31.260  26.935  24.323  1.00  0.00     0.027 A 
ATOM      8  C   UNL A   1      32.834  28.311  23.148  1.00  0.00     0.027 A 
ATOM      9  C   UNL A   1      31.607  27.617  25.496  1.00  0.00     0.018 A 
ATOM     10  C   UNL A   1      33.104  29.050  24.314  1.00  0.00     0.018 A 
BRANCH   6  11
ATOM     11  N   UNL A   1      31.541  26.691  21.923  1.00  0.00    -0.321 N 
ATOM     12  C   UNL A   1      32.141  25.637  21.255  1.00  0.00     0.276 C 
ATOM     13  O   UNL A   1      31.906  25.574  20.044  1.00  0.00    -0.267 OA
ATOM     14  H   UNL A   1      30.757  27.060  21.456  1.00  0.00     0.170 HD
BRANCH  12  15
ATOM     15  C   UNL A   1      32.872  24.535  21.949  1.00  0.00     0.155 A 
ATOM     16  C   UNL A   1      37.378  23.151  25.695  1.00  0.00     0.161 A 
ATOM     17  C   UNL A   1      36.571  24.297  25.474  1.00  0.00     0.055 A 
ATOM     18  C   UNL A   1      37.023  21.892  25.168  1.00  0.00     0.161 A 
ATOM     19  C   UNL A   1      35.510  24.228  24.582  1.00  0.00    -0.030 A 
ATOM     20  C   UNL A   1      35.941  21.818  24.297  1.00  0.00     0.061 A 
ATOM     21  C   UNL A   1      35.232  22.974  24.023  1.00  0.00     0.008 A 
ATOM     22  C   UNL A   1      34.586  25.355  24.007  1.00  0.00     0.076 C 
ATOM     23  C   UNL A   1      34.174  23.204  23.113  1.00  0.00     0.079 A 
ATOM     24  C   UNL A   1      33.844  24.525  22.993  1.00  0.00     0.016 A 
ATOM     25  N   UNL A   1      33.149  22.485  22.611  1.00  0.00    -0.232 N 
ATOM     26  N   UNL A   1      32.488  23.236  21.697  1.00  0.00    -0.162 NA
BRANCH  16  27
ATOM     27  O   UNL A   1      38.528  23.347  26.421  1.00  0.00    -0.493 OA
ATOM     28  C   UNL A   1      38.533  24.639  27.047  1.00  0.00     0.278 C 
ENDBRANCH  16  27
BRANCH  18  29
ATOM     29  O   UNL A   1      37.638  20.685  25.355  1.00  0.00    -0.493 OA
ATOM     30  C   UNL A   1      37.016  19.509  24.860  1.00  0.00     0.278 C 
ENDBRANCH  18  29
BRANCH  25  31
ATOM     31  C   UNL A   1      32.686  21.261  23.158  1.00  0.00     0.065 A 
ATOM     32  C   UNL A   1      32.346  20.188  22.338  1.00  0.00     0.031 A 
ATOM     33  C   UNL A   1      32.707  21.104  24.563  1.00  0.00     0.031 A 
ATOM     34  C   UNL A   1      32.135  18.934  22.931  1.00  0.00     0.041 A 
ATOM     35  C   UNL A   1      32.477  19.862  25.144  1.00  0.00     0.041 A 
ATOM     36  C   UNL A   1      32.216  18.781  24.318  1.00  0.00     0.123 A 
ATOM     37  F   UNL A   1      32.053  17.569  24.866  1.00  0.00    -0.207 F 
ENDBRANCH  25  31
ENDBRANCH  12  15
ENDBRANCH   6  11
ENDBRANCH   3   5
ENDBRANCH   2   3
ENDBRANCH   1   2
BRANCH   1  38
ATOM     38  C   UNL A   1      35.511  31.552  27.778  1.00  0.00     0.275 C 
BRANCH  38  39
ATOM     39  O   UNL A   1      35.647  32.917  28.202  1.00  0.00    -0.458 OA
BRANCH  39  40
ATOM     40  C   UNL A   1      35.783  33.013  29.547  1.00  0.00     0.338 C 
ATOM     41  O   UNL A   1      34.893  33.292  30.314  1.00  0.00    -0.246 OA
BRANCH  40  42
ATOM     42  C   UNL A   1      37.067  32.406  29.968  1.00  0.00     0.060 A 
ATOM     43  C   UNL A   1      38.334  32.865  29.618  1.00  0.00     0.016 A 
ATOM     44  C   UNL A   1      36.932  31.161  30.564  1.00  0.00     0.016 A 
ATOM     45  C   UNL A   1      39.409  31.970  29.659  1.00  0.00     0.010 A 
ATOM     46  C   UNL A   1      37.994  30.298  30.661  1.00  0.00     0.010 A 
ATOM     47  C   UNL A   1      39.194  30.651  30.070  1.00  0.00    -0.014 A 
BRANCH  47  48
ATOM     48  C   UNL A   1      40.192  29.597  29.995  1.00  0.00     0.031 A 
ATOM     49  C   UNL A   1      40.670  29.152  31.316  1.00  0.00     0.074 A 
ATOM     50  C   UNL A   1      40.597  28.914  28.905  1.00  0.00     0.049 A 
ATOM     51  N   UNL A   1      41.606  29.747  31.971  1.00  0.00    -0.248 NA
ATOM     52  C   UNL A   1      39.997  28.079  32.054  1.00  0.00     0.031 C 
ATOM     53  C   UNL A   1      40.151  28.964  27.511  1.00  0.00     0.029 A 
ATOM     54  N   UNL A   1      41.532  27.925  28.878  1.00  0.00    -0.354 N 
ATOM     55  C   UNL A   1      41.835  28.957  33.080  1.00  0.00     0.074 A 
ATOM     56  C   UNL A   1      40.679  28.103  33.205  1.00  0.00     0.031 C 
ATOM     57  C   UNL A   1      40.660  27.906  26.827  1.00  0.00     0.029 A 
ATOM     58  C   UNL A   1      41.641  27.254  27.672  1.00  0.00     0.049 A 
ATOM     59  H   UNL A   1      42.089  27.702  29.659  1.00  0.00     0.167 HD
ATOM     60  C   UNL A   1      43.072  28.901  33.639  1.00  0.00     0.034 A 
ATOM     61  C   UNL A   1      42.564  26.310  27.372  1.00  0.00     0.034 A 
ATOM     62  C   UNL A   1      43.994  29.807  32.987  1.00  0.00     0.049 A 
ATOM     63  C   UNL A   1      43.759  26.662  28.180  1.00  0.00     0.074 A 
ATOM     64  C   UNL A   1      44.027  31.165  32.734  1.00  0.00     0.029 A 
ATOM     65  N   UNL A   1      44.878  29.239  32.096  1.00  0.00    -0.354 N 
ATOM     66  N   UNL A   1      44.446  27.760  28.007  1.00  0.00    -0.248 NA
ATOM     67  C   UNL A   1      43.982  25.983  29.445  1.00  0.00     0.031 C 
ATOM     68  C   UNL A   1      44.557  31.282  31.413  1.00  0.00     0.029 A 
ATOM     69  C   UNL A   1      44.858  29.998  30.954  1.00  0.00     0.049 A 
ATOM     70  H   UNL A   1      45.424  28.434  32.250  1.00  0.00     0.167 HD
ATOM     71  C   UNL A   1      44.822  28.143  29.287  1.00  0.00     0.074 A 
ATOM     72  C   UNL A   1      44.622  26.952  30.107  1.00  0.00     0.031 C 
ATOM     73  C   UNL A   1      44.996  29.459  29.615  1.00  0.00     0.034 A 
BRANCH  60  74
ATOM     74  C   UNL A   1      43.584  27.808  34.528  1.00  0.00     0.023 A 
ATOM     75  C   UNL A   1      44.155  28.205  35.756  1.00  0.00     0.012 A 
ATOM     76  C   UNL A   1      43.747  26.464  34.137  1.00  0.00     0.148 A 
ATOM     77  C   UNL A   1      44.878  27.311  36.548  1.00  0.00     0.002 A 
ATOM     78  C   UNL A   1      44.400  25.560  34.966  1.00  0.00     0.091 A 
ATOM     79  F   UNL A   1      43.400  26.080  32.904  1.00  0.00    -0.205 F 
ATOM     80  C   UNL A   1      44.989  25.983  36.160  1.00  0.00     0.022 A 
BRANCH  78  81
ATOM     81  S   UNL A   1      44.523  23.823  34.531  1.00  0.00     0.127 S 
ATOM     82  O   UNL A   1      45.319  23.885  33.310  1.00  0.00    -0.237 OA
ATOM     83  O   UNL A   1      45.211  23.265  35.695  1.00  0.00    -0.237 OA
ATOM     84  O   UNL A   1      43.144  23.375  34.385  1.00  0.00    -0.744 OA
ENDBRANCH  78  81
ENDBRANCH  60  74
BRANCH  61  85
ATOM     85  C   UNL A   1      42.484  25.079  26.555  1.00  0.00     0.023 A 
ATOM     86  C   UNL A   1      43.201  25.012  25.340  1.00  0.00     0.012 A 
ATOM     87  C   UNL A   1      41.982  23.875  27.096  1.00  0.00     0.148 A 
ATOM     88  C   UNL A   1      43.470  23.786  24.723  1.00  0.00     0.002 A 
ATOM     89  C   UNL A   1      42.250  22.656  26.475  1.00  0.00     0.091 A 
ATOM     90  F   UNL A   1      41.331  23.917  28.267  1.00  0.00    -0.205 F 
ATOM     91  C   UNL A   1      43.009  22.607  25.298  1.00  0.00     0.022 A 
BRANCH  89  92
ATOM     92  S   UNL A   1      41.699  21.086  27.163  1.00  0.00     0.127 S 
ATOM     93  O   UNL A   1      41.732  20.206  25.994  1.00  0.00    -0.237 OA
ATOM     94  O   UNL A   1      42.730  20.815  28.161  1.00  0.00    -0.237 OA
ATOM     95  O   UNL A   1      40.360  21.337  27.681  1.00  0.00    -0.744 OA
ENDBRANCH  89  92
ENDBRANCH  61  85
BRANCH  73  96
ATOM     96  C   UNL A   1      45.040  30.475  28.497  1.00  0.00     0.023 A 
ATOM     97  C   UNL A   1      43.863  31.034  27.956  1.00  0.00     0.012 A 
ATOM     98  C   UNL A   1      46.281  31.026  28.131  1.00  0.00     0.148 A 
ATOM     99  C   UNL A   1      43.920  32.113  27.069  1.00  0.00     0.002 A 
ATOM    100  C   UNL A   1      46.332  32.123  27.278  1.00  0.00     0.091 A 
ATOM    101  F   UNL A   1      47.390  30.490  28.662  1.00  0.00    -0.205 F 
ATOM    102  C   UNL A   1      45.154  32.666  26.741  1.00  0.00     0.022 A 
BRANCH 100 103
ATOM    103  S   UNL A   1      47.872  32.964  26.896  1.00  0.00     0.127 S 
ATOM    104  O   UNL A   1      47.458  33.906  25.857  1.00  0.00    -0.237 OA
ATOM    105  O   UNL A   1      48.213  33.582  28.178  1.00  0.00    -0.237 OA
ATOM    106  O   UNL A   1      48.803  31.931  26.460  1.00  0.00    -0.744 OA
ENDBRANCH 100 103
ENDBRANCH  73  96
ENDBRANCH  47  48
ENDBRANCH  40  42
ENDBRANCH  39  40
ENDBRANCH  38  39
ENDBRANCH   1  38
TORSDOF 19
ENDMDL
