MODEL 1
REMARK VINA RESULT:     -12.5      0.000      0.000
REMARK SMILES Cc1c(Cl)cc2c(c1C)O[C@@H](C(F)(F)F)C(C(=O)OCCOC(=O)c1ccc(-c3c4nc(c(-c5cccc(S(=O)(=O)[O-])c5F)c5ccc([nH]5)c(-c5cccc(S(=O)(=O)[O-])c5F)c5nc(c(-c6cccc(S(=O)(=O)[O-])c6F)c6ccc3[nH]6)C=C5)C=C4)cc1)=C2
REMARK SMILES IDX 21 1 20 2 19 3 17 4 18 5 16 6 1 7 2 8 3 9 8 10 4 11 5 12
REMARK SMILES IDX 7 13 9 14 6 15 10 16 88 17 11 18 12 19 13 20 14 21 15 22
REMARK SMILES IDX 22 23 23 24 24 25 25 26 26 27 87 28 27 29 86 30 28 31 29 32
REMARK SMILES IDX 30 33 80 34 31 35 85 36 79 37 81 38 32 39 84 40 78 41 77 42
REMARK SMILES IDX 33 44 65 45 45 46 64 47 46 48 49 49 63 50 82 51 47 52 48 53
REMARK SMILES IDX 62 55 83 56 50 57 34 58 35 59 43 60 36 61 38 62 44 63 37 64
REMARK SMILES IDX 39 65 40 66 41 67 42 68 66 69 67 70 75 71 68 72 70 73 76 74
REMARK SMILES IDX 69 75 71 76 72 77 73 78 74 79 51 80 52 81 60 82 53 83 55 84
REMARK SMILES IDX 61 85 54 86 56 87 57 88 58 89 59 90
REMARK H PARENT 81 43 49 54
REMARK Flexibility Score: inf
ROOT
ATOM      1  C   UNL A   1      37.393  20.219  24.979  1.00  0.00     0.275 C 
ENDROOT
BRANCH   1   2
ATOM      2  C   UNL A   1      35.903  20.546  25.016  1.00  0.00     0.275 C 
BRANCH   2   3
ATOM      3  O   UNL A   1      35.674  21.759  25.766  1.00  0.00    -0.459 OA
BRANCH   3   4
ATOM      4  C   UNL A   1      34.442  21.920  26.287  1.00  0.00     0.338 C 
ATOM      5  O   UNL A   1      33.947  21.267  27.194  1.00  0.00    -0.246 OA
BRANCH   4   6
ATOM      6  C   UNL A   1      33.754  23.054  25.646  1.00  0.00     0.087 C 
ATOM      7  C   UNL A   1      30.927  28.854  24.600  1.00  0.00     0.046 C 
ATOM      8  C   UNL A   1      31.791  27.639  24.831  1.00  0.00    -0.026 A 
ATOM      9  C   UNL A   1      33.049  27.809  25.450  1.00  0.00     0.045 A 
ATOM     10  C   UNL A   1      31.352  26.320  24.538  1.00  0.00    -0.004 A 
ATOM     11  Cl  UNL A   1      33.657  29.371  25.885  1.00  0.00    -0.084 Cl
ATOM     12  C   UNL A   1      33.844  26.714  25.784  1.00  0.00     0.032 A 
ATOM     13  C   UNL A   1      32.181  25.223  24.866  1.00  0.00     0.131 A 
ATOM     14  C   UNL A   1      30.016  26.007  23.910  1.00  0.00     0.049 C 
ATOM     15  C   UNL A   1      33.398  25.422  25.515  1.00  0.00     0.019 A 
ATOM     16  O   UNL A   1      31.701  23.966  24.588  1.00  0.00    -0.475 OA
ATOM     17  C   UNL A   1      34.136  24.282  26.018  1.00  0.00     0.027 C 
ATOM     18  C   UNL A   1      32.578  22.813  24.748  1.00  0.00     0.316 C 
BRANCH  18  19
ATOM     19  C   UNL A   1      32.931  22.225  23.370  1.00  0.00     0.430 C 
ATOM     20  F   UNL A   1      34.170  22.556  22.955  1.00  0.00    -0.167 F 
ATOM     21  F   UNL A   1      32.837  20.871  23.374  1.00  0.00    -0.167 F 
ATOM     22  F   UNL A   1      32.061  22.650  22.417  1.00  0.00    -0.167 F 
ENDBRANCH  18  19
ENDBRANCH   4   6
ENDBRANCH   3   4
ENDBRANCH   2   3
ENDBRANCH   1   2
BRANCH   1  23
ATOM     23  O   UNL A   1      38.150  21.384  25.349  1.00  0.00    -0.458 OA
BRANCH  23  24
ATOM     24  C   UNL A   1      39.237  21.151  26.120  1.00  0.00     0.338 C 
ATOM     25  O   UNL A   1      39.842  20.102  26.249  1.00  0.00    -0.246 OA
BRANCH  24  26
ATOM     26  C   UNL A   1      39.670  22.405  26.754  1.00  0.00     0.060 A 
ATOM     27  C   UNL A   1      39.063  23.593  26.365  1.00  0.00     0.016 A 
ATOM     28  C   UNL A   1      40.779  22.428  27.595  1.00  0.00     0.016 A 
ATOM     29  C   UNL A   1      39.658  24.812  26.679  1.00  0.00     0.010 A 
ATOM     30  C   UNL A   1      41.283  23.660  28.033  1.00  0.00     0.010 A 
ATOM     31  C   UNL A   1      40.770  24.870  27.533  1.00  0.00    -0.014 A 
BRANCH  31  32
ATOM     32  C   UNL A   1      41.395  26.186  27.869  1.00  0.00     0.031 A 
ATOM     33  C   UNL A   1      40.609  27.250  28.601  1.00  0.00     0.074 A 
ATOM     34  C   UNL A   1      42.682  26.430  27.538  1.00  0.00     0.049 A 
ATOM     35  N   UNL A   1      40.949  28.484  28.877  1.00  0.00    -0.248 NA
ATOM     36  C   UNL A   1      39.259  26.892  29.068  1.00  0.00     0.031 C 
ATOM     37  C   UNL A   1      43.564  25.495  26.834  1.00  0.00     0.029 A 
ATOM     38  N   UNL A   1      43.479  27.529  27.752  1.00  0.00    -0.354 N 
ATOM     39  C   UNL A   1      39.838  29.064  29.482  1.00  0.00     0.074 A 
ATOM     40  C   UNL A   1      38.807  28.051  29.525  1.00  0.00     0.031 C 
ATOM     41  C   UNL A   1      44.788  26.031  26.731  1.00  0.00     0.029 A 
ATOM     42  C   UNL A   1      44.761  27.385  27.268  1.00  0.00     0.049 A 
ATOM     43  H   UNL A   1      43.164  28.342  28.209  1.00  0.00     0.167 HD
ATOM     44  C   UNL A   1      39.694  30.318  29.977  1.00  0.00     0.034 A 
ATOM     45  C   UNL A   1      45.794  28.251  27.223  1.00  0.00     0.034 A 
ATOM     46  C   UNL A   1      40.749  31.294  30.015  1.00  0.00     0.049 A 
ATOM     47  C   UNL A   1      45.606  29.638  27.773  1.00  0.00     0.074 A 
ATOM     48  C   UNL A   1      40.715  32.571  30.548  1.00  0.00     0.029 A 
ATOM     49  N   UNL A   1      42.028  31.102  29.516  1.00  0.00    -0.354 N 
ATOM     50  N   UNL A   1      44.566  30.143  28.388  1.00  0.00    -0.248 NA
ATOM     51  C   UNL A   1      46.729  30.574  27.620  1.00  0.00     0.031 C 
ATOM     52  C   UNL A   1      41.967  33.159  30.350  1.00  0.00     0.029 A 
ATOM     53  C   UNL A   1      42.787  32.243  29.713  1.00  0.00     0.049 A 
ATOM     54  H   UNL A   1      42.349  30.277  29.086  1.00  0.00     0.167 HD
ATOM     55  C   UNL A   1      44.909  31.453  28.702  1.00  0.00     0.074 A 
ATOM     56  C   UNL A   1      46.268  31.652  28.243  1.00  0.00     0.031 C 
ATOM     57  C   UNL A   1      44.154  32.413  29.291  1.00  0.00     0.034 A 
BRANCH  44  58
ATOM     58  C   UNL A   1      38.360  30.704  30.567  1.00  0.00     0.023 A 
ATOM     59  C   UNL A   1      38.079  30.408  31.916  1.00  0.00     0.012 A 
ATOM     60  C   UNL A   1      37.422  31.441  29.813  1.00  0.00     0.148 A 
ATOM     61  C   UNL A   1      36.878  30.812  32.497  1.00  0.00     0.002 A 
ATOM     62  C   UNL A   1      36.247  31.880  30.413  1.00  0.00     0.091 A 
ATOM     63  F   UNL A   1      37.700  31.702  28.527  1.00  0.00    -0.205 F 
ATOM     64  C   UNL A   1      35.968  31.557  31.751  1.00  0.00     0.022 A 
BRANCH  62  65
ATOM     65  S   UNL A   1      35.049  32.917  29.566  1.00  0.00     0.127 S 
ATOM     66  O   UNL A   1      35.882  34.039  29.134  1.00  0.00    -0.237 OA
ATOM     67  O   UNL A   1      34.597  32.044  28.483  1.00  0.00    -0.237 OA
ATOM     68  O   UNL A   1      34.029  33.244  30.552  1.00  0.00    -0.744 OA
ENDBRANCH  62  65
ENDBRANCH  44  58
BRANCH  45  69
ATOM     69  C   UNL A   1      47.104  27.814  26.654  1.00  0.00     0.023 A 
ATOM     70  C   UNL A   1      48.090  27.297  27.515  1.00  0.00     0.012 A 
ATOM     71  C   UNL A   1      47.354  27.843  25.267  1.00  0.00     0.148 A 
ATOM     72  C   UNL A   1      49.302  26.824  27.006  1.00  0.00     0.002 A 
ATOM     73  C   UNL A   1      48.533  27.311  24.761  1.00  0.00     0.091 A 
ATOM     74  F   UNL A   1      46.413  28.363  24.464  1.00  0.00    -0.205 F 
ATOM     75  C   UNL A   1      49.517  26.815  25.631  1.00  0.00     0.022 A 
BRANCH  73  76
ATOM     76  S   UNL A   1      48.826  27.113  22.999  1.00  0.00     0.127 S 
ATOM     77  O   UNL A   1      50.281  27.205  22.925  1.00  0.00    -0.237 OA
ATOM     78  O   UNL A   1      48.278  25.778  22.751  1.00  0.00    -0.237 OA
ATOM     79  O   UNL A   1      48.090  28.192  22.355  1.00  0.00    -0.744 OA
ENDBRANCH  73  76
ENDBRANCH  45  69
BRANCH  57  80
ATOM     80  C   UNL A   1      44.760  33.780  29.470  1.00  0.00     0.023 A 
ATOM     81  C   UNL A   1      45.510  34.051  30.632  1.00  0.00     0.012 A 
ATOM     82  C   UNL A   1      44.708  34.738  28.438  1.00  0.00     0.148 A 
ATOM     83  C   UNL A   1      46.191  35.259  30.769  1.00  0.00     0.002 A 
ATOM     84  C   UNL A   1      45.430  35.919  28.560  1.00  0.00     0.091 A 
ATOM     85  F   UNL A   1      43.980  34.460  27.347  1.00  0.00    -0.205 F 
ATOM     86  C   UNL A   1      46.165  36.185  29.728  1.00  0.00     0.022 A 
BRANCH  84  87
ATOM     87  S   UNL A   1      45.546  37.128  27.236  1.00  0.00     0.127 S 
ATOM     88  O   UNL A   1      46.385  38.157  27.846  1.00  0.00    -0.237 OA
ATOM     89  O   UNL A   1      46.197  36.360  26.175  1.00  0.00    -0.237 OA
ATOM     90  O   UNL A   1      44.181  37.539  26.941  1.00  0.00    -0.744 OA
ENDBRANCH  84  87
ENDBRANCH  57  80
ENDBRANCH  31  32
ENDBRANCH  24  26
ENDBRANCH  23  24
ENDBRANCH   1  23
TORSDOF 15
ENDMDL
MODEL 2
REMARK VINA RESULT:     -12.4      1.289      1.675
REMARK SMILES Cc1c(Cl)cc2c(c1C)O[C@@H](C(F)(F)F)C(C(=O)OCCOC(=O)c1ccc(-c3c4nc(c(-c5cccc(S(=O)(=O)[O-])c5F)c5ccc([nH]5)c(-c5cccc(S(=O)(=O)[O-])c5F)c5nc(c(-c6cccc(S(=O)(=O)[O-])c6F)c6ccc3[nH]6)C=C5)C=C4)cc1)=C2
REMARK SMILES IDX 21 1 20 2 19 3 17 4 18 5 16 6 1 7 2 8 3 9 8 10 4 11 5 12
REMARK SMILES IDX 7 13 9 14 6 15 10 16 88 17 11 18 12 19 13 20 14 21 15 22
REMARK SMILES IDX 22 23 23 24 24 25 25 26 26 27 87 28 27 29 86 30 28 31 29 32
REMARK SMILES IDX 30 33 80 34 31 35 85 36 79 37 81 38 32 39 84 40 78 41 77 42
REMARK SMILES IDX 33 44 65 45 45 46 64 47 46 48 49 49 63 50 82 51 47 52 48 53
REMARK SMILES IDX 62 55 83 56 50 57 34 58 35 59 43 60 36 61 38 62 44 63 37 64
REMARK SMILES IDX 39 65 40 66 41 67 42 68 66 69 67 70 75 71 68 72 70 73 76 74
REMARK SMILES IDX 69 75 71 76 72 77 73 78 74 79 51 80 52 81 60 82 53 83 55 84
REMARK SMILES IDX 61 85 54 86 56 87 57 88 58 89 59 90
REMARK H PARENT 81 43 49 54
REMARK Flexibility Score: inf
ROOT
ATOM      1  C   UNL A   1      36.702  20.091  25.003  1.00  0.00     0.275 C 
ENDROOT
BRANCH   1   2
ATOM      2  C   UNL A   1      35.334  20.766  24.953  1.00  0.00     0.275 C 
BRANCH   2   3
ATOM      3  O   UNL A   1      35.213  21.734  26.018  1.00  0.00    -0.459 OA
BRANCH   3   4
ATOM      4  C   UNL A   1      33.975  21.929  26.515  1.00  0.00     0.338 C 
ATOM      5  O   UNL A   1      33.433  21.271  27.392  1.00  0.00    -0.246 OA
BRANCH   4   6
ATOM      6  C   UNL A   1      33.347  23.106  25.891  1.00  0.00     0.087 C 
ATOM      7  C   UNL A   1      31.046  29.135  24.848  1.00  0.00     0.046 C 
ATOM      8  C   UNL A   1      31.798  27.843  25.051  1.00  0.00    -0.026 A 
ATOM      9  C   UNL A   1      33.123  27.899  25.536  1.00  0.00     0.045 A 
ATOM     10  C   UNL A   1      31.197  26.569  24.866  1.00  0.00    -0.004 A 
ATOM     11  Cl  UNL A   1      33.932  29.401  25.834  1.00  0.00    -0.084 Cl
ATOM     12  C   UNL A   1      33.830  26.737  25.843  1.00  0.00     0.032 A 
ATOM     13  C   UNL A   1      31.936  25.402  25.164  1.00  0.00     0.131 A 
ATOM     14  C   UNL A   1      29.778  26.379  24.387  1.00  0.00     0.049 C 
ATOM     15  C   UNL A   1      33.227  25.492  25.681  1.00  0.00     0.019 A 
ATOM     16  O   UNL A   1      31.302  24.195  24.995  1.00  0.00    -0.475 OA
ATOM     17  C   UNL A   1      33.890  24.298  26.164  1.00  0.00     0.027 C 
ATOM     18  C   UNL A   1      32.067  22.960  25.124  1.00  0.00     0.316 C 
BRANCH  18  19
ATOM     19  C   UNL A   1      32.214  22.286  23.748  1.00  0.00     0.430 C 
ATOM     20  F   UNL A   1      31.231  22.622  22.887  1.00  0.00    -0.167 F 
ATOM     21  F   UNL A   1      33.402  22.598  23.171  1.00  0.00    -0.167 F 
ATOM     22  F   UNL A   1      32.205  20.932  23.860  1.00  0.00    -0.167 F 
ENDBRANCH  18  19
ENDBRANCH   4   6
ENDBRANCH   3   4
ENDBRANCH   2   3
ENDBRANCH   1   2
BRANCH   1  23
ATOM     23  O   UNL A   1      37.732  21.095  25.027  1.00  0.00    -0.458 OA
BRANCH  23  24
ATOM     24  C   UNL A   1      38.828  20.786  25.756  1.00  0.00     0.338 C 
ATOM     25  O   UNL A   1      39.383  19.704  25.838  1.00  0.00    -0.246 OA
BRANCH  24  26
ATOM     26  C   UNL A   1      39.344  21.998  26.409  1.00  0.00     0.060 A 
ATOM     27  C   UNL A   1      38.761  23.221  26.099  1.00  0.00     0.016 A 
ATOM     28  C   UNL A   1      40.499  21.949  27.184  1.00  0.00     0.016 A 
ATOM     29  C   UNL A   1      39.420  24.405  26.421  1.00  0.00     0.010 A 
ATOM     30  C   UNL A   1      41.074  23.144  27.637  1.00  0.00     0.010 A 
ATOM     31  C   UNL A   1      40.579  24.391  27.211  1.00  0.00    -0.014 A 
BRANCH  31  32
ATOM     32  C   UNL A   1      41.272  25.670  27.558  1.00  0.00     0.031 A 
ATOM     33  C   UNL A   1      40.577  26.725  28.388  1.00  0.00     0.074 A 
ATOM     34  C   UNL A   1      42.541  25.887  27.146  1.00  0.00     0.049 A 
ATOM     35  N   UNL A   1      40.977  27.933  28.691  1.00  0.00    -0.248 NA
ATOM     36  C   UNL A   1      39.250  26.389  28.933  1.00  0.00     0.031 C 
ATOM     37  C   UNL A   1      43.338  24.957  26.343  1.00  0.00     0.029 A 
ATOM     38  N   UNL A   1      43.389  26.949  27.350  1.00  0.00    -0.354 N 
ATOM     39  C   UNL A   1      39.932  28.521  29.397  1.00  0.00     0.074 A 
ATOM     40  C   UNL A   1      38.872  27.540  29.470  1.00  0.00     0.031 C 
ATOM     41  C   UNL A   1      44.570  25.457  26.177  1.00  0.00     0.029 A 
ATOM     42  C   UNL A   1      44.628  26.786  26.771  1.00  0.00     0.049 A 
ATOM     43  H   UNL A   1      43.135  27.750  27.863  1.00  0.00     0.167 HD
ATOM     44  C   UNL A   1      39.867  29.755  29.954  1.00  0.00     0.034 A 
ATOM     45  C   UNL A   1      45.686  27.620  26.691  1.00  0.00     0.034 A 
ATOM     46  C   UNL A   1      40.956  30.694  29.958  1.00  0.00     0.049 A 
ATOM     47  C   UNL A   1      45.585  28.986  27.310  1.00  0.00     0.074 A 
ATOM     48  C   UNL A   1      41.004  31.946  30.546  1.00  0.00     0.029 A 
ATOM     49  N   UNL A   1      42.189  30.484  29.362  1.00  0.00    -0.354 N 
ATOM     50  N   UNL A   1      44.608  29.496  28.018  1.00  0.00    -0.248 NA
ATOM     51  C   UNL A   1      46.727  29.891  27.119  1.00  0.00     0.031 C 
ATOM     52  C   UNL A   1      42.259  32.503  30.285  1.00  0.00     0.029 A 
ATOM     53  C   UNL A   1      43.000  31.590  29.554  1.00  0.00     0.049 A 
ATOM     54  H   UNL A   1      42.451  29.669  28.876  1.00  0.00     0.167 HD
ATOM     55  C   UNL A   1      45.018  30.779  28.363  1.00  0.00     0.074 A 
ATOM     56  C   UNL A   1      46.348  30.954  27.817  1.00  0.00     0.031 C 
ATOM     57  C   UNL A   1      44.340  31.735  29.043  1.00  0.00     0.034 A 
BRANCH  44  58
ATOM     58  C   UNL A   1      38.592  30.157  30.652  1.00  0.00     0.023 A 
ATOM     59  C   UNL A   1      38.420  29.863  32.020  1.00  0.00     0.012 A 
ATOM     60  C   UNL A   1      37.603  30.906  29.979  1.00  0.00     0.148 A 
ATOM     61  C   UNL A   1      37.277  30.282  32.699  1.00  0.00     0.002 A 
ATOM     62  C   UNL A   1      36.487  31.359  30.674  1.00  0.00     0.091 A 
ATOM     63  F   UNL A   1      37.776  31.165  28.675  1.00  0.00    -0.205 F 
ATOM     64  C   UNL A   1      36.317  31.038  32.031  1.00  0.00     0.022 A 
BRANCH  62  65
ATOM     65  S   UNL A   1      35.236  32.411  29.930  1.00  0.00     0.127 S 
ATOM     66  O   UNL A   1      34.319  32.619  31.051  1.00  0.00    -0.237 OA
ATOM     67  O   UNL A   1      36.012  33.593  29.552  1.00  0.00    -0.237 OA
ATOM     68  O   UNL A   1      34.688  31.658  28.811  1.00  0.00    -0.744 OA
ENDBRANCH  62  65
ENDBRANCH  44  58
BRANCH  45  69
ATOM     69  C   UNL A   1      46.936  27.166  26.012  1.00  0.00     0.023 A 
ATOM     70  C   UNL A   1      47.130  27.469  24.651  1.00  0.00     0.012 A 
ATOM     71  C   UNL A   1      47.960  26.500  26.717  1.00  0.00     0.148 A 
ATOM     72  C   UNL A   1      48.314  27.110  24.004  1.00  0.00     0.002 A 
ATOM     73  C   UNL A   1      49.162  26.206  26.085  1.00  0.00     0.091 A 
ATOM     74  F   UNL A   1      47.749  26.197  28.007  1.00  0.00    -0.205 F 
ATOM     75  C   UNL A   1      49.336  26.496  24.724  1.00  0.00     0.022 A 
BRANCH  73  76
ATOM     76  S   UNL A   1      50.586  25.561  26.972  1.00  0.00     0.127 S 
ATOM     77  O   UNL A   1      50.045  24.337  27.556  1.00  0.00    -0.237 OA
ATOM     78  O   UNL A   1      51.548  25.356  25.888  1.00  0.00    -0.237 OA
ATOM     79  O   UNL A   1      50.963  26.601  27.919  1.00  0.00    -0.744 OA
ENDBRANCH  73  76
ENDBRANCH  45  69
BRANCH  57  80
ATOM     80  C   UNL A   1      45.004  33.072  29.237  1.00  0.00     0.023 A 
ATOM     81  C   UNL A   1      45.837  33.269  30.356  1.00  0.00     0.012 A 
ATOM     82  C   UNL A   1      44.919  34.075  28.251  1.00  0.00     0.148 A 
ATOM     83  C   UNL A   1      46.569  34.447  30.496  1.00  0.00     0.002 A 
ATOM     84  C   UNL A   1      45.688  35.226  28.372  1.00  0.00     0.091 A 
ATOM     85  F   UNL A   1      44.111  33.869  27.201  1.00  0.00    -0.205 F 
ATOM     86  C   UNL A   1      46.507  35.417  29.498  1.00  0.00     0.022 A 
BRANCH  84  87
ATOM     87  S   UNL A   1      45.760  36.486  27.094  1.00  0.00     0.127 S 
ATOM     88  O   UNL A   1      46.217  35.712  25.940  1.00  0.00    -0.237 OA
ATOM     89  O   UNL A   1      44.367  36.927  27.019  1.00  0.00    -0.237 OA
ATOM     90  O   UNL A   1      46.695  37.495  27.570  1.00  0.00    -0.744 OA
ENDBRANCH  84  87
ENDBRANCH  57  80
ENDBRANCH  31  32
ENDBRANCH  24  26
ENDBRANCH  23  24
ENDBRANCH   1  23
TORSDOF 15
ENDMDL
MODEL 3
REMARK VINA RESULT:     -12.3      5.297     10.076
REMARK SMILES Cc1c(Cl)cc2c(c1C)O[C@@H](C(F)(F)F)C(C(=O)OCCOC(=O)c1ccc(-c3c4nc(c(-c5cccc(S(=O)(=O)[O-])c5F)c5ccc([nH]5)c(-c5cccc(S(=O)(=O)[O-])c5F)c5nc(c(-c6cccc(S(=O)(=O)[O-])c6F)c6ccc3[nH]6)C=C5)C=C4)cc1)=C2
REMARK SMILES IDX 21 1 20 2 19 3 17 4 18 5 16 6 1 7 2 8 3 9 8 10 4 11 5 12
REMARK SMILES IDX 7 13 9 14 6 15 10 16 88 17 11 18 12 19 13 20 14 21 15 22
REMARK SMILES IDX 22 23 23 24 24 25 25 26 26 27 87 28 27 29 86 30 28 31 29 32
REMARK SMILES IDX 30 33 80 34 31 35 85 36 79 37 81 38 32 39 84 40 78 41 77 42
REMARK SMILES IDX 33 44 65 45 45 46 64 47 46 48 49 49 63 50 82 51 47 52 48 53
REMARK SMILES IDX 62 55 83 56 50 57 34 58 35 59 43 60 36 61 38 62 44 63 37 64
REMARK SMILES IDX 39 65 40 66 41 67 42 68 66 69 67 70 75 71 68 72 70 73 76 74
REMARK SMILES IDX 69 75 71 76 72 77 73 78 74 79 51 80 52 81 60 82 53 83 55 84
REMARK SMILES IDX 61 85 54 86 56 87 57 88 58 89 59 90
REMARK H PARENT 81 43 49 54
REMARK Flexibility Score: inf
ROOT
ATOM      1  C   UNL A   1      31.356  30.474  25.666  1.00  0.00     0.275 C 
ENDROOT
BRANCH   1   2
ATOM      2  C   UNL A   1      31.156  29.371  24.630  1.00  0.00     0.275 C 
BRANCH   2   3
ATOM      3  O   UNL A   1      32.292  28.481  24.618  1.00  0.00    -0.459 OA
BRANCH   3   4
ATOM      4  C   UNL A   1      32.366  27.613  23.589  1.00  0.00     0.338 C 
ATOM      5  O   UNL A   1      32.296  27.890  22.401  1.00  0.00    -0.246 OA
BRANCH   4   6
ATOM      6  C   UNL A   1      32.603  26.246  24.083  1.00  0.00     0.087 C 
ATOM      7  C   UNL A   1      35.158  20.302  25.009  1.00  0.00     0.046 C 
ATOM      8  C   UNL A   1      34.757  21.754  24.930  1.00  0.00    -0.026 A 
ATOM      9  C   UNL A   1      35.763  22.741  25.017  1.00  0.00     0.045 A 
ATOM     10  C   UNL A   1      33.422  22.167  24.677  1.00  0.00    -0.004 A 
ATOM     11  Cl  UNL A   1      37.427  22.339  25.282  1.00  0.00    -0.084 Cl
ATOM     12  C   UNL A   1      35.467  24.092  24.845  1.00  0.00     0.032 A 
ATOM     13  C   UNL A   1      33.137  23.543  24.525  1.00  0.00     0.131 A 
ATOM     14  C   UNL A   1      32.267  21.207  24.528  1.00  0.00     0.049 C 
ATOM     15  C   UNL A   1      34.159  24.489  24.574  1.00  0.00     0.019 A 
ATOM     16  O   UNL A   1      31.835  23.890  24.255  1.00  0.00    -0.475 OA
ATOM     17  C   UNL A   1      33.878  25.866  24.221  1.00  0.00     0.027 C 
ATOM     18  C   UNL A   1      31.455  25.298  24.257  1.00  0.00     0.316 C 
BRANCH  18  19
ATOM     19  C   UNL A   1      30.551  25.596  25.466  1.00  0.00     0.430 C 
ATOM     20  F   UNL A   1      30.089  24.482  26.069  1.00  0.00    -0.167 F 
ATOM     21  F   UNL A   1      31.202  26.338  26.396  1.00  0.00    -0.167 F 
ATOM     22  F   UNL A   1      29.469  26.333  25.101  1.00  0.00    -0.167 F 
ENDBRANCH  18  19
ENDBRANCH   4   6
ENDBRANCH   3   4
ENDBRANCH   2   3
ENDBRANCH   1   2
BRANCH   1  23
ATOM     23  O   UNL A   1      32.570  30.230  26.398  1.00  0.00    -0.458 OA
BRANCH  23  24
ATOM     24  C   UNL A   1      33.105  31.309  27.013  1.00  0.00     0.338 C 
ATOM     25  O   UNL A   1      32.568  32.382  27.228  1.00  0.00    -0.246 OA
BRANCH  24  26
ATOM     26  C   UNL A   1      34.459  30.986  27.487  1.00  0.00     0.060 A 
ATOM     27  C   UNL A   1      34.791  29.653  27.695  1.00  0.00     0.016 A 
ATOM     28  C   UNL A   1      35.329  31.996  27.888  1.00  0.00     0.016 A 
ATOM     29  C   UNL A   1      35.916  29.327  28.449  1.00  0.00     0.010 A 
ATOM     30  C   UNL A   1      36.537  31.654  28.511  1.00  0.00     0.010 A 
ATOM     31  C   UNL A   1      36.820  30.320  28.857  1.00  0.00    -0.014 A 
BRANCH  31  32
ATOM     32  C   UNL A   1      38.028  29.956  29.659  1.00  0.00     0.031 A 
ATOM     33  C   UNL A   1      39.111  29.081  29.070  1.00  0.00     0.074 A 
ATOM     34  C   UNL A   1      38.174  30.426  30.917  1.00  0.00     0.049 A 
ATOM     35  N   UNL A   1      40.169  28.574  29.651  1.00  0.00    -0.248 NA
ATOM     36  C   UNL A   1      38.981  28.707  27.651  1.00  0.00     0.031 C 
ATOM     37  C   UNL A   1      37.212  31.285  31.614  1.00  0.00     0.029 A 
ATOM     38  N   UNL A   1      39.184  30.260  31.834  1.00  0.00    -0.354 N 
ATOM     39  C   UNL A   1      40.788  27.774  28.695  1.00  0.00     0.074 A 
ATOM     40  C   UNL A   1      39.982  27.852  27.497  1.00  0.00     0.031 C 
ATOM     41  C   UNL A   1      37.704  31.618  32.815  1.00  0.00     0.029 A 
ATOM     42  C   UNL A   1      38.967  30.922  33.022  1.00  0.00     0.049 A 
ATOM     43  H   UNL A   1      39.988  29.720  31.658  1.00  0.00     0.167 HD
ATOM     44  C   UNL A   1      41.934  27.057  28.795  1.00  0.00     0.034 A 
ATOM     45  C   UNL A   1      39.678  30.944  34.168  1.00  0.00     0.034 A 
ATOM     46  C   UNL A   1      42.781  27.053  29.958  1.00  0.00     0.049 A 
ATOM     47  C   UNL A   1      40.941  30.134  34.256  1.00  0.00     0.074 A 
ATOM     48  C   UNL A   1      43.990  26.403  30.133  1.00  0.00     0.029 A 
ATOM     49  N   UNL A   1      42.521  27.739  31.133  1.00  0.00    -0.354 N 
ATOM     50  N   UNL A   1      41.533  29.430  33.323  1.00  0.00    -0.248 NA
ATOM     51  C   UNL A   1      41.634  30.117  35.553  1.00  0.00     0.031 C 
ATOM     52  C   UNL A   1      44.450  26.677  31.424  1.00  0.00     0.029 A 
ATOM     53  C   UNL A   1      43.539  27.515  32.045  1.00  0.00     0.049 A 
ATOM     54  H   UNL A   1      41.731  28.303  31.296  1.00  0.00     0.167 HD
ATOM     55  C   UNL A   1      42.669  28.892  33.915  1.00  0.00     0.074 A 
ATOM     56  C   UNL A   1      42.704  29.381  35.278  1.00  0.00     0.031 C 
ATOM     57  C   UNL A   1      43.584  28.043  33.384  1.00  0.00     0.034 A 
BRANCH  44  58
ATOM     58  C   UNL A   1      42.376  26.246  27.603  1.00  0.00     0.023 A 
ATOM     59  C   UNL A   1      43.245  26.817  26.651  1.00  0.00     0.012 A 
ATOM     60  C   UNL A   1      42.005  24.890  27.472  1.00  0.00     0.148 A 
ATOM     61  C   UNL A   1      43.715  26.064  25.576  1.00  0.00     0.002 A 
ATOM     62  C   UNL A   1      42.515  24.133  26.423  1.00  0.00     0.091 A 
ATOM     63  F   UNL A   1      41.168  24.367  28.379  1.00  0.00    -0.205 F 
ATOM     64  C   UNL A   1      43.361  24.721  25.468  1.00  0.00     0.022 A 
BRANCH  62  65
ATOM     65  S   UNL A   1      42.190  22.376  26.241  1.00  0.00     0.127 S 
ATOM     66  O   UNL A   1      40.732  22.355  26.127  1.00  0.00    -0.237 OA
ATOM     67  O   UNL A   1      42.900  22.059  25.001  1.00  0.00    -0.237 OA
ATOM     68  O   UNL A   1      42.730  21.739  27.433  1.00  0.00    -0.744 OA
ENDBRANCH  62  65
ENDBRANCH  44  58
BRANCH  45  69
ATOM     69  C   UNL A   1      39.214  31.784  35.313  1.00  0.00     0.023 A 
ATOM     70  C   UNL A   1      38.360  31.220  36.279  1.00  0.00     0.012 A 
ATOM     71  C   UNL A   1      39.664  33.109  35.487  1.00  0.00     0.148 A 
ATOM     72  C   UNL A   1      37.956  31.961  37.391  1.00  0.00     0.002 A 
ATOM     73  C   UNL A   1      39.312  33.818  36.630  1.00  0.00     0.091 A 
ATOM     74  F   UNL A   1      40.457  33.639  34.544  1.00  0.00    -0.205 F 
ATOM     75  C   UNL A   1      38.445  33.251  37.576  1.00  0.00     0.022 A 
BRANCH  73  76
ATOM     76  S   UNL A   1      40.020  35.421  37.026  1.00  0.00     0.127 S 
ATOM     77  O   UNL A   1      39.598  36.225  35.883  1.00  0.00    -0.237 OA
ATOM     78  O   UNL A   1      39.351  35.742  38.288  1.00  0.00    -0.237 OA
ATOM     79  O   UNL A   1      41.454  35.198  37.148  1.00  0.00    -0.744 OA
ENDBRANCH  73  76
ENDBRANCH  45  69
BRANCH  57  80
ATOM     80  C   UNL A   1      44.704  27.567  34.270  1.00  0.00     0.023 A 
ATOM     81  C   UNL A   1      45.864  28.357  34.395  1.00  0.00     0.012 A 
ATOM     82  C   UNL A   1      44.554  26.423  35.078  1.00  0.00     0.148 A 
ATOM     83  C   UNL A   1      46.862  28.011  35.304  1.00  0.00     0.002 A 
ATOM     84  C   UNL A   1      45.531  26.111  36.017  1.00  0.00     0.091 A 
ATOM     85  F   UNL A   1      43.447  25.681  34.934  1.00  0.00    -0.205 F 
ATOM     86  C   UNL A   1      46.689  26.900  36.126  1.00  0.00     0.022 A 
BRANCH  84  87
ATOM     87  S   UNL A   1      45.354  24.764  37.192  1.00  0.00     0.127 S 
ATOM     88  O   UNL A   1      45.384  23.597  36.311  1.00  0.00    -0.237 OA
ATOM     89  O   UNL A   1      46.542  24.926  38.028  1.00  0.00    -0.237 OA
ATOM     90  O   UNL A   1      44.089  24.987  37.878  1.00  0.00    -0.744 OA
ENDBRANCH  84  87
ENDBRANCH  57  80
ENDBRANCH  31  32
ENDBRANCH  24  26
ENDBRANCH  23  24
ENDBRANCH   1  23
TORSDOF 15
ENDMDL
