MODEL 1
REMARK VINA RESULT:     -11.4      0.000      0.000
REMARK SMILES CC(=O)NCCc1c[nH]c2ccc(C(=O)OCCOC(=O)c3ccc(-c4c5nc(c(-c6cccc(S(=O)(=O)[O-])c6F)c6ccc([nH]6)c(-c6cccc(S(=O)(=O)[O-])c6F)c6nc(c(-c7cccc(S(=O)(=O)[O-])c7F)c7ccc4[nH]7)C=C6)C=C5)cc3)cc12
REMARK SMILES IDX 17 1 16 2 14 3 15 4 13 5 7 6 8 7 86 8 9 9 10 10 85 11 11 13
REMARK SMILES IDX 12 14 6 15 5 16 4 17 1 18 2 19 3 20 18 22 19 23 20 24 21 25
REMARK SMILES IDX 22 26 23 27 84 28 24 29 83 30 25 31 26 32 27 33 77 34 28 35
REMARK SMILES IDX 82 36 76 37 78 38 29 39 81 40 75 41 74 42 30 44 62 45 42 46
REMARK SMILES IDX 61 47 43 48 46 49 60 50 79 51 44 52 45 53 59 55 80 56 47 57
REMARK SMILES IDX 31 58 32 59 40 60 33 61 35 62 41 63 34 64 36 65 37 66 38 67
REMARK SMILES IDX 39 68 63 69 64 70 72 71 65 72 67 73 73 74 66 75 68 76 69 77
REMARK SMILES IDX 70 78 71 79 48 80 49 81 57 82 50 83 52 84 58 85 51 86 53 87
REMARK SMILES IDX 54 88 55 89 56 90
REMARK H PARENT 9 12 4 21 78 43 46 54
REMARK Flexibility Score: inf
ROOT
ATOM      1  C   UNL A   1      35.479  21.295  25.429  1.00  0.00     0.275 C 
ENDROOT
BRANCH   1   2
ATOM      2  O   UNL A   1      34.506  21.488  24.382  1.00  0.00    -0.458 OA
BRANCH   2   3
ATOM      3  C   UNL A   1      34.503  22.709  23.791  1.00  0.00     0.338 C 
ATOM      4  O   UNL A   1      35.306  23.112  22.964  1.00  0.00    -0.246 OA
BRANCH   3   5
ATOM      5  C   UNL A   1      33.338  23.513  24.237  1.00  0.00     0.060 A 
ATOM      6  C   UNL A   1      32.405  26.819  25.976  1.00  0.00    -0.021 A 
ATOM      7  C   UNL A   1      31.054  27.042  26.169  1.00  0.00     0.087 A 
ATOM      8  C   UNL A   1      32.517  25.524  25.358  1.00  0.00     0.003 A 
ATOM      9  N   UNL A   1      30.357  25.987  25.655  1.00  0.00    -0.361 N 
ATOM     10  C   UNL A   1      31.220  25.062  25.120  1.00  0.00     0.046 A 
ATOM     11  C   UNL A   1      33.587  24.701  24.949  1.00  0.00     0.026 A 
ATOM     12  H   UNL A   1      29.376  25.901  25.666  1.00  0.00     0.166 HD
ATOM     13  C   UNL A   1      30.945  23.861  24.449  1.00  0.00     0.027 A 
ATOM     14  C   UNL A   1      32.027  23.104  23.989  1.00  0.00     0.018 A 
BRANCH   6  15
ATOM     15  C   UNL A   1      33.477  27.806  26.358  1.00  0.00     0.059 C 
BRANCH  15  16
ATOM     16  C   UNL A   1      33.711  28.955  25.381  1.00  0.00     0.120 C 
BRANCH  16  17
ATOM     17  N   UNL A   1      34.226  28.543  24.086  1.00  0.00    -0.356 N 
ATOM     18  C   UNL A   1      32.099  28.758  22.863  1.00  0.00     0.114 C 
ATOM     19  C   UNL A   1      33.571  28.458  22.894  1.00  0.00     0.216 C 
ATOM     20  O   UNL A   1      34.194  28.128  21.886  1.00  0.00    -0.275 OA
ATOM     21  H   UNL A   1      35.176  28.288  24.068  1.00  0.00     0.163 HD
ENDBRANCH  16  17
ENDBRANCH  15  16
ENDBRANCH   6  15
ENDBRANCH   3   5
ENDBRANCH   2   3
ENDBRANCH   1   2
BRANCH   1  22
ATOM     22  C   UNL A   1      36.643  20.419  24.966  1.00  0.00     0.275 C 
BRANCH  22  23
ATOM     23  O   UNL A   1      37.839  21.202  24.800  1.00  0.00    -0.458 OA
BRANCH  23  24
ATOM     24  C   UNL A   1      38.859  20.881  25.628  1.00  0.00     0.338 C 
ATOM     25  O   UNL A   1      39.404  19.797  25.740  1.00  0.00    -0.246 OA
BRANCH  24  26
ATOM     26  C   UNL A   1      39.300  22.073  26.367  1.00  0.00     0.060 A 
ATOM     27  C   UNL A   1      38.681  23.282  26.086  1.00  0.00     0.016 A 
ATOM     28  C   UNL A   1      40.427  22.040  27.189  1.00  0.00     0.016 A 
ATOM     29  C   UNL A   1      39.259  24.471  26.524  1.00  0.00     0.010 A 
ATOM     30  C   UNL A   1      40.960  23.241  27.689  1.00  0.00     0.010 A 
ATOM     31  C   UNL A   1      40.432  24.484  27.296  1.00  0.00    -0.014 A 
BRANCH  31  32
ATOM     32  C   UNL A   1      41.132  25.788  27.554  1.00  0.00     0.031 A 
ATOM     33  C   UNL A   1      40.466  26.873  28.378  1.00  0.00     0.074 A 
ATOM     34  C   UNL A   1      42.415  25.980  27.174  1.00  0.00     0.049 A 
ATOM     35  N   UNL A   1      40.922  28.061  28.700  1.00  0.00    -0.248 NA
ATOM     36  C   UNL A   1      39.131  26.587  28.927  1.00  0.00     0.031 C 
ATOM     37  C   UNL A   1      43.222  25.029  26.411  1.00  0.00     0.029 A 
ATOM     38  N   UNL A   1      43.277  27.030  27.403  1.00  0.00    -0.354 N 
ATOM     39  C   UNL A   1      39.914  28.675  29.437  1.00  0.00     0.074 A 
ATOM     40  C   UNL A   1      38.817  27.735  29.507  1.00  0.00     0.031 C 
ATOM     41  C   UNL A   1      44.469  25.505  26.287  1.00  0.00     0.029 A 
ATOM     42  C   UNL A   1      44.534  26.842  26.872  1.00  0.00     0.049 A 
ATOM     43  H   UNL A   1      43.019  27.840  27.900  1.00  0.00     0.167 HD
ATOM     44  C   UNL A   1      39.903  29.887  30.042  1.00  0.00     0.034 A 
ATOM     45  C   UNL A   1      45.612  27.652  26.817  1.00  0.00     0.034 A 
ATOM     46  C   UNL A   1      41.005  30.811  30.063  1.00  0.00     0.049 A 
ATOM     47  C   UNL A   1      45.546  29.026  27.425  1.00  0.00     0.074 A 
ATOM     48  C   UNL A   1      41.071  32.052  30.675  1.00  0.00     0.029 A 
ATOM     49  N   UNL A   1      42.232  30.598  29.462  1.00  0.00    -0.354 N 
ATOM     50  N   UNL A   1      44.591  29.568  28.137  1.00  0.00    -0.248 NA
ATOM     51  C   UNL A   1      46.712  29.900  27.219  1.00  0.00     0.031 C 
ATOM     52  C   UNL A   1      42.336  32.596  30.432  1.00  0.00     0.029 A 
ATOM     53  C   UNL A   1      43.062  31.687  29.680  1.00  0.00     0.049 A 
ATOM     54  H   UNL A   1      42.480  29.793  28.954  1.00  0.00     0.167 HD
ATOM     55  C   UNL A   1      45.044  30.837  28.479  1.00  0.00     0.074 A 
ATOM     56  C   UNL A   1      46.374  30.974  27.922  1.00  0.00     0.031 C 
ATOM     57  C   UNL A   1      44.402  31.810  29.172  1.00  0.00     0.034 A 
BRANCH  44  58
ATOM     58  C   UNL A   1      38.652  30.278  30.784  1.00  0.00     0.023 A 
ATOM     59  C   UNL A   1      38.500  29.912  32.135  1.00  0.00     0.012 A 
ATOM     60  C   UNL A   1      37.655  31.052  30.158  1.00  0.00     0.148 A 
ATOM     61  C   UNL A   1      37.363  30.290  32.848  1.00  0.00     0.002 A 
ATOM     62  C   UNL A   1      36.540  31.455  30.885  1.00  0.00     0.091 A 
ATOM     63  F   UNL A   1      37.807  31.369  28.865  1.00  0.00    -0.205 F 
ATOM     64  C   UNL A   1      36.389  31.069  32.228  1.00  0.00     0.022 A 
BRANCH  62  65
ATOM     65  S   UNL A   1      35.268  32.511  30.183  1.00  0.00     0.127 S 
ATOM     66  O   UNL A   1      34.363  32.682  31.320  1.00  0.00    -0.237 OA
ATOM     67  O   UNL A   1      36.022  33.711  29.820  1.00  0.00    -0.237 OA
ATOM     68  O   UNL A   1      34.722  31.776  29.050  1.00  0.00    -0.744 OA
ENDBRANCH  62  65
ENDBRANCH  44  58
BRANCH  45  69
ATOM     69  C   UNL A   1      46.857  27.182  26.142  1.00  0.00     0.023 A 
ATOM     70  C   UNL A   1      47.067  27.464  24.778  1.00  0.00     0.012 A 
ATOM     71  C   UNL A   1      47.852  26.489  26.857  1.00  0.00     0.148 A 
ATOM     72  C   UNL A   1      48.240  27.057  24.141  1.00  0.00     0.002 A 
ATOM     73  C   UNL A   1      49.049  26.154  26.237  1.00  0.00     0.091 A 
ATOM     74  F   UNL A   1      47.618  26.185  28.142  1.00  0.00    -0.205 F 
ATOM     75  C   UNL A   1      49.239  26.420  24.873  1.00  0.00     0.022 A 
BRANCH  73  76
ATOM     76  S   UNL A   1      50.439  25.497  27.165  1.00  0.00     0.127 S 
ATOM     77  O   UNL A   1      51.439  25.313  26.117  1.00  0.00    -0.237 OA
ATOM     78  O   UNL A   1      50.721  26.583  28.105  1.00  0.00    -0.237 OA
ATOM     79  O   UNL A   1      49.940  24.281  27.795  1.00  0.00    -0.744 OA
ENDBRANCH  73  76
ENDBRANCH  45  69
BRANCH  57  80
ATOM     80  C   UNL A   1      45.127  33.112  29.392  1.00  0.00     0.023 A 
ATOM     81  C   UNL A   1      46.112  33.198  30.397  1.00  0.00     0.012 A 
ATOM     82  C   UNL A   1      44.885  34.228  28.567  1.00  0.00     0.148 A 
ATOM     83  C   UNL A   1      46.824  34.382  30.594  1.00  0.00     0.002 A 
ATOM     84  C   UNL A   1      45.629  35.390  28.741  1.00  0.00     0.091 A 
ATOM     85  F   UNL A   1      43.928  34.138  27.632  1.00  0.00    -0.205 F 
ATOM     86  C   UNL A   1      46.591  35.472  29.760  1.00  0.00     0.022 A 
BRANCH  84  87
ATOM     87  S   UNL A   1      45.452  36.808  27.651  1.00  0.00     0.127 S 
ATOM     88  O   UNL A   1      46.524  37.683  28.122  1.00  0.00    -0.237 OA
ATOM     89  O   UNL A   1      45.682  36.221  26.330  1.00  0.00    -0.237 OA
ATOM     90  O   UNL A   1      44.097  37.300  27.861  1.00  0.00    -0.744 OA
ENDBRANCH  84  87
ENDBRANCH  57  80
ENDBRANCH  31  32
ENDBRANCH  24  26
ENDBRANCH  23  24
ENDBRANCH  22  23
ENDBRANCH   1  22
TORSDOF 17
ENDMDL
MODEL 2
REMARK VINA RESULT:     -11.4      1.725      7.865
REMARK SMILES CC(=O)NCCc1c[nH]c2ccc(C(=O)OCCOC(=O)c3ccc(-c4c5nc(c(-c6cccc(S(=O)(=O)[O-])c6F)c6ccc([nH]6)c(-c6cccc(S(=O)(=O)[O-])c6F)c6nc(c(-c7cccc(S(=O)(=O)[O-])c7F)c7ccc4[nH]7)C=C6)C=C5)cc3)cc12
REMARK SMILES IDX 17 1 16 2 14 3 15 4 13 5 7 6 8 7 86 8 9 9 10 10 85 11 11 13
REMARK SMILES IDX 12 14 6 15 5 16 4 17 1 18 2 19 3 20 18 22 19 23 20 24 21 25
REMARK SMILES IDX 22 26 23 27 84 28 24 29 83 30 25 31 26 32 27 33 77 34 28 35
REMARK SMILES IDX 82 36 76 37 78 38 29 39 81 40 75 41 74 42 30 44 62 45 42 46
REMARK SMILES IDX 61 47 43 48 46 49 60 50 79 51 44 52 45 53 59 55 80 56 47 57
REMARK SMILES IDX 31 58 32 59 40 60 33 61 35 62 41 63 34 64 36 65 37 66 38 67
REMARK SMILES IDX 39 68 63 69 64 70 72 71 65 72 67 73 73 74 66 75 68 76 69 77
REMARK SMILES IDX 70 78 71 79 48 80 49 81 57 82 50 83 52 84 58 85 51 86 53 87
REMARK SMILES IDX 54 88 55 89 56 90
REMARK H PARENT 9 12 4 21 78 43 46 54
REMARK Flexibility Score: inf
ROOT
ATOM      1  C   UNL A   1      36.051  21.061  25.000  1.00  0.00     0.275 C 
ENDROOT
BRANCH   1   2
ATOM      2  O   UNL A   1      36.060  22.496  24.857  1.00  0.00    -0.458 OA
BRANCH   2   3
ATOM      3  C   UNL A   1      35.858  22.968  23.601  1.00  0.00     0.338 C 
ATOM      4  O   UNL A   1      36.653  22.921  22.675  1.00  0.00    -0.246 OA
BRANCH   3   5
ATOM      5  C   UNL A   1      34.488  23.520  23.455  1.00  0.00     0.060 A 
ATOM      6  C   UNL A   1      32.552  26.839  23.201  1.00  0.00    -0.021 A 
ATOM      7  C   UNL A   1      31.177  26.733  23.106  1.00  0.00     0.087 A 
ATOM      8  C   UNL A   1      33.054  25.496  23.327  1.00  0.00     0.003 A 
ATOM      9  N   UNL A   1      30.838  25.411  23.112  1.00  0.00    -0.361 N 
ATOM     10  C   UNL A   1      31.964  24.631  23.208  1.00  0.00     0.046 A 
ATOM     11  C   UNL A   1      34.329  24.918  23.504  1.00  0.00     0.026 A 
ATOM     12  H   UNL A   1      29.917  25.066  23.056  1.00  0.00     0.166 HD
ATOM     13  C   UNL A   1      32.091  23.234  23.198  1.00  0.00     0.027 A 
ATOM     14  C   UNL A   1      33.376  22.691  23.300  1.00  0.00     0.018 A 
BRANCH   6  15
ATOM     15  C   UNL A   1      33.293  28.150  23.158  1.00  0.00     0.059 C 
BRANCH  15  16
ATOM     16  C   UNL A   1      32.913  29.172  24.227  1.00  0.00     0.120 C 
BRANCH  16  17
ATOM     17  N   UNL A   1      33.900  29.328  25.282  1.00  0.00    -0.356 N 
ATOM     18  C   UNL A   1      32.820  27.813  26.896  1.00  0.00     0.114 C 
ATOM     19  C   UNL A   1      33.948  28.725  26.503  1.00  0.00     0.216 C 
ATOM     20  O   UNL A   1      34.898  28.953  27.251  1.00  0.00    -0.275 OA
ATOM     21  H   UNL A   1      34.633  29.956  25.089  1.00  0.00     0.163 HD
ENDBRANCH  16  17
ENDBRANCH  15  16
ENDBRANCH   6  15
ENDBRANCH   3   5
ENDBRANCH   2   3
ENDBRANCH   1   2
BRANCH   1  22
ATOM     22  C   UNL A   1      37.467  20.483  25.002  1.00  0.00     0.275 C 
BRANCH  22  23
ATOM     23  O   UNL A   1      38.445  21.523  25.175  1.00  0.00    -0.458 OA
BRANCH  23  24
ATOM     24  C   UNL A   1      39.427  21.250  26.064  1.00  0.00     0.338 C 
ATOM     25  O   UNL A   1      40.049  20.207  26.178  1.00  0.00    -0.246 OA
BRANCH  24  26
ATOM     26  C   UNL A   1      39.719  22.442  26.874  1.00  0.00     0.060 A 
ATOM     27  C   UNL A   1      39.029  23.611  26.588  1.00  0.00     0.016 A 
ATOM     28  C   UNL A   1      40.781  22.462  27.778  1.00  0.00     0.016 A 
ATOM     29  C   UNL A   1      39.479  24.822  27.108  1.00  0.00     0.010 A 
ATOM     30  C   UNL A   1      41.180  23.679  28.357  1.00  0.00     0.010 A 
ATOM     31  C   UNL A   1      40.587  24.892  27.967  1.00  0.00    -0.014 A 
BRANCH  31  32
ATOM     32  C   UNL A   1      41.162  26.234  28.321  1.00  0.00     0.031 A 
ATOM     33  C   UNL A   1      42.575  26.602  27.911  1.00  0.00     0.074 A 
ATOM     34  C   UNL A   1      40.400  27.193  28.894  1.00  0.00     0.049 A 
ATOM     35  N   UNL A   1      43.235  27.715  28.133  1.00  0.00    -0.248 NA
ATOM     36  C   UNL A   1      43.340  25.608  27.141  1.00  0.00     0.031 C 
ATOM     37  C   UNL A   1      39.010  27.028  29.318  1.00  0.00     0.029 A 
ATOM     38  N   UNL A   1      40.679  28.508  29.196  1.00  0.00    -0.354 N 
ATOM     39  C   UNL A   1      44.498  27.532  27.579  1.00  0.00     0.074 A 
ATOM     40  C   UNL A   1      44.520  26.198  27.021  1.00  0.00     0.031 C 
ATOM     41  C   UNL A   1      38.540  28.201  29.763  1.00  0.00     0.029 A 
ATOM     42  C   UNL A   1      39.619  29.186  29.756  1.00  0.00     0.049 A 
ATOM     43  H   UNL A   1      41.555  28.925  29.026  1.00  0.00     0.167 HD
ATOM     44  C   UNL A   1      45.538  28.396  27.496  1.00  0.00     0.034 A 
ATOM     45  C   UNL A   1      39.518  30.438  30.248  1.00  0.00     0.034 A 
ATOM     46  C   UNL A   1      45.524  29.756  27.966  1.00  0.00     0.049 A 
ATOM     47  C   UNL A   1      40.712  31.351  30.219  1.00  0.00     0.074 A 
ATOM     48  C   UNL A   1      46.537  30.697  27.898  1.00  0.00     0.029 A 
ATOM     49  N   UNL A   1      44.448  30.374  28.577  1.00  0.00    -0.354 N 
ATOM     50  N   UNL A   1      41.883  31.160  29.666  1.00  0.00    -0.248 NA
ATOM     51  C   UNL A   1      40.568  32.656  30.885  1.00  0.00     0.031 C 
ATOM     52  C   UNL A   1      46.077  31.883  28.480  1.00  0.00     0.029 A 
ATOM     53  C   UNL A   1      44.773  31.682  28.900  1.00  0.00     0.049 A 
ATOM     54  H   UNL A   1      43.579  29.947  28.758  1.00  0.00     0.167 HD
ATOM     55  C   UNL A   1      42.609  32.323  29.901  1.00  0.00     0.074 A 
ATOM     56  C   UNL A   1      41.736  33.227  30.620  1.00  0.00     0.031 C 
ATOM     57  C   UNL A   1      43.894  32.603  29.570  1.00  0.00     0.034 A 
BRANCH  44  58
ATOM     58  C   UNL A   1      46.793  27.906  26.823  1.00  0.00     0.023 A 
ATOM     59  C   UNL A   1      47.811  27.314  27.595  1.00  0.00     0.012 A 
ATOM     60  C   UNL A   1      46.939  27.984  25.424  1.00  0.00     0.148 A 
ATOM     61  C   UNL A   1      48.968  26.826  26.989  1.00  0.00     0.002 A 
ATOM     62  C   UNL A   1      48.080  27.465  24.822  1.00  0.00     0.091 A 
ATOM     63  F   UNL A   1      45.970  28.573  24.710  1.00  0.00    -0.205 F 
ATOM     64  C   UNL A   1      49.098  26.892  25.603  1.00  0.00     0.022 A 
BRANCH  62  65
ATOM     65  S   UNL A   1      48.303  27.451  23.040  1.00  0.00     0.127 S 
ATOM     66  O   UNL A   1      49.616  28.081  22.899  1.00  0.00    -0.237 OA
ATOM     67  O   UNL A   1      48.278  26.021  22.732  1.00  0.00    -0.237 OA
ATOM     68  O   UNL A   1      47.182  28.204  22.494  1.00  0.00    -0.744 OA
ENDBRANCH  62  65
ENDBRANCH  44  58
BRANCH  45  69
ATOM     69  C   UNL A   1      38.224  30.902  30.830  1.00  0.00     0.023 A 
ATOM     70  C   UNL A   1      37.979  30.753  32.208  1.00  0.00     0.012 A 
ATOM     71  C   UNL A   1      37.251  31.527  30.027  1.00  0.00     0.148 A 
ATOM     72  C   UNL A   1      36.786  31.210  32.772  1.00  0.00     0.002 A 
ATOM     73  C   UNL A   1      36.100  32.047  30.605  1.00  0.00     0.091 A 
ATOM     74  F   UNL A   1      37.477  31.619  28.708  1.00  0.00    -0.205 F 
ATOM     75  C   UNL A   1      35.856  31.874  31.975  1.00  0.00     0.022 A 
BRANCH  73  76
ATOM     76  S   UNL A   1      34.954  33.066  29.671  1.00  0.00     0.127 S 
ATOM     77  O   UNL A   1      34.396  32.101  28.727  1.00  0.00    -0.237 OA
ATOM     78  O   UNL A   1      34.029  33.519  30.710  1.00  0.00    -0.237 OA
ATOM     79  O   UNL A   1      35.767  34.130  29.096  1.00  0.00    -0.744 OA
ENDBRANCH  73  76
ENDBRANCH  45  69
BRANCH  57  80
ATOM     80  C   UNL A   1      44.443  33.950  29.961  1.00  0.00     0.023 A 
ATOM     81  C   UNL A   1      45.162  34.085  31.166  1.00  0.00     0.012 A 
ATOM     82  C   UNL A   1      44.308  35.065  29.111  1.00  0.00     0.148 A 
ATOM     83  C   UNL A   1      45.713  35.314  31.530  1.00  0.00     0.002 A 
ATOM     84  C   UNL A   1      44.897  36.276  29.459  1.00  0.00     0.091 A 
ATOM     85  F   UNL A   1      43.599  34.927  27.980  1.00  0.00    -0.205 F 
ATOM     86  C   UNL A   1      45.591  36.405  30.672  1.00  0.00     0.022 A 
BRANCH  84  87
ATOM     87  S   UNL A   1      44.861  37.704  28.369  1.00  0.00     0.127 S 
ATOM     88  O   UNL A   1      45.538  37.189  27.180  1.00  0.00    -0.237 OA
ATOM     89  O   UNL A   1      43.426  37.935  28.199  1.00  0.00    -0.237 OA
ATOM     90  O   UNL A   1      45.558  38.763  29.084  1.00  0.00    -0.744 OA
ENDBRANCH  84  87
ENDBRANCH  57  80
ENDBRANCH  31  32
ENDBRANCH  24  26
ENDBRANCH  23  24
ENDBRANCH  22  23
ENDBRANCH   1  22
TORSDOF 17
ENDMDL
MODEL 3
REMARK VINA RESULT:     -11.3      5.438      8.588
REMARK SMILES CC(=O)NCCc1c[nH]c2ccc(C(=O)OCCOC(=O)c3ccc(-c4c5nc(c(-c6cccc(S(=O)(=O)[O-])c6F)c6ccc([nH]6)c(-c6cccc(S(=O)(=O)[O-])c6F)c6nc(c(-c7cccc(S(=O)(=O)[O-])c7F)c7ccc4[nH]7)C=C6)C=C5)cc3)cc12
REMARK SMILES IDX 17 1 16 2 14 3 15 4 13 5 7 6 8 7 86 8 9 9 10 10 85 11 11 13
REMARK SMILES IDX 12 14 6 15 5 16 4 17 1 18 2 19 3 20 18 22 19 23 20 24 21 25
REMARK SMILES IDX 22 26 23 27 84 28 24 29 83 30 25 31 26 32 27 33 77 34 28 35
REMARK SMILES IDX 82 36 76 37 78 38 29 39 81 40 75 41 74 42 30 44 62 45 42 46
REMARK SMILES IDX 61 47 43 48 46 49 60 50 79 51 44 52 45 53 59 55 80 56 47 57
REMARK SMILES IDX 31 58 32 59 40 60 33 61 35 62 41 63 34 64 36 65 37 66 38 67
REMARK SMILES IDX 39 68 63 69 64 70 72 71 65 72 67 73 73 74 66 75 68 76 69 77
REMARK SMILES IDX 70 78 71 79 48 80 49 81 57 82 50 83 52 84 58 85 51 86 53 87
REMARK SMILES IDX 54 88 55 89 56 90
REMARK H PARENT 9 12 4 21 78 43 46 54
REMARK Flexibility Score: inf
ROOT
ATOM      1  C   UNL A   1      31.587  32.294  26.602  1.00  0.00     0.275 C 
ENDROOT
BRANCH   1   2
ATOM      2  O   UNL A   1      32.021  31.135  27.342  1.00  0.00    -0.458 OA
BRANCH   2   3
ATOM      3  C   UNL A   1      33.055  30.441  26.806  1.00  0.00     0.338 C 
ATOM      4  O   UNL A   1      34.241  30.717  26.911  1.00  0.00    -0.246 OA
BRANCH   3   5
ATOM      5  C   UNL A   1      32.574  29.230  26.097  1.00  0.00     0.060 A 
ATOM      6  C   UNL A   1      29.991  28.047  23.497  1.00  0.00    -0.021 A 
ATOM      7  C   UNL A   1      29.976  26.690  23.231  1.00  0.00     0.087 A 
ATOM      8  C   UNL A   1      30.989  28.249  24.515  1.00  0.00     0.003 A 
ATOM      9  N   UNL A   1      30.939  26.085  23.985  1.00  0.00    -0.361 N 
ATOM     10  C   UNL A   1      31.600  27.015  24.751  1.00  0.00     0.046 A 
ATOM     11  C   UNL A   1      31.461  29.360  25.245  1.00  0.00     0.026 A 
ATOM     12  H   UNL A   1      31.134  25.120  23.981  1.00  0.00     0.166 HD
ATOM     13  C   UNL A   1      32.684  26.851  25.626  1.00  0.00     0.027 A 
ATOM     14  C   UNL A   1      33.177  27.985  26.279  1.00  0.00     0.018 A 
BRANCH   6  15
ATOM     15  C   UNL A   1      29.105  29.044  22.797  1.00  0.00     0.059 C 
BRANCH  15  16
ATOM     16  C   UNL A   1      29.818  30.111  21.970  1.00  0.00     0.120 C 
BRANCH  16  17
ATOM     17  N   UNL A   1      29.496  31.476  22.351  1.00  0.00    -0.356 N 
ATOM     18  C   UNL A   1      27.846  31.878  20.567  1.00  0.00     0.114 C 
ATOM     19  C   UNL A   1      28.594  32.329  21.789  1.00  0.00     0.216 C 
ATOM     20  O   UNL A   1      28.428  33.443  22.285  1.00  0.00    -0.275 OA
ATOM     21  H   UNL A   1      29.999  31.834  23.117  1.00  0.00     0.163 HD
ENDBRANCH  16  17
ENDBRANCH  15  16
ENDBRANCH   6  15
ENDBRANCH   3   5
ENDBRANCH   2   3
ENDBRANCH   1   2
BRANCH   1  22
ATOM     22  C   UNL A   1      32.408  33.533  26.958  1.00  0.00     0.275 C 
BRANCH  22  23
ATOM     23  O   UNL A   1      32.247  33.875  28.346  1.00  0.00    -0.458 OA
BRANCH  23  24
ATOM     24  C   UNL A   1      33.279  34.551  28.898  1.00  0.00     0.338 C 
ATOM     25  O   UNL A   1      33.270  35.697  29.316  1.00  0.00    -0.246 OA
BRANCH  24  26
ATOM     26  C   UNL A   1      34.456  33.676  29.003  1.00  0.00     0.060 A 
ATOM     27  C   UNL A   1      34.320  32.478  29.690  1.00  0.00     0.016 A 
ATOM     28  C   UNL A   1      35.718  34.106  28.593  1.00  0.00     0.016 A 
ATOM     29  C   UNL A   1      35.457  31.773  30.077  1.00  0.00     0.010 A 
ATOM     30  C   UNL A   1      36.854  33.346  28.922  1.00  0.00     0.010 A 
ATOM     31  C   UNL A   1      36.748  32.209  29.742  1.00  0.00    -0.014 A 
BRANCH  31  32
ATOM     32  C   UNL A   1      37.939  31.538  30.366  1.00  0.00     0.031 A 
ATOM     33  C   UNL A   1      38.319  31.820  31.807  1.00  0.00     0.074 A 
ATOM     34  C   UNL A   1      38.622  30.573  29.710  1.00  0.00     0.049 A 
ATOM     35  N   UNL A   1      39.315  31.332  32.508  1.00  0.00    -0.248 NA
ATOM     36  C   UNL A   1      37.467  32.751  32.564  1.00  0.00     0.031 C 
ATOM     37  C   UNL A   1      38.369  30.145  28.334  1.00  0.00     0.029 A 
ATOM     38  N   UNL A   1      39.653  29.758  30.121  1.00  0.00    -0.354 N 
ATOM     39  C   UNL A   1      39.237  31.934  33.761  1.00  0.00     0.074 A 
ATOM     40  C   UNL A   1      38.104  32.832  33.722  1.00  0.00     0.031 C 
ATOM     41  C   UNL A   1      39.171  29.112  28.037  1.00  0.00     0.029 A 
ATOM     42  C   UNL A   1      40.071  28.864  29.160  1.00  0.00     0.049 A 
ATOM     43  H   UNL A   1      40.054  29.808  31.019  1.00  0.00     0.167 HD
ATOM     44  C   UNL A   1      40.001  31.737  34.862  1.00  0.00     0.034 A 
ATOM     45  C   UNL A   1      41.082  27.969  29.150  1.00  0.00     0.034 A 
ATOM     46  C   UNL A   1      41.082  30.793  34.961  1.00  0.00     0.049 A 
ATOM     47  C   UNL A   1      41.968  27.828  30.356  1.00  0.00     0.074 A 
ATOM     48  C   UNL A   1      41.889  30.526  36.055  1.00  0.00     0.029 A 
ATOM     49  N   UNL A   1      41.502  29.956  33.943  1.00  0.00    -0.354 N 
ATOM     50  N   UNL A   1      41.854  28.390  31.533  1.00  0.00    -0.248 NA
ATOM     51  C   UNL A   1      43.124  26.927  30.231  1.00  0.00     0.031 C 
ATOM     52  C   UNL A   1      42.807  29.534  35.693  1.00  0.00     0.029 A 
ATOM     53  C   UNL A   1      42.562  29.176  34.378  1.00  0.00     0.049 A 
ATOM     54  H   UNL A   1      41.107  29.920  33.043  1.00  0.00     0.167 HD
ATOM     55  C   UNL A   1      42.910  27.900  32.293  1.00  0.00     0.074 A 
ATOM     56  C   UNL A   1      43.637  26.971  31.454  1.00  0.00     0.031 C 
ATOM     57  C   UNL A   1      43.258  28.214  33.565  1.00  0.00     0.034 A 
BRANCH  44  58
ATOM     58  C   UNL A   1      39.665  32.541  36.090  1.00  0.00     0.023 A 
ATOM     59  C   UNL A   1      40.273  33.796  36.287  1.00  0.00     0.012 A 
ATOM     60  C   UNL A   1      38.709  32.080  37.016  1.00  0.00     0.148 A 
ATOM     61  C   UNL A   1      39.954  34.571  37.401  1.00  0.00     0.002 A 
ATOM     62  C   UNL A   1      38.371  32.873  38.107  1.00  0.00     0.091 A 
ATOM     63  F   UNL A   1      38.160  30.873  36.823  1.00  0.00    -0.205 F 
ATOM     64  C   UNL A   1      38.997  34.115  38.305  1.00  0.00     0.022 A 
BRANCH  62  65
ATOM     65  S   UNL A   1      37.103  32.392  39.285  1.00  0.00     0.127 S 
ATOM     66  O   UNL A   1      37.517  31.031  39.629  1.00  0.00    -0.237 OA
ATOM     67  O   UNL A   1      37.283  33.371  40.357  1.00  0.00    -0.237 OA
ATOM     68  O   UNL A   1      35.837  32.504  38.574  1.00  0.00    -0.744 OA
ENDBRANCH  62  65
ENDBRANCH  44  58
BRANCH  45  69
ATOM     69  C   UNL A   1      41.320  27.136  27.934  1.00  0.00     0.023 A 
ATOM     70  C   UNL A   1      41.989  27.687  26.825  1.00  0.00     0.012 A 
ATOM     71  C   UNL A   1      40.919  25.787  27.890  1.00  0.00     0.148 A 
ATOM     72  C   UNL A   1      42.246  26.911  25.693  1.00  0.00     0.002 A 
ATOM     73  C   UNL A   1      41.244  25.000  26.794  1.00  0.00     0.091 A 
ATOM     74  F   UNL A   1      40.240  25.291  28.935  1.00  0.00    -0.205 F 
ATOM     75  C   UNL A   1      41.892  25.564  25.685  1.00  0.00     0.022 A 
BRANCH  73  76
ATOM     76  S   UNL A   1      40.977  23.224  26.796  1.00  0.00     0.127 S 
ATOM     77  O   UNL A   1      39.569  23.132  26.420  1.00  0.00    -0.237 OA
ATOM     78  O   UNL A   1      41.922  22.770  25.774  1.00  0.00    -0.237 OA
ATOM     79  O   UNL A   1      41.310  22.788  28.147  1.00  0.00    -0.744 OA
ENDBRANCH  73  76
ENDBRANCH  45  69
BRANCH  57  80
ATOM     80  C   UNL A   1      44.470  27.537  34.150  1.00  0.00     0.023 A 
ATOM     81  C   UNL A   1      45.730  28.161  34.050  1.00  0.00     0.012 A 
ATOM     82  C   UNL A   1      44.357  26.322  34.854  1.00  0.00     0.148 A 
ATOM     83  C   UNL A   1      46.862  27.572  34.617  1.00  0.00     0.002 A 
ATOM     84  C   UNL A   1      45.480  25.764  35.454  1.00  0.00     0.091 A 
ATOM     85  F   UNL A   1      43.156  25.729  34.919  1.00  0.00    -0.205 F 
ATOM     86  C   UNL A   1      46.735  26.382  35.329  1.00  0.00     0.022 A 
BRANCH  84  87
ATOM     87  S   UNL A   1      45.385  24.279  36.462  1.00  0.00     0.127 S 
ATOM     88  O   UNL A   1      46.794  24.026  36.756  1.00  0.00    -0.237 OA
ATOM     89  O   UNL A   1      44.594  24.727  37.610  1.00  0.00    -0.237 OA
ATOM     90  O   UNL A   1      44.724  23.281  35.632  1.00  0.00    -0.744 OA
ENDBRANCH  84  87
ENDBRANCH  57  80
ENDBRANCH  31  32
ENDBRANCH  24  26
ENDBRANCH  23  24
ENDBRANCH  22  23
ENDBRANCH   1  22
TORSDOF 17
ENDMDL
