MODEL 1
REMARK VINA RESULT:      -9.8      0.000      0.000
REMARK SMILES CC(C)[C@H](NC(=O)[C@H](C)NC(=O)CNC(=O)OCc1ccccc1)C(=O)OCCOC(=O)c1ccc(-c2c3nc(c(-c4cccc(S(=O)(=O)[O-])c4F)c4ccc([nH]4)c(-c4cccc(S(=O)(=O)[O-])c4F)c4nc(c(-c5cccc(S(=O)(=O)[O-])c5F)c5ccc2[nH]5)C=C4)C=C3)cc1
REMARK SMILES IDX 25 1 26 2 4 3 2 4 1 5 3 6 5 7 6 8 7 10 8 11 9 12 10 13 11 14
REMARK SMILES IDX 12 16 13 17 14 18 15 19 16 21 17 22 18 23 19 24 20 25 24 26
REMARK SMILES IDX 21 27 23 28 22 29 27 30 28 31 29 32 30 33 31 34 32 35 33 36
REMARK SMILES IDX 34 37 95 38 35 39 94 40 36 41 37 42 38 43 88 44 39 45 93 46
REMARK SMILES IDX 87 47 89 48 40 49 92 50 86 51 85 52 41 54 73 55 53 56 72 57
REMARK SMILES IDX 54 58 57 59 71 60 90 61 55 62 56 63 70 65 91 66 58 67 42 68
REMARK SMILES IDX 43 69 51 70 44 71 46 72 52 73 45 74 47 75 48 76 49 77 50 78
REMARK SMILES IDX 74 79 75 80 83 81 76 82 78 83 84 84 77 85 79 86 80 87 81 88
REMARK SMILES IDX 82 89 59 90 60 91 68 92 61 93 63 94 69 95 62 96 64 97 65 98
REMARK SMILES IDX 66 99 67 100
REMARK H PARENT 5 9 10 15 14 20 89 53 57 64
REMARK Flexibility Score: inf
ROOT
ATOM      1  C   UNL A   1      49.373  22.504  35.783  1.00  0.00     0.329 C 
ATOM      2  O   UNL A   1      49.837  22.877  34.712  1.00  0.00    -0.250 OA
ENDROOT
BRANCH   1   3
ATOM      3  C   UNL A   1      49.267  21.009  36.198  1.00  0.00     0.194 C 
BRANCH   3   4
ATOM      4  C   UNL A   1      50.606  20.227  36.212  1.00  0.00     0.017 C 
ATOM      5  C   UNL A   1      50.802  19.251  37.383  1.00  0.00     0.010 C 
ATOM      6  C   UNL A   1      50.814  19.437  34.913  1.00  0.00     0.010 C 
ENDBRANCH   3   4
BRANCH   3   7
ATOM      7  N   UNL A   1      48.109  20.268  35.667  1.00  0.00    -0.341 N 
ATOM      8  C   UNL A   1      46.921  19.844  36.164  1.00  0.00     0.242 C 
ATOM      9  H   UNL A   1      48.226  20.022  34.721  1.00  0.00     0.164 HD
ATOM     10  O   UNL A   1      46.128  19.341  35.363  1.00  0.00    -0.273 OA
BRANCH   8  11
ATOM     11  C   UNL A   1      46.585  19.954  37.663  1.00  0.00     0.168 C 
ATOM     12  C   UNL A   1      46.260  21.413  38.000  1.00  0.00     0.041 C 
BRANCH  11  13
ATOM     13  N   UNL A   1      47.658  19.526  38.556  1.00  0.00    -0.343 N 
ATOM     14  C   UNL A   1      47.608  18.575  39.541  1.00  0.00     0.240 C 
ATOM     15  H   UNL A   1      48.525  19.976  38.435  1.00  0.00     0.164 HD
ATOM     16  O   UNL A   1      48.555  18.480  40.324  1.00  0.00    -0.273 OA
BRANCH  14  17
ATOM     17  C   UNL A   1      46.386  17.650  39.650  1.00  0.00     0.219 C 
BRANCH  17  18
ATOM     18  N   UNL A   1      45.996  17.534  41.040  1.00  0.00    -0.312 N 
ATOM     19  C   UNL A   1      44.848  16.991  41.520  1.00  0.00     0.407 C 
ATOM     20  H   UNL A   1      46.629  17.886  41.707  1.00  0.00     0.167 HD
ATOM     21  O   UNL A   1      44.506  17.182  42.685  1.00  0.00    -0.225 OA
BRANCH  19  22
ATOM     22  O   UNL A   1      44.145  16.293  40.601  1.00  0.00    -0.445 OA
BRANCH  22  23
ATOM     23  C   UNL A   1      42.717  16.302  40.758  1.00  0.00     0.270 C 
BRANCH  23  24
ATOM     24  C   UNL A   1      42.188  14.946  41.155  1.00  0.00    -0.011 A 
ATOM     25  C   UNL A   1      42.126  14.548  42.498  1.00  0.00     0.007 A 
ATOM     26  C   UNL A   1      41.771  14.038  40.172  1.00  0.00     0.007 A 
ATOM     27  C   UNL A   1      41.650  13.281  42.846  1.00  0.00     0.000 A 
ATOM     28  C   UNL A   1      41.291  12.776  40.518  1.00  0.00     0.000 A 
ATOM     29  C   UNL A   1      41.230  12.398  41.856  1.00  0.00     0.000 A 
ENDBRANCH  23  24
ENDBRANCH  22  23
ENDBRANCH  19  22
ENDBRANCH  17  18
ENDBRANCH  14  17
ENDBRANCH  11  13
ENDBRANCH   8  11
ENDBRANCH   3   7
ENDBRANCH   1   3
BRANCH   1  30
ATOM     30  O   UNL A   1      49.055  23.363  36.793  1.00  0.00    -0.461 OA
BRANCH  30  31
ATOM     31  C   UNL A   1      50.122  24.231  37.238  1.00  0.00     0.274 C 
BRANCH  31  32
ATOM     32  C   UNL A   1      49.861  25.698  36.881  1.00  0.00     0.275 C 
BRANCH  32  33
ATOM     33  O   UNL A   1      48.663  25.852  36.107  1.00  0.00    -0.458 OA
BRANCH  33  34
ATOM     34  C   UNL A   1      48.184  27.113  36.066  1.00  0.00     0.338 C 
ATOM     35  O   UNL A   1      48.667  28.112  36.574  1.00  0.00    -0.246 OA
BRANCH  34  36
ATOM     36  C   UNL A   1      47.029  27.166  35.170  1.00  0.00     0.060 A 
ATOM     37  C   UNL A   1      46.904  28.282  34.342  1.00  0.00     0.016 A 
ATOM     38  C   UNL A   1      46.023  26.209  35.239  1.00  0.00     0.016 A 
ATOM     39  C   UNL A   1      45.728  28.518  33.658  1.00  0.00     0.010 A 
ATOM     40  C   UNL A   1      44.861  26.411  34.500  1.00  0.00     0.010 A 
ATOM     41  C   UNL A   1      44.696  27.587  33.744  1.00  0.00    -0.014 A 
BRANCH  41  42
ATOM     42  C   UNL A   1      43.400  27.879  33.106  1.00  0.00     0.031 A 
ATOM     43  C   UNL A   1      43.149  27.353  31.726  1.00  0.00     0.074 A 
ATOM     44  C   UNL A   1      42.492  28.622  33.760  1.00  0.00     0.049 A 
ATOM     45  N   UNL A   1      42.206  27.670  30.886  1.00  0.00    -0.248 NA
ATOM     46  C   UNL A   1      44.104  26.352  31.216  1.00  0.00     0.031 C 
ATOM     47  C   UNL A   1      42.636  29.124  35.129  1.00  0.00     0.029 A 
ATOM     48  N   UNL A   1      41.284  29.114  33.348  1.00  0.00    -0.354 N 
ATOM     49  C   UNL A   1      42.493  26.969  29.721  1.00  0.00     0.074 A 
ATOM     50  C   UNL A   1      43.688  26.195  29.968  1.00  0.00     0.031 C 
ATOM     51  C   UNL A   1      41.571  29.881  35.432  1.00  0.00     0.029 A 
ATOM     52  C   UNL A   1      40.709  29.968  34.260  1.00  0.00     0.049 A 
ATOM     53  H   UNL A   1      40.868  28.880  32.486  1.00  0.00     0.167 HD
ATOM     54  C   UNL A   1      41.811  26.982  28.554  1.00  0.00     0.034 A 
ATOM     55  C   UNL A   1      39.638  30.771  34.133  1.00  0.00     0.034 A 
ATOM     56  C   UNL A   1      40.596  27.723  28.363  1.00  0.00     0.049 A 
ATOM     57  C   UNL A   1      38.895  30.761  32.827  1.00  0.00     0.074 A 
ATOM     58  C   UNL A   1      39.799  27.798  27.238  1.00  0.00     0.029 A 
ATOM     59  N   UNL A   1      39.999  28.512  29.337  1.00  0.00    -0.354 N 
ATOM     60  N   UNL A   1      39.151  30.072  31.741  1.00  0.00    -0.248 NA
ATOM     61  C   UNL A   1      37.707  31.619  32.730  1.00  0.00     0.031 C 
ATOM     62  C   UNL A   1      38.721  28.641  27.528  1.00  0.00     0.029 A 
ATOM     63  C   UNL A   1      38.837  29.074  28.842  1.00  0.00     0.049 A 
ATOM     64  H   UNL A   1      40.351  28.652  30.245  1.00  0.00     0.167 HD
ATOM     65  C   UNL A   1      38.137  30.378  30.845  1.00  0.00     0.074 A 
ATOM     66  C   UNL A   1      37.256  31.313  31.521  1.00  0.00     0.031 C 
ATOM     67  C   UNL A   1      37.950  29.941  29.576  1.00  0.00     0.034 A 
BRANCH  54  68
ATOM     68  C   UNL A   1      42.357  26.170  27.411  1.00  0.00     0.023 A 
ATOM     69  C   UNL A   1      43.216  26.770  26.469  1.00  0.00     0.012 A 
ATOM     70  C   UNL A   1      42.047  24.801  27.290  1.00  0.00     0.148 A 
ATOM     71  C   UNL A   1      43.733  26.028  25.407  1.00  0.00     0.002 A 
ATOM     72  C   UNL A   1      42.599  24.058  26.253  1.00  0.00     0.091 A 
ATOM     73  F   UNL A   1      41.204  24.256  28.178  1.00  0.00    -0.205 F 
ATOM     74  C   UNL A   1      43.434  24.672  25.306  1.00  0.00     0.022 A 
BRANCH  72  75
ATOM     75  S   UNL A   1      42.327  22.291  26.080  1.00  0.00     0.127 S 
ATOM     76  O   UNL A   1      42.833  21.788  27.356  1.00  0.00    -0.237 OA
ATOM     77  O   UNL A   1      40.874  22.216  25.928  1.00  0.00    -0.237 OA
ATOM     78  O   UNL A   1      43.081  21.884  24.903  1.00  0.00    -0.744 OA
ENDBRANCH  72  75
ENDBRANCH  54  68
BRANCH  55  79
ATOM     79  C   UNL A   1      39.209  31.620  35.280  1.00  0.00     0.023 A 
ATOM     80  C   UNL A   1      38.276  31.111  36.202  1.00  0.00     0.012 A 
ATOM     81  C   UNL A   1      39.762  32.898  35.496  1.00  0.00     0.148 A 
ATOM     82  C   UNL A   1      37.885  31.867  37.308  1.00  0.00     0.002 A 
ATOM     83  C   UNL A   1      39.409  33.624  36.628  1.00  0.00     0.091 A 
ATOM     84  F   UNL A   1      40.638  33.373  34.598  1.00  0.00    -0.205 F 
ATOM     85  C   UNL A   1      38.460  33.117  37.528  1.00  0.00     0.022 A 
BRANCH  83  86
ATOM     86  S   UNL A   1      40.205  35.178  37.057  1.00  0.00     0.127 S 
ATOM     87  O   UNL A   1      39.443  36.134  36.258  1.00  0.00    -0.237 OA
ATOM     88  O   UNL A   1      39.969  35.253  38.500  1.00  0.00    -0.237 OA
ATOM     89  O   UNL A   1      41.605  35.012  36.689  1.00  0.00    -0.744 OA
ENDBRANCH  83  86
ENDBRANCH  55  79
BRANCH  67  90
ATOM     90  C   UNL A   1      36.720  30.410  28.853  1.00  0.00     0.023 A 
ATOM     91  C   UNL A   1      35.780  29.471  28.389  1.00  0.00     0.012 A 
ATOM     92  C   UNL A   1      36.447  31.786  28.746  1.00  0.00     0.148 A 
ATOM     93  C   UNL A   1      34.586  29.899  27.812  1.00  0.00     0.002 A 
ATOM     94  C   UNL A   1      35.237  32.205  28.211  1.00  0.00     0.091 A 
ATOM     95  F   UNL A   1      37.370  32.657  29.179  1.00  0.00    -0.205 F 
ATOM     96  C   UNL A   1      34.308  31.264  27.737  1.00  0.00     0.022 A 
BRANCH  94  97
ATOM     97  S   UNL A   1      34.753  33.933  28.170  1.00  0.00     0.127 S 
ATOM     98  O   UNL A   1      35.129  34.379  29.510  1.00  0.00    -0.237 OA
ATOM     99  O   UNL A   1      35.590  34.464  27.093  1.00  0.00    -0.237 OA
ATOM    100  O   UNL A   1      33.325  33.945  27.885  1.00  0.00    -0.744 OA
ENDBRANCH  94  97
ENDBRANCH  67  90
ENDBRANCH  41  42
ENDBRANCH  34  36
ENDBRANCH  33  34
ENDBRANCH  32  33
ENDBRANCH  31  32
ENDBRANCH  30  31
ENDBRANCH   1  30
TORSDOF 23
ENDMDL
MODEL 2
REMARK VINA RESULT:      -9.5      9.207     16.782
REMARK SMILES CC(C)[C@H](NC(=O)[C@H](C)NC(=O)CNC(=O)OCc1ccccc1)C(=O)OCCOC(=O)c1ccc(-c2c3nc(c(-c4cccc(S(=O)(=O)[O-])c4F)c4ccc([nH]4)c(-c4cccc(S(=O)(=O)[O-])c4F)c4nc(c(-c5cccc(S(=O)(=O)[O-])c5F)c5ccc2[nH]5)C=C4)C=C3)cc1
REMARK SMILES IDX 25 1 26 2 4 3 2 4 1 5 3 6 5 7 6 8 7 10 8 11 9 12 10 13 11 14
REMARK SMILES IDX 12 16 13 17 14 18 15 19 16 21 17 22 18 23 19 24 20 25 24 26
REMARK SMILES IDX 21 27 23 28 22 29 27 30 28 31 29 32 30 33 31 34 32 35 33 36
REMARK SMILES IDX 34 37 95 38 35 39 94 40 36 41 37 42 38 43 88 44 39 45 93 46
REMARK SMILES IDX 87 47 89 48 40 49 92 50 86 51 85 52 41 54 73 55 53 56 72 57
REMARK SMILES IDX 54 58 57 59 71 60 90 61 55 62 56 63 70 65 91 66 58 67 42 68
REMARK SMILES IDX 43 69 51 70 44 71 46 72 52 73 45 74 47 75 48 76 49 77 50 78
REMARK SMILES IDX 74 79 75 80 83 81 76 82 78 83 84 84 77 85 79 86 80 87 81 88
REMARK SMILES IDX 82 89 59 90 60 91 68 92 61 93 63 94 69 95 62 96 64 97 65 98
REMARK SMILES IDX 66 99 67 100
REMARK H PARENT 5 9 10 15 14 20 89 53 57 64
REMARK Flexibility Score: inf
ROOT
ATOM      1  C   UNL A   1      42.891  43.101  31.068  1.00  0.00     0.329 C 
ATOM      2  O   UNL A   1      41.955  42.333  30.878  1.00  0.00    -0.250 OA
ENDROOT
BRANCH   1   3
ATOM      3  C   UNL A   1      44.275  42.955  30.373  1.00  0.00     0.194 C 
BRANCH   3   4
ATOM      4  C   UNL A   1      45.305  42.070  31.122  1.00  0.00     0.017 C 
ATOM      5  C   UNL A   1      45.863  40.875  30.333  1.00  0.00     0.010 C 
ATOM      6  C   UNL A   1      46.501  42.893  31.621  1.00  0.00     0.010 C 
ENDBRANCH   3   4
BRANCH   3   7
ATOM      7  N   UNL A   1      44.822  44.177  29.755  1.00  0.00    -0.341 N 
ATOM      8  C   UNL A   1      45.293  44.513  28.529  1.00  0.00     0.242 C 
ATOM      9  H   UNL A   1      44.852  44.932  30.386  1.00  0.00     0.164 HD
ATOM     10  O   UNL A   1      45.565  45.703  28.343  1.00  0.00    -0.273 OA
BRANCH   8  11
ATOM     11  C   UNL A   1      45.511  43.459  27.428  1.00  0.00     0.168 C 
ATOM     12  C   UNL A   1      46.524  43.995  26.412  1.00  0.00     0.041 C 
BRANCH  11  13
ATOM     13  N   UNL A   1      44.302  43.095  26.693  1.00  0.00    -0.343 N 
ATOM     14  C   UNL A   1      43.921  41.854  26.258  1.00  0.00     0.240 C 
ATOM     15  H   UNL A   1      43.685  43.833  26.485  1.00  0.00     0.164 HD
ATOM     16  O   UNL A   1      42.964  41.762  25.486  1.00  0.00    -0.273 OA
BRANCH  14  17
ATOM     17  C   UNL A   1      44.682  40.607  26.735  1.00  0.00     0.219 C 
BRANCH  17  18
ATOM     18  N   UNL A   1      45.269  39.937  25.594  1.00  0.00    -0.312 N 
ATOM     19  C   UNL A   1      46.572  39.967  25.214  1.00  0.00     0.407 C 
ATOM     20  H   UNL A   1      44.659  39.404  25.034  1.00  0.00     0.167 HD
ATOM     21  O   UNL A   1      46.905  39.585  24.094  1.00  0.00    -0.225 OA
BRANCH  19  22
ATOM     22  O   UNL A   1      47.404  40.483  26.147  1.00  0.00    -0.445 OA
BRANCH  22  23
ATOM     23  C   UNL A   1      48.206  39.535  26.869  1.00  0.00     0.270 C 
BRANCH  23  24
ATOM     24  C   UNL A   1      48.770  40.128  28.136  1.00  0.00    -0.011 A 
ATOM     25  C   UNL A   1      48.914  41.514  28.296  1.00  0.00     0.007 A 
ATOM     26  C   UNL A   1      49.192  39.290  29.178  1.00  0.00     0.007 A 
ATOM     27  C   UNL A   1      49.456  42.045  29.470  1.00  0.00     0.000 A 
ATOM     28  C   UNL A   1      49.727  39.819  30.351  1.00  0.00     0.000 A 
ATOM     29  C   UNL A   1      49.859  41.197  30.497  1.00  0.00     0.000 A 
ENDBRANCH  23  24
ENDBRANCH  22  23
ENDBRANCH  19  22
ENDBRANCH  17  18
ENDBRANCH  14  17
ENDBRANCH  11  13
ENDBRANCH   8  11
ENDBRANCH   3   7
ENDBRANCH   1   3
BRANCH   1  30
ATOM     30  O   UNL A   1      42.769  44.259  31.778  1.00  0.00    -0.461 OA
BRANCH  30  31
ATOM     31  C   UNL A   1      43.309  44.232  33.119  1.00  0.00     0.274 C 
BRANCH  31  32
ATOM     32  C   UNL A   1      42.248  43.864  34.162  1.00  0.00     0.275 C 
BRANCH  32  33
ATOM     33  O   UNL A   1      42.227  42.455  34.425  1.00  0.00    -0.458 OA
BRANCH  33  34
ATOM     34  C   UNL A   1      43.326  41.989  35.056  1.00  0.00     0.338 C 
ATOM     35  O   UNL A   1      43.857  42.436  36.059  1.00  0.00    -0.246 OA
BRANCH  34  36
ATOM     36  C   UNL A   1      43.742  40.728  34.441  1.00  0.00     0.060 A 
ATOM     37  C   UNL A   1      43.266  40.445  33.161  1.00  0.00     0.016 A 
ATOM     38  C   UNL A   1      44.472  39.788  35.160  1.00  0.00     0.016 A 
ATOM     39  C   UNL A   1      43.413  39.181  32.624  1.00  0.00     0.010 A 
ATOM     40  C   UNL A   1      44.678  38.533  34.593  1.00  0.00     0.010 A 
ATOM     41  C   UNL A   1      44.111  38.215  33.345  1.00  0.00    -0.014 A 
BRANCH  41  42
ATOM     42  C   UNL A   1      44.183  36.836  32.831  1.00  0.00     0.031 A 
ATOM     43  C   UNL A   1      45.328  36.463  31.942  1.00  0.00     0.074 A 
ATOM     44  C   UNL A   1      43.216  35.960  33.150  1.00  0.00     0.049 A 
ATOM     45  N   UNL A   1      45.478  35.408  31.193  1.00  0.00    -0.248 NA
ATOM     46  C   UNL A   1      46.446  37.422  31.868  1.00  0.00     0.031 C 
ATOM     47  C   UNL A   1      42.096  36.226  34.056  1.00  0.00     0.029 A 
ATOM     48  N   UNL A   1      43.000  34.679  32.719  1.00  0.00    -0.354 N 
ATOM     49  C   UNL A   1      46.666  35.607  30.501  1.00  0.00     0.074 A 
ATOM     50  C   UNL A   1      47.208  36.875  30.931  1.00  0.00     0.031 C 
ATOM     51  C   UNL A   1      41.293  35.152  34.088  1.00  0.00     0.029 A 
ATOM     52  C   UNL A   1      41.807  34.155  33.158  1.00  0.00     0.049 A 
ATOM     53  H   UNL A   1      43.635  34.183  32.152  1.00  0.00     0.167 HD
ATOM     54  C   UNL A   1      47.241  34.794  29.587  1.00  0.00     0.034 A 
ATOM     55  C   UNL A   1      41.179  33.021  32.799  1.00  0.00     0.034 A 
ATOM     56  C   UNL A   1      46.699  33.514  29.223  1.00  0.00     0.049 A 
ATOM     57  C   UNL A   1      41.843  32.133  31.785  1.00  0.00     0.074 A 
ATOM     58  C   UNL A   1      47.200  32.588  28.330  1.00  0.00     0.029 A 
ATOM     59  N   UNL A   1      45.532  32.980  29.751  1.00  0.00    -0.354 N 
ATOM     60  N   UNL A   1      42.982  32.309  31.159  1.00  0.00    -0.248 NA
ATOM     61  C   UNL A   1      41.154  30.883  31.441  1.00  0.00     0.031 C 
ATOM     62  C   UNL A   1      46.329  31.493  28.311  1.00  0.00     0.029 A 
ATOM     63  C   UNL A   1      45.297  31.731  29.208  1.00  0.00     0.049 A 
ATOM     64  H   UNL A   1      44.955  33.425  30.413  1.00  0.00     0.167 HD
ATOM     65  C   UNL A   1      43.169  31.177  30.377  1.00  0.00     0.074 A 
ATOM     66  C   UNL A   1      42.025  30.317  30.616  1.00  0.00     0.031 C 
ATOM     67  C   UNL A   1      44.183  30.876  29.530  1.00  0.00     0.034 A 
BRANCH  54  68
ATOM     68  C   UNL A   1      48.513  35.260  28.933  1.00  0.00     0.023 A 
ATOM     69  C   UNL A   1      49.689  35.391  29.696  1.00  0.00     0.012 A 
ATOM     70  C   UNL A   1      48.550  35.537  27.552  1.00  0.00     0.148 A 
ATOM     71  C   UNL A   1      50.877  35.818  29.102  1.00  0.00     0.002 A 
ATOM     72  C   UNL A   1      49.747  35.923  26.959  1.00  0.00     0.091 A 
ATOM     73  F   UNL A   1      47.414  35.437  26.848  1.00  0.00    -0.205 F 
ATOM     74  C   UNL A   1      50.908  36.073  27.734  1.00  0.00     0.022 A 
BRANCH  72  75
ATOM     75  S   UNL A   1      49.902  36.206  25.192  1.00  0.00     0.127 S 
ATOM     76  O   UNL A   1      49.870  34.841  24.670  1.00  0.00    -0.237 OA
ATOM     77  O   UNL A   1      48.706  36.998  24.900  1.00  0.00    -0.237 OA
ATOM     78  O   UNL A   1      51.159  36.917  25.008  1.00  0.00    -0.744 OA
ENDBRANCH  72  75
ENDBRANCH  54  68
BRANCH  55  79
ATOM     79  C   UNL A   1      39.872  32.669  33.422  1.00  0.00     0.023 A 
ATOM     80  C   UNL A   1      39.851  31.822  34.545  1.00  0.00     0.012 A 
ATOM     81  C   UNL A   1      38.662  33.214  32.950  1.00  0.00     0.148 A 
ATOM     82  C   UNL A   1      38.646  31.506  35.174  1.00  0.00     0.002 A 
ATOM     83  C   UNL A   1      37.471  32.940  33.613  1.00  0.00     0.091 A 
ATOM     84  F   UNL A   1      38.699  34.009  31.869  1.00  0.00    -0.205 F 
ATOM     85  C   UNL A   1      37.458  32.074  34.717  1.00  0.00     0.022 A 
BRANCH  83  86
ATOM     86  S   UNL A   1      35.922  33.739  33.175  1.00  0.00     0.127 S 
ATOM     87  O   UNL A   1      35.009  33.187  34.172  1.00  0.00    -0.237 OA
ATOM     88  O   UNL A   1      36.248  35.155  33.353  1.00  0.00    -0.237 OA
ATOM     89  O   UNL A   1      35.665  33.356  31.793  1.00  0.00    -0.744 OA
ENDBRANCH  83  86
ENDBRANCH  55  79
BRANCH  67  90
ATOM     90  C   UNL A   1      44.142  29.539  28.847  1.00  0.00     0.023 A 
ATOM     91  C   UNL A   1      44.856  28.454  29.390  1.00  0.00     0.012 A 
ATOM     92  C   UNL A   1      43.300  29.339  27.738  1.00  0.00     0.148 A 
ATOM     93  C   UNL A   1      44.741  27.185  28.825  1.00  0.00     0.002 A 
ATOM     94  C   UNL A   1      43.155  28.065  27.209  1.00  0.00     0.091 A 
ATOM     95  F   UNL A   1      42.647  30.395  27.231  1.00  0.00    -0.205 F 
ATOM     96  C   UNL A   1      43.881  26.988  27.745  1.00  0.00     0.022 A 
BRANCH  94  97
ATOM     97  S   UNL A   1      41.995  27.700  25.888  1.00  0.00     0.127 S 
ATOM     98  O   UNL A   1      42.638  28.341  24.743  1.00  0.00    -0.237 OA
ATOM     99  O   UNL A   1      42.010  26.237  25.857  1.00  0.00    -0.237 OA
ATOM    100  O   UNL A   1      40.724  28.282  26.297  1.00  0.00    -0.744 OA
ENDBRANCH  94  97
ENDBRANCH  67  90
ENDBRANCH  41  42
ENDBRANCH  34  36
ENDBRANCH  33  34
ENDBRANCH  32  33
ENDBRANCH  31  32
ENDBRANCH  30  31
ENDBRANCH   1  30
TORSDOF 23
ENDMDL
MODEL 3
REMARK VINA RESULT:      -9.3      6.007     14.287
REMARK SMILES CC(C)[C@H](NC(=O)[C@H](C)NC(=O)CNC(=O)OCc1ccccc1)C(=O)OCCOC(=O)c1ccc(-c2c3nc(c(-c4cccc(S(=O)(=O)[O-])c4F)c4ccc([nH]4)c(-c4cccc(S(=O)(=O)[O-])c4F)c4nc(c(-c5cccc(S(=O)(=O)[O-])c5F)c5ccc2[nH]5)C=C4)C=C3)cc1
REMARK SMILES IDX 25 1 26 2 4 3 2 4 1 5 3 6 5 7 6 8 7 10 8 11 9 12 10 13 11 14
REMARK SMILES IDX 12 16 13 17 14 18 15 19 16 21 17 22 18 23 19 24 20 25 24 26
REMARK SMILES IDX 21 27 23 28 22 29 27 30 28 31 29 32 30 33 31 34 32 35 33 36
REMARK SMILES IDX 34 37 95 38 35 39 94 40 36 41 37 42 38 43 88 44 39 45 93 46
REMARK SMILES IDX 87 47 89 48 40 49 92 50 86 51 85 52 41 54 73 55 53 56 72 57
REMARK SMILES IDX 54 58 57 59 71 60 90 61 55 62 56 63 70 65 91 66 58 67 42 68
REMARK SMILES IDX 43 69 51 70 44 71 46 72 52 73 45 74 47 75 48 76 49 77 50 78
REMARK SMILES IDX 74 79 75 80 83 81 76 82 78 83 84 84 77 85 79 86 80 87 81 88
REMARK SMILES IDX 82 89 59 90 60 91 68 92 61 93 63 94 69 95 62 96 64 97 65 98
REMARK SMILES IDX 66 99 67 100
REMARK H PARENT 5 9 10 15 14 20 89 53 57 64
REMARK Flexibility Score: inf
ROOT
ATOM      1  C   UNL A   1      34.307  33.793  32.367  1.00  0.00     0.329 C 
ATOM      2  O   UNL A   1      33.470  33.031  32.837  1.00  0.00    -0.250 OA
ENDROOT
BRANCH   1   3
ATOM      3  C   UNL A   1      33.946  35.056  31.534  1.00  0.00     0.194 C 
BRANCH   3   4
ATOM      4  C   UNL A   1      33.291  36.213  32.331  1.00  0.00     0.017 C 
ATOM      5  C   UNL A   1      33.335  37.597  31.665  1.00  0.00     0.010 C 
ATOM      6  C   UNL A   1      31.825  35.909  32.669  1.00  0.00     0.010 C 
ENDBRANCH   3   4
BRANCH   3   7
ATOM      7  N   UNL A   1      33.378  34.810  30.196  1.00  0.00    -0.341 N 
ATOM      8  C   UNL A   1      33.678  33.999  29.152  1.00  0.00     0.242 C 
ATOM      9  H   UNL A   1      32.589  35.370  30.017  1.00  0.00     0.164 HD
ATOM     10  O   UNL A   1      32.879  33.981  28.211  1.00  0.00    -0.273 OA
BRANCH   8  11
ATOM     11  C   UNL A   1      34.969  33.159  29.123  1.00  0.00     0.168 C 
ATOM     12  C   UNL A   1      36.161  34.079  28.843  1.00  0.00     0.041 C 
BRANCH  11  13
ATOM     13  N   UNL A   1      34.981  32.105  28.112  1.00  0.00    -0.343 N 
ATOM     14  C   UNL A   1      35.630  30.899  28.159  1.00  0.00     0.240 C 
ATOM     15  H   UNL A   1      34.459  32.283  27.298  1.00  0.00     0.164 HD
ATOM     16  O   UNL A   1      35.685  30.215  27.135  1.00  0.00    -0.273 OA
BRANCH  14  17
ATOM     17  C   UNL A   1      36.268  30.423  29.473  1.00  0.00     0.219 C 
BRANCH  17  18
ATOM     18  N   UNL A   1      37.585  31.008  29.606  1.00  0.00    -0.312 N 
ATOM     19  C   UNL A   1      38.772  30.419  29.308  1.00  0.00     0.407 C 
ATOM     20  H   UNL A   1      37.626  31.931  29.947  1.00  0.00     0.167 HD
ATOM     21  O   UNL A   1      39.828  30.906  29.705  1.00  0.00    -0.225 OA
BRANCH  19  22
ATOM     22  O   UNL A   1      38.653  29.272  28.603  1.00  0.00    -0.445 OA
BRANCH  22  23
ATOM     23  C   UNL A   1      39.587  29.093  27.527  1.00  0.00     0.270 C 
BRANCH  23  24
ATOM     24  C   UNL A   1      39.996  27.649  27.372  1.00  0.00    -0.011 A 
ATOM     25  C   UNL A   1      40.949  27.255  26.423  1.00  0.00     0.007 A 
ATOM     26  C   UNL A   1      39.398  26.661  28.166  1.00  0.00     0.007 A 
ATOM     27  C   UNL A   1      41.302  25.910  26.281  1.00  0.00     0.000 A 
ATOM     28  C   UNL A   1      39.753  25.320  28.029  1.00  0.00     0.000 A 
ATOM     29  C   UNL A   1      40.706  24.944  27.087  1.00  0.00     0.000 A 
ENDBRANCH  23  24
ENDBRANCH  22  23
ENDBRANCH  19  22
ENDBRANCH  17  18
ENDBRANCH  14  17
ENDBRANCH  11  13
ENDBRANCH   8  11
ENDBRANCH   3   7
ENDBRANCH   1   3
BRANCH   1  30
ATOM     30  O   UNL A   1      35.636  33.711  32.664  1.00  0.00    -0.461 OA
BRANCH  30  31
ATOM     31  C   UNL A   1      35.952  33.370  34.033  1.00  0.00     0.274 C 
BRANCH  31  32
ATOM     32  C   UNL A   1      37.401  32.897  34.191  1.00  0.00     0.275 C 
BRANCH  32  33
ATOM     33  O   UNL A   1      37.477  31.484  34.419  1.00  0.00    -0.458 OA
BRANCH  33  34
ATOM     34  C   UNL A   1      37.521  30.738  33.295  1.00  0.00     0.338 C 
ATOM     35  O   UNL A   1      36.608  30.498  32.523  1.00  0.00    -0.246 OA
BRANCH  34  36
ATOM     36  C   UNL A   1      38.905  30.350  33.022  1.00  0.00     0.060 A 
ATOM     37  C   UNL A   1      39.180  28.989  32.890  1.00  0.00     0.016 A 
ATOM     38  C   UNL A   1      39.928  31.292  33.029  1.00  0.00     0.016 A 
ATOM     39  C   UNL A   1      40.486  28.537  32.877  1.00  0.00     0.010 A 
ATOM     40  C   UNL A   1      41.243  30.844  32.951  1.00  0.00     0.010 A 
ATOM     41  C   UNL A   1      41.524  29.465  32.920  1.00  0.00    -0.014 A 
BRANCH  41  42
ATOM     42  C   UNL A   1      42.916  28.992  33.015  1.00  0.00     0.031 A 
ATOM     43  C   UNL A   1      43.597  28.521  31.767  1.00  0.00     0.074 A 
ATOM     44  C   UNL A   1      43.529  28.973  34.210  1.00  0.00     0.049 A 
ATOM     45  N   UNL A   1      44.709  27.855  31.640  1.00  0.00    -0.248 NA
ATOM     46  C   UNL A   1      42.922  28.822  30.492  1.00  0.00     0.031 C 
ATOM     47  C   UNL A   1      42.956  29.467  35.465  1.00  0.00     0.029 A 
ATOM     48  N   UNL A   1      44.755  28.486  34.572  1.00  0.00    -0.354 N 
ATOM     49  C   UNL A   1      44.831  27.588  30.282  1.00  0.00     0.074 A 
ATOM     50  C   UNL A   1      43.689  28.180  29.623  1.00  0.00     0.031 C 
ATOM     51  C   UNL A   1      43.817  29.228  36.464  1.00  0.00     0.029 A 
ATOM     52  C   UNL A   1      44.967  28.509  35.931  1.00  0.00     0.049 A 
ATOM     53  H   UNL A   1      45.419  28.152  33.925  1.00  0.00     0.167 HD
ATOM     54  C   UNL A   1      45.814  26.904  29.654  1.00  0.00     0.034 A 
ATOM     55  C   UNL A   1      45.953  27.957  36.660  1.00  0.00     0.034 A 
ATOM     56  C   UNL A   1      46.961  26.375  30.336  1.00  0.00     0.049 A 
ATOM     57  C   UNL A   1      47.036  27.207  35.936  1.00  0.00     0.074 A 
ATOM     58  C   UNL A   1      48.036  25.687  29.810  1.00  0.00     0.029 A 
ATOM     59  N   UNL A   1      47.181  26.490  31.702  1.00  0.00    -0.354 N 
ATOM     60  N   UNL A   1      47.163  26.987  34.649  1.00  0.00    -0.248 NA
ATOM     61  C   UNL A   1      48.120  26.649  36.753  1.00  0.00     0.031 C 
ATOM     62  C   UNL A   1      48.906  25.377  30.861  1.00  0.00     0.029 A 
ATOM     63  C   UNL A   1      48.380  25.891  32.038  1.00  0.00     0.049 A 
ATOM     64  H   UNL A   1      46.573  26.932  32.338  1.00  0.00     0.167 HD
ATOM     65  C   UNL A   1      48.360  26.301  34.495  1.00  0.00     0.074 A 
ATOM     66  C   UNL A   1      48.923  26.148  35.824  1.00  0.00     0.031 C 
ATOM     67  C   UNL A   1      48.939  25.828  33.365  1.00  0.00     0.034 A 
BRANCH  54  68
ATOM     68  C   UNL A   1      45.691  26.703  28.168  1.00  0.00     0.023 A 
ATOM     69  C   UNL A   1      44.843  25.699  27.662  1.00  0.00     0.012 A 
ATOM     70  C   UNL A   1      46.392  27.533  27.271  1.00  0.00     0.148 A 
ATOM     71  C   UNL A   1      44.717  25.504  26.286  1.00  0.00     0.002 A 
ATOM     72  C   UNL A   1      46.230  27.360  25.901  1.00  0.00     0.091 A 
ATOM     73  F   UNL A   1      47.219  28.462  27.772  1.00  0.00    -0.205 F 
ATOM     74  C   UNL A   1      45.400  26.340  25.407  1.00  0.00     0.022 A 
BRANCH  72  75
ATOM     75  S   UNL A   1      47.015  28.432  24.693  1.00  0.00     0.127 S 
ATOM     76  O   UNL A   1      46.398  29.722  24.998  1.00  0.00    -0.237 OA
ATOM     77  O   UNL A   1      48.428  28.330  25.061  1.00  0.00    -0.237 OA
ATOM     78  O   UNL A   1      46.687  27.874  23.389  1.00  0.00    -0.744 OA
ENDBRANCH  72  75
ENDBRANCH  54  68
BRANCH  55  79
ATOM     79  C   UNL A   1      45.958  28.118  38.141  1.00  0.00     0.023 A 
ATOM     80  C   UNL A   1      45.333  27.145  38.942  1.00  0.00     0.012 A 
ATOM     81  C   UNL A   1      46.629  29.191  38.761  1.00  0.00     0.148 A 
ATOM     82  C   UNL A   1      45.356  27.248  40.333  1.00  0.00     0.002 A 
ATOM     83  C   UNL A   1      46.695  29.259  40.148  1.00  0.00     0.091 A 
ATOM     84  F   UNL A   1      47.207  30.117  37.981  1.00  0.00    -0.205 F 
ATOM     85  C   UNL A   1      46.046  28.297  40.937  1.00  0.00     0.022 A 
BRANCH  83  86
ATOM     86  S   UNL A   1      47.679  30.498  41.002  1.00  0.00     0.127 S 
ATOM     87  O   UNL A   1      46.681  31.131  41.861  1.00  0.00    -0.237 OA
ATOM     88  O   UNL A   1      48.664  29.674  41.704  1.00  0.00    -0.237 OA
ATOM     89  O   UNL A   1      48.242  31.337  39.953  1.00  0.00    -0.744 OA
ENDBRANCH  83  86
ENDBRANCH  55  79
BRANCH  67  90
ATOM     90  C   UNL A   1      50.278  25.159  33.499  1.00  0.00     0.023 A 
ATOM     91  C   UNL A   1      51.452  25.933  33.475  1.00  0.00     0.012 A 
ATOM     92  C   UNL A   1      50.352  23.779  33.768  1.00  0.00     0.148 A 
ATOM     93  C   UNL A   1      52.691  25.336  33.703  1.00  0.00     0.002 A 
ATOM     94  C   UNL A   1      51.584  23.200  34.039  1.00  0.00     0.091 A 
ATOM     95  F   UNL A   1      49.218  23.064  33.765  1.00  0.00    -0.205 F 
ATOM     96  C   UNL A   1      52.755  23.975  34.000  1.00  0.00     0.022 A 
BRANCH  94  97
ATOM     97  S   UNL A   1      51.749  21.481  34.529  1.00  0.00     0.127 S 
ATOM     98  O   UNL A   1      51.705  20.799  33.237  1.00  0.00    -0.237 OA
ATOM     99  O   UNL A   1      53.059  21.470  35.182  1.00  0.00    -0.237 OA
ATOM    100  O   UNL A   1      50.629  21.207  35.419  1.00  0.00    -0.744 OA
ENDBRANCH  94  97
ENDBRANCH  67  90
ENDBRANCH  41  42
ENDBRANCH  34  36
ENDBRANCH  33  34
ENDBRANCH  32  33
ENDBRANCH  31  32
ENDBRANCH  30  31
ENDBRANCH   1  30
TORSDOF 23
ENDMDL
