MODEL 1
REMARK VINA RESULT:     -12.1      0.000      0.000
REMARK SMILES C[C@H](C(=O)OCCOC(=O)c1ccc(-c2c3nc(c(-c4cccc(S(=O)(=O)[O-])c4F)c4ccc([nH]4)c(-c4cccc(S(=O)(=O)[O-])c4F)c4nc(c(-c5cccc(S(=O)(=O)[O-])c5F)c5ccc2[nH]5)C=C4)C=C3)cc1)c1ccc2c(c1)OCCO2
REMARK SMILES IDX 7 1 6 2 5 3 3 4 4 5 2 6 1 7 74 8 75 9 79 10 76 11 78 12
REMARK SMILES IDX 77 13 80 14 83 15 81 16 82 17 8 18 9 19 10 20 11 21 12 22
REMARK SMILES IDX 73 23 13 24 72 25 14 26 15 27 16 28 66 29 17 30 71 31 65 32
REMARK SMILES IDX 67 33 18 34 70 35 64 36 63 37 19 39 51 40 31 41 50 42 32 43
REMARK SMILES IDX 35 44 49 45 68 46 33 47 34 48 48 50 69 51 36 52 20 53 21 54
REMARK SMILES IDX 29 55 22 56 24 57 30 58 23 59 25 60 26 61 27 62 28 63 52 64
REMARK SMILES IDX 53 65 61 66 54 67 56 68 62 69 55 70 57 71 58 72 59 73 60 74
REMARK SMILES IDX 37 75 38 76 46 77 39 78 41 79 47 80 40 81 42 82 43 83 44 84
REMARK SMILES IDX 45 85
REMARK H PARENT 67 38 35 49
REMARK Flexibility Score: inf
ROOT
ATOM      1  C   UNL A   1      31.982  29.395  25.407  1.00  0.00     0.275 C 
ENDROOT
BRANCH   1   2
ATOM      2  C   UNL A   1      32.183  27.905  25.670  1.00  0.00     0.274 C 
BRANCH   2   3
ATOM      3  O   UNL A   1      31.037  27.367  26.361  1.00  0.00    -0.462 OA
BRANCH   3   4
ATOM      4  C   UNL A   1      30.439  26.285  25.776  1.00  0.00     0.313 C 
ATOM      5  O   UNL A   1      29.882  25.382  26.390  1.00  0.00    -0.252 OA
BRANCH   4   6
ATOM      6  C   UNL A   1      30.646  26.263  24.256  1.00  0.00     0.126 C 
ATOM      7  C   UNL A   1      30.714  24.800  23.784  1.00  0.00     0.025 C 
BRANCH   6   8
ATOM      8  C   UNL A   1      29.545  27.044  23.546  1.00  0.00    -0.030 A 
ATOM      9  C   UNL A   1      28.190  26.852  23.866  1.00  0.00     0.009 A 
ATOM     10  C   UNL A   1      29.897  28.110  22.706  1.00  0.00     0.055 A 
ATOM     11  C   UNL A   1      27.261  27.855  23.596  1.00  0.00     0.051 A 
ATOM     12  C   UNL A   1      29.010  29.155  22.541  1.00  0.00     0.161 A 
ATOM     13  C   UNL A   1      27.712  29.046  23.041  1.00  0.00     0.161 A 
ATOM     14  O   UNL A   1      29.541  30.312  22.043  1.00  0.00    -0.486 OA
ATOM     15  O   UNL A   1      26.904  30.152  23.144  1.00  0.00    -0.486 OA
ATOM     16  C   UNL A   1      28.782  31.476  22.387  1.00  0.00     0.271 C 
ATOM     17  C   UNL A   1      27.768  31.242  23.501  1.00  0.00     0.271 C 
ENDBRANCH   6   8
ENDBRANCH   4   6
ENDBRANCH   3   4
ENDBRANCH   2   3
ENDBRANCH   1   2
BRANCH   1  18
ATOM     18  O   UNL A   1      33.212  30.077  25.690  1.00  0.00    -0.458 OA
BRANCH  18  19
ATOM     19  C   UNL A   1      33.183  30.959  26.717  1.00  0.00     0.338 C 
ATOM     20  O   UNL A   1      32.285  31.741  26.975  1.00  0.00    -0.246 OA
BRANCH  19  21
ATOM     21  C   UNL A   1      34.389  30.782  27.564  1.00  0.00     0.060 A 
ATOM     22  C   UNL A   1      35.250  31.852  27.816  1.00  0.00     0.016 A 
ATOM     23  C   UNL A   1      34.732  29.511  28.016  1.00  0.00     0.016 A 
ATOM     24  C   UNL A   1      36.494  31.644  28.401  1.00  0.00     0.010 A 
ATOM     25  C   UNL A   1      35.922  29.328  28.730  1.00  0.00     0.010 A 
ATOM     26  C   UNL A   1      36.832  30.386  28.905  1.00  0.00    -0.014 A 
BRANCH  26  27
ATOM     27  C   UNL A   1      38.125  30.170  29.613  1.00  0.00     0.031 A 
ATOM     28  C   UNL A   1      39.179  29.289  29.001  1.00  0.00     0.074 A 
ATOM     29  C   UNL A   1      38.340  30.725  30.825  1.00  0.00     0.049 A 
ATOM     30  N   UNL A   1      40.233  28.754  29.559  1.00  0.00    -0.248 NA
ATOM     31  C   UNL A   1      39.012  28.940  27.579  1.00  0.00     0.031 C 
ATOM     32  C   UNL A   1      37.419  31.622  31.528  1.00  0.00     0.029 A 
ATOM     33  N   UNL A   1      39.398  30.600  31.691  1.00  0.00    -0.354 N 
ATOM     34  C   UNL A   1      40.794  27.926  28.594  1.00  0.00     0.074 A 
ATOM     35  C   UNL A   1      39.984  28.054  27.402  1.00  0.00     0.031 C 
ATOM     36  C   UNL A   1      37.959  31.986  32.699  1.00  0.00     0.029 A 
ATOM     37  C   UNL A   1      39.214  31.270  32.880  1.00  0.00     0.049 A 
ATOM     38  H   UNL A   1      40.210  30.083  31.484  1.00  0.00     0.167 HD
ATOM     39  C   UNL A   1      41.886  27.132  28.696  1.00  0.00     0.034 A 
ATOM     40  C   UNL A   1      39.939  31.267  34.016  1.00  0.00     0.034 A 
ATOM     41  C   UNL A   1      42.743  27.090  29.849  1.00  0.00     0.049 A 
ATOM     42  C   UNL A   1      41.168  30.407  34.089  1.00  0.00     0.074 A 
ATOM     43  C   UNL A   1      43.901  26.355  30.034  1.00  0.00     0.029 A 
ATOM     44  N   UNL A   1      42.551  27.832  31.004  1.00  0.00    -0.354 N 
ATOM     45  N   UNL A   1      41.692  29.641  33.165  1.00  0.00    -0.248 NA
ATOM     46  C   UNL A   1      41.904  30.410  35.361  1.00  0.00     0.031 C 
ATOM     47  C   UNL A   1      44.412  26.657  31.302  1.00  0.00     0.029 A 
ATOM     48  C   UNL A   1      43.573  27.580  31.904  1.00  0.00     0.049 A 
ATOM     49  H   UNL A   1      41.799  28.447  31.162  1.00  0.00     0.167 HD
ATOM     50  C   UNL A   1      42.825  29.078  33.736  1.00  0.00     0.074 A 
ATOM     51  C   UNL A   1      42.929  29.617  35.077  1.00  0.00     0.031 C 
ATOM     52  C   UNL A   1      43.686  28.173  33.211  1.00  0.00     0.034 A 
BRANCH  39  53
ATOM     53  C   UNL A   1      42.233  26.259  27.521  1.00  0.00     0.023 A 
ATOM     54  C   UNL A   1      43.000  26.781  26.462  1.00  0.00     0.012 A 
ATOM     55  C   UNL A   1      41.850  24.902  27.496  1.00  0.00     0.148 A 
ATOM     56  C   UNL A   1      43.362  25.973  25.384  1.00  0.00     0.002 A 
ATOM     57  C   UNL A   1      42.247  24.094  26.436  1.00  0.00     0.091 A 
ATOM     58  F   UNL A   1      41.096  24.431  28.498  1.00  0.00    -0.205 F 
ATOM     59  C   UNL A   1      42.996  24.629  25.377  1.00  0.00     0.022 A 
BRANCH  57  60
ATOM     60  S   UNL A   1      41.880  22.336  26.381  1.00  0.00     0.127 S 
ATOM     61  O   UNL A   1      42.311  21.902  27.709  1.00  0.00    -0.237 OA
ATOM     62  O   UNL A   1      40.430  22.325  26.179  1.00  0.00    -0.237 OA
ATOM     63  O   UNL A   1      42.647  21.805  25.263  1.00  0.00    -0.744 OA
ENDBRANCH  57  60
ENDBRANCH  39  53
BRANCH  40  64
ATOM     64  C   UNL A   1      39.517  32.117  35.165  1.00  0.00     0.023 A 
ATOM     65  C   UNL A   1      39.760  33.504  35.119  1.00  0.00     0.012 A 
ATOM     66  C   UNL A   1      38.820  31.581  36.265  1.00  0.00     0.148 A 
ATOM     67  C   UNL A   1      39.325  34.337  36.151  1.00  0.00     0.002 A 
ATOM     68  C   UNL A   1      38.333  32.424  37.258  1.00  0.00     0.091 A 
ATOM     69  F   UNL A   1      38.621  30.255  36.310  1.00  0.00    -0.205 F 
ATOM     70  C   UNL A   1      38.597  33.800  37.211  1.00  0.00     0.022 A 
BRANCH  68  71
ATOM     71  S   UNL A   1      37.252  31.820  38.560  1.00  0.00     0.127 S 
ATOM     72  O   UNL A   1      37.022  30.440  38.145  1.00  0.00    -0.237 OA
ATOM     73  O   UNL A   1      38.086  31.972  39.754  1.00  0.00    -0.237 OA
ATOM     74  O   UNL A   1      36.094  32.703  38.532  1.00  0.00    -0.744 OA
ENDBRANCH  68  71
ENDBRANCH  40  64
BRANCH  52  75
ATOM     75  C   UNL A   1      44.828  27.723  34.080  1.00  0.00     0.023 A 
ATOM     76  C   UNL A   1      46.032  28.453  34.067  1.00  0.00     0.012 A 
ATOM     77  C   UNL A   1      44.687  26.628  34.952  1.00  0.00     0.148 A 
ATOM     78  C   UNL A   1      47.090  28.084  34.896  1.00  0.00     0.002 A 
ATOM     79  C   UNL A   1      45.732  26.289  35.802  1.00  0.00     0.091 A 
ATOM     80  F   UNL A   1      43.541  25.932  34.929  1.00  0.00    -0.205 F 
ATOM     81  C   UNL A   1      46.937  27.010  35.770  1.00  0.00     0.022 A 
BRANCH  79  82
ATOM     82  S   UNL A   1      45.581  24.972  37.013  1.00  0.00     0.127 S 
ATOM     83  O   UNL A   1      46.943  24.890  37.538  1.00  0.00    -0.237 OA
ATOM     84  O   UNL A   1      44.598  25.514  37.952  1.00  0.00    -0.237 OA
ATOM     85  O   UNL A   1      45.119  23.806  36.270  1.00  0.00    -0.744 OA
ENDBRANCH  79  82
ENDBRANCH  52  75
ENDBRANCH  26  27
ENDBRANCH  19  21
ENDBRANCH  18  19
ENDBRANCH   1  18
TORSDOF 15
ENDMDL
MODEL 2
REMARK VINA RESULT:     -12.0      6.168     10.954
REMARK SMILES C[C@H](C(=O)OCCOC(=O)c1ccc(-c2c3nc(c(-c4cccc(S(=O)(=O)[O-])c4F)c4ccc([nH]4)c(-c4cccc(S(=O)(=O)[O-])c4F)c4nc(c(-c5cccc(S(=O)(=O)[O-])c5F)c5ccc2[nH]5)C=C4)C=C3)cc1)c1ccc2c(c1)OCCO2
REMARK SMILES IDX 7 1 6 2 5 3 3 4 4 5 2 6 1 7 74 8 75 9 79 10 76 11 78 12
REMARK SMILES IDX 77 13 80 14 83 15 81 16 82 17 8 18 9 19 10 20 11 21 12 22
REMARK SMILES IDX 73 23 13 24 72 25 14 26 15 27 16 28 66 29 17 30 71 31 65 32
REMARK SMILES IDX 67 33 18 34 70 35 64 36 63 37 19 39 51 40 31 41 50 42 32 43
REMARK SMILES IDX 35 44 49 45 68 46 33 47 34 48 48 50 69 51 36 52 20 53 21 54
REMARK SMILES IDX 29 55 22 56 24 57 30 58 23 59 25 60 26 61 27 62 28 63 52 64
REMARK SMILES IDX 53 65 61 66 54 67 56 68 62 69 55 70 57 71 58 72 59 73 60 74
REMARK SMILES IDX 37 75 38 76 46 77 39 78 41 79 47 80 40 81 42 82 43 83 44 84
REMARK SMILES IDX 45 85
REMARK H PARENT 67 38 35 49
REMARK Flexibility Score: inf
ROOT
ATOM      1  C   UNL A   1      37.231  20.780  24.644  1.00  0.00     0.275 C 
ENDROOT
BRANCH   1   2
ATOM      2  C   UNL A   1      35.761  20.586  25.003  1.00  0.00     0.274 C 
BRANCH   2   3
ATOM      3  O   UNL A   1      34.974  21.663  24.455  1.00  0.00    -0.462 OA
BRANCH   3   4
ATOM      4  C   UNL A   1      33.857  22.009  25.164  1.00  0.00     0.313 C 
ATOM      5  O   UNL A   1      33.851  22.293  26.357  1.00  0.00    -0.252 OA
BRANCH   4   6
ATOM      6  C   UNL A   1      32.579  21.890  24.325  1.00  0.00     0.126 C 
ATOM      7  C   UNL A   1      32.727  22.759  23.064  1.00  0.00     0.025 C 
BRANCH   6   8
ATOM      8  C   UNL A   1      32.286  20.431  23.985  1.00  0.00    -0.030 A 
ATOM      9  C   UNL A   1      32.215  19.992  22.652  1.00  0.00     0.009 A 
ATOM     10  C   UNL A   1      32.285  19.477  25.013  1.00  0.00     0.055 A 
ATOM     11  C   UNL A   1      32.430  18.649  22.349  1.00  0.00     0.051 A 
ATOM     12  C   UNL A   1      32.615  18.171  24.715  1.00  0.00     0.161 A 
ATOM     13  C   UNL A   1      32.745  17.777  23.383  1.00  0.00     0.161 A 
ATOM     14  O   UNL A   1      32.969  17.389  25.780  1.00  0.00    -0.486 OA
ATOM     15  O   UNL A   1      33.337  16.581  23.060  1.00  0.00    -0.486 OA
ATOM     16  C   UNL A   1      33.795  16.279  25.416  1.00  0.00     0.271 C 
ATOM     17  C   UNL A   1      34.390  16.388  24.017  1.00  0.00     0.271 C 
ENDBRANCH   6   8
ENDBRANCH   4   6
ENDBRANCH   3   4
ENDBRANCH   2   3
ENDBRANCH   1   2
BRANCH   1  18
ATOM     18  O   UNL A   1      37.766  21.829  25.465  1.00  0.00    -0.458 OA
BRANCH  18  19
ATOM     19  C   UNL A   1      38.916  21.545  26.122  1.00  0.00     0.338 C 
ATOM     20  O   UNL A   1      39.467  20.460  26.181  1.00  0.00    -0.246 OA
BRANCH  19  21
ATOM     21  C   UNL A   1      39.478  22.787  26.707  1.00  0.00     0.060 A 
ATOM     22  C   UNL A   1      39.035  24.042  26.285  1.00  0.00     0.016 A 
ATOM     23  C   UNL A   1      40.542  22.707  27.602  1.00  0.00     0.016 A 
ATOM     24  C   UNL A   1      39.715  25.199  26.648  1.00  0.00     0.010 A 
ATOM     25  C   UNL A   1      41.137  23.881  28.077  1.00  0.00     0.010 A 
ATOM     26  C   UNL A   1      40.752  25.140  27.583  1.00  0.00    -0.014 A 
BRANCH  26  27
ATOM     27  C   UNL A   1      41.431  26.382  28.048  1.00  0.00     0.031 A 
ATOM     28  C   UNL A   1      40.660  27.413  28.827  1.00  0.00     0.074 A 
ATOM     29  C   UNL A   1      42.724  26.609  27.736  1.00  0.00     0.049 A 
ATOM     30  N   UNL A   1      40.971  28.658  29.079  1.00  0.00    -0.248 NA
ATOM     31  C   UNL A   1      39.356  26.999  29.371  1.00  0.00     0.031 C 
ATOM     32  C   UNL A   1      43.602  25.687  27.010  1.00  0.00     0.029 A 
ATOM     33  N   UNL A   1      43.524  27.700  27.975  1.00  0.00    -0.354 N 
ATOM     34  C   UNL A   1      39.863  29.203  29.716  1.00  0.00     0.074 A 
ATOM     35  C   UNL A   1      38.883  28.146  29.842  1.00  0.00     0.031 C 
ATOM     36  C   UNL A   1      44.818  26.236  26.885  1.00  0.00     0.029 A 
ATOM     37  C   UNL A   1      44.782  27.587  27.428  1.00  0.00     0.049 A 
ATOM     38  H   UNL A   1      43.228  28.487  28.488  1.00  0.00     0.167 HD
ATOM     39  C   UNL A   1      39.681  30.471  30.153  1.00  0.00     0.034 A 
ATOM     40  C   UNL A   1      45.781  28.485  27.318  1.00  0.00     0.034 A 
ATOM     41  C   UNL A   1      40.698  31.487  30.116  1.00  0.00     0.049 A 
ATOM     42  C   UNL A   1      45.568  29.874  27.847  1.00  0.00     0.074 A 
ATOM     43  C   UNL A   1      40.630  32.789  30.578  1.00  0.00     0.029 A 
ATOM     44  N   UNL A   1      41.976  31.307  29.609  1.00  0.00    -0.354 N 
ATOM     45  N   UNL A   1      44.520  30.370  28.457  1.00  0.00    -0.248 NA
ATOM     46  C   UNL A   1      46.673  30.827  27.671  1.00  0.00     0.031 C 
ATOM     47  C   UNL A   1      41.871  33.397  30.354  1.00  0.00     0.029 A 
ATOM     48  C   UNL A   1      42.710  32.472  29.755  1.00  0.00     0.049 A 
ATOM     49  H   UNL A   1      42.312  30.475  29.205  1.00  0.00     0.167 HD
ATOM     50  C   UNL A   1      44.840  31.689  28.750  1.00  0.00     0.074 A 
ATOM     51  C   UNL A   1      46.194  31.905  28.278  1.00  0.00     0.031 C 
ATOM     52  C   UNL A   1      44.075  32.645  29.329  1.00  0.00     0.034 A 
BRANCH  39  53
ATOM     53  C   UNL A   1      38.341  30.830  30.734  1.00  0.00     0.023 A 
ATOM     54  C   UNL A   1      38.046  30.504  32.072  1.00  0.00     0.012 A 
ATOM     55  C   UNL A   1      37.395  31.545  29.972  1.00  0.00     0.148 A 
ATOM     56  C   UNL A   1      36.822  30.864  32.636  1.00  0.00     0.002 A 
ATOM     57  C   UNL A   1      36.193  31.933  30.553  1.00  0.00     0.091 A 
ATOM     58  F   UNL A   1      37.681  31.821  28.692  1.00  0.00    -0.205 F 
ATOM     59  C   UNL A   1      35.902  31.587  31.881  1.00  0.00     0.022 A 
BRANCH  57  60
ATOM     60  S   UNL A   1      34.981  32.928  29.676  1.00  0.00     0.127 S 
ATOM     61  O   UNL A   1      34.479  31.977  28.685  1.00  0.00    -0.237 OA
ATOM     62  O   UNL A   1      34.027  33.265  30.734  1.00  0.00    -0.237 OA
ATOM     63  O   UNL A   1      35.715  34.068  29.143  1.00  0.00    -0.744 OA
ENDBRANCH  57  60
ENDBRANCH  39  53
BRANCH  40  64
ATOM     64  C   UNL A   1      47.070  28.083  26.688  1.00  0.00     0.023 A 
ATOM     65  C   UNL A   1      48.108  27.590  27.503  1.00  0.00     0.012 A 
ATOM     66  C   UNL A   1      47.254  28.120  25.292  1.00  0.00     0.148 A 
ATOM     67  C   UNL A   1      49.307  27.150  26.938  1.00  0.00     0.002 A 
ATOM     68  C   UNL A   1      48.425  27.621  24.732  1.00  0.00     0.091 A 
ATOM     69  F   UNL A   1      46.269  28.619  24.531  1.00  0.00    -0.205 F 
ATOM     70  C   UNL A   1      49.459  27.149  25.553  1.00  0.00     0.022 A 
BRANCH  68  71
ATOM     71  S   UNL A   1      48.616  27.440  22.954  1.00  0.00     0.127 S 
ATOM     72  O   UNL A   1      49.948  27.997  22.736  1.00  0.00    -0.237 OA
ATOM     73  O   UNL A   1      48.518  25.991  22.776  1.00  0.00    -0.237 OA
ATOM     74  O   UNL A   1      47.505  28.184  22.376  1.00  0.00    -0.744 OA
ENDBRANCH  68  71
ENDBRANCH  40  64
BRANCH  52  75
ATOM     75  C   UNL A   1      44.688  34.007  29.503  1.00  0.00     0.023 A 
ATOM     76  C   UNL A   1      45.343  34.318  30.710  1.00  0.00     0.012 A 
ATOM     77  C   UNL A   1      44.675  34.947  28.456  1.00  0.00     0.148 A 
ATOM     78  C   UNL A   1      45.958  35.557  30.881  1.00  0.00     0.002 A 
ATOM     79  C   UNL A   1      45.322  36.165  28.620  1.00  0.00     0.091 A 
ATOM     80  F   UNL A   1      44.023  34.639  27.325  1.00  0.00    -0.205 F 
ATOM     81  C   UNL A   1      45.957  36.475  29.833  1.00  0.00     0.022 A 
BRANCH  79  82
ATOM     82  S   UNL A   1      45.436  37.366  27.289  1.00  0.00     0.127 S 
ATOM     83  O   UNL A   1      46.179  36.619  26.275  1.00  0.00    -0.237 OA
ATOM     84  O   UNL A   1      44.031  37.609  26.960  1.00  0.00    -0.237 OA
ATOM     85  O   UNL A   1      46.126  38.517  27.857  1.00  0.00    -0.744 OA
ENDBRANCH  79  82
ENDBRANCH  52  75
ENDBRANCH  26  27
ENDBRANCH  19  21
ENDBRANCH  18  19
ENDBRANCH   1  18
TORSDOF 15
ENDMDL
MODEL 3
REMARK VINA RESULT:     -11.9      1.936      3.320
REMARK SMILES C[C@H](C(=O)OCCOC(=O)c1ccc(-c2c3nc(c(-c4cccc(S(=O)(=O)[O-])c4F)c4ccc([nH]4)c(-c4cccc(S(=O)(=O)[O-])c4F)c4nc(c(-c5cccc(S(=O)(=O)[O-])c5F)c5ccc2[nH]5)C=C4)C=C3)cc1)c1ccc2c(c1)OCCO2
REMARK SMILES IDX 7 1 6 2 5 3 3 4 4 5 2 6 1 7 74 8 75 9 79 10 76 11 78 12
REMARK SMILES IDX 77 13 80 14 83 15 81 16 82 17 8 18 9 19 10 20 11 21 12 22
REMARK SMILES IDX 73 23 13 24 72 25 14 26 15 27 16 28 66 29 17 30 71 31 65 32
REMARK SMILES IDX 67 33 18 34 70 35 64 36 63 37 19 39 51 40 31 41 50 42 32 43
REMARK SMILES IDX 35 44 49 45 68 46 33 47 34 48 48 50 69 51 36 52 20 53 21 54
REMARK SMILES IDX 29 55 22 56 24 57 30 58 23 59 25 60 26 61 27 62 28 63 52 64
REMARK SMILES IDX 53 65 61 66 54 67 56 68 62 69 55 70 57 71 58 72 59 73 60 74
REMARK SMILES IDX 37 75 38 76 46 77 39 78 41 79 47 80 40 81 42 82 43 83 44 84
REMARK SMILES IDX 45 85
REMARK H PARENT 67 38 35 49
REMARK Flexibility Score: inf
ROOT
ATOM      1  C   UNL A   1      31.497  29.317  25.756  1.00  0.00     0.275 C 
ENDROOT
BRANCH   1   2
ATOM      2  C   UNL A   1      30.911  29.349  24.347  1.00  0.00     0.274 C 
BRANCH   2   3
ATOM      3  O   UNL A   1      31.941  29.067  23.378  1.00  0.00    -0.462 OA
BRANCH   3   4
ATOM      4  C   UNL A   1      31.903  27.824  22.810  1.00  0.00     0.313 C 
ATOM      5  O   UNL A   1      30.886  27.153  22.669  1.00  0.00    -0.252 OA
BRANCH   4   6
ATOM      6  C   UNL A   1      33.305  27.302  22.471  1.00  0.00     0.126 C 
ATOM      7  C   UNL A   1      34.296  28.479  22.499  1.00  0.00     0.025 C 
BRANCH   6   8
ATOM      8  C   UNL A   1      33.715  26.183  23.424  1.00  0.00    -0.030 A 
ATOM      9  C   UNL A   1      33.802  26.399  24.810  1.00  0.00     0.009 A 
ATOM     10  C   UNL A   1      33.813  24.872  22.936  1.00  0.00     0.055 A 
ATOM     11  C   UNL A   1      33.696  25.325  25.690  1.00  0.00     0.051 A 
ATOM     12  C   UNL A   1      33.590  23.818  23.800  1.00  0.00     0.161 A 
ATOM     13  C   UNL A   1      33.472  24.058  25.168  1.00  0.00     0.161 A 
ATOM     14  O   UNL A   1      33.320  22.614  23.210  1.00  0.00    -0.486 OA
ATOM     15  O   UNL A   1      32.978  23.092  26.010  1.00  0.00    -0.486 OA
ATOM     16  C   UNL A   1      32.585  21.723  24.054  1.00  0.00     0.271 C 
ATOM     17  C   UNL A   1      31.961  22.402  25.268  1.00  0.00     0.271 C 
ENDBRANCH   6   8
ENDBRANCH   4   6
ENDBRANCH   3   4
ENDBRANCH   2   3
ENDBRANCH   1   2
BRANCH   1  18
ATOM     18  O   UNL A   1      32.782  29.957  25.729  1.00  0.00    -0.458 OA
BRANCH  18  19
ATOM     19  C   UNL A   1      32.999  30.900  26.676  1.00  0.00     0.338 C 
ATOM     20  O   UNL A   1      32.208  31.747  27.049  1.00  0.00    -0.246 OA
BRANCH  19  21
ATOM     21  C   UNL A   1      34.341  30.704  27.279  1.00  0.00     0.060 A 
ATOM     22  C   UNL A   1      34.808  29.424  27.587  1.00  0.00     0.016 A 
ATOM     23  C   UNL A   1      35.097  31.812  27.651  1.00  0.00     0.016 A 
ATOM     24  C   UNL A   1      35.948  29.248  28.362  1.00  0.00     0.010 A 
ATOM     25  C   UNL A   1      36.318  31.628  28.310  1.00  0.00     0.010 A 
ATOM     26  C   UNL A   1      36.744  30.345  28.701  1.00  0.00    -0.014 A 
BRANCH  26  27
ATOM     27  C   UNL A   1      38.015  30.162  29.455  1.00  0.00     0.031 A 
ATOM     28  C   UNL A   1      39.118  29.318  28.876  1.00  0.00     0.074 A 
ATOM     29  C   UNL A   1      38.168  30.712  30.679  1.00  0.00     0.049 A 
ATOM     30  N   UNL A   1      40.166  28.809  29.469  1.00  0.00    -0.248 NA
ATOM     31  C   UNL A   1      39.015  28.977  27.446  1.00  0.00     0.031 C 
ATOM     32  C   UNL A   1      37.195  31.575  31.353  1.00  0.00     0.029 A 
ATOM     33  N   UNL A   1      39.197  30.611  31.583  1.00  0.00    -0.354 N 
ATOM     34  C   UNL A   1      40.787  28.008  28.519  1.00  0.00     0.074 A 
ATOM     35  C   UNL A   1      40.018  28.122  27.299  1.00  0.00     0.031 C 
ATOM     36  C   UNL A   1      37.680  31.944  32.547  1.00  0.00     0.029 A 
ATOM     37  C   UNL A   1      38.949  31.264  32.769  1.00  0.00     0.049 A 
ATOM     38  H   UNL A   1      40.031  30.120  31.402  1.00  0.00     0.167 HD
ATOM     39  C   UNL A   1      41.898  27.245  28.656  1.00  0.00     0.034 A 
ATOM     40  C   UNL A   1      39.631  31.273  33.931  1.00  0.00     0.034 A 
ATOM     41  C   UNL A   1      42.713  27.219  29.840  1.00  0.00     0.049 A 
ATOM     42  C   UNL A   1      40.881  30.449  34.044  1.00  0.00     0.074 A 
ATOM     43  C   UNL A   1      43.884  26.517  30.063  1.00  0.00     0.029 A 
ATOM     44  N   UNL A   1      42.455  27.945  30.993  1.00  0.00    -0.354 N 
ATOM     45  N   UNL A   1      41.462  29.707  33.134  1.00  0.00    -0.248 NA
ATOM     46  C   UNL A   1      41.569  30.463  35.343  1.00  0.00     0.031 C 
ATOM     47  C   UNL A   1      44.339  26.823  31.351  1.00  0.00     0.029 A 
ATOM     48  C   UNL A   1      43.450  27.715  31.928  1.00  0.00     0.049 A 
ATOM     49  H   UNL A   1      41.679  28.535  31.127  1.00  0.00     0.167 HD
ATOM     50  C   UNL A   1      42.590  29.174  33.742  1.00  0.00     0.074 A 
ATOM     51  C   UNL A   1      42.627  29.704  35.091  1.00  0.00     0.031 C 
ATOM     52  C   UNL A   1      43.497  28.299  33.244  1.00  0.00     0.034 A 
BRANCH  39  53
ATOM     53  C   UNL A   1      42.314  26.394  27.488  1.00  0.00     0.023 A 
ATOM     54  C   UNL A   1      43.132  26.939  26.479  1.00  0.00     0.012 A 
ATOM     55  C   UNL A   1      41.947  25.034  27.422  1.00  0.00     0.148 A 
ATOM     56  C   UNL A   1      43.558  26.150  25.410  1.00  0.00     0.002 A 
ATOM     57  C   UNL A   1      42.406  24.246  26.373  1.00  0.00     0.091 A 
ATOM     58  F   UNL A   1      41.144  24.542  28.376  1.00  0.00    -0.205 F 
ATOM     59  C   UNL A   1      43.205  24.804  25.363  1.00  0.00     0.022 A 
BRANCH  57  60
ATOM     60  S   UNL A   1      42.059  22.486  26.273  1.00  0.00     0.127 S 
ATOM     61  O   UNL A   1      42.592  22.006  27.546  1.00  0.00    -0.237 OA
ATOM     62  O   UNL A   1      40.599  22.461  26.175  1.00  0.00    -0.237 OA
ATOM     63  O   UNL A   1      42.749  22.013  25.080  1.00  0.00    -0.744 OA
ENDBRANCH  57  60
ENDBRANCH  39  53
BRANCH  40  64
ATOM     64  C   UNL A   1      39.140  32.100  35.070  1.00  0.00     0.023 A 
ATOM     65  C   UNL A   1      38.230  31.536  35.985  1.00  0.00     0.012 A 
ATOM     66  C   UNL A   1      39.616  33.407  35.294  1.00  0.00     0.148 A 
ATOM     67  C   UNL A   1      37.796  32.263  37.095  1.00  0.00     0.002 A 
ATOM     68  C   UNL A   1      39.229  34.101  36.435  1.00  0.00     0.091 A 
ATOM     69  F   UNL A   1      40.460  33.941  34.399  1.00  0.00    -0.205 F 
ATOM     70  C   UNL A   1      38.308  33.537  37.330  1.00  0.00     0.022 A 
BRANCH  68  71
ATOM     71  S   UNL A   1      39.976  35.674  36.879  1.00  0.00     0.127 S 
ATOM     72  O   UNL A   1      41.392  35.327  36.947  1.00  0.00    -0.237 OA
ATOM     73  O   UNL A   1      39.604  36.526  35.747  1.00  0.00    -0.237 OA
ATOM     74  O   UNL A   1      39.344  36.053  38.136  1.00  0.00    -0.744 OA
ENDBRANCH  68  71
ENDBRANCH  40  64
BRANCH  52  75
ATOM     75  C   UNL A   1      44.618  27.876  34.151  1.00  0.00     0.023 A 
ATOM     76  C   UNL A   1      45.829  28.595  34.131  1.00  0.00     0.012 A 
ATOM     77  C   UNL A   1      44.451  26.819  35.064  1.00  0.00     0.148 A 
ATOM     78  C   UNL A   1      46.868  28.252  34.993  1.00  0.00     0.002 A 
ATOM     79  C   UNL A   1      45.478  26.507  35.947  1.00  0.00     0.091 A 
ATOM     80  F   UNL A   1      43.300  26.132  35.048  1.00  0.00    -0.205 F 
ATOM     81  C   UNL A   1      46.689  27.216  35.908  1.00  0.00     0.022 A 
BRANCH  79  82
ATOM     82  S   UNL A   1      45.293  25.241  37.208  1.00  0.00     0.127 S 
ATOM     83  O   UNL A   1      46.600  25.278  37.862  1.00  0.00    -0.237 OA
ATOM     84  O   UNL A   1      44.190  25.759  38.019  1.00  0.00    -0.237 OA
ATOM     85  O   UNL A   1      44.981  24.013  36.489  1.00  0.00    -0.744 OA
ENDBRANCH  79  82
ENDBRANCH  52  75
ENDBRANCH  26  27
ENDBRANCH  19  21
ENDBRANCH  18  19
ENDBRANCH   1  18
TORSDOF 15
ENDMDL
