MODEL 1
REMARK VINA RESULT:     -10.2      0.000      0.000
REMARK SMILES C=CC[N@@H+](CC(=O)Nc1ccccc1)CC(=O)OCCOC(=O)c1ccc(-c2c3nc(c(-c4cccc(S(=O)(=O)[O-])c4F)c4ccc([nH]4)c(-c4cccc(S(=O)(=O)[O-])c4F)c4nc(c(-c5cccc(S(=O)(=O)[O-])c5F)c5ccc2[nH]5)C=C4)C=C3)cc1
REMARK SMILES IDX 19 1 18 2 16 3 17 4 15 5 4 6 3 8 2 9 1 10 5 11 6 12 7 13
REMARK SMILES IDX 8 14 9 16 10 17 14 18 11 19 13 20 12 21 20 22 21 23 22 24
REMARK SMILES IDX 23 25 24 26 25 27 86 28 26 29 85 30 27 31 28 32 29 33 79 34
REMARK SMILES IDX 30 35 84 36 78 37 80 38 31 39 83 40 77 41 76 42 32 44 64 45
REMARK SMILES IDX 44 46 63 47 45 48 48 49 62 50 81 51 46 52 47 53 61 55 82 56
REMARK SMILES IDX 49 57 33 58 34 59 42 60 35 61 37 62 43 63 36 64 38 65 39 66
REMARK SMILES IDX 40 67 41 68 65 69 66 70 74 71 67 72 69 73 75 74 68 75 70 76
REMARK SMILES IDX 71 77 72 78 73 79 50 80 51 81 59 82 52 83 54 84 60 85 53 86
REMARK SMILES IDX 55 87 56 88 57 89 58 90
REMARK H PARENT 4 7 8 15 80 43 48 54
REMARK Flexibility Score: inf
ROOT
ATOM      1  C   UNL A   1      31.508  28.649  24.748  1.00  0.00     0.274 C 
ENDROOT
BRANCH   1   2
ATOM      2  O   UNL A   1      31.900  27.272  24.896  1.00  0.00    -0.458 OA
BRANCH   2   3
ATOM      3  C   UNL A   1      31.115  26.458  25.634  1.00  0.00     0.361 C 
ATOM      4  O   UNL A   1      31.021  26.509  26.856  1.00  0.00    -0.245 OA
BRANCH   3   5
ATOM      5  C   UNL A   1      30.474  25.355  24.799  1.00  0.00     0.387 C 
BRANCH   5   6
ATOM      6  N   UNL A   1      31.263  24.159  24.490  1.00  0.00    -0.315 N 
ATOM      7  H   UNL A   1      32.109  24.540  24.913  1.00  0.00     0.349 HD
BRANCH   6   8
ATOM      8  C   UNL A   1      31.027  22.964  25.264  1.00  0.00     0.291 C 
BRANCH   8   9
ATOM      9  C   UNL A   1      31.266  23.054  26.738  1.00  0.00     0.025 C 
ATOM     10  C   UNL A   1      32.462  22.757  27.269  1.00  0.00     0.010 C 
ENDBRANCH   8   9
ENDBRANCH   6   8
BRANCH   6  11
ATOM     11  C   UNL A   1      31.750  23.932  23.122  1.00  0.00     0.364 C 
BRANCH  11  12
ATOM     12  C   UNL A   1      32.836  24.838  22.532  1.00  0.00     0.279 C 
ATOM     13  O   UNL A   1      32.518  25.770  21.776  1.00  0.00    -0.268 OA
ATOM     14  N   UNL A   1      34.123  24.866  22.999  1.00  0.00    -0.321 N 
ATOM     15  H   UNL A   1      34.617  25.665  22.701  1.00  0.00     0.170 HD
BRANCH  14  16
ATOM     16  C   UNL A   1      34.897  24.020  23.804  1.00  0.00     0.041 A 
ATOM     17  C   UNL A   1      35.023  24.345  25.158  1.00  0.00     0.026 A 
ATOM     18  C   UNL A   1      35.671  22.977  23.313  1.00  0.00     0.026 A 
ATOM     19  C   UNL A   1      35.826  23.576  26.010  1.00  0.00     0.002 A 
ATOM     20  C   UNL A   1      36.471  22.198  24.154  1.00  0.00     0.002 A 
ATOM     21  C   UNL A   1      36.538  22.489  25.511  1.00  0.00     0.000 A 
ENDBRANCH  14  16
ENDBRANCH  11  12
ENDBRANCH   6  11
ENDBRANCH   5   6
ENDBRANCH   3   5
ENDBRANCH   2   3
ENDBRANCH   1   2
BRANCH   1  22
ATOM     22  C   UNL A   1      31.780  29.422  26.030  1.00  0.00     0.275 C 
BRANCH  22  23
ATOM     23  O   UNL A   1      33.017  30.139  25.896  1.00  0.00    -0.458 OA
BRANCH  23  24
ATOM     24  C   UNL A   1      33.188  31.155  26.767  1.00  0.00     0.338 C 
ATOM     25  O   UNL A   1      32.493  32.146  26.908  1.00  0.00    -0.246 OA
BRANCH  24  26
ATOM     26  C   UNL A   1      34.369  30.894  27.593  1.00  0.00     0.060 A 
ATOM     27  C   UNL A   1      35.254  31.935  27.873  1.00  0.00     0.016 A 
ATOM     28  C   UNL A   1      34.655  29.588  27.982  1.00  0.00     0.016 A 
ATOM     29  C   UNL A   1      36.464  31.659  28.500  1.00  0.00     0.010 A 
ATOM     30  C   UNL A   1      35.840  29.325  28.670  1.00  0.00     0.010 A 
ATOM     31  C   UNL A   1      36.765  30.354  28.914  1.00  0.00    -0.014 A 
BRANCH  31  32
ATOM     32  C   UNL A   1      38.025  30.070  29.642  1.00  0.00     0.031 A 
ATOM     33  C   UNL A   1      39.052  29.136  29.068  1.00  0.00     0.074 A 
ATOM     34  C   UNL A   1      38.211  30.624  30.855  1.00  0.00     0.049 A 
ATOM     35  N   UNL A   1      40.140  28.669  29.624  1.00  0.00    -0.248 NA
ATOM     36  C   UNL A   1      38.828  28.659  27.694  1.00  0.00     0.031 C 
ATOM     37  C   UNL A   1      37.274  31.537  31.515  1.00  0.00     0.029 A 
ATOM     38  N   UNL A   1      39.231  30.481  31.761  1.00  0.00    -0.354 N 
ATOM     39  C   UNL A   1      40.706  27.809  28.691  1.00  0.00     0.074 A 
ATOM     40  C   UNL A   1      39.844  27.821  27.529  1.00  0.00     0.031 C 
ATOM     41  C   UNL A   1      37.757  31.864  32.722  1.00  0.00     0.029 A 
ATOM     42  C   UNL A   1      39.004  31.142  32.945  1.00  0.00     0.049 A 
ATOM     43  H   UNL A   1      40.045  29.956  31.580  1.00  0.00     0.167 HD
ATOM     44  C   UNL A   1      41.846  27.084  28.796  1.00  0.00     0.034 A 
ATOM     45  C   UNL A   1      39.699  31.139  34.097  1.00  0.00     0.034 A 
ATOM     46  C   UNL A   1      42.718  27.111  29.940  1.00  0.00     0.049 A 
ATOM     47  C   UNL A   1      40.963  30.335  34.181  1.00  0.00     0.074 A 
ATOM     48  C   UNL A   1      43.917  26.444  30.125  1.00  0.00     0.029 A 
ATOM     49  N   UNL A   1      42.488  27.843  31.095  1.00  0.00    -0.354 N 
ATOM     50  N   UNL A   1      41.527  29.591  33.260  1.00  0.00    -0.248 NA
ATOM     51  C   UNL A   1      41.700  30.386  35.451  1.00  0.00     0.031 C 
ATOM     52  C   UNL A   1      44.409  26.770  31.394  1.00  0.00     0.029 A 
ATOM     53  C   UNL A   1      43.521  27.645  31.998  1.00  0.00     0.049 A 
ATOM     54  H   UNL A   1      41.706  28.419  31.252  1.00  0.00     0.167 HD
ATOM     55  C   UNL A   1      42.690  29.094  33.832  1.00  0.00     0.074 A 
ATOM     56  C   UNL A   1      42.766  29.648  35.170  1.00  0.00     0.031 C 
ATOM     57  C   UNL A   1      43.601  28.239  33.307  1.00  0.00     0.034 A 
BRANCH  44  58
ATOM     58  C   UNL A   1      42.247  26.228  27.623  1.00  0.00     0.023 A 
ATOM     59  C   UNL A   1      43.064  26.779  26.614  1.00  0.00     0.012 A 
ATOM     60  C   UNL A   1      41.886  24.869  27.556  1.00  0.00     0.148 A 
ATOM     61  C   UNL A   1      43.502  25.992  25.549  1.00  0.00     0.002 A 
ATOM     62  C   UNL A   1      42.354  24.083  26.507  1.00  0.00     0.091 A 
ATOM     63  F   UNL A   1      41.086  24.370  28.510  1.00  0.00    -0.205 F 
ATOM     64  C   UNL A   1      43.157  24.644  25.501  1.00  0.00     0.022 A 
BRANCH  62  65
ATOM     65  S   UNL A   1      42.017  22.321  26.401  1.00  0.00     0.127 S 
ATOM     66  O   UNL A   1      42.573  21.837  27.663  1.00  0.00    -0.237 OA
ATOM     67  O   UNL A   1      40.555  22.285  26.326  1.00  0.00    -0.237 OA
ATOM     68  O   UNL A   1      42.692  21.860  25.196  1.00  0.00    -0.744 OA
ENDBRANCH  62  65
ENDBRANCH  44  58
BRANCH  45  69
ATOM     69  C   UNL A   1      39.213  31.959  35.241  1.00  0.00     0.023 A 
ATOM     70  C   UNL A   1      38.380  31.369  36.209  1.00  0.00     0.012 A 
ATOM     71  C   UNL A   1      39.647  33.286  35.423  1.00  0.00     0.148 A 
ATOM     72  C   UNL A   1      37.981  32.091  37.335  1.00  0.00     0.002 A 
ATOM     73  C   UNL A   1      39.296  33.978  36.576  1.00  0.00     0.091 A 
ATOM     74  F   UNL A   1      40.421  33.841  34.479  1.00  0.00    -0.205 F 
ATOM     75  C   UNL A   1      38.452  33.387  37.527  1.00  0.00     0.022 A 
BRANCH  73  76
ATOM     76  S   UNL A   1      39.999  35.587  36.962  1.00  0.00     0.127 S 
ATOM     77  O   UNL A   1      39.375  35.889  38.246  1.00  0.00    -0.237 OA
ATOM     78  O   UNL A   1      41.432  35.293  37.028  1.00  0.00    -0.237 OA
ATOM     79  O   UNL A   1      39.622  36.444  35.846  1.00  0.00    -0.744 OA
ENDBRANCH  73  76
ENDBRANCH  45  69
BRANCH  57  80
ATOM     80  C   UNL A   1      44.762  27.852  34.180  1.00  0.00     0.023 A 
ATOM     81  C   UNL A   1      45.926  28.646  34.172  1.00  0.00     0.012 A 
ATOM     82  C   UNL A   1      44.684  26.744  35.045  1.00  0.00     0.148 A 
ATOM     83  C   UNL A   1      47.006  28.326  34.993  1.00  0.00     0.002 A 
ATOM     84  C   UNL A   1      45.750  26.454  35.888  1.00  0.00     0.091 A 
ATOM     85  F   UNL A   1      43.577  25.987  35.020  1.00  0.00    -0.205 F 
ATOM     86  C   UNL A   1      46.915  27.238  35.858  1.00  0.00     0.022 A 
BRANCH  84  87
ATOM     87  S   UNL A   1      45.680  25.117  37.086  1.00  0.00     0.127 S 
ATOM     88  O   UNL A   1      44.433  25.413  37.792  1.00  0.00    -0.237 OA
ATOM     89  O   UNL A   1      45.629  23.929  36.233  1.00  0.00    -0.237 OA
ATOM     90  O   UNL A   1      46.896  25.234  37.879  1.00  0.00    -0.744 OA
ENDBRANCH  84  87
ENDBRANCH  57  80
ENDBRANCH  31  32
ENDBRANCH  24  26
ENDBRANCH  23  24
ENDBRANCH  22  23
ENDBRANCH   1  22
TORSDOF 20
ENDMDL
MODEL 2
REMARK VINA RESULT:      -9.5      2.734      8.466
REMARK SMILES C=CC[N@@H+](CC(=O)Nc1ccccc1)CC(=O)OCCOC(=O)c1ccc(-c2c3nc(c(-c4cccc(S(=O)(=O)[O-])c4F)c4ccc([nH]4)c(-c4cccc(S(=O)(=O)[O-])c4F)c4nc(c(-c5cccc(S(=O)(=O)[O-])c5F)c5ccc2[nH]5)C=C4)C=C3)cc1
REMARK SMILES IDX 19 1 18 2 16 3 17 4 15 5 4 6 3 8 2 9 1 10 5 11 6 12 7 13
REMARK SMILES IDX 8 14 9 16 10 17 14 18 11 19 13 20 12 21 20 22 21 23 22 24
REMARK SMILES IDX 23 25 24 26 25 27 86 28 26 29 85 30 27 31 28 32 29 33 79 34
REMARK SMILES IDX 30 35 84 36 78 37 80 38 31 39 83 40 77 41 76 42 32 44 64 45
REMARK SMILES IDX 44 46 63 47 45 48 48 49 62 50 81 51 46 52 47 53 61 55 82 56
REMARK SMILES IDX 49 57 33 58 34 59 42 60 35 61 37 62 43 63 36 64 38 65 39 66
REMARK SMILES IDX 40 67 41 68 65 69 66 70 74 71 67 72 69 73 75 74 68 75 70 76
REMARK SMILES IDX 71 77 72 78 73 79 50 80 51 81 59 82 52 83 54 84 60 85 53 86
REMARK SMILES IDX 55 87 56 88 57 89 58 90
REMARK H PARENT 4 7 8 15 80 43 48 54
REMARK Flexibility Score: inf
ROOT
ATOM      1  C   UNL A   1      32.834  28.036  27.079  1.00  0.00     0.274 C 
ENDROOT
BRANCH   1   2
ATOM      2  O   UNL A   1      31.499  27.506  27.172  1.00  0.00    -0.458 OA
BRANCH   2   3
ATOM      3  C   UNL A   1      31.104  26.600  26.251  1.00  0.00     0.361 C 
ATOM      4  O   UNL A   1      30.325  25.679  26.476  1.00  0.00    -0.245 OA
BRANCH   3   5
ATOM      5  C   UNL A   1      31.856  26.745  24.932  1.00  0.00     0.387 C 
BRANCH   5   6
ATOM      6  N   UNL A   1      31.201  26.302  23.698  1.00  0.00    -0.315 N 
ATOM      7  H   UNL A   1      30.487  25.775  24.199  1.00  0.00     0.349 HD
BRANCH   6   8
ATOM      8  C   UNL A   1      30.426  27.263  22.950  1.00  0.00     0.291 C 
BRANCH   8   9
ATOM      9  C   UNL A   1      30.678  28.709  23.242  1.00  0.00     0.025 C 
ATOM     10  C   UNL A   1      29.678  29.604  23.244  1.00  0.00     0.010 C 
ENDBRANCH   8   9
ENDBRANCH   6   8
BRANCH   6  11
ATOM     11  C   UNL A   1      31.794  25.220  22.898  1.00  0.00     0.364 C 
BRANCH  11  12
ATOM     12  C   UNL A   1      33.267  25.288  22.483  1.00  0.00     0.279 C 
ATOM     13  O   UNL A   1      33.624  26.097  21.610  1.00  0.00    -0.268 OA
ATOM     14  N   UNL A   1      34.277  24.709  23.203  1.00  0.00    -0.321 N 
ATOM     15  H   UNL A   1      35.165  25.055  22.956  1.00  0.00     0.170 HD
BRANCH  14  16
ATOM     16  C   UNL A   1      34.335  23.738  24.211  1.00  0.00     0.041 A 
ATOM     17  C   UNL A   1      34.859  24.116  25.451  1.00  0.00     0.026 A 
ATOM     18  C   UNL A   1      34.054  22.393  24.009  1.00  0.00     0.026 A 
ATOM     19  C   UNL A   1      34.999  23.184  26.487  1.00  0.00     0.002 A 
ATOM     20  C   UNL A   1      34.183  21.454  25.037  1.00  0.00     0.002 A 
ATOM     21  C   UNL A   1      34.643  21.854  26.285  1.00  0.00     0.000 A 
ENDBRANCH  14  16
ENDBRANCH  11  12
ENDBRANCH   6  11
ENDBRANCH   5   6
ENDBRANCH   3   5
ENDBRANCH   2   3
ENDBRANCH   1   2
BRANCH   1  22
ATOM     22  C   UNL A   1      32.800  29.555  27.000  1.00  0.00     0.275 C 
BRANCH  22  23
ATOM     23  O   UNL A   1      34.137  30.047  26.817  1.00  0.00    -0.458 OA
BRANCH  23  24
ATOM     24  C   UNL A   1      34.550  30.940  27.741  1.00  0.00     0.338 C 
ATOM     25  O   UNL A   1      34.004  31.975  28.080  1.00  0.00    -0.246 OA
BRANCH  24  26
ATOM     26  C   UNL A   1      35.801  30.473  28.342  1.00  0.00     0.060 A 
ATOM     27  C   UNL A   1      37.008  30.704  27.682  1.00  0.00     0.016 A 
ATOM     28  C   UNL A   1      35.756  29.700  29.500  1.00  0.00     0.016 A 
ATOM     29  C   UNL A   1      38.174  30.110  28.152  1.00  0.00     0.010 A 
ATOM     30  C   UNL A   1      36.939  29.160  30.006  1.00  0.00     0.010 A 
ATOM     31  C   UNL A   1      38.153  29.340  29.324  1.00  0.00    -0.014 A 
BRANCH  31  32
ATOM     32  C   UNL A   1      39.408  28.762  29.864  1.00  0.00     0.031 A 
ATOM     33  C   UNL A   1      40.073  29.360  31.070  1.00  0.00     0.074 A 
ATOM     34  C   UNL A   1      39.969  27.721  29.222  1.00  0.00     0.049 A 
ATOM     35  N   UNL A   1      41.237  29.073  31.594  1.00  0.00    -0.248 NA
ATOM     36  C   UNL A   1      39.342  30.423  31.779  1.00  0.00     0.031 C 
ATOM     37  C   UNL A   1      39.416  27.067  28.034  1.00  0.00     0.029 A 
ATOM     38  N   UNL A   1      41.142  27.047  29.458  1.00  0.00    -0.354 N 
ATOM     39  C   UNL A   1      41.401  29.946  32.662  1.00  0.00     0.074 A 
ATOM     40  C   UNL A   1      40.214  30.772  32.717  1.00  0.00     0.031 C 
ATOM     41  C   UNL A   1      40.251  26.095  27.638  1.00  0.00     0.029 A 
ATOM     42  C   UNL A   1      41.422  26.095  28.507  1.00  0.00     0.049 A 
ATOM     43  H   UNL A   1      41.724  27.229  30.231  1.00  0.00     0.167 HD
ATOM     44  C   UNL A   1      42.445  30.040  33.521  1.00  0.00     0.034 A 
ATOM     45  C   UNL A   1      42.515  25.331  28.328  1.00  0.00     0.034 A 
ATOM     46  C   UNL A   1      43.602  29.186  33.483  1.00  0.00     0.049 A 
ATOM     47  C   UNL A   1      43.651  25.449  29.301  1.00  0.00     0.074 A 
ATOM     48  C   UNL A   1      44.693  29.175  34.336  1.00  0.00     0.029 A 
ATOM     49  N   UNL A   1      43.821  28.189  32.545  1.00  0.00    -0.354 N 
ATOM     50  N   UNL A   1      43.755  26.224  30.353  1.00  0.00    -0.248 NA
ATOM     51  C   UNL A   1      44.811  24.575  29.078  1.00  0.00     0.031 C 
ATOM     52  C   UNL A   1      45.573  28.174  33.909  1.00  0.00     0.029 A 
ATOM     53  C   UNL A   1      45.028  27.557  32.795  1.00  0.00     0.049 A 
ATOM     54  H   UNL A   1      43.208  27.963  31.808  1.00  0.00     0.167 HD
ATOM     55  C   UNL A   1      44.983  25.925  30.927  1.00  0.00     0.074 A 
ATOM     56  C   UNL A   1      45.574  24.874  30.122  1.00  0.00     0.031 C 
ATOM     57  C   UNL A   1      45.579  26.484  32.008  1.00  0.00     0.034 A 
BRANCH  44  58
ATOM     58  C   UNL A   1      42.369  31.078  34.611  1.00  0.00     0.023 A 
ATOM     59  C   UNL A   1      41.918  30.701  35.892  1.00  0.00     0.012 A 
ATOM     60  C   UNL A   1      42.814  32.396  34.394  1.00  0.00     0.148 A 
ATOM     61  C   UNL A   1      41.896  31.626  36.936  1.00  0.00     0.002 A 
ATOM     62  C   UNL A   1      42.820  33.304  35.448  1.00  0.00     0.091 A 
ATOM     63  F   UNL A   1      43.213  32.743  33.161  1.00  0.00    -0.205 F 
ATOM     64  C   UNL A   1      42.357  32.922  36.718  1.00  0.00     0.022 A 
BRANCH  62  65
ATOM     65  S   UNL A   1      43.459  34.974  35.276  1.00  0.00     0.127 S 
ATOM     66  O   UNL A   1      42.660  35.482  34.163  1.00  0.00    -0.237 OA
ATOM     67  O   UNL A   1      43.140  35.568  36.576  1.00  0.00    -0.237 OA
ATOM     68  O   UNL A   1      44.884  34.829  35.015  1.00  0.00    -0.744 OA
ENDBRANCH  62  65
ENDBRANCH  44  58
BRANCH  45  69
ATOM     69  C   UNL A   1      42.552  24.369  27.192  1.00  0.00     0.023 A 
ATOM     70  C   UNL A   1      43.248  24.712  26.018  1.00  0.00     0.012 A 
ATOM     71  C   UNL A   1      41.982  23.085  27.305  1.00  0.00     0.148 A 
ATOM     72  C   UNL A   1      43.369  23.794  24.973  1.00  0.00     0.002 A 
ATOM     73  C   UNL A   1      42.159  22.157  26.286  1.00  0.00     0.091 A 
ATOM     74  F   UNL A   1      41.302  22.784  28.421  1.00  0.00    -0.205 F 
ATOM     75  C   UNL A   1      42.841  22.513  25.114  1.00  0.00     0.022 A 
BRANCH  73  76
ATOM     76  S   UNL A   1      41.647  20.444  26.473  1.00  0.00     0.127 S 
ATOM     77  O   UNL A   1      42.358  19.795  25.375  1.00  0.00    -0.237 OA
ATOM     78  O   UNL A   1      42.145  20.113  27.810  1.00  0.00    -0.237 OA
ATOM     79  O   UNL A   1      40.194  20.469  26.373  1.00  0.00    -0.744 OA
ENDBRANCH  73  76
ENDBRANCH  45  69
BRANCH  57  80
ATOM     80  C   UNL A   1      46.940  25.967  32.386  1.00  0.00     0.023 A 
ATOM     81  C   UNL A   1      47.059  25.051  33.450  1.00  0.00     0.012 A 
ATOM     82  C   UNL A   1      48.086  26.340  31.660  1.00  0.00     0.148 A 
ATOM     83  C   UNL A   1      48.304  24.534  33.803  1.00  0.00     0.002 A 
ATOM     84  C   UNL A   1      49.319  25.791  31.993  1.00  0.00     0.091 A 
ATOM     85  F   UNL A   1      47.955  27.232  30.667  1.00  0.00    -0.205 F 
ATOM     86  C   UNL A   1      49.431  24.895  33.069  1.00  0.00     0.022 A 
BRANCH  84  87
ATOM     87  S   UNL A   1      50.805  26.145  31.048  1.00  0.00     0.127 S 
ATOM     88  O   UNL A   1      50.454  25.619  29.730  1.00  0.00    -0.237 OA
ATOM     89  O   UNL A   1      50.886  27.605  31.120  1.00  0.00    -0.237 OA
ATOM     90  O   UNL A   1      51.885  25.452  31.738  1.00  0.00    -0.744 OA
ENDBRANCH  84  87
ENDBRANCH  57  80
ENDBRANCH  31  32
ENDBRANCH  24  26
ENDBRANCH  23  24
ENDBRANCH  22  23
ENDBRANCH   1  22
TORSDOF 20
ENDMDL
MODEL 3
REMARK VINA RESULT:      -9.3      5.709      9.933
REMARK SMILES C=CC[N@@H+](CC(=O)Nc1ccccc1)CC(=O)OCCOC(=O)c1ccc(-c2c3nc(c(-c4cccc(S(=O)(=O)[O-])c4F)c4ccc([nH]4)c(-c4cccc(S(=O)(=O)[O-])c4F)c4nc(c(-c5cccc(S(=O)(=O)[O-])c5F)c5ccc2[nH]5)C=C4)C=C3)cc1
REMARK SMILES IDX 19 1 18 2 16 3 17 4 15 5 4 6 3 8 2 9 1 10 5 11 6 12 7 13
REMARK SMILES IDX 8 14 9 16 10 17 14 18 11 19 13 20 12 21 20 22 21 23 22 24
REMARK SMILES IDX 23 25 24 26 25 27 86 28 26 29 85 30 27 31 28 32 29 33 79 34
REMARK SMILES IDX 30 35 84 36 78 37 80 38 31 39 83 40 77 41 76 42 32 44 64 45
REMARK SMILES IDX 44 46 63 47 45 48 48 49 62 50 81 51 46 52 47 53 61 55 82 56
REMARK SMILES IDX 49 57 33 58 34 59 42 60 35 61 37 62 43 63 36 64 38 65 39 66
REMARK SMILES IDX 40 67 41 68 65 69 66 70 74 71 67 72 69 73 75 74 68 75 70 76
REMARK SMILES IDX 71 77 72 78 73 79 50 80 51 81 59 82 52 83 54 84 60 85 53 86
REMARK SMILES IDX 55 87 56 88 57 89 58 90
REMARK H PARENT 4 7 8 15 80 43 48 54
REMARK Flexibility Score: inf
ROOT
ATOM      1  C   UNL A   1      43.139  20.130  25.488  1.00  0.00     0.274 C 
ENDROOT
BRANCH   1   2
ATOM      2  O   UNL A   1      44.304  20.895  25.848  1.00  0.00    -0.458 OA
BRANCH   2   3
ATOM      3  C   UNL A   1      45.208  21.176  24.885  1.00  0.00     0.361 C 
ATOM      4  O   UNL A   1      46.131  20.433  24.565  1.00  0.00    -0.245 OA
BRANCH   3   5
ATOM      5  C   UNL A   1      45.059  22.593  24.343  1.00  0.00     0.387 C 
BRANCH   5   6
ATOM      6  N   UNL A   1      45.380  23.720  25.225  1.00  0.00    -0.315 N 
ATOM      7  H   UNL A   1      44.917  24.398  24.619  1.00  0.00     0.349 HD
BRANCH   6   8
ATOM      8  C   UNL A   1      44.654  23.848  26.465  1.00  0.00     0.291 C 
BRANCH   8   9
ATOM      9  C   UNL A   1      45.403  23.540  27.723  1.00  0.00     0.025 C 
ATOM     10  C   UNL A   1      44.994  24.012  28.910  1.00  0.00     0.010 C 
ENDBRANCH   8   9
ENDBRANCH   6   8
BRANCH   6  11
ATOM     11  C   UNL A   1      46.739  24.283  25.235  1.00  0.00     0.364 C 
BRANCH  11  12
ATOM     12  C   UNL A   1      46.941  25.801  25.201  1.00  0.00     0.279 C 
ATOM     13  O   UNL A   1      46.281  26.494  24.409  1.00  0.00    -0.268 OA
ATOM     14  N   UNL A   1      47.606  26.491  26.178  1.00  0.00    -0.321 N 
ATOM     15  H   UNL A   1      47.429  27.459  26.147  1.00  0.00     0.170 HD
BRANCH  14  16
ATOM     16  C   UNL A   1      48.481  26.134  27.214  1.00  0.00     0.041 A 
ATOM     17  C   UNL A   1      49.794  25.800  26.871  1.00  0.00     0.026 A 
ATOM     18  C   UNL A   1      48.084  25.938  28.530  1.00  0.00     0.026 A 
ATOM     19  C   UNL A   1      50.707  25.380  27.847  1.00  0.00     0.002 A 
ATOM     20  C   UNL A   1      48.988  25.526  29.515  1.00  0.00     0.002 A 
ATOM     21  C   UNL A   1      50.307  25.260  29.175  1.00  0.00     0.000 A 
ENDBRANCH  14  16
ENDBRANCH  11  12
ENDBRANCH   6  11
ENDBRANCH   5   6
ENDBRANCH   3   5
ENDBRANCH   2   3
ENDBRANCH   1   2
BRANCH   1  22
ATOM     22  C   UNL A   1      41.909  20.658  26.212  1.00  0.00     0.275 C 
BRANCH  22  23
ATOM     23  O   UNL A   1      41.690  22.025  25.833  1.00  0.00    -0.458 OA
BRANCH  23  24
ATOM     24  C   UNL A   1      40.648  22.628  26.442  1.00  0.00     0.338 C 
ATOM     25  O   UNL A   1      39.523  22.191  26.611  1.00  0.00    -0.246 OA
BRANCH  24  26
ATOM     26  C   UNL A   1      41.065  23.946  26.928  1.00  0.00     0.060 A 
ATOM     27  C   UNL A   1      41.381  24.111  28.276  1.00  0.00     0.016 A 
ATOM     28  C   UNL A   1      41.020  25.038  26.064  1.00  0.00     0.016 A 
ATOM     29  C   UNL A   1      41.601  25.388  28.780  1.00  0.00     0.010 A 
ATOM     30  C   UNL A   1      41.307  26.311  26.559  1.00  0.00     0.010 A 
ATOM     31  C   UNL A   1      41.576  26.500  27.925  1.00  0.00    -0.014 A 
BRANCH  31  32
ATOM     32  C   UNL A   1      41.878  27.855  28.447  1.00  0.00     0.031 A 
ATOM     33  C   UNL A   1      43.297  28.308  28.635  1.00  0.00     0.074 A 
ATOM     34  C   UNL A   1      40.854  28.655  28.801  1.00  0.00     0.049 A 
ATOM     35  N   UNL A   1      43.743  29.398  29.204  1.00  0.00    -0.248 NA
ATOM     36  C   UNL A   1      44.355  27.422  28.124  1.00  0.00     0.031 C 
ATOM     37  C   UNL A   1      39.436  28.312  28.673  1.00  0.00     0.029 A 
ATOM     38  N   UNL A   1      40.846  29.905  29.365  1.00  0.00    -0.354 N 
ATOM     39  C   UNL A   1      45.129  29.311  29.163  1.00  0.00     0.074 A 
ATOM     40  C   UNL A   1      45.453  28.062  28.508  1.00  0.00     0.031 C 
ATOM     41  C   UNL A   1      38.695  29.321  29.154  1.00  0.00     0.029 A 
ATOM     42  C   UNL A   1      39.584  30.354  29.675  1.00  0.00     0.049 A 
ATOM     43  H   UNL A   1      41.663  30.428  29.533  1.00  0.00     0.167 HD
ATOM     44  C   UNL A   1      46.044  30.198  29.624  1.00  0.00     0.034 A 
ATOM     45  C   UNL A   1      39.183  31.454  30.338  1.00  0.00     0.034 A 
ATOM     46  C   UNL A   1      45.711  31.457  30.236  1.00  0.00     0.049 A 
ATOM     47  C   UNL A   1      40.218  32.424  30.827  1.00  0.00     0.074 A 
ATOM     48  C   UNL A   1      46.566  32.443  30.697  1.00  0.00     0.029 A 
ATOM     49  N   UNL A   1      44.421  31.906  30.474  1.00  0.00    -0.354 N 
ATOM     50  N   UNL A   1      41.522  32.365  30.708  1.00  0.00    -0.248 NA
ATOM     51  C   UNL A   1      39.728  33.623  31.521  1.00  0.00     0.031 C 
ATOM     52  C   UNL A   1      45.792  33.487  31.218  1.00  0.00     0.029 A 
ATOM     53  C   UNL A   1      44.455  33.154  31.075  1.00  0.00     0.049 A 
ATOM     54  H   UNL A   1      43.600  31.412  30.249  1.00  0.00     0.167 HD
ATOM     55  C   UNL A   1      42.011  33.521  31.299  1.00  0.00     0.074 A 
ATOM     56  C   UNL A   1      40.860  34.279  31.749  1.00  0.00     0.031 C 
ATOM     57  C   UNL A   1      43.297  33.911  31.476  1.00  0.00     0.034 A 
BRANCH  44  58
ATOM     58  C   UNL A   1      47.501  29.865  29.444  1.00  0.00     0.023 A 
ATOM     59  C   UNL A   1      48.208  29.262  30.505  1.00  0.00     0.012 A 
ATOM     60  C   UNL A   1      48.149  30.072  28.211  1.00  0.00     0.148 A 
ATOM     61  C   UNL A   1      49.541  28.885  30.345  1.00  0.00     0.002 A 
ATOM     62  C   UNL A   1      49.470  29.663  28.049  1.00  0.00     0.091 A 
ATOM     63  F   UNL A   1      47.470  30.671  27.223  1.00  0.00    -0.205 F 
ATOM     64  C   UNL A   1      50.168  29.075  29.116  1.00  0.00     0.022 A 
BRANCH  62  65
ATOM     65  S   UNL A   1      50.336  29.806  26.482  1.00  0.00     0.127 S 
ATOM     66  O   UNL A   1      50.166  31.226  26.179  1.00  0.00    -0.237 OA
ATOM     67  O   UNL A   1      51.702  29.420  26.841  1.00  0.00    -0.237 OA
ATOM     68  O   UNL A   1      49.669  28.883  25.574  1.00  0.00    -0.744 OA
ENDBRANCH  62  65
ENDBRANCH  44  58
BRANCH  45  69
ATOM     69  C   UNL A   1      37.727  31.693  30.536  1.00  0.00     0.023 A 
ATOM     70  C   UNL A   1      37.112  31.259  31.725  1.00  0.00     0.012 A 
ATOM     71  C   UNL A   1      36.974  32.427  29.599  1.00  0.00     0.148 A 
ATOM     72  C   UNL A   1      35.768  31.546  31.972  1.00  0.00     0.002 A 
ATOM     73  C   UNL A   1      35.654  32.761  29.879  1.00  0.00     0.091 A 
ATOM     74  F   UNL A   1      37.570  32.811  28.461  1.00  0.00    -0.205 F 
ATOM     75  C   UNL A   1      35.046  32.311  31.060  1.00  0.00     0.022 A 
BRANCH  73  76
ATOM     76  S   UNL A   1      34.720  33.878  28.825  1.00  0.00     0.127 S 
ATOM     77  O   UNL A   1      35.556  35.075  28.839  1.00  0.00    -0.237 OA
ATOM     78  O   UNL A   1      34.697  33.157  27.551  1.00  0.00    -0.237 OA
ATOM     79  O   UNL A   1      33.415  33.998  29.461  1.00  0.00    -0.744 OA
ENDBRANCH  73  76
ENDBRANCH  45  69
BRANCH  57  80
ATOM     80  C   UNL A   1      43.527  35.218  32.183  1.00  0.00     0.023 A 
ATOM     81  C   UNL A   1      43.642  36.401  31.426  1.00  0.00     0.012 A 
ATOM     82  C   UNL A   1      43.574  35.286  33.588  1.00  0.00     0.148 A 
ATOM     83  C   UNL A   1      43.827  37.630  32.057  1.00  0.00     0.002 A 
ATOM     84  C   UNL A   1      43.720  36.520  34.211  1.00  0.00     0.091 A 
ATOM     85  F   UNL A   1      43.487  34.147  34.289  1.00  0.00    -0.205 F 
ATOM     86  C   UNL A   1      43.856  37.691  33.448  1.00  0.00     0.022 A 
BRANCH  84  87
ATOM     87  S   UNL A   1      43.688  36.693  35.999  1.00  0.00     0.127 S 
ATOM     88  O   UNL A   1      44.862  35.917  36.396  1.00  0.00    -0.237 OA
ATOM     89  O   UNL A   1      43.825  38.139  36.181  1.00  0.00    -0.237 OA
ATOM     90  O   UNL A   1      42.403  36.155  36.424  1.00  0.00    -0.744 OA
ENDBRANCH  84  87
ENDBRANCH  57  80
ENDBRANCH  31  32
ENDBRANCH  24  26
ENDBRANCH  23  24
ENDBRANCH  22  23
ENDBRANCH   1  22
TORSDOF 20
ENDMDL
