MODEL 1
REMARK VINA RESULT:     -11.3      0.000      0.000
REMARK SMILES O=C(NCc1ccsc1)NC[C@H]1CC[C@@H](C(=O)OCCOC(=O)c2ccc(-c3c4nc(c(-c5cccc(S(=O)(=O)[O-])c5F)c5ccc([nH]5)c(-c5cccc(S(=O)(=O)[O-])c5F)c5nc(c(-c6cccc(S(=O)(=O)[O-])c6F)c6ccc3[nH]6)C=C5)C=C4)cc2)CC1
REMARK SMILES IDX 19 1 18 2 16 3 17 4 15 5 12 6 13 7 88 8 14 9 87 10 11 11
REMARK SMILES IDX 10 12 1 13 2 14 3 15 4 18 5 19 6 20 9 21 7 22 8 23 20 24
REMARK SMILES IDX 21 25 22 26 23 27 24 28 25 29 86 30 26 31 85 32 27 33 28 34
REMARK SMILES IDX 29 35 79 36 30 37 84 38 78 39 80 40 31 41 83 42 77 43 76 44
REMARK SMILES IDX 32 46 64 47 44 48 63 49 45 50 48 51 62 52 81 53 46 54 47 55
REMARK SMILES IDX 61 57 82 58 49 59 33 60 34 61 42 62 35 63 37 64 43 65 36 66
REMARK SMILES IDX 38 67 39 68 40 69 41 70 65 71 66 72 74 73 67 74 69 75 75 76
REMARK SMILES IDX 68 77 70 78 71 79 72 80 73 81 50 82 51 83 59 84 52 85 54 86
REMARK SMILES IDX 60 87 53 88 55 89 56 90 57 91 58 92
REMARK H PARENT 3 16 10 17 80 45 48 56
REMARK Flexibility Score: inf
ROOT
ATOM      1  C   UNL A   1      31.651  31.803  26.789  1.00  0.00     0.274 C 
ENDROOT
BRANCH   1   2
ATOM      2  O   UNL A   1      32.852  31.045  27.035  1.00  0.00    -0.462 OA
BRANCH   2   3
ATOM      3  C   UNL A   1      33.032  29.921  26.298  1.00  0.00     0.309 C 
ATOM      4  O   UNL A   1      33.057  29.886  25.074  1.00  0.00    -0.252 OA
BRANCH   3   5
ATOM      5  C   UNL A   1      33.136  28.661  27.150  1.00  0.00     0.099 C 
ATOM      6  C   UNL A   1      31.936  26.259  25.844  1.00  0.00     0.008 C 
ATOM      7  C   UNL A   1      33.230  26.905  25.332  1.00  0.00     0.006 C 
ATOM      8  C   UNL A   1      31.048  27.272  26.582  1.00  0.00     0.006 C 
ATOM      9  C   UNL A   1      33.992  27.612  26.446  1.00  0.00     0.015 C 
ATOM     10  C   UNL A   1      31.807  28.073  27.638  1.00  0.00     0.015 C 
BRANCH   6  11
ATOM     11  C   UNL A   1      31.186  25.614  24.668  1.00  0.00     0.121 C 
BRANCH  11  12
ATOM     12  N   UNL A   1      30.326  26.570  24.003  1.00  0.00    -0.338 N 
ATOM     13  O   UNL A   1      31.655  26.870  22.174  1.00  0.00    -0.249 OA
ATOM     14  C   UNL A   1      30.655  27.158  22.825  1.00  0.00     0.315 C 
ATOM     15  N   UNL A   1      29.825  28.120  22.363  1.00  0.00    -0.334 N 
ATOM     16  H   UNL A   1      30.076  28.491  21.486  1.00  0.00     0.165 HD
ATOM     17  H   UNL A   1      29.467  26.802  24.422  1.00  0.00     0.165 HD
BRANCH  15  18
ATOM     18  C   UNL A   1      28.633  28.696  22.937  1.00  0.00     0.154 C 
BRANCH  18  19
ATOM     19  C   UNL A   1      28.566  30.138  22.552  1.00  0.00    -0.018 A 
ATOM     20  C   UNL A   1      28.171  30.621  21.259  1.00  0.00     0.017 A 
ATOM     21  C   UNL A   1      28.866  31.195  23.395  1.00  0.00     0.070 A 
ATOM     22  C   UNL A   1      28.179  31.995  21.179  1.00  0.00     0.065 A 
ATOM     23  S   UNL A   1      28.665  32.719  22.648  1.00  0.00    -0.152 S 
ENDBRANCH  18  19
ENDBRANCH  15  18
ENDBRANCH  11  12
ENDBRANCH   6  11
ENDBRANCH   3   5
ENDBRANCH   2   3
ENDBRANCH   1   2
BRANCH   1  24
ATOM     24  C   UNL A   1      31.877  33.290  27.061  1.00  0.00     0.275 C 
BRANCH  24  25
ATOM     25  O   UNL A   1      33.233  33.536  27.471  1.00  0.00    -0.458 OA
BRANCH  25  26
ATOM     26  C   UNL A   1      33.369  34.349  28.543  1.00  0.00     0.338 C 
ATOM     27  O   UNL A   1      32.639  35.266  28.878  1.00  0.00    -0.246 OA
BRANCH  26  28
ATOM     28  C   UNL A   1      34.489  33.877  29.367  1.00  0.00     0.060 A 
ATOM     29  C   UNL A   1      35.772  34.335  29.055  1.00  0.00     0.016 A 
ATOM     30  C   UNL A   1      34.292  32.939  30.380  1.00  0.00     0.016 A 
ATOM     31  C   UNL A   1      36.874  33.851  29.752  1.00  0.00     0.010 A 
ATOM     32  C   UNL A   1      35.399  32.453  31.079  1.00  0.00     0.010 A 
ATOM     33  C   UNL A   1      36.696  32.895  30.760  1.00  0.00    -0.014 A 
BRANCH  33  34
ATOM     34  C   UNL A   1      37.876  32.307  31.433  1.00  0.00     0.031 A 
ATOM     35  C   UNL A   1      38.614  31.174  30.781  1.00  0.00     0.074 A 
ATOM     36  C   UNL A   1      38.272  32.781  32.628  1.00  0.00     0.049 A 
ATOM     37  N   UNL A   1      39.616  30.470  31.236  1.00  0.00    -0.248 NA
ATOM     38  C   UNL A   1      38.160  30.780  29.436  1.00  0.00     0.031 C 
ATOM     39  C   UNL A   1      37.640  33.888  33.346  1.00  0.00     0.029 A 
ATOM     40  N   UNL A   1      39.289  32.379  33.456  1.00  0.00    -0.354 N 
ATOM     41  C   UNL A   1      39.886  29.521  30.258  1.00  0.00     0.074 A 
ATOM     42  C   UNL A   1      38.942  29.740  29.183  1.00  0.00     0.031 C 
ATOM     43  C   UNL A   1      38.272  34.064  34.518  1.00  0.00     0.029 A 
ATOM     44  C   UNL A   1      39.327  33.063  34.648  1.00  0.00     0.049 A 
ATOM     45  H   UNL A   1      39.929  31.669  33.220  1.00  0.00     0.167 HD
ATOM     46  C   UNL A   1      40.842  28.562  30.253  1.00  0.00     0.034 A 
ATOM     47  C   UNL A   1      40.109  32.884  35.730  1.00  0.00     0.034 A 
ATOM     48  C   UNL A   1      41.799  28.374  31.309  1.00  0.00     0.049 A 
ATOM     49  C   UNL A   1      41.157  31.805  35.703  1.00  0.00     0.074 A 
ATOM     50  C   UNL A   1      42.835  27.460  31.380  1.00  0.00     0.029 A 
ATOM     51  N   UNL A   1      41.837  29.114  32.483  1.00  0.00    -0.354 N 
ATOM     52  N   UNL A   1      41.463  30.976  34.733  1.00  0.00    -0.248 NA
ATOM     53  C   UNL A   1      41.984  31.650  36.908  1.00  0.00     0.031 C 
ATOM     54  C   UNL A   1      43.492  27.639  32.604  1.00  0.00     0.029 A 
ATOM     55  C   UNL A   1      42.874  28.674  33.287  1.00  0.00     0.049 A 
ATOM     56  H   UNL A   1      41.218  29.845  32.708  1.00  0.00     0.167 HD
ATOM     57  C   UNL A   1      42.533  30.220  35.199  1.00  0.00     0.074 A 
ATOM     58  C   UNL A   1      42.836  30.705  36.531  1.00  0.00     0.031 C 
ATOM     59  C   UNL A   1      43.193  29.205  34.589  1.00  0.00     0.034 A 
BRANCH  46  60
ATOM     60  C   UNL A   1      40.912  27.659  29.050  1.00  0.00     0.023 A 
ATOM     61  C   UNL A   1      40.062  26.538  28.973  1.00  0.00     0.012 A 
ATOM     62  C   UNL A   1      41.793  27.935  27.987  1.00  0.00     0.148 A 
ATOM     63  C   UNL A   1      40.109  25.688  27.869  1.00  0.00     0.002 A 
ATOM     64  C   UNL A   1      41.807  27.104  26.872  1.00  0.00     0.091 A 
ATOM     65  F   UNL A   1      42.614  28.989  28.091  1.00  0.00    -0.205 F 
ATOM     66  C   UNL A   1      40.974  25.975  26.816  1.00  0.00     0.022 A 
BRANCH  64  67
ATOM     67  S   UNL A   1      42.840  27.436  25.441  1.00  0.00     0.127 S 
ATOM     68  O   UNL A   1      42.780  26.162  24.729  1.00  0.00    -0.237 OA
ATOM     69  O   UNL A   1      42.126  28.534  24.787  1.00  0.00    -0.237 OA
ATOM     70  O   UNL A   1      44.146  27.802  25.973  1.00  0.00    -0.744 OA
ENDBRANCH  64  67
ENDBRANCH  46  60
BRANCH  47  71
ATOM     71  C   UNL A   1      39.955  33.781  36.910  1.00  0.00     0.023 A 
ATOM     72  C   UNL A   1      40.443  35.099  36.842  1.00  0.00     0.012 A 
ATOM     73  C   UNL A   1      39.287  33.353  38.074  1.00  0.00     0.148 A 
ATOM     74  C   UNL A   1      40.286  35.972  37.920  1.00  0.00     0.002 A 
ATOM     75  C   UNL A   1      39.088  34.243  39.123  1.00  0.00     0.091 A 
ATOM     76  F   UNL A   1      38.848  32.088  38.127  1.00  0.00    -0.205 F 
ATOM     77  C   UNL A   1      39.598  35.549  39.054  1.00  0.00     0.022 A 
BRANCH  75  78
ATOM     78  S   UNL A   1      38.103  33.825  40.568  1.00  0.00     0.127 S 
ATOM     79  O   UNL A   1      37.945  35.127  41.209  1.00  0.00    -0.237 OA
ATOM     80  O   UNL A   1      36.886  33.285  39.959  1.00  0.00    -0.237 OA
ATOM     81  O   UNL A   1      38.889  32.844  41.305  1.00  0.00    -0.744 OA
ENDBRANCH  75  78
ENDBRANCH  47  71
BRANCH  59  82
ATOM     82  C   UNL A   1      44.327  28.560  35.341  1.00  0.00     0.023 A 
ATOM     83  C   UNL A   1      45.647  28.997  35.117  1.00  0.00     0.012 A 
ATOM     84  C   UNL A   1      44.079  27.580  36.323  1.00  0.00     0.148 A 
ATOM     85  C   UNL A   1      46.706  28.452  35.841  1.00  0.00     0.002 A 
ATOM     86  C   UNL A   1      45.134  27.072  37.070  1.00  0.00     0.091 A 
ATOM     87  F   UNL A   1      42.818  27.162  36.506  1.00  0.00    -0.205 F 
ATOM     88  C   UNL A   1      46.450  27.499  36.825  1.00  0.00     0.022 A 
BRANCH  86  89
ATOM     89  S   UNL A   1      44.880  25.910  38.418  1.00  0.00     0.127 S 
ATOM     90  O   UNL A   1      43.944  26.641  39.270  1.00  0.00    -0.237 OA
ATOM     91  O   UNL A   1      44.303  24.754  37.731  1.00  0.00    -0.237 OA
ATOM     92  O   UNL A   1      46.198  25.671  38.989  1.00  0.00    -0.744 OA
ENDBRANCH  86  89
ENDBRANCH  59  82
ENDBRANCH  33  34
ENDBRANCH  26  28
ENDBRANCH  25  26
ENDBRANCH  24  25
ENDBRANCH   1  24
TORSDOF 18
ENDMDL
MODEL 2
REMARK VINA RESULT:     -11.1      5.505      8.726
REMARK SMILES O=C(NCc1ccsc1)NC[C@H]1CC[C@@H](C(=O)OCCOC(=O)c2ccc(-c3c4nc(c(-c5cccc(S(=O)(=O)[O-])c5F)c5ccc([nH]5)c(-c5cccc(S(=O)(=O)[O-])c5F)c5nc(c(-c6cccc(S(=O)(=O)[O-])c6F)c6ccc3[nH]6)C=C5)C=C4)cc2)CC1
REMARK SMILES IDX 19 1 18 2 16 3 17 4 15 5 12 6 13 7 88 8 14 9 87 10 11 11
REMARK SMILES IDX 10 12 1 13 2 14 3 15 4 18 5 19 6 20 9 21 7 22 8 23 20 24
REMARK SMILES IDX 21 25 22 26 23 27 24 28 25 29 86 30 26 31 85 32 27 33 28 34
REMARK SMILES IDX 29 35 79 36 30 37 84 38 78 39 80 40 31 41 83 42 77 43 76 44
REMARK SMILES IDX 32 46 64 47 44 48 63 49 45 50 48 51 62 52 81 53 46 54 47 55
REMARK SMILES IDX 61 57 82 58 49 59 33 60 34 61 42 62 35 63 37 64 43 65 36 66
REMARK SMILES IDX 38 67 39 68 40 69 41 70 65 71 66 72 74 73 67 74 69 75 75 76
REMARK SMILES IDX 68 77 70 78 71 79 72 80 73 81 50 82 51 83 59 84 52 85 54 86
REMARK SMILES IDX 60 87 53 88 55 89 56 90 57 91 58 92
REMARK H PARENT 3 16 10 17 80 45 48 56
REMARK Flexibility Score: inf
ROOT
ATOM      1  C   UNL A   1      36.309  20.294  25.033  1.00  0.00     0.274 C 
ENDROOT
BRANCH   1   2
ATOM      2  O   UNL A   1      36.097  21.554  25.697  1.00  0.00    -0.462 OA
BRANCH   2   3
ATOM      3  C   UNL A   1      34.844  21.808  26.151  1.00  0.00     0.309 C 
ATOM      4  O   UNL A   1      34.454  21.578  27.289  1.00  0.00    -0.252 OA
BRANCH   3   5
ATOM      5  C   UNL A   1      33.919  22.356  25.069  1.00  0.00     0.099 C 
ATOM      6  C   UNL A   1      33.596  25.321  25.191  1.00  0.00     0.008 C 
ATOM      7  C   UNL A   1      34.913  24.661  24.763  1.00  0.00     0.006 C 
ATOM      8  C   UNL A   1      32.776  24.408  26.114  1.00  0.00     0.006 C 
ATOM      9  C   UNL A   1      34.685  23.291  24.138  1.00  0.00     0.015 C 
ATOM     10  C   UNL A   1      32.615  22.992  25.564  1.00  0.00     0.015 C 
BRANCH   6  11
ATOM     11  C   UNL A   1      33.894  26.670  25.864  1.00  0.00     0.121 C 
BRANCH  11  12
ATOM     12  N   UNL A   1      32.970  27.694  25.426  1.00  0.00    -0.338 N 
ATOM     13  O   UNL A   1      34.185  28.370  23.618  1.00  0.00    -0.249 OA
ATOM     14  C   UNL A   1      33.215  28.497  24.359  1.00  0.00     0.315 C 
ATOM     15  N   UNL A   1      32.331  29.492  24.120  1.00  0.00    -0.334 N 
ATOM     16  H   UNL A   1      32.521  30.023  23.313  1.00  0.00     0.165 HD
ATOM     17  H   UNL A   1      32.128  27.813  25.922  1.00  0.00     0.165 HD
BRANCH  15  18
ATOM     18  C   UNL A   1      31.155  29.907  24.847  1.00  0.00     0.154 C 
BRANCH  18  19
ATOM     19  C   UNL A   1      29.990  29.902  23.911  1.00  0.00    -0.018 A 
ATOM     20  C   UNL A   1      29.529  28.751  23.187  1.00  0.00     0.017 A 
ATOM     21  C   UNL A   1      29.198  31.003  23.630  1.00  0.00     0.070 A 
ATOM     22  C   UNL A   1      28.424  29.020  22.409  1.00  0.00     0.065 A 
ATOM     23  S   UNL A   1      27.934  30.651  22.535  1.00  0.00    -0.152 S 
ENDBRANCH  18  19
ENDBRANCH  15  18
ENDBRANCH  11  12
ENDBRANCH   6  11
ENDBRANCH   3   5
ENDBRANCH   2   3
ENDBRANCH   1   2
BRANCH   1  24
ATOM     24  C   UNL A   1      37.788  19.907  25.052  1.00  0.00     0.275 C 
BRANCH  24  25
ATOM     25  O   UNL A   1      38.614  21.053  25.319  1.00  0.00    -0.458 OA
BRANCH  25  26
ATOM     26  C   UNL A   1      39.535  20.880  26.294  1.00  0.00     0.338 C 
ATOM     27  O   UNL A   1      40.033  19.833  26.669  1.00  0.00    -0.246 OA
BRANCH  26  28
ATOM     28  C   UNL A   1      39.980  22.195  26.774  1.00  0.00     0.060 A 
ATOM     29  C   UNL A   1      39.412  23.332  26.196  1.00  0.00     0.016 A 
ATOM     30  C   UNL A   1      40.997  22.307  27.723  1.00  0.00     0.016 A 
ATOM     31  C   UNL A   1      39.862  24.598  26.557  1.00  0.00     0.010 A 
ATOM     32  C   UNL A   1      41.449  23.578  28.085  1.00  0.00     0.010 A 
ATOM     33  C   UNL A   1      40.895  24.729  27.494  1.00  0.00    -0.014 A 
BRANCH  33  34
ATOM     34  C   UNL A   1      41.442  26.069  27.805  1.00  0.00     0.031 A 
ATOM     35  C   UNL A   1      42.854  26.402  27.420  1.00  0.00     0.074 A 
ATOM     36  C   UNL A   1      40.676  26.974  28.440  1.00  0.00     0.049 A 
ATOM     37  N   UNL A   1      43.546  27.481  27.669  1.00  0.00    -0.248 NA
ATOM     38  C   UNL A   1      43.585  25.379  26.652  1.00  0.00     0.031 C 
ATOM     39  C   UNL A   1      39.287  26.766  28.847  1.00  0.00     0.029 A 
ATOM     40  N   UNL A   1      40.966  28.244  28.871  1.00  0.00    -0.354 N 
ATOM     41  C   UNL A   1      44.807  27.254  27.132  1.00  0.00     0.074 A 
ATOM     42  C   UNL A   1      44.784  25.933  26.541  1.00  0.00     0.031 C 
ATOM     43  C   UNL A   1      38.850  27.863  29.487  1.00  0.00     0.029 A 
ATOM     44  C   UNL A   1      39.937  28.835  29.565  1.00  0.00     0.049 A 
ATOM     45  H   UNL A   1      41.828  28.689  28.700  1.00  0.00     0.167 HD
ATOM     46  C   UNL A   1      45.881  28.078  27.122  1.00  0.00     0.034 A 
ATOM     47  C   UNL A   1      39.888  30.016  30.211  1.00  0.00     0.034 A 
ATOM     48  C   UNL A   1      45.884  29.404  27.679  1.00  0.00     0.049 A 
ATOM     49  C   UNL A   1      41.099  30.909  30.193  1.00  0.00     0.074 A 
ATOM     50  C   UNL A   1      46.907  30.335  27.682  1.00  0.00     0.029 A 
ATOM     51  N   UNL A   1      44.810  29.987  28.337  1.00  0.00    -0.354 N 
ATOM     52  N   UNL A   1      42.254  30.721  29.601  1.00  0.00    -0.248 NA
ATOM     53  C   UNL A   1      40.994  32.186  30.914  1.00  0.00     0.031 C 
ATOM     54  C   UNL A   1      46.456  31.477  28.353  1.00  0.00     0.029 A 
ATOM     55  C   UNL A   1      45.147  31.263  28.755  1.00  0.00     0.049 A 
ATOM     56  H   UNL A   1      43.937  29.557  28.482  1.00  0.00     0.167 HD
ATOM     57  C   UNL A   1      43.004  31.865  29.853  1.00  0.00     0.074 A 
ATOM     58  C   UNL A   1      42.162  32.750  30.634  1.00  0.00     0.031 C 
ATOM     59  C   UNL A   1      44.277  32.151  29.486  1.00  0.00     0.034 A 
BRANCH  46  60
ATOM     60  C   UNL A   1      47.136  27.573  26.462  1.00  0.00     0.023 A 
ATOM     61  C   UNL A   1      47.381  27.880  25.108  1.00  0.00     0.012 A 
ATOM     62  C   UNL A   1      48.085  26.825  27.185  1.00  0.00     0.148 A 
ATOM     63  C   UNL A   1      48.537  27.424  24.476  1.00  0.00     0.002 A 
ATOM     64  C   UNL A   1      49.252  26.405  26.558  1.00  0.00     0.091 A 
ATOM     65  F   UNL A   1      47.821  26.518  28.462  1.00  0.00    -0.205 F 
ATOM     66  C   UNL A   1      49.476  26.695  25.202  1.00  0.00     0.022 A 
BRANCH  64  67
ATOM     67  S   UNL A   1      50.547  25.520  27.434  1.00  0.00     0.127 S 
ATOM     68  O   UNL A   1      49.879  24.262  27.758  1.00  0.00    -0.237 OA
ATOM     69  O   UNL A   1      51.595  25.410  26.418  1.00  0.00    -0.237 OA
ATOM     70  O   UNL A   1      50.899  26.360  28.570  1.00  0.00    -0.744 OA
ENDBRANCH  64  67
ENDBRANCH  46  60
BRANCH  47  71
ATOM     71  C   UNL A   1      38.629  30.436  30.889  1.00  0.00     0.023 A 
ATOM     72  C   UNL A   1      38.476  30.195  32.267  1.00  0.00     0.012 A 
ATOM     73  C   UNL A   1      37.609  31.111  30.190  1.00  0.00     0.148 A 
ATOM     74  C   UNL A   1      37.321  30.604  32.936  1.00  0.00     0.002 A 
ATOM     75  C   UNL A   1      36.485  31.561  30.873  1.00  0.00     0.091 A 
ATOM     76  F   UNL A   1      37.765  31.311  28.874  1.00  0.00    -0.205 F 
ATOM     77  C   UNL A   1      36.333  31.297  32.243  1.00  0.00     0.022 A 
BRANCH  75  78
ATOM     78  S   UNL A   1      35.223  32.571  30.088  1.00  0.00     0.127 S 
ATOM     79  O   UNL A   1      34.292  32.796  31.191  1.00  0.00    -0.237 OA
ATOM     80  O   UNL A   1      35.989  33.750  29.679  1.00  0.00    -0.237 OA
ATOM     81  O   UNL A   1      34.715  31.773  28.980  1.00  0.00    -0.744 OA
ENDBRANCH  75  78
ENDBRANCH  47  71
BRANCH  59  82
ATOM     82  C   UNL A   1      44.840  33.484  29.903  1.00  0.00     0.023 A 
ATOM     83  C   UNL A   1      45.589  33.580  31.092  1.00  0.00     0.012 A 
ATOM     84  C   UNL A   1      44.694  34.619  29.082  1.00  0.00     0.148 A 
ATOM     85  C   UNL A   1      46.164  34.792  31.470  1.00  0.00     0.002 A 
ATOM     86  C   UNL A   1      45.306  35.813  29.443  1.00  0.00     0.091 A 
ATOM     87  F   UNL A   1      43.959  34.512  27.965  1.00  0.00    -0.205 F 
ATOM     88  C   UNL A   1      46.034  35.905  30.641  1.00  0.00     0.022 A 
BRANCH  86  89
ATOM     89  S   UNL A   1      45.264  37.267  28.388  1.00  0.00     0.127 S 
ATOM     90  O   UNL A   1      43.878  37.705  28.539  1.00  0.00    -0.237 OA
ATOM     91  O   UNL A   1      46.253  38.142  29.020  1.00  0.00    -0.237 OA
ATOM     92  O   UNL A   1      45.638  36.804  27.059  1.00  0.00    -0.744 OA
ENDBRANCH  86  89
ENDBRANCH  59  82
ENDBRANCH  33  34
ENDBRANCH  26  28
ENDBRANCH  25  26
ENDBRANCH  24  25
ENDBRANCH   1  24
TORSDOF 18
ENDMDL
MODEL 3
REMARK VINA RESULT:     -11.0      2.745      8.571
REMARK SMILES O=C(NCc1ccsc1)NC[C@H]1CC[C@@H](C(=O)OCCOC(=O)c2ccc(-c3c4nc(c(-c5cccc(S(=O)(=O)[O-])c5F)c5ccc([nH]5)c(-c5cccc(S(=O)(=O)[O-])c5F)c5nc(c(-c6cccc(S(=O)(=O)[O-])c6F)c6ccc3[nH]6)C=C5)C=C4)cc2)CC1
REMARK SMILES IDX 19 1 18 2 16 3 17 4 15 5 12 6 13 7 88 8 14 9 87 10 11 11
REMARK SMILES IDX 10 12 1 13 2 14 3 15 4 18 5 19 6 20 9 21 7 22 8 23 20 24
REMARK SMILES IDX 21 25 22 26 23 27 24 28 25 29 86 30 26 31 85 32 27 33 28 34
REMARK SMILES IDX 29 35 79 36 30 37 84 38 78 39 80 40 31 41 83 42 77 43 76 44
REMARK SMILES IDX 32 46 64 47 44 48 63 49 45 50 48 51 62 52 81 53 46 54 47 55
REMARK SMILES IDX 61 57 82 58 49 59 33 60 34 61 42 62 35 63 37 64 43 65 36 66
REMARK SMILES IDX 38 67 39 68 40 69 41 70 65 71 66 72 74 73 67 74 69 75 75 76
REMARK SMILES IDX 68 77 70 78 71 79 72 80 73 81 50 82 51 83 59 84 52 85 54 86
REMARK SMILES IDX 60 87 53 88 55 89 56 90 57 91 58 92
REMARK H PARENT 3 16 10 17 80 45 48 56
REMARK Flexibility Score: inf
ROOT
ATOM      1  C   UNL A   1      31.051  32.150  26.351  1.00  0.00     0.274 C 
ENDROOT
BRANCH   1   2
ATOM      2  O   UNL A   1      31.668  30.870  26.590  1.00  0.00    -0.462 OA
BRANCH   2   3
ATOM      3  C   UNL A   1      31.627  29.968  25.578  1.00  0.00     0.309 C 
ATOM      4  O   UNL A   1      30.824  29.993  24.654  1.00  0.00    -0.252 OA
BRANCH   3   5
ATOM      5  C   UNL A   1      32.653  28.850  25.735  1.00  0.00     0.099 C 
ATOM      6  C   UNL A   1      32.144  26.527  23.931  1.00  0.00     0.008 C 
ATOM      7  C   UNL A   1      32.617  27.886  23.397  1.00  0.00     0.006 C 
ATOM      8  C   UNL A   1      31.377  26.671  25.253  1.00  0.00     0.006 C 
ATOM      9  C   UNL A   1      33.427  28.653  24.435  1.00  0.00     0.015 C 
ATOM     10  C   UNL A   1      32.117  27.524  26.283  1.00  0.00     0.015 C 
BRANCH   6  11
ATOM     11  C   UNL A   1      31.287  25.829  22.863  1.00  0.00     0.121 C 
BRANCH  11  12
ATOM     12  N   UNL A   1      31.620  24.424  22.756  1.00  0.00    -0.338 N 
ATOM     13  O   UNL A   1      33.553  24.716  21.580  1.00  0.00    -0.249 OA
ATOM     14  C   UNL A   1      32.709  23.977  22.078  1.00  0.00     0.315 C 
ATOM     15  N   UNL A   1      32.849  22.639  21.951  1.00  0.00    -0.334 N 
ATOM     16  H   UNL A   1      33.672  22.356  21.491  1.00  0.00     0.165 HD
ATOM     17  H   UNL A   1      31.034  23.766  23.192  1.00  0.00     0.165 HD
BRANCH  15  18
ATOM     18  C   UNL A   1      31.996  21.554  22.374  1.00  0.00     0.154 C 
BRANCH  18  19
ATOM     19  C   UNL A   1      32.538  20.992  23.648  1.00  0.00    -0.018 A 
ATOM     20  C   UNL A   1      32.474  19.607  24.022  1.00  0.00     0.017 A 
ATOM     21  C   UNL A   1      33.181  21.730  24.627  1.00  0.00     0.070 A 
ATOM     22  C   UNL A   1      33.066  19.357  25.239  1.00  0.00     0.065 A 
ATOM     23  S   UNL A   1      33.698  20.777  25.947  1.00  0.00    -0.152 S 
ENDBRANCH  18  19
ENDBRANCH  15  18
ENDBRANCH  11  12
ENDBRANCH   6  11
ENDBRANCH   3   5
ENDBRANCH   2   3
ENDBRANCH   1   2
BRANCH   1  24
ATOM     24  C   UNL A   1      31.952  33.289  26.828  1.00  0.00     0.275 C 
BRANCH  24  25
ATOM     25  O   UNL A   1      33.034  32.786  27.629  1.00  0.00    -0.458 OA
BRANCH  25  26
ATOM     26  C   UNL A   1      34.098  33.614  27.741  1.00  0.00     0.338 C 
ATOM     27  O   UNL A   1      34.120  34.821  27.577  1.00  0.00    -0.246 OA
BRANCH  26  28
ATOM     28  C   UNL A   1      35.250  32.853  28.241  1.00  0.00     0.060 A 
ATOM     29  C   UNL A   1      35.030  31.551  28.696  1.00  0.00     0.016 A 
ATOM     30  C   UNL A   1      36.513  33.439  28.334  1.00  0.00     0.016 A 
ATOM     31  C   UNL A   1      36.074  30.822  29.257  1.00  0.00     0.010 A 
ATOM     32  C   UNL A   1      37.560  32.707  28.898  1.00  0.00     0.010 A 
ATOM     33  C   UNL A   1      37.343  31.402  29.375  1.00  0.00    -0.014 A 
BRANCH  33  34
ATOM     34  C   UNL A   1      38.428  30.664  30.061  1.00  0.00     0.031 A 
ATOM     35  C   UNL A   1      38.753  30.984  31.492  1.00  0.00     0.074 A 
ATOM     36  C   UNL A   1      39.122  29.722  29.398  1.00  0.00     0.049 A 
ATOM     37  N   UNL A   1      39.711  30.515  32.246  1.00  0.00    -0.248 NA
ATOM     38  C   UNL A   1      37.884  31.967  32.160  1.00  0.00     0.031 C 
ATOM     39  C   UNL A   1      38.882  29.318  28.013  1.00  0.00     0.029 A 
ATOM     40  N   UNL A   1      40.183  28.949  29.796  1.00  0.00    -0.354 N 
ATOM     41  C   UNL A   1      39.592  31.175  33.463  1.00  0.00     0.074 A 
ATOM     42  C   UNL A   1      38.467  32.078  33.346  1.00  0.00     0.031 C 
ATOM     43  C   UNL A   1      39.784  28.384  27.669  1.00  0.00     0.029 A 
ATOM     44  C   UNL A   1      40.684  28.150  28.794  1.00  0.00     0.049 A 
ATOM     45  H   UNL A   1      40.550  28.964  30.709  1.00  0.00     0.167 HD
ATOM     46  C   UNL A   1      40.345  31.031  34.578  1.00  0.00     0.034 A 
ATOM     47  C   UNL A   1      41.762  27.342  28.782  1.00  0.00     0.034 A 
ATOM     48  C   UNL A   1      41.438  30.106  34.698  1.00  0.00     0.049 A 
ATOM     49  C   UNL A   1      42.588  27.208  30.033  1.00  0.00     0.074 A 
ATOM     50  C   UNL A   1      42.236  29.852  35.799  1.00  0.00     0.029 A 
ATOM     51  N   UNL A   1      41.891  29.280  33.678  1.00  0.00    -0.354 N 
ATOM     52  N   UNL A   1      42.407  27.768  31.205  1.00  0.00    -0.248 NA
ATOM     53  C   UNL A   1      43.753  26.314  29.967  1.00  0.00     0.031 C 
ATOM     54  C   UNL A   1      43.180  28.883  35.441  1.00  0.00     0.029 A 
ATOM     55  C   UNL A   1      42.960  28.522  34.122  1.00  0.00     0.049 A 
ATOM     56  H   UNL A   1      41.505  29.240  32.773  1.00  0.00     0.167 HD
ATOM     57  C   UNL A   1      43.417  27.275  32.024  1.00  0.00     0.074 A 
ATOM     58  C   UNL A   1      44.193  26.354  31.218  1.00  0.00     0.031 C 
ATOM     59  C   UNL A   1      43.688  27.570  33.319  1.00  0.00     0.034 A 
BRANCH  46  60
ATOM     60  C   UNL A   1      39.989  31.881  35.769  1.00  0.00     0.023 A 
ATOM     61  C   UNL A   1      40.722  33.058  36.025  1.00  0.00     0.012 A 
ATOM     62  C   UNL A   1      38.916  31.536  36.613  1.00  0.00     0.148 A 
ATOM     63  C   UNL A   1      40.411  33.862  37.121  1.00  0.00     0.002 A 
ATOM     64  C   UNL A   1      38.589  32.362  37.682  1.00  0.00     0.091 A 
ATOM     65  F   UNL A   1      38.251  30.399  36.370  1.00  0.00    -0.205 F 
ATOM     66  C   UNL A   1      39.340  33.520  37.944  1.00  0.00     0.022 A 
BRANCH  64  67
ATOM     67  S   UNL A   1      37.184  32.034  38.752  1.00  0.00     0.127 S 
ATOM     68  O   UNL A   1      36.997  30.598  38.565  1.00  0.00    -0.237 OA
ATOM     69  O   UNL A   1      37.696  32.416  40.069  1.00  0.00    -0.237 OA
ATOM     70  O   UNL A   1      36.106  32.882  38.259  1.00  0.00    -0.744 OA
ENDBRANCH  64  67
ENDBRANCH  46  60
BRANCH  47  71
ATOM     71  C   UNL A   1      42.088  26.565  27.553  1.00  0.00     0.023 A 
ATOM     72  C   UNL A   1      42.737  27.209  26.484  1.00  0.00     0.012 A 
ATOM     73  C   UNL A   1      41.806  25.188  27.458  1.00  0.00     0.148 A 
ATOM     74  C   UNL A   1      43.084  26.501  25.332  1.00  0.00     0.002 A 
ATOM     75  C   UNL A   1      42.200  24.478  26.331  1.00  0.00     0.091 A 
ATOM     76  F   UNL A   1      41.168  24.598  28.479  1.00  0.00    -0.205 F 
ATOM     77  C   UNL A   1      42.828  25.135  25.261  1.00  0.00     0.022 A 
BRANCH  75  78
ATOM     78  S   UNL A   1      42.025  22.693  26.207  1.00  0.00     0.127 S 
ATOM     79  O   UNL A   1      42.706  22.413  24.946  1.00  0.00    -0.237 OA
ATOM     80  O   UNL A   1      42.733  22.236  27.405  1.00  0.00    -0.237 OA
ATOM     81  O   UNL A   1      40.591  22.439  26.225  1.00  0.00    -0.744 OA
ENDBRANCH  75  78
ENDBRANCH  47  71
BRANCH  59  82
ATOM     82  C   UNL A   1      44.861  26.876  33.961  1.00  0.00     0.023 A 
ATOM     83  C   UNL A   1      46.160  27.382  33.763  1.00  0.00     0.012 A 
ATOM     84  C   UNL A   1      44.668  25.776  34.819  1.00  0.00     0.148 A 
ATOM     85  C   UNL A   1      47.254  26.788  34.390  1.00  0.00     0.002 A 
ATOM     86  C   UNL A   1      45.758  25.216  35.475  1.00  0.00     0.091 A 
ATOM     87  F   UNL A   1      43.426  25.296  34.978  1.00  0.00    -0.205 F 
ATOM     88  C   UNL A   1      47.053  25.714  35.255  1.00  0.00     0.022 A 
BRANCH  86  89
ATOM     89  S   UNL A   1      45.575  23.890  36.675  1.00  0.00     0.127 S 
ATOM     90  O   UNL A   1      44.526  24.419  37.546  1.00  0.00    -0.237 OA
ATOM     91  O   UNL A   1      45.161  22.764  35.837  1.00  0.00    -0.237 OA
ATOM     92  O   UNL A   1      46.884  23.730  37.291  1.00  0.00    -0.744 OA
ENDBRANCH  86  89
ENDBRANCH  59  82
ENDBRANCH  33  34
ENDBRANCH  26  28
ENDBRANCH  25  26
ENDBRANCH  24  25
ENDBRANCH   1  24
TORSDOF 18
ENDMDL
