MODEL 1
REMARK VINA RESULT:     -12.0      0.000      0.000
REMARK SMILES O=C(C[C@H]1CC[C@@H](C(=O)OCCOC(=O)c2ccc(-c3c4nc(c(-c5cccc(S(=O)(=O)[O-])c5F)c5ccc([nH]5)c(-c5cccc(S(=O)(=O)[O-])c5F)c5nc(c(-c6cccc(S(=O)(=O)[O-])c6F)c6ccc3[nH]6)C=C5)C=C4)cc2)C1)c1ccc(Cl)cc1
REMARK SMILES IDX 11 1 10 2 8 3 9 4 7 5 4 6 5 7 79 8 6 9 3 10 2 11 1 12 80 13
REMARK SMILES IDX 81 14 86 15 82 16 85 17 83 18 84 19 12 20 13 21 14 22 15 23
REMARK SMILES IDX 16 24 17 25 78 26 18 27 77 28 19 29 20 30 21 31 71 32 22 33
REMARK SMILES IDX 76 34 70 35 72 36 23 37 75 38 69 39 68 40 24 42 56 43 36 44
REMARK SMILES IDX 55 45 37 46 40 47 54 48 73 49 38 50 39 51 53 53 74 54 41 55
REMARK SMILES IDX 25 56 26 57 34 58 27 59 29 60 35 61 28 62 30 63 31 64 32 65
REMARK SMILES IDX 33 66 57 67 58 68 66 69 59 70 61 71 67 72 60 73 62 74 63 75
REMARK SMILES IDX 64 76 65 77 42 78 43 79 51 80 44 81 46 82 52 83 45 84 47 85
REMARK SMILES IDX 48 86 49 87 50 88
REMARK H PARENT 72 41 40 52
REMARK Flexibility Score: inf
ROOT
ATOM      1  C   UNL A   1      35.405  21.461  26.280  1.00  0.00     0.274 C 
ENDROOT
BRANCH   1   2
ATOM      2  O   UNL A   1      34.025  21.037  26.352  1.00  0.00    -0.462 OA
BRANCH   2   3
ATOM      3  C   UNL A   1      33.090  21.989  26.095  1.00  0.00     0.309 C 
ATOM      4  O   UNL A   1      32.944  23.012  26.755  1.00  0.00    -0.252 OA
BRANCH   3   5
ATOM      5  C   UNL A   1      32.189  21.656  24.914  1.00  0.00     0.099 C 
ATOM      6  C   UNL A   1      32.114  22.983  22.834  1.00  0.00    -0.003 C 
ATOM      7  C   UNL A   1      32.169  21.491  22.511  1.00  0.00     0.005 C 
ATOM      8  C   UNL A   1      31.583  22.927  24.277  1.00  0.00     0.019 C 
ATOM      9  C   UNL A   1      32.815  20.881  23.748  1.00  0.00     0.015 C 
BRANCH   6  10
ATOM     10  C   UNL A   1      33.465  23.721  22.749  1.00  0.00     0.084 C 
BRANCH  10  11
ATOM     11  C   UNL A   1      33.348  25.170  22.315  1.00  0.00     0.163 C 
ATOM     12  O   UNL A   1      33.310  25.527  21.144  1.00  0.00    -0.294 OA
BRANCH  11  13
ATOM     13  C   UNL A   1      33.409  26.185  23.389  1.00  0.00     0.018 A 
ATOM     14  C   UNL A   1      33.668  27.510  23.022  1.00  0.00     0.013 A 
ATOM     15  C   UNL A   1      33.337  25.818  24.734  1.00  0.00     0.013 A 
ATOM     16  C   UNL A   1      33.950  28.456  24.005  1.00  0.00     0.021 A 
ATOM     17  C   UNL A   1      33.585  26.779  25.718  1.00  0.00     0.021 A 
ATOM     18  C   UNL A   1      33.917  28.084  25.348  1.00  0.00     0.041 A 
ATOM     19  Cl  UNL A   1      34.309  29.244  26.558  1.00  0.00    -0.084 Cl
ENDBRANCH  11  13
ENDBRANCH  10  11
ENDBRANCH   6  10
ENDBRANCH   3   5
ENDBRANCH   2   3
ENDBRANCH   1   2
BRANCH   1  20
ATOM     20  C   UNL A   1      36.096  20.865  25.052  1.00  0.00     0.275 C 
BRANCH  20  21
ATOM     21  O   UNL A   1      37.324  21.569  24.828  1.00  0.00    -0.458 OA
BRANCH  21  22
ATOM     22  C   UNL A   1      38.393  21.159  25.553  1.00  0.00     0.338 C 
ATOM     23  O   UNL A   1      38.835  20.023  25.594  1.00  0.00    -0.246 OA
BRANCH  22  24
ATOM     24  C   UNL A   1      39.049  22.334  26.190  1.00  0.00     0.060 A 
ATOM     25  C   UNL A   1      38.539  23.621  26.015  1.00  0.00     0.016 A 
ATOM     26  C   UNL A   1      40.256  22.173  26.874  1.00  0.00     0.016 A 
ATOM     27  C   UNL A   1      39.281  24.736  26.409  1.00  0.00     0.010 A 
ATOM     28  C   UNL A   1      40.943  23.293  27.369  1.00  0.00     0.010 A 
ATOM     29  C   UNL A   1      40.483  24.597  27.118  1.00  0.00    -0.014 A 
BRANCH  29  30
ATOM     30  C   UNL A   1      41.234  25.800  27.597  1.00  0.00     0.031 A 
ATOM     31  C   UNL A   1      40.571  26.834  28.477  1.00  0.00     0.074 A 
ATOM     32  C   UNL A   1      42.518  25.997  27.228  1.00  0.00     0.049 A 
ATOM     33  N   UNL A   1      40.976  28.043  28.777  1.00  0.00    -0.248 NA
ATOM     34  C   UNL A   1      39.279  26.474  29.083  1.00  0.00     0.031 C 
ATOM     35  C   UNL A   1      43.309  25.092  26.392  1.00  0.00     0.029 A 
ATOM     36  N   UNL A   1      43.386  27.029  27.500  1.00  0.00    -0.354 N 
ATOM     37  C   UNL A   1      39.951  28.621  29.519  1.00  0.00     0.074 A 
ATOM     38  C   UNL A   1      38.916  27.617  29.651  1.00  0.00     0.031 C 
ATOM     39  C   UNL A   1      44.548  25.580  26.256  1.00  0.00     0.029 A 
ATOM     40  C   UNL A   1      44.614  26.889  26.893  1.00  0.00     0.049 A 
ATOM     41  H   UNL A   1      43.152  27.794  28.074  1.00  0.00     0.167 HD
ATOM     42  C   UNL A   1      39.882  29.867  30.048  1.00  0.00     0.034 A 
ATOM     43  C   UNL A   1      45.663  27.731  26.796  1.00  0.00     0.034 A 
ATOM     44  C   UNL A   1      40.958  30.826  30.020  1.00  0.00     0.049 A 
ATOM     45  C   UNL A   1      45.577  29.091  27.421  1.00  0.00     0.074 A 
ATOM     46  C   UNL A   1      40.992  32.094  30.578  1.00  0.00     0.029 A 
ATOM     47  N   UNL A   1      42.194  30.618  29.433  1.00  0.00    -0.354 N 
ATOM     48  N   UNL A   1      44.598  29.615  28.117  1.00  0.00    -0.248 NA
ATOM     49  C   UNL A   1      46.736  29.976  27.247  1.00  0.00     0.031 C 
ATOM     50  C   UNL A   1      42.251  32.651  30.329  1.00  0.00     0.029 A 
ATOM     51  C   UNL A   1      43.002  31.729  29.621  1.00  0.00     0.049 A 
ATOM     52  H   UNL A   1      42.461  29.801  28.952  1.00  0.00     0.167 HD
ATOM     53  C   UNL A   1      45.023  30.891  28.464  1.00  0.00     0.074 A 
ATOM     54  C   UNL A   1      46.364  31.045  27.937  1.00  0.00     0.031 C 
ATOM     55  C   UNL A   1      44.350  31.859  29.132  1.00  0.00     0.034 A 
BRANCH  42  56
ATOM     56  C   UNL A   1      38.609  30.277  30.745  1.00  0.00     0.023 A 
ATOM     57  C   UNL A   1      38.440  29.999  32.114  1.00  0.00     0.012 A 
ATOM     58  C   UNL A   1      37.630  31.031  30.066  1.00  0.00     0.148 A 
ATOM     59  C   UNL A   1      37.308  30.451  32.795  1.00  0.00     0.002 A 
ATOM     60  C   UNL A   1      36.526  31.512  30.760  1.00  0.00     0.091 A 
ATOM     61  F   UNL A   1      37.797  31.266  28.756  1.00  0.00    -0.205 F 
ATOM     62  C   UNL A   1      36.360  31.218  32.123  1.00  0.00     0.022 A 
BRANCH  60  63
ATOM     63  S   UNL A   1      35.300  32.581  29.992  1.00  0.00     0.127 S 
ATOM     64  O   UNL A   1      36.122  33.705  29.548  1.00  0.00    -0.237 OA
ATOM     65  O   UNL A   1      34.785  31.740  28.909  1.00  0.00    -0.237 OA
ATOM     66  O   UNL A   1      34.327  32.881  31.034  1.00  0.00    -0.744 OA
ENDBRANCH  60  63
ENDBRANCH  42  56
BRANCH  43  67
ATOM     67  C   UNL A   1      46.885  27.291  26.063  1.00  0.00     0.023 A 
ATOM     68  C   UNL A   1      47.748  26.353  26.658  1.00  0.00     0.012 A 
ATOM     69  C   UNL A   1      47.144  27.726  24.749  1.00  0.00     0.148 A 
ATOM     70  C   UNL A   1      48.848  25.858  25.957  1.00  0.00     0.002 A 
ATOM     71  C   UNL A   1      48.196  27.172  24.030  1.00  0.00     0.091 A 
ATOM     72  F   UNL A   1      46.335  28.649  24.208  1.00  0.00    -0.205 F 
ATOM     73  C   UNL A   1      49.059  26.249  24.637  1.00  0.00     0.022 A 
BRANCH  71  74
ATOM     74  S   UNL A   1      48.395  27.488  22.273  1.00  0.00     0.127 S 
ATOM     75  O   UNL A   1      47.115  28.097  21.927  1.00  0.00    -0.237 OA
ATOM     76  O   UNL A   1      49.539  28.400  22.245  1.00  0.00    -0.237 OA
ATOM     77  O   UNL A   1      48.669  26.181  21.685  1.00  0.00    -0.744 OA
ENDBRANCH  71  74
ENDBRANCH  43  67
BRANCH  55  78
ATOM     78  C   UNL A   1      45.054  33.173  29.335  1.00  0.00     0.023 A 
ATOM     79  C   UNL A   1      45.823  33.369  30.499  1.00  0.00     0.012 A 
ATOM     80  C   UNL A   1      44.989  34.192  28.368  1.00  0.00     0.148 A 
ATOM     81  C   UNL A   1      46.494  34.572  30.712  1.00  0.00     0.002 A 
ATOM     82  C   UNL A   1      45.689  35.377  28.570  1.00  0.00     0.091 A 
ATOM     83  F   UNL A   1      44.231  33.998  27.279  1.00  0.00    -0.205 F 
ATOM     84  C   UNL A   1      46.435  35.572  29.743  1.00  0.00     0.022 A 
BRANCH  82  85
ATOM     85  S   UNL A   1      45.718  36.687  27.339  1.00  0.00     0.127 S 
ATOM     86  O   UNL A   1      44.311  37.076  27.283  1.00  0.00    -0.237 OA
ATOM     87  O   UNL A   1      46.601  37.680  27.953  1.00  0.00    -0.237 OA
ATOM     88  O   UNL A   1      46.255  36.076  26.130  1.00  0.00    -0.744 OA
ENDBRANCH  82  85
ENDBRANCH  55  78
ENDBRANCH  29  30
ENDBRANCH  22  24
ENDBRANCH  21  22
ENDBRANCH  20  21
ENDBRANCH   1  20
TORSDOF 17
ENDMDL
MODEL 2
REMARK VINA RESULT:     -11.8      5.940     11.437
REMARK SMILES O=C(C[C@H]1CC[C@@H](C(=O)OCCOC(=O)c2ccc(-c3c4nc(c(-c5cccc(S(=O)(=O)[O-])c5F)c5ccc([nH]5)c(-c5cccc(S(=O)(=O)[O-])c5F)c5nc(c(-c6cccc(S(=O)(=O)[O-])c6F)c6ccc3[nH]6)C=C5)C=C4)cc2)C1)c1ccc(Cl)cc1
REMARK SMILES IDX 11 1 10 2 8 3 9 4 7 5 4 6 5 7 79 8 6 9 3 10 2 11 1 12 80 13
REMARK SMILES IDX 81 14 86 15 82 16 85 17 83 18 84 19 12 20 13 21 14 22 15 23
REMARK SMILES IDX 16 24 17 25 78 26 18 27 77 28 19 29 20 30 21 31 71 32 22 33
REMARK SMILES IDX 76 34 70 35 72 36 23 37 75 38 69 39 68 40 24 42 56 43 36 44
REMARK SMILES IDX 55 45 37 46 40 47 54 48 73 49 38 50 39 51 53 53 74 54 41 55
REMARK SMILES IDX 25 56 26 57 34 58 27 59 29 60 35 61 28 62 30 63 31 64 32 65
REMARK SMILES IDX 33 66 57 67 58 68 66 69 59 70 61 71 67 72 60 73 62 74 63 75
REMARK SMILES IDX 64 76 65 77 42 78 43 79 51 80 44 81 46 82 52 83 45 84 47 85
REMARK SMILES IDX 48 86 49 87 50 88
REMARK H PARENT 72 41 40 52
REMARK Flexibility Score: inf
ROOT
ATOM      1  C   UNL A   1      33.496  34.907  28.376  1.00  0.00     0.274 C 
ENDROOT
BRANCH   1   2
ATOM      2  O   UNL A   1      32.745  35.284  29.553  1.00  0.00    -0.462 OA
BRANCH   2   3
ATOM      3  C   UNL A   1      32.953  36.543  30.021  1.00  0.00     0.309 C 
ATOM      4  O   UNL A   1      33.281  37.496  29.323  1.00  0.00    -0.252 OA
BRANCH   3   5
ATOM      5  C   UNL A   1      32.777  36.669  31.528  1.00  0.00     0.099 C 
ATOM      6  C   UNL A   1      34.077  35.364  33.171  1.00  0.00    -0.003 C 
ATOM      7  C   UNL A   1      34.010  36.831  33.590  1.00  0.00     0.005 C 
ATOM      8  C   UNL A   1      32.859  35.296  32.234  1.00  0.00     0.019 C 
ATOM      9  C   UNL A   1      33.767  37.567  32.280  1.00  0.00     0.015 C 
BRANCH   6  10
ATOM     10  C   UNL A   1      35.377  34.947  32.453  1.00  0.00     0.084 C 
BRANCH  10  11
ATOM     11  C   UNL A   1      36.396  34.285  33.361  1.00  0.00     0.163 C 
ATOM     12  O   UNL A   1      37.138  34.905  34.114  1.00  0.00    -0.294 OA
BRANCH  11  13
ATOM     13  C   UNL A   1      36.558  32.823  33.213  1.00  0.00     0.018 A 
ATOM     14  C   UNL A   1      37.424  32.168  34.094  1.00  0.00     0.013 A 
ATOM     15  C   UNL A   1      35.967  32.136  32.151  1.00  0.00     0.013 A 
ATOM     16  C   UNL A   1      37.775  30.841  33.858  1.00  0.00     0.021 A 
ATOM     17  C   UNL A   1      36.294  30.794  31.939  1.00  0.00     0.021 A 
ATOM     18  C   UNL A   1      37.217  30.162  32.776  1.00  0.00     0.041 A 
ATOM     19  Cl  UNL A   1      37.687  28.537  32.461  1.00  0.00    -0.084 Cl
ENDBRANCH  11  13
ENDBRANCH  10  11
ENDBRANCH   6  10
ENDBRANCH   3   5
ENDBRANCH   2   3
ENDBRANCH   1   2
BRANCH   1  20
ATOM     20  C   UNL A   1      33.230  33.448  28.004  1.00  0.00     0.275 C 
BRANCH  20  21
ATOM     21  O   UNL A   1      34.476  32.824  27.670  1.00  0.00    -0.458 OA
BRANCH  21  22
ATOM     22  C   UNL A   1      34.518  31.473  27.775  1.00  0.00     0.338 C 
ATOM     23  O   UNL A   1      33.592  30.710  27.559  1.00  0.00    -0.246 OA
BRANCH  22  24
ATOM     24  C   UNL A   1      35.914  31.035  28.055  1.00  0.00     0.060 A 
ATOM     25  C   UNL A   1      36.241  29.679  28.112  1.00  0.00     0.016 A 
ATOM     26  C   UNL A   1      36.889  31.979  28.383  1.00  0.00     0.016 A 
ATOM     27  C   UNL A   1      37.481  29.271  28.605  1.00  0.00     0.010 A 
ATOM     28  C   UNL A   1      38.173  31.564  28.770  1.00  0.00     0.010 A 
ATOM     29  C   UNL A   1      38.483  30.202  28.918  1.00  0.00    -0.014 A 
BRANCH  29  30
ATOM     30  C   UNL A   1      39.833  29.749  29.378  1.00  0.00     0.031 A 
ATOM     31  C   UNL A   1      40.538  28.590  28.711  1.00  0.00     0.074 A 
ATOM     32  C   UNL A   1      40.440  30.356  30.421  1.00  0.00     0.049 A 
ATOM     33  N   UNL A   1      41.576  27.908  29.125  1.00  0.00    -0.248 NA
ATOM     34  C   UNL A   1      39.995  28.124  27.425  1.00  0.00     0.031 C 
ATOM     35  C   UNL A   1      39.904  31.494  31.169  1.00  0.00     0.029 A 
ATOM     36  N   UNL A   1      41.639  30.095  31.044  1.00  0.00    -0.354 N 
ATOM     37  C   UNL A   1      41.751  26.878  28.208  1.00  0.00     0.074 A 
ATOM     38  C   UNL A   1      40.728  27.041  27.196  1.00  0.00     0.031 C 
ATOM     39  C   UNL A   1      40.780  31.861  32.112  1.00  0.00     0.029 A 
ATOM     40  C   UNL A   1      41.889  30.916  32.120  1.00  0.00     0.049 A 
ATOM     41  H   UNL A   1      42.259  29.390  30.747  1.00  0.00     0.167 HD
ATOM     42  C   UNL A   1      42.682  25.891  28.204  1.00  0.00     0.034 A 
ATOM     43  C   UNL A   1      42.861  30.890  33.055  1.00  0.00     0.034 A 
ATOM     44  C   UNL A   1      43.772  25.795  29.141  1.00  0.00     0.049 A 
ATOM     45  C   UNL A   1      43.900  29.811  33.008  1.00  0.00     0.074 A 
ATOM     46  C   UNL A   1      44.791  24.857  29.178  1.00  0.00     0.029 A 
ATOM     47  N   UNL A   1      44.006  26.675  30.184  1.00  0.00    -0.354 N 
ATOM     48  N   UNL A   1      44.045  28.847  32.133  1.00  0.00    -0.248 NA
ATOM     49  C   UNL A   1      44.908  29.813  34.078  1.00  0.00     0.031 C 
ATOM     50  C   UNL A   1      45.643  25.173  30.243  1.00  0.00     0.029 A 
ATOM     51  C   UNL A   1      45.156  26.309  30.865  1.00  0.00     0.049 A 
ATOM     52  H   UNL A   1      43.439  27.448  30.408  1.00  0.00     0.167 HD
ATOM     53  C   UNL A   1      45.160  28.127  32.544  1.00  0.00     0.074 A 
ATOM     54  C   UNL A   1      45.677  28.792  33.724  1.00  0.00     0.031 C 
ATOM     55  C   UNL A   1      45.689  27.000  32.011  1.00  0.00     0.034 A 
BRANCH  42  56
ATOM     56  C   UNL A   1      42.600  24.837  27.129  1.00  0.00     0.023 A 
ATOM     57  C   UNL A   1      43.394  24.952  25.972  1.00  0.00     0.012 A 
ATOM     58  C   UNL A   1      41.814  23.681  27.316  1.00  0.00     0.148 A 
ATOM     59  C   UNL A   1      43.397  23.940  25.011  1.00  0.00     0.002 A 
ATOM     60  C   UNL A   1      41.854  22.659  26.374  1.00  0.00     0.091 A 
ATOM     61  F   UNL A   1      41.046  23.599  28.412  1.00  0.00    -0.205 F 
ATOM     62  C   UNL A   1      42.640  22.790  25.218  1.00  0.00     0.022 A 
BRANCH  60  63
ATOM     63  S   UNL A   1      40.976  21.106  26.603  1.00  0.00     0.127 S 
ATOM     64  O   UNL A   1      39.608  21.484  26.254  1.00  0.00    -0.237 OA
ATOM     65  O   UNL A   1      41.632  20.229  25.631  1.00  0.00    -0.237 OA
ATOM     66  O   UNL A   1      41.193  20.730  27.993  1.00  0.00    -0.744 OA
ENDBRANCH  60  63
ENDBRANCH  42  56
BRANCH  43  67
ATOM     67  C   UNL A   1      42.875  31.934  34.120  1.00  0.00     0.023 A 
ATOM     68  C   UNL A   1      43.416  33.201  33.837  1.00  0.00     0.012 A 
ATOM     69  C   UNL A   1      42.275  31.707  35.374  1.00  0.00     0.148 A 
ATOM     70  C   UNL A   1      43.360  34.223  34.786  1.00  0.00     0.002 A 
ATOM     71  C   UNL A   1      42.155  32.750  36.283  1.00  0.00     0.091 A 
ATOM     72  F   UNL A   1      41.797  30.483  35.643  1.00  0.00    -0.205 F 
ATOM     73  C   UNL A   1      42.710  34.006  35.999  1.00  0.00     0.022 A 
BRANCH  71  74
ATOM     74  S   UNL A   1      41.159  32.583  37.769  1.00  0.00     0.127 S 
ATOM     75  O   UNL A   1      41.903  31.580  38.522  1.00  0.00    -0.237 OA
ATOM     76  O   UNL A   1      41.203  33.934  38.331  1.00  0.00    -0.237 OA
ATOM     77  O   UNL A   1      39.839  32.186  37.293  1.00  0.00    -0.744 OA
ENDBRANCH  71  74
ENDBRANCH  43  67
BRANCH  55  78
ATOM     78  C   UNL A   1      46.892  26.412  32.696  1.00  0.00     0.023 A 
ATOM     79  C   UNL A   1      48.170  26.930  32.408  1.00  0.00     0.012 A 
ATOM     80  C   UNL A   1      46.760  25.382  33.646  1.00  0.00     0.148 A 
ATOM     81  C   UNL A   1      49.303  26.412  33.033  1.00  0.00     0.002 A 
ATOM     82  C   UNL A   1      47.891  24.894  34.292  1.00  0.00     0.091 A 
ATOM     83  F   UNL A   1      45.539  24.883  33.889  1.00  0.00    -0.205 F 
ATOM     84  C   UNL A   1      49.163  25.402  33.982  1.00  0.00     0.022 A 
BRANCH  82  85
ATOM     85  S   UNL A   1      47.786  23.640  35.575  1.00  0.00     0.127 S 
ATOM     86  O   UNL A   1      49.089  23.766  36.223  1.00  0.00    -0.237 OA
ATOM     87  O   UNL A   1      46.657  24.104  36.382  1.00  0.00    -0.237 OA
ATOM     88  O   UNL A   1      47.544  22.384  34.877  1.00  0.00    -0.744 OA
ENDBRANCH  82  85
ENDBRANCH  55  78
ENDBRANCH  29  30
ENDBRANCH  22  24
ENDBRANCH  21  22
ENDBRANCH  20  21
ENDBRANCH   1  20
TORSDOF 17
ENDMDL
MODEL 3
REMARK VINA RESULT:     -11.8      1.682      2.158
REMARK SMILES O=C(C[C@H]1CC[C@@H](C(=O)OCCOC(=O)c2ccc(-c3c4nc(c(-c5cccc(S(=O)(=O)[O-])c5F)c5ccc([nH]5)c(-c5cccc(S(=O)(=O)[O-])c5F)c5nc(c(-c6cccc(S(=O)(=O)[O-])c6F)c6ccc3[nH]6)C=C5)C=C4)cc2)C1)c1ccc(Cl)cc1
REMARK SMILES IDX 11 1 10 2 8 3 9 4 7 5 4 6 5 7 79 8 6 9 3 10 2 11 1 12 80 13
REMARK SMILES IDX 81 14 86 15 82 16 85 17 83 18 84 19 12 20 13 21 14 22 15 23
REMARK SMILES IDX 16 24 17 25 78 26 18 27 77 28 19 29 20 30 21 31 71 32 22 33
REMARK SMILES IDX 76 34 70 35 72 36 23 37 75 38 69 39 68 40 24 42 56 43 36 44
REMARK SMILES IDX 55 45 37 46 40 47 54 48 73 49 38 50 39 51 53 53 74 54 41 55
REMARK SMILES IDX 25 56 26 57 34 58 27 59 29 60 35 61 28 62 30 63 31 64 32 65
REMARK SMILES IDX 33 66 57 67 58 68 66 69 59 70 61 71 67 72 60 73 62 74 63 75
REMARK SMILES IDX 64 76 65 77 42 78 43 79 51 80 44 81 46 82 52 83 45 84 47 85
REMARK SMILES IDX 48 86 49 87 50 88
REMARK H PARENT 72 41 40 52
REMARK Flexibility Score: inf
ROOT
ATOM      1  C   UNL A   1      35.492  21.689  26.065  1.00  0.00     0.274 C 
ENDROOT
BRANCH   1   2
ATOM      2  O   UNL A   1      34.264  21.612  25.306  1.00  0.00    -0.462 OA
BRANCH   2   3
ATOM      3  C   UNL A   1      33.834  22.771  24.740  1.00  0.00     0.309 C 
ATOM      4  O   UNL A   1      33.493  22.884  23.568  1.00  0.00    -0.252 OA
BRANCH   3   5
ATOM      5  C   UNL A   1      33.846  23.957  25.695  1.00  0.00     0.099 C 
ATOM      6  C   UNL A   1      33.896  26.311  24.953  1.00  0.00    -0.003 C 
ATOM      7  C   UNL A   1      32.865  26.125  26.064  1.00  0.00     0.005 C 
ATOM      8  C   UNL A   1      34.786  25.081  25.203  1.00  0.00     0.019 C 
ATOM      9  C   UNL A   1      32.507  24.648  25.977  1.00  0.00     0.015 C 
BRANCH   6  10
ATOM     10  C   UNL A   1      33.321  26.319  23.522  1.00  0.00     0.084 C 
BRANCH  10  11
ATOM     11  C   UNL A   1      32.812  27.676  23.071  1.00  0.00     0.163 C 
ATOM     12  O   UNL A   1      33.537  28.648  22.897  1.00  0.00    -0.294 OA
BRANCH  11  13
ATOM     13  C   UNL A   1      31.345  27.827  22.967  1.00  0.00     0.018 A 
ATOM     14  C   UNL A   1      30.845  29.045  22.498  1.00  0.00     0.013 A 
ATOM     15  C   UNL A   1      30.482  26.835  23.438  1.00  0.00     0.013 A 
ATOM     16  C   UNL A   1      29.481  29.312  22.587  1.00  0.00     0.021 A 
ATOM     17  C   UNL A   1      29.111  27.094  23.492  1.00  0.00     0.021 A 
ATOM     18  C   UNL A   1      28.620  28.339  23.093  1.00  0.00     0.041 A 
ATOM     19  Cl  UNL A   1      26.942  28.688  23.244  1.00  0.00    -0.084 Cl
ENDBRANCH  11  13
ENDBRANCH  10  11
ENDBRANCH   6  10
ENDBRANCH   3   5
ENDBRANCH   2   3
ENDBRANCH   1   2
BRANCH   1  20
ATOM     20  C   UNL A   1      36.617  20.929  25.359  1.00  0.00     0.275 C 
BRANCH  20  21
ATOM     21  O   UNL A   1      37.739  21.807  25.204  1.00  0.00    -0.458 OA
BRANCH  21  22
ATOM     22  C   UNL A   1      38.845  21.501  25.924  1.00  0.00     0.338 C 
ATOM     23  O   UNL A   1      39.396  20.414  25.959  1.00  0.00    -0.246 OA
BRANCH  22  24
ATOM     24  C   UNL A   1      39.385  22.733  26.562  1.00  0.00     0.060 A 
ATOM     25  C   UNL A   1      38.938  23.996  26.175  1.00  0.00     0.016 A 
ATOM     26  C   UNL A   1      40.438  22.640  27.477  1.00  0.00     0.016 A 
ATOM     27  C   UNL A   1      39.608  25.145  26.599  1.00  0.00     0.010 A 
ATOM     28  C   UNL A   1      41.034  23.804  27.988  1.00  0.00     0.010 A 
ATOM     29  C   UNL A   1      40.651  25.077  27.534  1.00  0.00    -0.014 A 
BRANCH  29  30
ATOM     30  C   UNL A   1      41.314  26.322  28.034  1.00  0.00     0.031 A 
ATOM     31  C   UNL A   1      40.547  27.347  28.838  1.00  0.00     0.074 A 
ATOM     32  C   UNL A   1      42.613  26.565  27.754  1.00  0.00     0.049 A 
ATOM     33  N   UNL A   1      40.879  28.578  29.134  1.00  0.00    -0.248 NA
ATOM     34  C   UNL A   1      39.231  26.945  29.358  1.00  0.00     0.031 C 
ATOM     35  C   UNL A   1      43.499  25.677  27.001  1.00  0.00     0.029 A 
ATOM     36  N   UNL A   1      43.416  27.640  28.060  1.00  0.00    -0.354 N 
ATOM     37  C   UNL A   1      39.781  29.128  29.786  1.00  0.00     0.074 A 
ATOM     38  C   UNL A   1      38.780  28.084  29.869  1.00  0.00     0.031 C 
ATOM     39  C   UNL A   1      44.724  26.213  26.941  1.00  0.00     0.029 A 
ATOM     40  C   UNL A   1      44.689  27.539  27.547  1.00  0.00     0.049 A 
ATOM     41  H   UNL A   1      43.109  28.407  28.596  1.00  0.00     0.167 HD
ATOM     42  C   UNL A   1      39.622  30.382  30.275  1.00  0.00     0.034 A 
ATOM     43  C   UNL A   1      45.706  28.422  27.503  1.00  0.00     0.034 A 
ATOM     44  C   UNL A   1      40.656  31.385  30.300  1.00  0.00     0.049 A 
ATOM     45  C   UNL A   1      45.519  29.791  28.085  1.00  0.00     0.074 A 
ATOM     46  C   UNL A   1      40.597  32.666  30.825  1.00  0.00     0.029 A 
ATOM     47  N   UNL A   1      41.939  31.218  29.809  1.00  0.00    -0.354 N 
ATOM     48  N   UNL A   1      44.472  30.289  28.695  1.00  0.00    -0.248 NA
ATOM     49  C   UNL A   1      46.651  30.722  27.971  1.00  0.00     0.031 C 
ATOM     50  C   UNL A   1      41.847  33.271  30.653  1.00  0.00     0.029 A 
ATOM     51  C   UNL A   1      42.685  32.367  30.025  1.00  0.00     0.049 A 
ATOM     52  H   UNL A   1      42.274  30.402  29.370  1.00  0.00     0.167 HD
ATOM     53  C   UNL A   1      44.817  31.590  29.039  1.00  0.00     0.074 A 
ATOM     54  C   UNL A   1      46.186  31.789  28.605  1.00  0.00     0.031 C 
ATOM     55  C   UNL A   1      44.058  32.543  29.631  1.00  0.00     0.034 A 
BRANCH  42  56
ATOM     56  C   UNL A   1      38.286  30.753  30.869  1.00  0.00     0.023 A 
ATOM     57  C   UNL A   1      38.027  30.495  32.228  1.00  0.00     0.012 A 
ATOM     58  C   UNL A   1      37.330  31.452  30.103  1.00  0.00     0.148 A 
ATOM     59  C   UNL A   1      36.831  30.913  32.814  1.00  0.00     0.002 A 
ATOM     60  C   UNL A   1      36.159  31.901  30.704  1.00  0.00     0.091 A 
ATOM     61  F   UNL A   1      37.583  31.668  28.804  1.00  0.00    -0.205 F 
ATOM     62  C   UNL A   1      35.905  31.628  32.057  1.00  0.00     0.022 A 
BRANCH  60  63
ATOM     63  S   UNL A   1      34.952  32.903  29.825  1.00  0.00     0.127 S 
ATOM     64  O   UNL A   1      34.401  31.939  28.874  1.00  0.00    -0.237 OA
ATOM     65  O   UNL A   1      34.032  33.295  30.895  1.00  0.00    -0.237 OA
ATOM     66  O   UNL A   1      35.701  34.008  29.242  1.00  0.00    -0.744 OA
ENDBRANCH  60  63
ENDBRANCH  42  56
BRANCH  43  67
ATOM     67  C   UNL A   1      46.996  28.019  26.871  1.00  0.00     0.023 A 
ATOM     68  C   UNL A   1      48.012  27.464  27.669  1.00  0.00     0.012 A 
ATOM     69  C   UNL A   1      47.182  28.097  25.477  1.00  0.00     0.148 A 
ATOM     70  C   UNL A   1      49.192  26.995  27.090  1.00  0.00     0.002 A 
ATOM     71  C   UNL A   1      48.325  27.559  24.900  1.00  0.00     0.091 A 
ATOM     72  F   UNL A   1      46.220  28.663  24.733  1.00  0.00    -0.205 F 
ATOM     73  C   UNL A   1      49.340  27.021  25.704  1.00  0.00     0.022 A 
BRANCH  71  74
ATOM     74  S   UNL A   1      48.478  27.387  23.118  1.00  0.00     0.127 S 
ATOM     75  O   UNL A   1      47.404  28.248  22.636  1.00  0.00    -0.237 OA
ATOM     76  O   UNL A   1      49.830  27.889  22.868  1.00  0.00    -0.237 OA
ATOM     77  O   UNL A   1      48.325  25.959  22.865  1.00  0.00    -0.744 OA
ENDBRANCH  71  74
ENDBRANCH  43  67
BRANCH  55  78
ATOM     78  C   UNL A   1      44.691  33.890  29.850  1.00  0.00     0.023 A 
ATOM     79  C   UNL A   1      45.373  34.142  31.057  1.00  0.00     0.012 A 
ATOM     80  C   UNL A   1      44.646  34.886  28.857  1.00  0.00     0.148 A 
ATOM     81  C   UNL A   1      45.976  35.378  31.285  1.00  0.00     0.002 A 
ATOM     82  C   UNL A   1      45.280  36.105  29.078  1.00  0.00     0.091 A 
ATOM     83  F   UNL A   1      43.971  34.638  27.726  1.00  0.00    -0.205 F 
ATOM     84  C   UNL A   1      45.939  36.355  30.293  1.00  0.00     0.022 A 
BRANCH  82  85
ATOM     85  S   UNL A   1      45.335  37.389  27.823  1.00  0.00     0.127 S 
ATOM     86  O   UNL A   1      46.013  36.705  26.724  1.00  0.00    -0.237 OA
ATOM     87  O   UNL A   1      43.917  37.664  27.587  1.00  0.00    -0.237 OA
ATOM     88  O   UNL A   1      46.066  38.496  28.426  1.00  0.00    -0.744 OA
ENDBRANCH  82  85
ENDBRANCH  55  78
ENDBRANCH  29  30
ENDBRANCH  22  24
ENDBRANCH  21  22
ENDBRANCH  20  21
ENDBRANCH   1  20
TORSDOF 17
ENDMDL
