MODEL 1
REMARK VINA RESULT:     -11.9      0.000      0.000
REMARK SMILES O=C(OCCOC(=O)c1cccc(Nc2ccc([N+](=O)[O-])cc2)c1)c1ccc(-c2c3nc(c(-c4cccc(S(=O)(=O)[O-])c4F)c4ccc([nH]4)c(-c4cccc(S(=O)(=O)[O-])c4F)c4nc(c(-c5cccc(S(=O)(=O)[O-])c5F)c5ccc2[nH]5)C=C4)C=C3)cc1
REMARK SMILES IDX 4 1 3 2 2 3 1 4 25 5 26 6 87 7 27 8 86 9 28 10 29 11 30 12
REMARK SMILES IDX 80 13 31 14 85 15 79 16 81 17 32 18 84 19 78 20 77 21 33 23
REMARK SMILES IDX 65 24 45 25 64 26 46 27 49 28 63 29 82 30 47 31 48 32 62 34
REMARK SMILES IDX 83 35 50 36 34 37 35 38 43 39 36 40 38 41 44 42 37 43 39 44
REMARK SMILES IDX 40 45 41 46 42 47 66 48 67 49 75 50 68 51 70 52 76 53 69 54
REMARK SMILES IDX 71 55 72 56 73 57 74 58 51 59 52 60 60 61 53 62 55 63 61 64
REMARK SMILES IDX 54 65 56 66 57 67 58 68 59 69 5 70 6 71 7 72 8 73 9 74 10 75
REMARK SMILES IDX 24 76 11 77 13 78 12 79 14 80 15 82 16 83 23 84 17 85 22 86
REMARK SMILES IDX 18 87 19 88 20 89 21 90
REMARK H PARENT 81 22 49 33 14 81
REMARK Flexibility Score: inf
ROOT
ATOM      1  C   UNL A   1      38.609  19.889  25.089  1.00  0.00     0.275 C 
ENDROOT
BRANCH   1   2
ATOM      2  O   UNL A   1      39.631  19.437  25.994  1.00  0.00    -0.458 OA
BRANCH   2   3
ATOM      3  C   UNL A   1      40.919  19.837  26.124  1.00  0.00     0.338 C 
ATOM      4  O   UNL A   1      41.809  19.005  25.952  1.00  0.00    -0.246 OA
BRANCH   3   5
ATOM      5  C   UNL A   1      41.323  21.201  26.595  1.00  0.00     0.060 A 
ATOM      6  C   UNL A   1      41.460  21.599  27.926  1.00  0.00     0.016 A 
ATOM      7  C   UNL A   1      41.601  22.153  25.595  1.00  0.00     0.016 A 
ATOM      8  C   UNL A   1      41.948  22.862  28.253  1.00  0.00     0.010 A 
ATOM      9  C   UNL A   1      42.098  23.420  25.916  1.00  0.00     0.010 A 
ATOM     10  C   UNL A   1      42.279  23.776  27.255  1.00  0.00    -0.014 A 
BRANCH  10  11
ATOM     11  C   UNL A   1      42.680  25.141  27.652  1.00  0.00     0.031 A 
ATOM     12  C   UNL A   1      44.079  25.580  27.343  1.00  0.00     0.074 A 
ATOM     13  C   UNL A   1      41.772  25.994  28.167  1.00  0.00     0.049 A 
ATOM     14  N   UNL A   1      44.611  26.764  27.470  1.00  0.00    -0.248 NA
ATOM     15  C   UNL A   1      44.982  24.570  26.760  1.00  0.00     0.031 C 
ATOM     16  C   UNL A   1      40.357  25.689  28.374  1.00  0.00     0.029 A 
ATOM     17  N   UNL A   1      41.889  27.290  28.597  1.00  0.00    -0.354 N 
ATOM     18  C   UNL A   1      45.897  26.651  26.958  1.00  0.00     0.074 A 
ATOM     19  C   UNL A   1      46.086  25.275  26.561  1.00  0.00     0.031 C 
ATOM     20  C   UNL A   1      39.744  26.750  28.926  1.00  0.00     0.029 A 
ATOM     21  C   UNL A   1      40.721  27.812  29.111  1.00  0.00     0.049 A 
ATOM     22  H   UNL A   1      42.730  27.800  28.544  1.00  0.00     0.167 HD
ATOM     23  C   UNL A   1      46.821  27.625  26.800  1.00  0.00     0.034 A 
ATOM     24  C   UNL A   1      40.478  29.019  29.657  1.00  0.00     0.034 A 
ATOM     25  C   UNL A   1      46.614  28.981  27.221  1.00  0.00     0.049 A 
ATOM     26  C   UNL A   1      41.601  30.021  29.637  1.00  0.00     0.074 A 
ATOM     27  C   UNL A   1      47.482  30.052  27.138  1.00  0.00     0.029 A 
ATOM     28  N   UNL A   1      45.455  29.446  27.830  1.00  0.00    -0.354 N 
ATOM     29  N   UNL A   1      42.783  29.920  29.076  1.00  0.00    -0.248 NA
ATOM     30  C   UNL A   1      41.341  31.319  30.271  1.00  0.00     0.031 C 
ATOM     31  C   UNL A   1      46.863  31.156  27.733  1.00  0.00     0.029 A 
ATOM     32  C   UNL A   1      45.594  30.782  28.151  1.00  0.00     0.049 A 
ATOM     33  H   UNL A   1      44.654  28.902  28.008  1.00  0.00     0.167 HD
ATOM     34  C   UNL A   1      43.376  31.167  29.217  1.00  0.00     0.074 A 
ATOM     35  C   UNL A   1      42.420  32.003  29.917  1.00  0.00     0.031 C 
ATOM     36  C   UNL A   1      44.595  31.592  28.803  1.00  0.00     0.034 A 
BRANCH  23  37
ATOM     37  C   UNL A   1      48.120  27.249  26.144  1.00  0.00     0.023 A 
ATOM     38  C   UNL A   1      49.154  26.678  26.915  1.00  0.00     0.012 A 
ATOM     39  C   UNL A   1      48.311  27.441  24.764  1.00  0.00     0.148 A 
ATOM     40  C   UNL A   1      50.368  26.326  26.324  1.00  0.00     0.002 A 
ATOM     41  C   UNL A   1      49.508  27.051  24.175  1.00  0.00     0.091 A 
ATOM     42  F   UNL A   1      47.324  28.009  24.057  1.00  0.00    -0.205 F 
ATOM     43  C   UNL A   1      50.542  26.505  24.955  1.00  0.00     0.022 A 
BRANCH  41  44
ATOM     44  S   UNL A   1      49.811  27.186  22.411  1.00  0.00     0.127 S 
ATOM     45  O   UNL A   1      49.706  28.630  22.203  1.00  0.00    -0.237 OA
ATOM     46  O   UNL A   1      51.167  26.651  22.295  1.00  0.00    -0.237 OA
ATOM     47  O   UNL A   1      48.779  26.392  21.760  1.00  0.00    -0.744 OA
ENDBRANCH  41  44
ENDBRANCH  23  37
BRANCH  24  48
ATOM     48  C   UNL A   1      39.131  29.394  30.186  1.00  0.00     0.023 A 
ATOM     49  C   UNL A   1      38.739  28.965  31.470  1.00  0.00     0.012 A 
ATOM     50  C   UNL A   1      38.209  30.128  29.421  1.00  0.00     0.148 A 
ATOM     51  C   UNL A   1      37.447  29.209  31.946  1.00  0.00     0.002 A 
ATOM     52  C   UNL A   1      36.944  30.424  29.926  1.00  0.00     0.091 A 
ATOM     53  F   UNL A   1      38.567  30.528  28.195  1.00  0.00    -0.205 F 
ATOM     54  C   UNL A   1      36.548  29.941  31.177  1.00  0.00     0.022 A 
BRANCH  52  55
ATOM     55  S   UNL A   1      35.842  31.486  28.993  1.00  0.00     0.127 S 
ATOM     56  O   UNL A   1      36.725  32.549  28.524  1.00  0.00    -0.237 OA
ATOM     57  O   UNL A   1      35.333  30.610  27.938  1.00  0.00    -0.237 OA
ATOM     58  O   UNL A   1      34.842  31.858  29.992  1.00  0.00    -0.744 OA
ENDBRANCH  52  55
ENDBRANCH  24  48
BRANCH  36  59
ATOM     59  C   UNL A   1      44.931  33.037  29.047  1.00  0.00     0.023 A 
ATOM     60  C   UNL A   1      45.469  33.438  30.284  1.00  0.00     0.012 A 
ATOM     61  C   UNL A   1      44.760  33.986  28.020  1.00  0.00     0.148 A 
ATOM     62  C   UNL A   1      45.787  34.775  30.515  1.00  0.00     0.002 A 
ATOM     63  C   UNL A   1      45.137  35.303  28.237  1.00  0.00     0.091 A 
ATOM     64  F   UNL A   1      44.227  33.584  26.857  1.00  0.00    -0.205 F 
ATOM     65  C   UNL A   1      45.634  35.703  29.487  1.00  0.00     0.022 A 
BRANCH  63  66
ATOM     66  S   UNL A   1      45.082  36.539  26.936  1.00  0.00     0.127 S 
ATOM     67  O   UNL A   1      43.651  36.596  26.640  1.00  0.00    -0.237 OA
ATOM     68  O   UNL A   1      45.613  37.723  27.612  1.00  0.00    -0.237 OA
ATOM     69  O   UNL A   1      45.923  36.030  25.862  1.00  0.00    -0.744 OA
ENDBRANCH  63  66
ENDBRANCH  36  59
ENDBRANCH  10  11
ENDBRANCH   3   5
ENDBRANCH   2   3
ENDBRANCH   1   2
BRANCH   1  70
ATOM     70  C   UNL A   1      38.087  21.309  25.342  1.00  0.00     0.275 C 
BRANCH  70  71
ATOM     71  O   UNL A   1      37.112  21.753  24.385  1.00  0.00    -0.458 OA
BRANCH  71  72
ATOM     72  C   UNL A   1      36.519  22.938  24.685  1.00  0.00     0.338 C 
ATOM     73  O   UNL A   1      37.062  23.911  25.185  1.00  0.00    -0.246 OA
BRANCH  72  74
ATOM     74  C   UNL A   1      35.140  22.966  24.157  1.00  0.00     0.062 A 
ATOM     75  C   UNL A   1      34.603  24.215  23.830  1.00  0.00     0.016 A 
ATOM     76  C   UNL A   1      34.374  21.806  23.998  1.00  0.00     0.041 A 
ATOM     77  C   UNL A   1      33.325  24.296  23.286  1.00  0.00     0.003 A 
ATOM     78  C   UNL A   1      33.055  21.885  23.508  1.00  0.00     0.039 A 
ATOM     79  C   UNL A   1      32.565  23.137  23.117  1.00  0.00     0.026 A 
BRANCH  78  80
ATOM     80  N   UNL A   1      32.276  20.721  23.420  1.00  0.00    -0.355 N 
ATOM     81  H   UNL A   1      31.389  20.850  23.012  1.00  0.00     0.167 HD
BRANCH  80  82
ATOM     82  C   UNL A   1      32.555  19.401  23.816  1.00  0.00     0.039 A 
ATOM     83  C   UNL A   1      32.708  19.133  25.183  1.00  0.00     0.033 A 
ATOM     84  C   UNL A   1      32.744  18.362  22.898  1.00  0.00     0.033 A 
ATOM     85  C   UNL A   1      33.064  17.862  25.638  1.00  0.00     0.088 A 
ATOM     86  C   UNL A   1      33.114  17.081  23.340  1.00  0.00     0.088 A 
ATOM     87  C   UNL A   1      33.278  16.840  24.712  1.00  0.00     0.269 A 
BRANCH  87  88
ATOM     88  N   UNL A   1      33.662  15.503  25.185  1.00  0.00     0.062 N 
ATOM     89  O   UNL A   1      32.783  14.629  25.256  1.00  0.00    -0.258 OA
ATOM     90  O   UNL A   1      34.864  15.295  25.412  1.00  0.00    -0.258 OA
ENDBRANCH  87  88
ENDBRANCH  80  82
ENDBRANCH  78  80
ENDBRANCH  72  74
ENDBRANCH  71  72
ENDBRANCH  70  71
ENDBRANCH   1  70
TORSDOF 17
ENDMDL
MODEL 2
REMARK VINA RESULT:     -11.6      5.740     11.178
REMARK SMILES O=C(OCCOC(=O)c1cccc(Nc2ccc([N+](=O)[O-])cc2)c1)c1ccc(-c2c3nc(c(-c4cccc(S(=O)(=O)[O-])c4F)c4ccc([nH]4)c(-c4cccc(S(=O)(=O)[O-])c4F)c4nc(c(-c5cccc(S(=O)(=O)[O-])c5F)c5ccc2[nH]5)C=C4)C=C3)cc1
REMARK SMILES IDX 4 1 3 2 2 3 1 4 25 5 26 6 87 7 27 8 86 9 28 10 29 11 30 12
REMARK SMILES IDX 80 13 31 14 85 15 79 16 81 17 32 18 84 19 78 20 77 21 33 23
REMARK SMILES IDX 65 24 45 25 64 26 46 27 49 28 63 29 82 30 47 31 48 32 62 34
REMARK SMILES IDX 83 35 50 36 34 37 35 38 43 39 36 40 38 41 44 42 37 43 39 44
REMARK SMILES IDX 40 45 41 46 42 47 66 48 67 49 75 50 68 51 70 52 76 53 69 54
REMARK SMILES IDX 71 55 72 56 73 57 74 58 51 59 52 60 60 61 53 62 55 63 61 64
REMARK SMILES IDX 54 65 56 66 57 67 58 68 59 69 5 70 6 71 7 72 8 73 9 74 10 75
REMARK SMILES IDX 24 76 11 77 13 78 12 79 14 80 15 82 16 83 23 84 17 85 22 86
REMARK SMILES IDX 18 87 19 88 20 89 21 90
REMARK H PARENT 81 22 49 33 14 81
REMARK Flexibility Score: inf
ROOT
ATOM      1  C   UNL A   1      32.139  32.990  26.801  1.00  0.00     0.275 C 
ENDROOT
BRANCH   1   2
ATOM      2  O   UNL A   1      32.190  33.831  27.967  1.00  0.00    -0.458 OA
BRANCH   2   3
ATOM      3  C   UNL A   1      33.240  34.472  28.534  1.00  0.00     0.338 C 
ATOM      4  O   UNL A   1      33.286  35.699  28.454  1.00  0.00    -0.246 OA
BRANCH   3   5
ATOM      5  C   UNL A   1      34.416  33.769  29.138  1.00  0.00     0.060 A 
ATOM      6  C   UNL A   1      34.358  32.675  30.003  1.00  0.00     0.016 A 
ATOM      7  C   UNL A   1      35.689  34.255  28.781  1.00  0.00     0.016 A 
ATOM      8  C   UNL A   1      35.518  32.025  30.422  1.00  0.00     0.010 A 
ATOM      9  C   UNL A   1      36.857  33.604  29.192  1.00  0.00     0.010 A 
ATOM     10  C   UNL A   1      36.772  32.477  30.014  1.00  0.00    -0.014 A 
BRANCH  10  11
ATOM     11  C   UNL A   1      37.973  31.829  30.577  1.00  0.00     0.031 A 
ATOM     12  C   UNL A   1      38.369  32.182  31.979  1.00  0.00     0.074 A 
ATOM     13  C   UNL A   1      38.612  30.864  29.888  1.00  0.00     0.049 A 
ATOM     14  N   UNL A   1      39.294  31.647  32.727  1.00  0.00    -0.248 NA
ATOM     15  C   UNL A   1      37.586  33.237  32.648  1.00  0.00     0.031 C 
ATOM     16  C   UNL A   1      38.209  30.365  28.573  1.00  0.00     0.029 A 
ATOM     17  N   UNL A   1      39.721  30.117  30.190  1.00  0.00    -0.354 N 
ATOM     18  C   UNL A   1      39.186  32.275  33.960  1.00  0.00     0.074 A 
ATOM     19  C   UNL A   1      38.140  33.266  33.851  1.00  0.00     0.031 C 
ATOM     20  C   UNL A   1      39.078  29.424  28.163  1.00  0.00     0.029 A 
ATOM     21  C   UNL A   1      40.099  29.252  29.185  1.00  0.00     0.049 A 
ATOM     22  H   UNL A   1      40.204  30.194  31.045  1.00  0.00     0.167 HD
ATOM     23  C   UNL A   1      39.877  32.016  35.092  1.00  0.00     0.034 A 
ATOM     24  C   UNL A   1      41.148  28.409  29.116  1.00  0.00     0.034 A 
ATOM     25  C   UNL A   1      40.925  31.039  35.168  1.00  0.00     0.049 A 
ATOM     26  C   UNL A   1      42.016  28.291  30.340  1.00  0.00     0.074 A 
ATOM     27  C   UNL A   1      41.714  30.703  36.250  1.00  0.00     0.029 A 
ATOM     28  N   UNL A   1      41.345  30.255  34.101  1.00  0.00    -0.354 N 
ATOM     29  N   UNL A   1      41.849  28.834  31.523  1.00  0.00    -0.248 NA
ATOM     30  C   UNL A   1      43.180  27.403  30.241  1.00  0.00     0.031 C 
ATOM     31  C   UNL A   1      42.639  29.742  35.827  1.00  0.00     0.029 A 
ATOM     32  C   UNL A   1      42.400  29.452  34.492  1.00  0.00     0.049 A 
ATOM     33  H   UNL A   1      40.951  30.270  33.199  1.00  0.00     0.167 HD
ATOM     34  C   UNL A   1      42.836  28.291  32.332  1.00  0.00     0.074 A 
ATOM     35  C   UNL A   1      43.595  27.377  31.500  1.00  0.00     0.031 C 
ATOM     36  C   UNL A   1      43.095  28.517  33.644  1.00  0.00     0.034 A 
BRANCH  23  37
ATOM     37  C   UNL A   1      39.510  32.797  36.323  1.00  0.00     0.023 A 
ATOM     38  C   UNL A   1      40.092  34.062  36.550  1.00  0.00     0.012 A 
ATOM     39  C   UNL A   1      38.575  32.291  37.244  1.00  0.00     0.148 A 
ATOM     40  C   UNL A   1      39.767  34.800  37.688  1.00  0.00     0.002 A 
ATOM     41  C   UNL A   1      38.226  33.049  38.356  1.00  0.00     0.091 A 
ATOM     42  F   UNL A   1      38.054  31.076  37.021  1.00  0.00    -0.205 F 
ATOM     43  C   UNL A   1      38.829  34.297  38.586  1.00  0.00     0.022 A 
BRANCH  41  44
ATOM     44  S   UNL A   1      36.988  32.519  39.542  1.00  0.00     0.127 S 
ATOM     45  O   UNL A   1      37.528  31.231  39.977  1.00  0.00    -0.237 OA
ATOM     46  O   UNL A   1      37.056  33.579  40.547  1.00  0.00    -0.237 OA
ATOM     47  O   UNL A   1      35.731  32.445  38.811  1.00  0.00    -0.744 OA
ENDBRANCH  41  44
ENDBRANCH  23  37
BRANCH  24  48
ATOM     48  C   UNL A   1      41.403  27.557  27.915  1.00  0.00     0.023 A 
ATOM     49  C   UNL A   1      41.952  28.133  26.752  1.00  0.00     0.012 A 
ATOM     50  C   UNL A   1      41.066  26.193  27.886  1.00  0.00     0.148 A 
ATOM     51  C   UNL A   1      42.102  27.384  25.581  1.00  0.00     0.002 A 
ATOM     52  C   UNL A   1      41.276  25.435  26.734  1.00  0.00     0.091 A 
ATOM     53  F   UNL A   1      40.530  25.640  28.980  1.00  0.00    -0.205 F 
ATOM     54  C   UNL A   1      41.766  26.033  25.569  1.00  0.00     0.022 A 
BRANCH  52  55
ATOM     55  S   UNL A   1      40.976  23.668  26.768  1.00  0.00     0.127 S 
ATOM     56  O   UNL A   1      39.530  23.575  26.601  1.00  0.00    -0.237 OA
ATOM     57  O   UNL A   1      41.753  23.167  25.634  1.00  0.00    -0.237 OA
ATOM     58  O   UNL A   1      41.511  23.283  28.072  1.00  0.00    -0.744 OA
ENDBRANCH  52  55
ENDBRANCH  24  48
BRANCH  36  59
ATOM     59  C   UNL A   1      44.206  27.717  34.265  1.00  0.00     0.023 A 
ATOM     60  C   UNL A   1      45.525  28.207  34.245  1.00  0.00     0.012 A 
ATOM     61  C   UNL A   1      43.924  26.501  34.917  1.00  0.00     0.148 A 
ATOM     62  C   UNL A   1      46.559  27.473  34.824  1.00  0.00     0.002 A 
ATOM     63  C   UNL A   1      44.948  25.807  35.545  1.00  0.00     0.091 A 
ATOM     64  F   UNL A   1      42.663  26.044  34.906  1.00  0.00    -0.205 F 
ATOM     65  C   UNL A   1      46.268  26.282  35.485  1.00  0.00     0.022 A 
BRANCH  63  66
ATOM     66  S   UNL A   1      44.645  24.326  36.514  1.00  0.00     0.127 S 
ATOM     67  O   UNL A   1      43.651  24.798  37.477  1.00  0.00    -0.237 OA
ATOM     68  O   UNL A   1      44.129  23.399  35.507  1.00  0.00    -0.237 OA
ATOM     69  O   UNL A   1      45.933  23.946  37.079  1.00  0.00    -0.744 OA
ENDBRANCH  63  66
ENDBRANCH  36  59
ENDBRANCH  10  11
ENDBRANCH   3   5
ENDBRANCH   2   3
ENDBRANCH   1   2
BRANCH   1  70
ATOM     70  C   UNL A   1      31.640  31.559  27.044  1.00  0.00     0.275 C 
BRANCH  70  71
ATOM     71  O   UNL A   1      31.782  30.690  25.909  1.00  0.00    -0.458 OA
BRANCH  71  72
ATOM     72  C   UNL A   1      31.853  29.367  26.211  1.00  0.00     0.338 C 
ATOM     73  O   UNL A   1      32.108  28.889  27.306  1.00  0.00    -0.246 OA
BRANCH  72  74
ATOM     74  C   UNL A   1      31.399  28.557  25.062  1.00  0.00     0.062 A 
ATOM     75  C   UNL A   1      31.363  29.179  23.812  1.00  0.00     0.016 A 
ATOM     76  C   UNL A   1      31.000  27.222  25.198  1.00  0.00     0.041 A 
ATOM     77  C   UNL A   1      30.987  28.449  22.688  1.00  0.00     0.003 A 
ATOM     78  C   UNL A   1      30.557  26.494  24.077  1.00  0.00     0.039 A 
ATOM     79  C   UNL A   1      30.599  27.114  22.822  1.00  0.00     0.026 A 
BRANCH  78  80
ATOM     80  N   UNL A   1      30.094  25.179  24.240  1.00  0.00    -0.355 N 
ATOM     81  H   UNL A   1      29.115  25.083  24.224  1.00  0.00     0.167 HD
BRANCH  80  82
ATOM     82  C   UNL A   1      30.801  23.977  24.423  1.00  0.00     0.039 A 
ATOM     83  C   UNL A   1      31.461  23.417  23.320  1.00  0.00     0.033 A 
ATOM     84  C   UNL A   1      30.821  23.292  25.642  1.00  0.00     0.033 A 
ATOM     85  C   UNL A   1      32.112  22.186  23.414  1.00  0.00     0.088 A 
ATOM     86  C   UNL A   1      31.462  22.047  25.748  1.00  0.00     0.088 A 
ATOM     87  C   UNL A   1      32.102  21.497  24.627  1.00  0.00     0.269 A 
BRANCH  87  88
ATOM     88  N   UNL A   1      32.778  20.198  24.728  1.00  0.00     0.062 N 
ATOM     89  O   UNL A   1      32.084  19.185  24.910  1.00  0.00    -0.258 OA
ATOM     90  O   UNL A   1      34.006  20.170  24.544  1.00  0.00    -0.258 OA
ENDBRANCH  87  88
ENDBRANCH  80  82
ENDBRANCH  78  80
ENDBRANCH  72  74
ENDBRANCH  71  72
ENDBRANCH  70  71
ENDBRANCH   1  70
TORSDOF 17
ENDMDL
MODEL 3
REMARK VINA RESULT:     -11.5      6.266     11.855
REMARK SMILES O=C(OCCOC(=O)c1cccc(Nc2ccc([N+](=O)[O-])cc2)c1)c1ccc(-c2c3nc(c(-c4cccc(S(=O)(=O)[O-])c4F)c4ccc([nH]4)c(-c4cccc(S(=O)(=O)[O-])c4F)c4nc(c(-c5cccc(S(=O)(=O)[O-])c5F)c5ccc2[nH]5)C=C4)C=C3)cc1
REMARK SMILES IDX 4 1 3 2 2 3 1 4 25 5 26 6 87 7 27 8 86 9 28 10 29 11 30 12
REMARK SMILES IDX 80 13 31 14 85 15 79 16 81 17 32 18 84 19 78 20 77 21 33 23
REMARK SMILES IDX 65 24 45 25 64 26 46 27 49 28 63 29 82 30 47 31 48 32 62 34
REMARK SMILES IDX 83 35 50 36 34 37 35 38 43 39 36 40 38 41 44 42 37 43 39 44
REMARK SMILES IDX 40 45 41 46 42 47 66 48 67 49 75 50 68 51 70 52 76 53 69 54
REMARK SMILES IDX 71 55 72 56 73 57 74 58 51 59 52 60 60 61 53 62 55 63 61 64
REMARK SMILES IDX 54 65 56 66 57 67 58 68 59 69 5 70 6 71 7 72 8 73 9 74 10 75
REMARK SMILES IDX 24 76 11 77 13 78 12 79 14 80 15 82 16 83 23 84 17 85 22 86
REMARK SMILES IDX 18 87 19 88 20 89 21 90
REMARK H PARENT 81 22 49 33 14 81
REMARK Flexibility Score: inf
ROOT
ATOM      1  C   UNL A   1      32.743  31.608  26.519  1.00  0.00     0.275 C 
ENDROOT
BRANCH   1   2
ATOM      2  O   UNL A   1      32.655  32.711  27.438  1.00  0.00    -0.458 OA
BRANCH   2   3
ATOM      3  C   UNL A   1      33.636  33.451  28.008  1.00  0.00     0.338 C 
ATOM      4  O   UNL A   1      33.528  34.677  27.991  1.00  0.00    -0.246 OA
BRANCH   3   5
ATOM      5  C   UNL A   1      34.911  32.872  28.542  1.00  0.00     0.060 A 
ATOM      6  C   UNL A   1      36.199  33.316  28.241  1.00  0.00     0.016 A 
ATOM      7  C   UNL A   1      34.783  31.795  29.440  1.00  0.00     0.016 A 
ATOM      8  C   UNL A   1      37.315  32.776  28.878  1.00  0.00     0.010 A 
ATOM      9  C   UNL A   1      35.897  31.253  30.089  1.00  0.00     0.010 A 
ATOM     10  C   UNL A   1      37.172  31.751  29.812  1.00  0.00    -0.014 A 
BRANCH  10  11
ATOM     11  C   UNL A   1      38.391  31.134  30.372  1.00  0.00     0.031 A 
ATOM     12  C   UNL A   1      38.810  31.537  31.754  1.00  0.00     0.074 A 
ATOM     13  C   UNL A   1      39.027  30.153  29.702  1.00  0.00     0.049 A 
ATOM     14  N   UNL A   1      39.755  31.036  32.500  1.00  0.00    -0.248 NA
ATOM     15  C   UNL A   1      38.029  32.606  32.404  1.00  0.00     0.031 C 
ATOM     16  C   UNL A   1      38.604  29.607  28.412  1.00  0.00     0.029 A 
ATOM     17  N   UNL A   1      40.149  29.428  30.007  1.00  0.00    -0.354 N 
ATOM     18  C   UNL A   1      39.664  31.703  33.714  1.00  0.00     0.074 A 
ATOM     19  C   UNL A   1      38.606  32.679  33.594  1.00  0.00     0.031 C 
ATOM     20  C   UNL A   1      39.474  28.663  28.017  1.00  0.00     0.029 A 
ATOM     21  C   UNL A   1      40.516  28.533  29.023  1.00  0.00     0.049 A 
ATOM     22  H   UNL A   1      40.648  29.537  30.849  1.00  0.00     0.167 HD
ATOM     23  C   UNL A   1      40.380  31.488  34.840  1.00  0.00     0.034 A 
ATOM     24  C   UNL A   1      41.573  27.699  28.961  1.00  0.00     0.034 A 
ATOM     25  C   UNL A   1      41.439  30.524  34.927  1.00  0.00     0.049 A 
ATOM     26  C   UNL A   1      42.465  27.630  30.171  1.00  0.00     0.074 A 
ATOM     27  C   UNL A   1      42.253  30.231  36.004  1.00  0.00     0.029 A 
ATOM     28  N   UNL A   1      41.847  29.709  33.878  1.00  0.00    -0.354 N 
ATOM     29  N   UNL A   1      42.315  28.210  31.339  1.00  0.00    -0.248 NA
ATOM     30  C   UNL A   1      43.636  26.750  30.078  1.00  0.00     0.031 C 
ATOM     31  C   UNL A   1      43.179  29.266  35.595  1.00  0.00     0.029 A 
ATOM     32  C   UNL A   1      42.917  28.930  34.274  1.00  0.00     0.049 A 
ATOM     33  H   UNL A   1      41.435  29.691  32.985  1.00  0.00     0.167 HD
ATOM     34  C   UNL A   1      43.324  27.703  32.145  1.00  0.00     0.074 A 
ATOM     35  C   UNL A   1      44.076  26.770  31.329  1.00  0.00     0.031 C 
ATOM     36  C   UNL A   1      43.605  27.974  33.444  1.00  0.00     0.034 A 
BRANCH  23  37
ATOM     37  C   UNL A   1      40.028  32.305  36.052  1.00  0.00     0.023 A 
ATOM     38  C   UNL A   1      40.765  33.471  36.348  1.00  0.00     0.012 A 
ATOM     39  C   UNL A   1      38.959  31.932  36.887  1.00  0.00     0.148 A 
ATOM     40  C   UNL A   1      40.456  34.240  37.470  1.00  0.00     0.002 A 
ATOM     41  C   UNL A   1      38.632  32.725  37.980  1.00  0.00     0.091 A 
ATOM     42  F   UNL A   1      38.291  30.806  36.601  1.00  0.00    -0.205 F 
ATOM     43  C   UNL A   1      39.386  33.872  38.281  1.00  0.00     0.022 A 
BRANCH  41  44
ATOM     44  S   UNL A   1      37.238  32.369  39.054  1.00  0.00     0.127 S 
ATOM     45  O   UNL A   1      36.107  32.725  38.199  1.00  0.00    -0.237 OA
ATOM     46  O   UNL A   1      37.397  30.935  39.291  1.00  0.00    -0.237 OA
ATOM     47  O   UNL A   1      37.410  33.209  40.232  1.00  0.00    -0.744 OA
ENDBRANCH  41  44
ENDBRANCH  23  37
BRANCH  24  48
ATOM     48  C   UNL A   1      41.813  26.811  27.783  1.00  0.00     0.023 A 
ATOM     49  C   UNL A   1      42.408  27.337  26.620  1.00  0.00     0.012 A 
ATOM     50  C   UNL A   1      41.419  25.462  27.777  1.00  0.00     0.148 A 
ATOM     51  C   UNL A   1      42.547  26.557  25.467  1.00  0.00     0.002 A 
ATOM     52  C   UNL A   1      41.618  24.671  26.646  1.00  0.00     0.091 A 
ATOM     53  F   UNL A   1      40.840  24.957  28.872  1.00  0.00    -0.205 F 
ATOM     54  C   UNL A   1      42.155  25.222  25.478  1.00  0.00     0.022 A 
BRANCH  52  55
ATOM     55  S   UNL A   1      41.242  22.919  26.711  1.00  0.00     0.127 S 
ATOM     56  O   UNL A   1      41.843  22.500  27.973  1.00  0.00    -0.237 OA
ATOM     57  O   UNL A   1      39.781  22.881  26.692  1.00  0.00    -0.237 OA
ATOM     58  O   UNL A   1      41.868  22.417  25.490  1.00  0.00    -0.744 OA
ENDBRANCH  52  55
ENDBRANCH  24  48
BRANCH  36  59
ATOM     59  C   UNL A   1      44.737  27.206  34.069  1.00  0.00     0.023 A 
ATOM     60  C   UNL A   1      46.060  27.669  33.941  1.00  0.00     0.012 A 
ATOM     61  C   UNL A   1      44.472  26.051  34.830  1.00  0.00     0.148 A 
ATOM     62  C   UNL A   1      47.112  26.964  34.523  1.00  0.00     0.002 A 
ATOM     63  C   UNL A   1      45.518  25.391  35.458  1.00  0.00     0.091 A 
ATOM     64  F   UNL A   1      43.206  25.618  34.921  1.00  0.00    -0.205 F 
ATOM     65  C   UNL A   1      46.840  25.835  35.291  1.00  0.00     0.022 A 
BRANCH  63  66
ATOM     66  S   UNL A   1      45.247  23.997  36.557  1.00  0.00     0.127 S 
ATOM     67  O   UNL A   1      44.598  23.037  35.666  1.00  0.00    -0.237 OA
ATOM     68  O   UNL A   1      46.612  23.642  36.948  1.00  0.00    -0.237 OA
ATOM     69  O   UNL A   1      44.420  24.500  37.646  1.00  0.00    -0.744 OA
ENDBRANCH  63  66
ENDBRANCH  36  59
ENDBRANCH  10  11
ENDBRANCH   3   5
ENDBRANCH   2   3
ENDBRANCH   1   2
BRANCH   1  70
ATOM     70  C   UNL A   1      31.893  30.383  26.880  1.00  0.00     0.275 C 
BRANCH  70  71
ATOM     71  O   UNL A   1      32.621  29.145  26.876  1.00  0.00    -0.458 OA
BRANCH  71  72
ATOM     72  C   UNL A   1      31.888  28.053  27.216  1.00  0.00     0.338 C 
ATOM     73  O   UNL A   1      31.457  27.791  28.329  1.00  0.00    -0.246 OA
BRANCH  72  74
ATOM     74  C   UNL A   1      31.518  27.288  26.008  1.00  0.00     0.062 A 
ATOM     75  C   UNL A   1      32.176  26.075  25.789  1.00  0.00     0.016 A 
ATOM     76  C   UNL A   1      30.563  27.747  25.094  1.00  0.00     0.041 A 
ATOM     77  C   UNL A   1      31.834  25.292  24.691  1.00  0.00     0.003 A 
ATOM     78  C   UNL A   1      30.256  26.992  23.945  1.00  0.00     0.039 A 
ATOM     79  C   UNL A   1      30.873  25.745  23.784  1.00  0.00     0.026 A 
BRANCH  78  80
ATOM     80  N   UNL A   1      29.348  27.498  23.003  1.00  0.00    -0.355 N 
ATOM     81  H   UNL A   1      28.902  26.814  22.453  1.00  0.00     0.167 HD
BRANCH  80  82
ATOM     82  C   UNL A   1      28.968  28.822  22.717  1.00  0.00     0.039 A 
ATOM     83  C   UNL A   1      29.864  29.635  22.009  1.00  0.00     0.033 A 
ATOM     84  C   UNL A   1      27.761  29.373  23.161  1.00  0.00     0.033 A 
ATOM     85  C   UNL A   1      29.583  30.980  21.764  1.00  0.00     0.088 A 
ATOM     86  C   UNL A   1      27.470  30.727  22.931  1.00  0.00     0.088 A 
ATOM     87  C   UNL A   1      28.390  31.527  22.236  1.00  0.00     0.269 A 
BRANCH  87  88
ATOM     88  N   UNL A   1      28.094  32.944  21.987  1.00  0.00     0.062 N 
ATOM     89  O   UNL A   1      28.412  33.773  22.854  1.00  0.00    -0.258 OA
ATOM     90  O   UNL A   1      27.613  33.248  20.883  1.00  0.00    -0.258 OA
ENDBRANCH  87  88
ENDBRANCH  80  82
ENDBRANCH  78  80
ENDBRANCH  72  74
ENDBRANCH  71  72
ENDBRANCH  70  71
ENDBRANCH   1  70
TORSDOF 17
ENDMDL
