MODEL 1
REMARK VINA RESULT:     -12.5      0.000      0.000
REMARK SMILES CC(C)CN(C)c1cc2c(cc1Cl)C=C(C(=O)OCCOC(=O)c1ccc(-c3c4nc(c(-c5cccc(S(=O)(=O)[O-])c5F)c5ccc([nH]5)c(-c5cccc(S(=O)(=O)[O-])c5F)c5nc(c(-c6cccc(S(=O)(=O)[O-])c6F)c6ccc3[nH]6)C=C5)C=C4)cc1)[C@@H](C(F)(F)F)O2
REMARK SMILES IDX 19 1 18 2 16 3 17 4 15 5 7 6 8 7 12 8 9 9 11 10 13 11 10 12
REMARK SMILES IDX 92 13 14 14 87 15 5 16 6 17 4 18 2 19 1 20 3 21 88 22 89 23
REMARK SMILES IDX 90 24 91 25 20 26 21 27 22 28 23 29 24 30 25 31 86 32 26 33
REMARK SMILES IDX 85 34 27 35 28 36 29 37 79 38 30 39 84 40 78 41 80 42 31 43
REMARK SMILES IDX 83 44 77 45 76 46 32 48 64 49 44 50 63 51 45 52 48 53 62 54
REMARK SMILES IDX 81 55 46 56 47 57 61 59 82 60 49 61 33 62 34 63 42 64 35 65
REMARK SMILES IDX 37 66 43 67 36 68 38 69 39 70 40 71 41 72 65 73 66 74 74 75
REMARK SMILES IDX 67 76 69 77 75 78 68 79 70 80 71 81 72 82 73 83 50 84 51 85
REMARK SMILES IDX 59 86 52 87 54 88 60 89 53 90 55 91 56 92 57 93 58 94
REMARK H PARENT 80 47 48 58
REMARK Flexibility Score: inf
ROOT
ATOM      1  C   UNL A   1      35.817  20.541  25.114  1.00  0.00     0.275 C 
ENDROOT
BRANCH   1   2
ATOM      2  O   UNL A   1      35.111  21.521  24.319  1.00  0.00    -0.459 OA
BRANCH   2   3
ATOM      3  C   UNL A   1      33.773  21.327  24.249  1.00  0.00     0.338 C 
ATOM      4  O   UNL A   1      33.209  20.240  24.242  1.00  0.00    -0.246 OA
BRANCH   3   5
ATOM      5  C   UNL A   1      33.032  22.600  24.224  1.00  0.00     0.087 C 
ATOM      6  C   UNL A   1      31.779  27.415  23.395  1.00  0.00     0.059 A 
ATOM      7  C   UNL A   1      31.178  26.359  24.119  1.00  0.00     0.074 A 
ATOM      8  C   UNL A   1      33.022  27.163  22.779  1.00  0.00     0.065 A 
ATOM      9  C   UNL A   1      31.771  25.091  24.172  1.00  0.00     0.130 A 
ATOM     10  C   UNL A   1      33.549  25.877  22.737  1.00  0.00     0.034 A 
ATOM     11  Cl  UNL A   1      34.013  28.416  22.116  1.00  0.00    -0.082 Cl
ATOM     12  C   UNL A   1      32.918  24.848  23.424  1.00  0.00     0.019 A 
ATOM     13  O   UNL A   1      31.180  24.115  24.938  1.00  0.00    -0.475 OA
ATOM     14  C   UNL A   1      33.488  23.523  23.373  1.00  0.00     0.027 C 
ATOM     15  C   UNL A   1      31.987  22.929  25.251  1.00  0.00     0.316 C 
BRANCH   6  16
ATOM     16  N   UNL A   1      31.156  28.662  23.287  1.00  0.00    -0.373 N 
ATOM     17  C   UNL A   1      31.004  29.422  24.517  1.00  0.00     0.143 C 
BRANCH  16  18
ATOM     18  C   UNL A   1      30.140  28.838  22.228  1.00  0.00     0.119 C 
BRANCH  18  19
ATOM     19  C   UNL A   1      28.943  29.710  22.670  1.00  0.00     0.002 C 
ATOM     20  C   UNL A   1      28.577  30.763  21.619  1.00  0.00     0.009 C 
ATOM     21  C   UNL A   1      27.702  28.861  22.966  1.00  0.00     0.009 C 
ENDBRANCH  18  19
ENDBRANCH  16  18
ENDBRANCH   6  16
BRANCH  15  22
ATOM     22  C   UNL A   1      32.651  23.076  26.632  1.00  0.00     0.430 C 
ATOM     23  F   UNL A   1      32.908  21.871  27.196  1.00  0.00    -0.167 F 
ATOM     24  F   UNL A   1      33.843  23.717  26.535  1.00  0.00    -0.167 F 
ATOM     25  F   UNL A   1      31.892  23.777  27.504  1.00  0.00    -0.167 F 
ENDBRANCH  15  22
ENDBRANCH   3   5
ENDBRANCH   2   3
ENDBRANCH   1   2
BRANCH   1  26
ATOM     26  C   UNL A   1      37.334  20.643  24.941  1.00  0.00     0.275 C 
BRANCH  26  27
ATOM     27  O   UNL A   1      37.874  21.726  25.720  1.00  0.00    -0.458 OA
BRANCH  27  28
ATOM     28  C   UNL A   1      39.141  21.543  26.163  1.00  0.00     0.338 C 
ATOM     29  O   UNL A   1      39.832  20.549  26.027  1.00  0.00    -0.246 OA
BRANCH  28  30
ATOM     30  C   UNL A   1      39.628  22.774  26.806  1.00  0.00     0.060 A 
ATOM     31  C   UNL A   1      40.711  22.759  27.676  1.00  0.00     0.016 A 
ATOM     32  C   UNL A   1      39.083  23.986  26.402  1.00  0.00     0.016 A 
ATOM     33  C   UNL A   1      41.227  23.975  28.145  1.00  0.00     0.010 A 
ATOM     34  C   UNL A   1      39.686  25.191  26.752  1.00  0.00     0.010 A 
ATOM     35  C   UNL A   1      40.749  25.212  27.659  1.00  0.00    -0.014 A 
BRANCH  35  36
ATOM     36  C   UNL A   1      41.359  26.508  28.093  1.00  0.00     0.031 A 
ATOM     37  C   UNL A   1      42.782  26.875  27.721  1.00  0.00     0.074 A 
ATOM     38  C   UNL A   1      40.648  27.356  28.868  1.00  0.00     0.049 A 
ATOM     39  N   UNL A   1      43.444  27.971  27.995  1.00  0.00    -0.248 NA
ATOM     40  C   UNL A   1      43.581  25.879  26.986  1.00  0.00     0.031 C 
ATOM     41  C   UNL A   1      39.319  27.084  29.425  1.00  0.00     0.029 A 
ATOM     42  N   UNL A   1      40.934  28.624  29.315  1.00  0.00    -0.354 N 
ATOM     43  C   UNL A   1      44.736  27.772  27.518  1.00  0.00     0.074 A 
ATOM     44  C   UNL A   1      44.783  26.436  26.974  1.00  0.00     0.031 C 
ATOM     45  C   UNL A   1      38.879  28.172  30.075  1.00  0.00     0.029 A 
ATOM     46  C   UNL A   1      39.899  29.213  30.008  1.00  0.00     0.049 A 
ATOM     47  H   UNL A   1      41.797  29.068  29.155  1.00  0.00     0.167 HD
ATOM     48  C   UNL A   1      45.777  28.637  27.478  1.00  0.00     0.034 A 
ATOM     49  C   UNL A   1      39.769  30.457  30.510  1.00  0.00     0.034 A 
ATOM     50  C   UNL A   1      45.702  30.007  27.902  1.00  0.00     0.049 A 
ATOM     51  C   UNL A   1      40.885  31.448  30.325  1.00  0.00     0.074 A 
ATOM     52  C   UNL A   1      46.663  30.995  27.780  1.00  0.00     0.029 A 
ATOM     53  N   UNL A   1      44.599  30.588  28.502  1.00  0.00    -0.354 N 
ATOM     54  N   UNL A   1      42.040  31.278  29.731  1.00  0.00    -0.248 NA
ATOM     55  C   UNL A   1      40.672  32.805  30.850  1.00  0.00     0.031 C 
ATOM     56  C   UNL A   1      46.136  32.180  28.297  1.00  0.00     0.029 A 
ATOM     57  C   UNL A   1      44.848  31.926  28.742  1.00  0.00     0.049 A 
ATOM     58  H   UNL A   1      43.763  30.119  28.724  1.00  0.00     0.167 HD
ATOM     59  C   UNL A   1      42.684  32.508  29.795  1.00  0.00     0.074 A 
ATOM     60  C   UNL A   1      41.784  33.421  30.468  1.00  0.00     0.031 C 
ATOM     61  C   UNL A   1      43.921  32.839  29.356  1.00  0.00     0.034 A 
BRANCH  48  62
ATOM     62  C   UNL A   1      47.063  28.179  26.841  1.00  0.00     0.023 A 
ATOM     63  C   UNL A   1      48.120  27.759  27.673  1.00  0.00     0.012 A 
ATOM     64  C   UNL A   1      47.186  28.052  25.443  1.00  0.00     0.148 A 
ATOM     65  C   UNL A   1      49.289  27.235  27.125  1.00  0.00     0.002 A 
ATOM     66  C   UNL A   1      48.343  27.497  24.906  1.00  0.00     0.091 A 
ATOM     67  F   UNL A   1      46.168  28.458  24.673  1.00  0.00    -0.205 F 
ATOM     68  C   UNL A   1      49.396  27.095  25.744  1.00  0.00     0.022 A 
BRANCH  66  69
ATOM     69  S   UNL A   1      48.566  27.208  23.147  1.00  0.00     0.127 S 
ATOM     70  O   UNL A   1      47.618  28.160  22.568  1.00  0.00    -0.237 OA
ATOM     71  O   UNL A   1      49.974  27.559  22.957  1.00  0.00    -0.237 OA
ATOM     72  O   UNL A   1      48.245  25.806  22.921  1.00  0.00    -0.744 OA
ENDBRANCH  66  69
ENDBRANCH  48  62
BRANCH  49  73
ATOM     73  C   UNL A   1      38.477  30.865  31.129  1.00  0.00     0.023 A 
ATOM     74  C   UNL A   1      38.298  30.684  32.515  1.00  0.00     0.012 A 
ATOM     75  C   UNL A   1      37.463  31.487  30.378  1.00  0.00     0.148 A 
ATOM     76  C   UNL A   1      37.125  31.107  33.141  1.00  0.00     0.002 A 
ATOM     77  C   UNL A   1      36.313  31.942  31.016  1.00  0.00     0.091 A 
ATOM     78  F   UNL A   1      37.653  31.641  29.061  1.00  0.00    -0.205 F 
ATOM     79  C   UNL A   1      36.139  31.745  32.394  1.00  0.00     0.022 A 
BRANCH  77  80
ATOM     80  S   UNL A   1      35.036  32.873  30.161  1.00  0.00     0.127 S 
ATOM     81  O   UNL A   1      34.120  33.193  31.253  1.00  0.00    -0.237 OA
ATOM     82  O   UNL A   1      35.793  34.012  29.639  1.00  0.00    -0.237 OA
ATOM     83  O   UNL A   1      34.511  31.978  29.139  1.00  0.00    -0.744 OA
ENDBRANCH  77  80
ENDBRANCH  49  73
BRANCH  61  84
ATOM     84  C   UNL A   1      44.398  34.247  29.567  1.00  0.00     0.023 A 
ATOM     85  C   UNL A   1      45.185  34.542  30.696  1.00  0.00     0.012 A 
ATOM     86  C   UNL A   1      44.196  35.230  28.578  1.00  0.00     0.148 A 
ATOM     87  C   UNL A   1      45.764  35.801  30.841  1.00  0.00     0.002 A 
ATOM     88  C   UNL A   1      44.803  36.472  28.715  1.00  0.00     0.091 A 
ATOM     89  F   UNL A   1      43.437  34.923  27.517  1.00  0.00    -0.205 F 
ATOM     90  C   UNL A   1      45.584  36.760  29.847  1.00  0.00     0.022 A 
BRANCH  88  91
ATOM     91  S   UNL A   1      44.697  37.746  27.453  1.00  0.00     0.127 S 
ATOM     92  O   UNL A   1      45.829  37.407  26.592  1.00  0.00    -0.237 OA
ATOM     93  O   UNL A   1      43.383  37.490  26.863  1.00  0.00    -0.237 OA
ATOM     94  O   UNL A   1      44.811  39.019  28.152  1.00  0.00    -0.744 OA
ENDBRANCH  88  91
ENDBRANCH  61  84
ENDBRANCH  35  36
ENDBRANCH  28  30
ENDBRANCH  27  28
ENDBRANCH  26  27
ENDBRANCH   1  26
TORSDOF 18
ENDMDL
MODEL 2
REMARK VINA RESULT:     -12.2      1.557      2.162
REMARK SMILES CC(C)CN(C)c1cc2c(cc1Cl)C=C(C(=O)OCCOC(=O)c1ccc(-c3c4nc(c(-c5cccc(S(=O)(=O)[O-])c5F)c5ccc([nH]5)c(-c5cccc(S(=O)(=O)[O-])c5F)c5nc(c(-c6cccc(S(=O)(=O)[O-])c6F)c6ccc3[nH]6)C=C5)C=C4)cc1)[C@@H](C(F)(F)F)O2
REMARK SMILES IDX 19 1 18 2 16 3 17 4 15 5 7 6 8 7 12 8 9 9 11 10 13 11 10 12
REMARK SMILES IDX 92 13 14 14 87 15 5 16 6 17 4 18 2 19 1 20 3 21 88 22 89 23
REMARK SMILES IDX 90 24 91 25 20 26 21 27 22 28 23 29 24 30 25 31 86 32 26 33
REMARK SMILES IDX 85 34 27 35 28 36 29 37 79 38 30 39 84 40 78 41 80 42 31 43
REMARK SMILES IDX 83 44 77 45 76 46 32 48 64 49 44 50 63 51 45 52 48 53 62 54
REMARK SMILES IDX 81 55 46 56 47 57 61 59 82 60 49 61 33 62 34 63 42 64 35 65
REMARK SMILES IDX 37 66 43 67 36 68 38 69 39 70 40 71 41 72 65 73 66 74 74 75
REMARK SMILES IDX 67 76 69 77 75 78 68 79 70 80 71 81 72 82 73 83 50 84 51 85
REMARK SMILES IDX 59 86 52 87 54 88 60 89 53 90 55 91 56 92 57 93 58 94
REMARK H PARENT 80 47 48 58
REMARK Flexibility Score: inf
ROOT
ATOM      1  C   UNL A   1      35.209  20.171  24.983  1.00  0.00     0.275 C 
ENDROOT
BRANCH   1   2
ATOM      2  O   UNL A   1      34.040  20.275  24.139  1.00  0.00    -0.459 OA
BRANCH   2   3
ATOM      3  C   UNL A   1      32.865  20.304  24.811  1.00  0.00     0.338 C 
ATOM      4  O   UNL A   1      32.273  19.328  25.254  1.00  0.00    -0.246 OA
BRANCH   3   5
ATOM      5  C   UNL A   1      32.371  21.679  25.000  1.00  0.00     0.087 C 
ATOM      6  C   UNL A   1      31.547  26.616  24.380  1.00  0.00     0.059 A 
ATOM      7  C   UNL A   1      31.196  25.685  25.384  1.00  0.00     0.074 A 
ATOM      8  C   UNL A   1      32.339  26.155  23.307  1.00  0.00     0.065 A 
ATOM      9  C   UNL A   1      31.571  24.339  25.284  1.00  0.00     0.130 A 
ATOM     10  C   UNL A   1      32.611  24.801  23.152  1.00  0.00     0.034 A 
ATOM     11  Cl  UNL A   1      33.089  27.220  22.169  1.00  0.00    -0.082 Cl
ATOM     12  C   UNL A   1      32.219  23.900  24.135  1.00  0.00     0.019 A 
ATOM     13  O   UNL A   1      31.257  23.486  26.315  1.00  0.00    -0.475 OA
ATOM     14  C   UNL A   1      32.520  22.500  23.957  1.00  0.00     0.027 C 
ATOM     15  C   UNL A   1      31.950  22.192  26.347  1.00  0.00     0.316 C 
BRANCH   6  16
ATOM     16  N   UNL A   1      31.118  27.946  24.445  1.00  0.00    -0.373 N 
ATOM     17  C   UNL A   1      30.097  28.347  23.492  1.00  0.00     0.143 C 
BRANCH  16  18
ATOM     18  C   UNL A   1      32.090  28.964  24.898  1.00  0.00     0.119 C 
BRANCH  18  19
ATOM     19  C   UNL A   1      32.364  28.913  26.418  1.00  0.00     0.002 C 
ATOM     20  C   UNL A   1      33.684  28.206  26.742  1.00  0.00     0.009 C 
ATOM     21  C   UNL A   1      32.393  30.315  27.035  1.00  0.00     0.009 C 
ENDBRANCH  18  19
ENDBRANCH  16  18
ENDBRANCH   6  16
BRANCH  15  22
ATOM     22  C   UNL A   1      33.173  22.255  27.279  1.00  0.00     0.430 C 
ATOM     23  F   UNL A   1      34.192  22.953  26.723  1.00  0.00    -0.167 F 
ATOM     24  F   UNL A   1      32.868  22.883  28.443  1.00  0.00    -0.167 F 
ATOM     25  F   UNL A   1      33.649  21.031  27.600  1.00  0.00    -0.167 F 
ENDBRANCH  15  22
ENDBRANCH   3   5
ENDBRANCH   2   3
ENDBRANCH   1   2
BRANCH   1  26
ATOM     26  C   UNL A   1      36.274  21.210  24.623  1.00  0.00     0.275 C 
BRANCH  26  27
ATOM     27  O   UNL A   1      36.934  21.706  25.802  1.00  0.00    -0.458 OA
BRANCH  27  28
ATOM     28  C   UNL A   1      38.272  21.499  25.846  1.00  0.00     0.338 C 
ATOM     29  O   UNL A   1      38.885  20.551  25.388  1.00  0.00    -0.246 OA
BRANCH  28  30
ATOM     30  C   UNL A   1      38.934  22.644  26.491  1.00  0.00     0.060 A 
ATOM     31  C   UNL A   1      40.097  22.486  27.234  1.00  0.00     0.016 A 
ATOM     32  C   UNL A   1      38.462  23.920  26.208  1.00  0.00     0.016 A 
ATOM     33  C   UNL A   1      40.769  23.624  27.702  1.00  0.00     0.010 A 
ATOM     34  C   UNL A   1      39.207  25.047  26.548  1.00  0.00     0.010 A 
ATOM     35  C   UNL A   1      40.357  24.923  27.333  1.00  0.00    -0.014 A 
BRANCH  35  36
ATOM     36  C   UNL A   1      41.125  26.135  27.760  1.00  0.00     0.031 A 
ATOM     37  C   UNL A   1      42.558  26.356  27.320  1.00  0.00     0.074 A 
ATOM     38  C   UNL A   1      40.550  27.034  28.588  1.00  0.00     0.049 A 
ATOM     39  N   UNL A   1      43.349  27.369  27.580  1.00  0.00    -0.248 NA
ATOM     40  C   UNL A   1      43.206  25.300  26.524  1.00  0.00     0.031 C 
ATOM     41  C   UNL A   1      39.230  26.891  29.210  1.00  0.00     0.029 A 
ATOM     42  N   UNL A   1      40.994  28.252  29.044  1.00  0.00    -0.354 N 
ATOM     43  C   UNL A   1      44.586  27.044  27.031  1.00  0.00     0.074 A 
ATOM     44  C   UNL A   1      44.460  25.725  26.458  1.00  0.00     0.031 C 
ATOM     45  C   UNL A   1      38.944  28.004  29.904  1.00  0.00     0.029 A 
ATOM     46  C   UNL A   1      40.066  28.931  29.803  1.00  0.00     0.049 A 
ATOM     47  H   UNL A   1      41.891  28.606  28.847  1.00  0.00     0.167 HD
ATOM     48  C   UNL A   1      45.711  27.794  26.953  1.00  0.00     0.034 A 
ATOM     49  C   UNL A   1      40.097  30.169  30.336  1.00  0.00     0.034 A 
ATOM     50  C   UNL A   1      45.806  29.152  27.408  1.00  0.00     0.049 A 
ATOM     51  C   UNL A   1      41.303  31.038  30.112  1.00  0.00     0.074 A 
ATOM     52  C   UNL A   1      46.861  30.034  27.255  1.00  0.00     0.029 A 
ATOM     53  N   UNL A   1      44.804  29.833  28.077  1.00  0.00    -0.354 N 
ATOM     54  N   UNL A   1      42.401  30.761  29.454  1.00  0.00    -0.248 NA
ATOM     55  C   UNL A   1      41.265  32.397  30.675  1.00  0.00     0.031 C 
ATOM     56  C   UNL A   1      46.492  31.256  27.823  1.00  0.00     0.029 A 
ATOM     57  C   UNL A   1      45.209  31.130  28.330  1.00  0.00     0.049 A 
ATOM     58  H   UNL A   1      43.935  29.450  28.334  1.00  0.00     0.167 HD
ATOM     59  C   UNL A   1      43.177  31.913  29.509  1.00  0.00     0.074 A 
ATOM     60  C   UNL A   1      42.417  32.899  30.246  1.00  0.00     0.031 C 
ATOM     61  C   UNL A   1      44.419  32.121  29.011  1.00  0.00     0.034 A 
BRANCH  48  62
ATOM     62  C   UNL A   1      46.905  27.217  26.240  1.00  0.00     0.023 A 
ATOM     63  C   UNL A   1      47.025  27.411  24.849  1.00  0.00     0.012 A 
ATOM     64  C   UNL A   1      47.954  26.594  26.947  1.00  0.00     0.148 A 
ATOM     65  C   UNL A   1      48.161  26.980  24.167  1.00  0.00     0.002 A 
ATOM     66  C   UNL A   1      49.098  26.198  26.265  1.00  0.00     0.091 A 
ATOM     67  F   UNL A   1      47.817  26.420  28.269  1.00  0.00    -0.205 F 
ATOM     68  C   UNL A   1      49.200  26.384  24.876  1.00  0.00     0.022 A 
BRANCH  66  69
ATOM     69  S   UNL A   1      50.527  25.477  27.082  1.00  0.00     0.127 S 
ATOM     70  O   UNL A   1      49.954  24.264  27.665  1.00  0.00    -0.237 OA
ATOM     71  O   UNL A   1      51.435  25.243  25.959  1.00  0.00    -0.237 OA
ATOM     72  O   UNL A   1      50.985  26.466  28.047  1.00  0.00    -0.744 OA
ENDBRANCH  66  69
ENDBRANCH  48  62
BRANCH  49  73
ATOM     73  C   UNL A   1      38.890  30.696  31.031  1.00  0.00     0.023 A 
ATOM     74  C   UNL A   1      38.781  30.535  32.427  1.00  0.00     0.012 A 
ATOM     75  C   UNL A   1      37.893  31.410  30.341  1.00  0.00     0.148 A 
ATOM     76  C   UNL A   1      37.694  31.066  33.122  1.00  0.00     0.002 A 
ATOM     77  C   UNL A   1      36.834  31.972  31.045  1.00  0.00     0.091 A 
ATOM     78  F   UNL A   1      38.015  31.544  29.013  1.00  0.00    -0.205 F 
ATOM     79  C   UNL A   1      36.728  31.793  32.433  1.00  0.00     0.022 A 
BRANCH  77  80
ATOM     80  S   UNL A   1      35.599  33.017  30.264  1.00  0.00     0.127 S 
ATOM     81  O   UNL A   1      35.013  33.698  31.417  1.00  0.00    -0.237 OA
ATOM     82  O   UNL A   1      36.424  33.865  29.403  1.00  0.00    -0.237 OA
ATOM     83  O   UNL A   1      34.709  32.113  29.548  1.00  0.00    -0.744 OA
ENDBRANCH  77  80
ENDBRANCH  49  73
BRANCH  61  84
ATOM     84  C   UNL A   1      45.056  33.463  29.224  1.00  0.00     0.023 A 
ATOM     85  C   UNL A   1      45.859  33.668  30.362  1.00  0.00     0.012 A 
ATOM     86  C   UNL A   1      44.982  34.460  28.231  1.00  0.00     0.148 A 
ATOM     87  C   UNL A   1      46.581  34.851  30.511  1.00  0.00     0.002 A 
ATOM     88  C   UNL A   1      45.729  35.622  28.372  1.00  0.00     0.091 A 
ATOM     89  F   UNL A   1      44.204  34.240  27.162  1.00  0.00    -0.205 F 
ATOM     90  C   UNL A   1      46.526  35.820  29.513  1.00  0.00     0.022 A 
BRANCH  88  91
ATOM     91  S   UNL A   1      45.788  36.896  27.107  1.00  0.00     0.127 S 
ATOM     92  O   UNL A   1      44.395  37.337  27.063  1.00  0.00    -0.237 OA
ATOM     93  O   UNL A   1      46.718  37.866  27.686  1.00  0.00    -0.237 OA
ATOM     94  O   UNL A   1      46.269  36.242  25.897  1.00  0.00    -0.744 OA
ENDBRANCH  88  91
ENDBRANCH  61  84
ENDBRANCH  35  36
ENDBRANCH  28  30
ENDBRANCH  27  28
ENDBRANCH  26  27
ENDBRANCH   1  26
TORSDOF 18
ENDMDL
MODEL 3
REMARK VINA RESULT:     -11.6      1.419      7.605
REMARK SMILES CC(C)CN(C)c1cc2c(cc1Cl)C=C(C(=O)OCCOC(=O)c1ccc(-c3c4nc(c(-c5cccc(S(=O)(=O)[O-])c5F)c5ccc([nH]5)c(-c5cccc(S(=O)(=O)[O-])c5F)c5nc(c(-c6cccc(S(=O)(=O)[O-])c6F)c6ccc3[nH]6)C=C5)C=C4)cc1)[C@@H](C(F)(F)F)O2
REMARK SMILES IDX 19 1 18 2 16 3 17 4 15 5 7 6 8 7 12 8 9 9 11 10 13 11 10 12
REMARK SMILES IDX 92 13 14 14 87 15 5 16 6 17 4 18 2 19 1 20 3 21 88 22 89 23
REMARK SMILES IDX 90 24 91 25 20 26 21 27 22 28 23 29 24 30 25 31 86 32 26 33
REMARK SMILES IDX 85 34 27 35 28 36 29 37 79 38 30 39 84 40 78 41 80 42 31 43
REMARK SMILES IDX 83 44 77 45 76 46 32 48 64 49 44 50 63 51 45 52 48 53 62 54
REMARK SMILES IDX 81 55 46 56 47 57 61 59 82 60 49 61 33 62 34 63 42 64 35 65
REMARK SMILES IDX 37 66 43 67 36 68 38 69 39 70 40 71 41 72 65 73 66 74 74 75
REMARK SMILES IDX 67 76 69 77 75 78 68 79 70 80 71 81 72 82 73 83 50 84 51 85
REMARK SMILES IDX 59 86 52 87 54 88 60 89 53 90 55 91 56 92 57 93 58 94
REMARK H PARENT 80 47 48 58
REMARK Flexibility Score: inf
ROOT
ATOM      1  C   UNL A   1      37.378  20.518  24.383  1.00  0.00     0.275 C 
ENDROOT
BRANCH   1   2
ATOM      2  O   UNL A   1      36.345  21.099  25.210  1.00  0.00    -0.459 OA
BRANCH   2   3
ATOM      3  C   UNL A   1      35.089  20.701  24.900  1.00  0.00     0.338 C 
ATOM      4  O   UNL A   1      34.748  19.554  24.640  1.00  0.00    -0.246 OA
BRANCH   3   5
ATOM      5  C   UNL A   1      34.128  21.817  24.949  1.00  0.00     0.087 C 
ATOM      6  C   UNL A   1      31.960  26.323  24.285  1.00  0.00     0.059 A 
ATOM      7  C   UNL A   1      31.619  25.175  25.038  1.00  0.00     0.074 A 
ATOM      8  C   UNL A   1      33.178  26.302  23.575  1.00  0.00     0.065 A 
ATOM      9  C   UNL A   1      32.435  24.036  25.027  1.00  0.00     0.130 A 
ATOM     10  C   UNL A   1      33.926  25.135  23.474  1.00  0.00     0.034 A 
ATOM     11  Cl  UNL A   1      33.870  27.715  22.856  1.00  0.00    -0.082 Cl
ATOM     12  C   UNL A   1      33.547  24.007  24.192  1.00  0.00     0.019 A 
ATOM     13  O   UNL A   1      32.092  22.969  25.821  1.00  0.00    -0.475 OA
ATOM     14  C   UNL A   1      34.342  22.808  24.079  1.00  0.00     0.027 C 
ATOM     15  C   UNL A   1      33.122  21.950  26.056  1.00  0.00     0.316 C 
BRANCH   6  16
ATOM     16  N   UNL A   1      31.115  27.436  24.243  1.00  0.00    -0.373 N 
ATOM     17  C   UNL A   1      30.288  27.579  23.056  1.00  0.00     0.143 C 
BRANCH  16  18
ATOM     18  C   UNL A   1      31.552  28.663  24.941  1.00  0.00     0.119 C 
BRANCH  18  19
ATOM     19  C   UNL A   1      32.331  28.378  26.245  1.00  0.00     0.002 C 
ATOM     20  C   UNL A   1      33.371  29.464  26.544  1.00  0.00     0.009 C 
ATOM     21  C   UNL A   1      31.393  28.253  27.450  1.00  0.00     0.009 C 
ENDBRANCH  18  19
ENDBRANCH  16  18
ENDBRANCH   6  16
BRANCH  15  22
ATOM     22  C   UNL A   1      33.852  22.215  27.385  1.00  0.00     0.430 C 
ATOM     23  F   UNL A   1      33.005  22.661  28.343  1.00  0.00    -0.167 F 
ATOM     24  F   UNL A   1      34.414  21.077  27.869  1.00  0.00    -0.167 F 
ATOM     25  F   UNL A   1      34.843  23.127  27.263  1.00  0.00    -0.167 F 
ENDBRANCH  15  22
ENDBRANCH   3   5
ENDBRANCH   2   3
ENDBRANCH   1   2
BRANCH   1  26
ATOM     26  C   UNL A   1      38.118  19.384  25.096  1.00  0.00     0.275 C 
BRANCH  26  27
ATOM     27  O   UNL A   1      38.774  19.860  26.286  1.00  0.00    -0.458 OA
BRANCH  27  28
ATOM     28  C   UNL A   1      40.116  20.006  26.186  1.00  0.00     0.338 C 
ATOM     29  O   UNL A   1      40.915  19.193  25.756  1.00  0.00    -0.246 OA
BRANCH  28  30
ATOM     30  C   UNL A   1      40.507  21.355  26.625  1.00  0.00     0.060 A 
ATOM     31  C   UNL A   1      41.612  21.563  27.441  1.00  0.00     0.016 A 
ATOM     32  C   UNL A   1      39.839  22.443  26.076  1.00  0.00     0.016 A 
ATOM     33  C   UNL A   1      42.027  22.875  27.708  1.00  0.00     0.010 A 
ATOM     34  C   UNL A   1      40.338  23.735  26.223  1.00  0.00     0.010 A 
ATOM     35  C   UNL A   1      41.422  23.981  27.071  1.00  0.00    -0.014 A 
BRANCH  35  36
ATOM     36  C   UNL A   1      41.921  25.375  27.288  1.00  0.00     0.031 A 
ATOM     37  C   UNL A   1      41.129  26.379  28.101  1.00  0.00     0.074 A 
ATOM     38  C   UNL A   1      43.081  25.767  26.717  1.00  0.00     0.049 A 
ATOM     39  N   UNL A   1      41.439  27.615  28.405  1.00  0.00    -0.248 NA
ATOM     40  C   UNL A   1      39.807  25.968  28.606  1.00  0.00     0.031 C 
ATOM     41  C   UNL A   1      43.886  24.963  25.793  1.00  0.00     0.029 A 
ATOM     42  N   UNL A   1      43.792  26.937  26.834  1.00  0.00    -0.354 N 
ATOM     43  C   UNL A   1      40.338  28.135  29.080  1.00  0.00     0.074 A 
ATOM     44  C   UNL A   1      39.332  27.099  29.108  1.00  0.00     0.031 C 
ATOM     45  C   UNL A   1      45.009  25.630  25.486  1.00  0.00     0.029 A 
ATOM     46  C   UNL A   1      44.996  26.922  26.165  1.00  0.00     0.049 A 
ATOM     47  H   UNL A   1      43.471  27.713  27.347  1.00  0.00     0.167 HD
ATOM     48  C   UNL A   1      40.191  29.341  29.678  1.00  0.00     0.034 A 
ATOM     49  C   UNL A   1      45.994  27.828  26.122  1.00  0.00     0.034 A 
ATOM     50  C   UNL A   1      41.230  30.329  29.763  1.00  0.00     0.049 A 
ATOM     51  C   UNL A   1      45.869  29.100  26.913  1.00  0.00     0.074 A 
ATOM     52  C   UNL A   1      41.219  31.525  30.458  1.00  0.00     0.029 A 
ATOM     53  N   UNL A   1      42.471  30.224  29.159  1.00  0.00    -0.354 N 
ATOM     54  N   UNL A   1      44.878  29.499  27.671  1.00  0.00    -0.248 NA
ATOM     55  C   UNL A   1      47.006  30.032  26.870  1.00  0.00     0.031 C 
ATOM     56  C   UNL A   1      42.461  32.140  30.284  1.00  0.00     0.029 A 
ATOM     57  C   UNL A   1      43.241  31.326  29.479  1.00  0.00     0.049 A 
ATOM     58  H   UNL A   1      42.760  29.476  28.588  1.00  0.00     0.167 HD
ATOM     59  C   UNL A   1      45.276  30.718  28.207  1.00  0.00     0.074 A 
ATOM     60  C   UNL A   1      46.608  30.984  27.705  1.00  0.00     0.031 C 
ATOM     61  C   UNL A   1      44.587  31.550  29.023  1.00  0.00     0.034 A 
BRANCH  48  62
ATOM     62  C   UNL A   1      38.903  29.627  30.403  1.00  0.00     0.023 A 
ATOM     63  C   UNL A   1      38.697  29.055  31.674  1.00  0.00     0.012 A 
ATOM     64  C   UNL A   1      37.959  30.541  29.892  1.00  0.00     0.148 A 
ATOM     65  C   UNL A   1      37.565  29.371  32.421  1.00  0.00     0.002 A 
ATOM     66  C   UNL A   1      36.848  30.877  30.658  1.00  0.00     0.091 A 
ATOM     67  F   UNL A   1      38.176  31.072  28.681  1.00  0.00    -0.205 F 
ATOM     68  C   UNL A   1      36.647  30.289  31.918  1.00  0.00     0.022 A 
BRANCH  66  69
ATOM     69  S   UNL A   1      35.633  32.095  30.141  1.00  0.00     0.127 S 
ATOM     70  O   UNL A   1      34.815  32.228  31.346  1.00  0.00    -0.237 OA
ATOM     71  O   UNL A   1      36.472  33.256  29.844  1.00  0.00    -0.237 OA
ATOM     72  O   UNL A   1      34.946  31.522  28.992  1.00  0.00    -0.744 OA
ENDBRANCH  66  69
ENDBRANCH  48  62
BRANCH  49  73
ATOM     73  C   UNL A   1      47.250  27.499  25.393  1.00  0.00     0.023 A 
ATOM     74  C   UNL A   1      48.272  26.805  26.073  1.00  0.00     0.012 A 
ATOM     75  C   UNL A   1      47.413  27.801  24.029  1.00  0.00     0.148 A 
ATOM     76  C   UNL A   1      49.439  26.427  25.408  1.00  0.00     0.002 A 
ATOM     77  C   UNL A   1      48.561  27.386  23.362  1.00  0.00     0.091 A 
ATOM     78  F   UNL A   1      46.431  28.468  23.406  1.00  0.00    -0.205 F 
ATOM     79  C   UNL A   1      49.578  26.708  24.052  1.00  0.00     0.022 A 
BRANCH  77  80
ATOM     80  S   UNL A   1      48.785  27.603  21.593  1.00  0.00     0.127 S 
ATOM     81  O   UNL A   1      49.484  28.885  21.536  1.00  0.00    -0.237 OA
ATOM     82  O   UNL A   1      49.604  26.440  21.249  1.00  0.00    -0.237 OA
ATOM     83  O   UNL A   1      47.447  27.589  21.020  1.00  0.00    -0.744 OA
ENDBRANCH  77  80
ENDBRANCH  49  73
BRANCH  61  84
ATOM     84  C   UNL A   1      45.240  32.833  29.449  1.00  0.00     0.023 A 
ATOM     85  C   UNL A   1      46.067  32.835  30.588  1.00  0.00     0.012 A 
ATOM     86  C   UNL A   1      45.156  33.985  28.642  1.00  0.00     0.148 A 
ATOM     87  C   UNL A   1      46.802  33.971  30.921  1.00  0.00     0.002 A 
ATOM     88  C   UNL A   1      45.916  35.102  28.964  1.00  0.00     0.091 A 
ATOM     89  F   UNL A   1      44.354  33.955  27.568  1.00  0.00    -0.205 F 
ATOM     90  C   UNL A   1      46.737  35.097  30.104  1.00  0.00     0.022 A 
BRANCH  88  91
ATOM     91  S   UNL A   1      45.961  36.572  27.933  1.00  0.00     0.127 S 
ATOM     92  O   UNL A   1      47.397  36.839  27.859  1.00  0.00    -0.237 OA
ATOM     93  O   UNL A   1      45.364  36.095  26.686  1.00  0.00    -0.237 OA
ATOM     94  O   UNL A   1      45.179  37.582  28.633  1.00  0.00    -0.744 OA
ENDBRANCH  88  91
ENDBRANCH  61  84
ENDBRANCH  35  36
ENDBRANCH  28  30
ENDBRANCH  27  28
ENDBRANCH  26  27
ENDBRANCH   1  26
TORSDOF 18
ENDMDL
