MODEL 1
REMARK VINA RESULT:     -10.3      0.000      0.000
REMARK SMILES O=C(OCCOC(=O)c1ccc(C[NH2+]C[C@H]2C[C@H](O)C2)nc1)c1ccc(-c2c3nc(c(-c4cccc(S(=O)(=O)[O-])c4F)c4ccc([nH]4)c(-c4cccc(S(=O)(=O)[O-])c4F)c4nc(c(-c5cccc(S(=O)(=O)[O-])c5F)c5ccc2[nH]5)C=C4)C=C3)cc1
REMARK SMILES IDX 5 1 4 2 3 3 2 4 1 5 23 6 24 7 85 8 25 9 84 10 26 11 27 12
REMARK SMILES IDX 28 13 78 14 29 15 83 16 77 17 79 18 30 19 82 20 76 21 75 22
REMARK SMILES IDX 31 24 63 25 43 26 62 27 44 28 47 29 61 30 80 31 45 32 46 33
REMARK SMILES IDX 60 35 81 36 48 37 32 38 33 39 41 40 34 41 36 42 42 43 35 44
REMARK SMILES IDX 37 45 38 46 39 47 40 48 64 49 65 50 73 51 66 52 68 53 74 54
REMARK SMILES IDX 67 55 69 56 70 57 71 58 72 59 49 60 50 61 58 62 51 63 53 64
REMARK SMILES IDX 59 65 52 66 54 67 55 68 56 69 57 70 6 71 7 72 8 73 9 74
REMARK SMILES IDX 10 75 22 76 11 77 21 78 12 79 13 80 14 81 15 84 16 85 20 86
REMARK SMILES IDX 17 87 18 88 19 89
REMARK H PARENT 79 23 47 34 14 82 14 83 19 90
REMARK Flexibility Score: inf
ROOT
ATOM      1  C   UNL A   1      31.766  28.723  26.515  1.00  0.00     0.275 C 
ENDROOT
BRANCH   1   2
ATOM      2  C   UNL A   1      31.821  30.251  26.558  1.00  0.00     0.275 C 
BRANCH   2   3
ATOM      3  O   UNL A   1      33.144  30.813  26.485  1.00  0.00    -0.458 OA
BRANCH   3   4
ATOM      4  C   UNL A   1      33.769  31.678  27.321  1.00  0.00     0.338 C 
ATOM      5  O   UNL A   1      33.340  32.827  27.406  1.00  0.00    -0.246 OA
BRANCH   4   6
ATOM      6  C   UNL A   1      35.038  31.356  28.043  1.00  0.00     0.060 A 
ATOM      7  C   UNL A   1      36.188  32.147  28.052  1.00  0.00     0.016 A 
ATOM      8  C   UNL A   1      35.081  30.121  28.721  1.00  0.00     0.016 A 
ATOM      9  C   UNL A   1      37.328  31.747  28.752  1.00  0.00     0.010 A 
ATOM     10  C   UNL A   1      36.221  29.715  29.424  1.00  0.00     0.010 A 
ATOM     11  C   UNL A   1      37.358  30.525  29.428  1.00  0.00    -0.014 A 
BRANCH  11  12
ATOM     12  C   UNL A   1      38.643  30.061  29.991  1.00  0.00     0.031 A 
ATOM     13  C   UNL A   1      39.063  30.573  31.337  1.00  0.00     0.074 A 
ATOM     14  C   UNL A   1      39.380  29.139  29.348  1.00  0.00     0.049 A 
ATOM     15  N   UNL A   1      40.027  30.151  32.110  1.00  0.00    -0.248 NA
ATOM     16  C   UNL A   1      38.274  31.681  31.902  1.00  0.00     0.031 C 
ATOM     17  C   UNL A   1      39.055  28.563  28.046  1.00  0.00     0.029 A 
ATOM     18  N   UNL A   1      40.554  28.525  29.700  1.00  0.00    -0.354 N 
ATOM     19  C   UNL A   1      39.953  30.927  33.258  1.00  0.00     0.074 A 
ATOM     20  C   UNL A   1      38.873  31.871  33.067  1.00  0.00     0.031 C 
ATOM     21  C   UNL A   1      40.028  27.711  27.685  1.00  0.00     0.029 A 
ATOM     22  C   UNL A   1      41.032  27.660  28.745  1.00  0.00     0.049 A 
ATOM     23  H   UNL A   1      41.012  28.687  30.557  1.00  0.00     0.167 HD
ATOM     24  C   UNL A   1      40.694  30.838  34.385  1.00  0.00     0.034 A 
ATOM     25  C   UNL A   1      42.142  26.896  28.741  1.00  0.00     0.034 A 
ATOM     26  C   UNL A   1      41.777  29.911  34.556  1.00  0.00     0.049 A 
ATOM     27  C   UNL A   1      42.977  26.837  29.994  1.00  0.00     0.074 A 
ATOM     28  C   UNL A   1      42.587  29.723  35.659  1.00  0.00     0.029 A 
ATOM     29  N   UNL A   1      42.218  29.032  33.578  1.00  0.00    -0.354 N 
ATOM     30  N   UNL A   1      42.789  27.453  31.137  1.00  0.00    -0.248 NA
ATOM     31  C   UNL A   1      44.136  25.934  29.985  1.00  0.00     0.031 C 
ATOM     32  C   UNL A   1      43.535  28.744  35.339  1.00  0.00     0.029 A 
ATOM     33  C   UNL A   1      43.299  28.307  34.044  1.00  0.00     0.049 A 
ATOM     34  H   UNL A   1      41.819  28.936  32.683  1.00  0.00     0.167 HD
ATOM     35  C   UNL A   1      43.772  26.977  31.998  1.00  0.00     0.074 A 
ATOM     36  C   UNL A   1      44.548  26.012  31.243  1.00  0.00     0.031 C 
ATOM     37  C   UNL A   1      44.017  27.310  33.290  1.00  0.00     0.034 A 
BRANCH  24  38
ATOM     38  C   UNL A   1      40.331  31.759  35.515  1.00  0.00     0.023 A 
ATOM     39  C   UNL A   1      41.164  32.859  35.806  1.00  0.00     0.012 A 
ATOM     40  C   UNL A   1      39.180  31.536  36.293  1.00  0.00     0.148 A 
ATOM     41  C   UNL A   1      40.876  33.703  36.877  1.00  0.00     0.002 A 
ATOM     42  C   UNL A   1      38.880  32.402  37.337  1.00  0.00     0.091 A 
ATOM     43  F   UNL A   1      38.420  30.467  36.017  1.00  0.00    -0.205 F 
ATOM     44  C   UNL A   1      39.731  33.479  37.638  1.00  0.00     0.022 A 
BRANCH  42  45
ATOM     45  S   UNL A   1      37.403  32.226  38.342  1.00  0.00     0.127 S 
ATOM     46  O   UNL A   1      37.844  32.793  39.616  1.00  0.00    -0.237 OA
ATOM     47  O   UNL A   1      36.435  33.045  37.612  1.00  0.00    -0.237 OA
ATOM     48  O   UNL A   1      37.100  30.802  38.360  1.00  0.00    -0.744 OA
ENDBRANCH  42  45
ENDBRANCH  24  38
BRANCH  25  49
ATOM     49  C   UNL A   1      42.462  26.060  27.548  1.00  0.00     0.023 A 
ATOM     50  C   UNL A   1      43.237  26.604  26.504  1.00  0.00     0.012 A 
ATOM     51  C   UNL A   1      42.034  24.718  27.458  1.00  0.00     0.148 A 
ATOM     52  C   UNL A   1      43.546  25.843  25.377  1.00  0.00     0.002 A 
ATOM     53  C   UNL A   1      42.386  23.948  26.356  1.00  0.00     0.091 A 
ATOM     54  F   UNL A   1      41.305  24.212  28.463  1.00  0.00    -0.205 F 
ATOM     55  C   UNL A   1      43.127  24.515  25.306  1.00  0.00     0.022 A 
BRANCH  53  56
ATOM     56  S   UNL A   1      41.989  22.198  26.220  1.00  0.00     0.127 S 
ATOM     57  O   UNL A   1      42.701  21.826  25.001  1.00  0.00    -0.237 OA
ATOM     58  O   UNL A   1      42.560  21.667  27.458  1.00  0.00    -0.237 OA
ATOM     59  O   UNL A   1      40.533  22.102  26.151  1.00  0.00    -0.744 OA
ENDBRANCH  53  56
ENDBRANCH  25  49
BRANCH  37  60
ATOM     60  C   UNL A   1      45.149  26.606  33.990  1.00  0.00     0.023 A 
ATOM     61  C   UNL A   1      46.463  27.097  33.863  1.00  0.00     0.012 A 
ATOM     62  C   UNL A   1      44.896  25.517  34.847  1.00  0.00     0.148 A 
ATOM     63  C   UNL A   1      47.512  26.497  34.558  1.00  0.00     0.002 A 
ATOM     64  C   UNL A   1      45.939  24.955  35.573  1.00  0.00     0.091 A 
ATOM     65  F   UNL A   1      43.643  25.048  34.936  1.00  0.00    -0.205 F 
ATOM     66  C   UNL A   1      47.249  25.437  35.422  1.00  0.00     0.022 A 
BRANCH  64  67
ATOM     67  S   UNL A   1      45.661  23.656  36.782  1.00  0.00     0.127 S 
ATOM     68  O   UNL A   1      44.714  24.295  37.694  1.00  0.00    -0.237 OA
ATOM     69  O   UNL A   1      45.093  22.582  35.967  1.00  0.00    -0.237 OA
ATOM     70  O   UNL A   1      46.971  23.354  37.343  1.00  0.00    -0.744 OA
ENDBRANCH  64  67
ENDBRANCH  37  60
ENDBRANCH  11  12
ENDBRANCH   4   6
ENDBRANCH   3   4
ENDBRANCH   2   3
ENDBRANCH   1   2
BRANCH   1  71
ATOM     71  O   UNL A   1      32.124  28.182  25.238  1.00  0.00    -0.458 OA
BRANCH  71  72
ATOM     72  C   UNL A   1      31.127  27.501  24.616  1.00  0.00     0.339 C 
ATOM     73  O   UNL A   1      30.256  27.971  23.903  1.00  0.00    -0.246 OA
BRANCH  72  74
ATOM     74  C   UNL A   1      31.322  26.059  24.804  1.00  0.00     0.078 A 
ATOM     75  C   UNL A   1      30.589  25.294  25.707  1.00  0.00     0.019 A 
ATOM     76  C   UNL A   1      32.307  25.439  24.053  1.00  0.00     0.127 A 
ATOM     77  C   UNL A   1      30.880  23.933  25.827  1.00  0.00     0.031 A 
ATOM     78  N   UNL A   1      32.628  24.131  24.176  1.00  0.00    -0.254 NA
ATOM     79  C   UNL A   1      31.913  23.387  25.062  1.00  0.00     0.094 A 
BRANCH  79  80
ATOM     80  C   UNL A   1      32.241  21.906  25.160  1.00  0.00     0.317 C 
BRANCH  80  81
ATOM     81  N   UNL A   1      33.405  21.565  24.331  1.00  0.00    -0.341 N 
ATOM     82  H   UNL A   1      33.744  22.416  23.882  1.00  0.00     0.346 HD
ATOM     83  H   UNL A   1      33.101  20.869  23.650  1.00  0.00     0.346 HD
BRANCH  81  84
ATOM     84  C   UNL A   1      34.497  20.977  25.097  1.00  0.00     0.264 C 
BRANCH  84  85
ATOM     85  C   UNL A   1      35.779  21.809  25.117  1.00  0.00     0.049 C 
ATOM     86  C   UNL A   1      35.718  23.129  25.937  1.00  0.00     0.041 C 
ATOM     87  C   UNL A   1      36.247  22.703  23.925  1.00  0.00     0.041 C 
ATOM     88  C   UNL A   1      36.785  23.703  24.971  1.00  0.00     0.115 C 
BRANCH  88  89
ATOM     89  O   UNL A   1      38.153  23.525  25.378  1.00  0.00    -0.393 OA
ATOM     90  H   UNL A   1      38.179  23.185  26.287  1.00  0.00     0.210 HD
ENDBRANCH  88  89
ENDBRANCH  84  85
ENDBRANCH  81  84
ENDBRANCH  80  81
ENDBRANCH  79  80
ENDBRANCH  72  74
ENDBRANCH  71  72
ENDBRANCH   1  71
TORSDOF 19
ENDMDL
MODEL 2
REMARK VINA RESULT:     -10.3      5.201     10.472
REMARK SMILES O=C(OCCOC(=O)c1ccc(C[NH2+]C[C@H]2C[C@H](O)C2)nc1)c1ccc(-c2c3nc(c(-c4cccc(S(=O)(=O)[O-])c4F)c4ccc([nH]4)c(-c4cccc(S(=O)(=O)[O-])c4F)c4nc(c(-c5cccc(S(=O)(=O)[O-])c5F)c5ccc2[nH]5)C=C4)C=C3)cc1
REMARK SMILES IDX 5 1 4 2 3 3 2 4 1 5 23 6 24 7 85 8 25 9 84 10 26 11 27 12
REMARK SMILES IDX 28 13 78 14 29 15 83 16 77 17 79 18 30 19 82 20 76 21 75 22
REMARK SMILES IDX 31 24 63 25 43 26 62 27 44 28 47 29 61 30 80 31 45 32 46 33
REMARK SMILES IDX 60 35 81 36 48 37 32 38 33 39 41 40 34 41 36 42 42 43 35 44
REMARK SMILES IDX 37 45 38 46 39 47 40 48 64 49 65 50 73 51 66 52 68 53 74 54
REMARK SMILES IDX 67 55 69 56 70 57 71 58 72 59 49 60 50 61 58 62 51 63 53 64
REMARK SMILES IDX 59 65 52 66 54 67 55 68 56 69 57 70 6 71 7 72 8 73 9 74
REMARK SMILES IDX 10 75 22 76 11 77 21 78 12 79 13 80 14 81 15 84 16 85 20 86
REMARK SMILES IDX 17 87 18 88 19 89
REMARK H PARENT 79 23 47 34 14 82 14 83 19 90
REMARK Flexibility Score: inf
ROOT
ATOM      1  C   UNL A   1      35.660  20.712  25.059  1.00  0.00     0.275 C 
ENDROOT
BRANCH   1   2
ATOM      2  C   UNL A   1      36.894  21.488  25.523  1.00  0.00     0.275 C 
BRANCH   2   3
ATOM      3  O   UNL A   1      38.146  20.801  25.342  1.00  0.00    -0.458 OA
BRANCH   3   4
ATOM      4  C   UNL A   1      39.342  20.999  25.948  1.00  0.00     0.338 C 
ATOM      5  O   UNL A   1      40.060  20.024  26.163  1.00  0.00    -0.246 OA
BRANCH   4   6
ATOM      6  C   UNL A   1      39.781  22.318  26.496  1.00  0.00     0.060 A 
ATOM      7  C   UNL A   1      39.389  23.568  26.013  1.00  0.00     0.016 A 
ATOM      8  C   UNL A   1      40.713  22.282  27.553  1.00  0.00     0.016 A 
ATOM      9  C   UNL A   1      39.869  24.744  26.593  1.00  0.00     0.010 A 
ATOM     10  C   UNL A   1      41.198  23.457  28.137  1.00  0.00     0.010 A 
ATOM     11  C   UNL A   1      40.787  24.698  27.645  1.00  0.00    -0.014 A 
BRANCH  11  12
ATOM     12  C   UNL A   1      41.408  25.960  28.097  1.00  0.00     0.031 A 
ATOM     13  C   UNL A   1      42.838  26.226  27.734  1.00  0.00     0.074 A 
ATOM     14  C   UNL A   1      40.682  26.886  28.748  1.00  0.00     0.049 A 
ATOM     15  N   UNL A   1      43.517  27.337  27.836  1.00  0.00    -0.248 NA
ATOM     16  C   UNL A   1      43.594  25.106  27.150  1.00  0.00     0.031 C 
ATOM     17  C   UNL A   1      39.281  26.737  29.133  1.00  0.00     0.029 A 
ATOM     18  N   UNL A   1      41.021  28.134  29.202  1.00  0.00    -0.354 N 
ATOM     19  C   UNL A   1      44.772  27.057  27.315  1.00  0.00     0.074 A 
ATOM     20  C   UNL A   1      44.775  25.662  26.931  1.00  0.00     0.031 C 
ATOM     21  C   UNL A   1      38.889  27.832  29.804  1.00  0.00     0.029 A 
ATOM     22  C   UNL A   1      40.005  28.772  29.872  1.00  0.00     0.049 A 
ATOM     23  H   UNL A   1      41.909  28.537  29.061  1.00  0.00     0.167 HD
ATOM     24  C   UNL A   1      45.817  27.897  27.139  1.00  0.00     0.034 A 
ATOM     25  C   UNL A   1      39.975  29.987  30.453  1.00  0.00     0.034 A 
ATOM     26  C   UNL A   1      45.811  29.275  27.543  1.00  0.00     0.049 A 
ATOM     27  C   UNL A   1      41.164  30.896  30.276  1.00  0.00     0.074 A 
ATOM     28  C   UNL A   1      46.807  30.221  27.401  1.00  0.00     0.029 A 
ATOM     29  N   UNL A   1      44.756  29.895  28.195  1.00  0.00    -0.354 N 
ATOM     30  N   UNL A   1      42.282  30.672  29.626  1.00  0.00    -0.248 NA
ATOM     31  C   UNL A   1      41.068  32.245  30.853  1.00  0.00     0.031 C 
ATOM     32  C   UNL A   1      46.363  31.410  27.990  1.00  0.00     0.029 A 
ATOM     33  C   UNL A   1      45.080  31.209  28.478  1.00  0.00     0.049 A 
ATOM     34  H   UNL A   1      43.900  29.464  28.423  1.00  0.00     0.167 HD
ATOM     35  C   UNL A   1      43.000  31.862  29.672  1.00  0.00     0.074 A 
ATOM     36  C   UNL A   1      42.183  32.808  30.407  1.00  0.00     0.031 C 
ATOM     37  C   UNL A   1      44.224  32.147  29.161  1.00  0.00     0.034 A 
BRANCH  24  38
ATOM     38  C   UNL A   1      47.036  27.336  26.461  1.00  0.00     0.023 A 
ATOM     39  C   UNL A   1      47.175  27.473  25.064  1.00  0.00     0.012 A 
ATOM     40  C   UNL A   1      48.033  26.669  27.195  1.00  0.00     0.148 A 
ATOM     41  C   UNL A   1      48.273  26.923  24.404  1.00  0.00     0.002 A 
ATOM     42  C   UNL A   1      49.142  26.153  26.535  1.00  0.00     0.091 A 
ATOM     43  F   UNL A   1      47.864  26.523  28.517  1.00  0.00    -0.205 F 
ATOM     44  C   UNL A   1      49.259  26.270  25.139  1.00  0.00     0.022 A 
BRANCH  42  45
ATOM     45  S   UNL A   1      50.487  25.339  27.399  1.00  0.00     0.127 S 
ATOM     46  O   UNL A   1      51.390  25.010  26.297  1.00  0.00    -0.237 OA
ATOM     47  O   UNL A   1      50.969  26.398  28.287  1.00  0.00    -0.237 OA
ATOM     48  O   UNL A   1      49.890  24.200  28.084  1.00  0.00    -0.744 OA
ENDBRANCH  42  45
ENDBRANCH  24  38
BRANCH  25  49
ATOM     49  C   UNL A   1      38.744  30.440  31.162  1.00  0.00     0.023 A 
ATOM     50  C   UNL A   1      38.611  30.204  32.545  1.00  0.00     0.012 A 
ATOM     51  C   UNL A   1      37.719  31.134  30.482  1.00  0.00     0.148 A 
ATOM     52  C   UNL A   1      37.467  30.615  33.230  1.00  0.00     0.002 A 
ATOM     53  C   UNL A   1      36.604  31.584  31.179  1.00  0.00     0.091 A 
ATOM     54  F   UNL A   1      37.864  31.358  29.169  1.00  0.00    -0.205 F 
ATOM     55  C   UNL A   1      36.468  31.309  32.550  1.00  0.00     0.022 A 
BRANCH  53  56
ATOM     56  S   UNL A   1      35.315  32.582  30.417  1.00  0.00     0.127 S 
ATOM     57  O   UNL A   1      34.359  32.718  31.512  1.00  0.00    -0.237 OA
ATOM     58  O   UNL A   1      36.046  33.803  30.077  1.00  0.00    -0.237 OA
ATOM     59  O   UNL A   1      34.836  31.836  29.256  1.00  0.00    -0.744 OA
ENDBRANCH  53  56
ENDBRANCH  25  49
BRANCH  37  60
ATOM     60  C   UNL A   1      44.749  33.545  29.344  1.00  0.00     0.023 A 
ATOM     61  C   UNL A   1      45.467  33.875  30.510  1.00  0.00     0.012 A 
ATOM     62  C   UNL A   1      44.611  34.503  28.320  1.00  0.00     0.148 A 
ATOM     63  C   UNL A   1      46.018  35.147  30.665  1.00  0.00     0.002 A 
ATOM     64  C   UNL A   1      45.204  35.752  28.461  1.00  0.00     0.091 A 
ATOM     65  F   UNL A   1      43.903  34.178  27.229  1.00  0.00    -0.205 F 
ATOM     66  C   UNL A   1      45.898  36.079  29.637  1.00  0.00     0.022 A 
BRANCH  64  67
ATOM     67  S   UNL A   1      45.181  36.967  27.139  1.00  0.00     0.127 S 
ATOM     68  O   UNL A   1      45.947  36.288  26.096  1.00  0.00    -0.237 OA
ATOM     69  O   UNL A   1      43.752  37.101  26.856  1.00  0.00    -0.237 OA
ATOM     70  O   UNL A   1      45.796  38.165  27.694  1.00  0.00    -0.744 OA
ENDBRANCH  64  67
ENDBRANCH  37  60
ENDBRANCH  11  12
ENDBRANCH   4   6
ENDBRANCH   3   4
ENDBRANCH   2   3
ENDBRANCH   1   2
BRANCH   1  71
ATOM     71  O   UNL A   1      34.641  21.552  24.504  1.00  0.00    -0.458 OA
BRANCH  71  72
ATOM     72  C   UNL A   1      33.594  21.789  25.335  1.00  0.00     0.339 C 
ATOM     73  O   UNL A   1      33.096  21.005  26.126  1.00  0.00    -0.246 OA
BRANCH  72  74
ATOM     74  C   UNL A   1      33.215  23.205  25.260  1.00  0.00     0.078 A 
ATOM     75  C   UNL A   1      31.897  23.646  25.187  1.00  0.00     0.019 A 
ATOM     76  C   UNL A   1      34.233  24.144  25.239  1.00  0.00     0.127 A 
ATOM     77  C   UNL A   1      31.651  25.017  25.087  1.00  0.00     0.031 A 
ATOM     78  N   UNL A   1      34.020  25.473  25.110  1.00  0.00    -0.254 NA
ATOM     79  C   UNL A   1      32.731  25.901  25.034  1.00  0.00     0.094 A 
BRANCH  79  80
ATOM     80  C   UNL A   1      32.494  27.400  24.941  1.00  0.00     0.317 C 
BRANCH  80  81
ATOM     81  N   UNL A   1      31.470  27.714  23.936  1.00  0.00    -0.341 N 
ATOM     82  H   UNL A   1      30.651  27.132  24.114  1.00  0.00     0.346 HD
ATOM     83  H   UNL A   1      31.876  27.529  23.019  1.00  0.00     0.346 HD
BRANCH  81  84
ATOM     84  C   UNL A   1      31.061  29.112  23.958  1.00  0.00     0.264 C 
BRANCH  84  85
ATOM     85  C   UNL A   1      29.902  29.451  23.020  1.00  0.00     0.049 C 
ATOM     86  C   UNL A   1      28.981  30.619  23.475  1.00  0.00     0.041 C 
ATOM     87  C   UNL A   1      28.593  28.605  22.924  1.00  0.00     0.041 C 
ATOM     88  C   UNL A   1      27.831  29.928  22.699  1.00  0.00     0.115 C 
BRANCH  88  89
ATOM     89  O   UNL A   1      27.666  30.344  21.332  1.00  0.00    -0.393 OA
ATOM     90  H   UNL A   1      28.534  30.384  20.899  1.00  0.00     0.210 HD
ENDBRANCH  88  89
ENDBRANCH  84  85
ENDBRANCH  81  84
ENDBRANCH  80  81
ENDBRANCH  79  80
ENDBRANCH  72  74
ENDBRANCH  71  72
ENDBRANCH   1  71
TORSDOF 19
ENDMDL
MODEL 3
REMARK VINA RESULT:     -10.3      5.228     10.625
REMARK SMILES O=C(OCCOC(=O)c1ccc(C[NH2+]C[C@H]2C[C@H](O)C2)nc1)c1ccc(-c2c3nc(c(-c4cccc(S(=O)(=O)[O-])c4F)c4ccc([nH]4)c(-c4cccc(S(=O)(=O)[O-])c4F)c4nc(c(-c5cccc(S(=O)(=O)[O-])c5F)c5ccc2[nH]5)C=C4)C=C3)cc1
REMARK SMILES IDX 5 1 4 2 3 3 2 4 1 5 23 6 24 7 85 8 25 9 84 10 26 11 27 12
REMARK SMILES IDX 28 13 78 14 29 15 83 16 77 17 79 18 30 19 82 20 76 21 75 22
REMARK SMILES IDX 31 24 63 25 43 26 62 27 44 28 47 29 61 30 80 31 45 32 46 33
REMARK SMILES IDX 60 35 81 36 48 37 32 38 33 39 41 40 34 41 36 42 42 43 35 44
REMARK SMILES IDX 37 45 38 46 39 47 40 48 64 49 65 50 73 51 66 52 68 53 74 54
REMARK SMILES IDX 67 55 69 56 70 57 71 58 72 59 49 60 50 61 58 62 51 63 53 64
REMARK SMILES IDX 59 65 52 66 54 67 55 68 56 69 57 70 6 71 7 72 8 73 9 74
REMARK SMILES IDX 10 75 22 76 11 77 21 78 12 79 13 80 14 81 15 84 16 85 20 86
REMARK SMILES IDX 17 87 18 88 19 89
REMARK H PARENT 79 23 47 34 14 82 14 83 19 90
REMARK Flexibility Score: inf
ROOT
ATOM      1  C   UNL A   1      36.086  21.910  25.546  1.00  0.00     0.275 C 
ENDROOT
BRANCH   1   2
ATOM      2  C   UNL A   1      37.136  20.827  25.290  1.00  0.00     0.275 C 
BRANCH   2   3
ATOM      3  O   UNL A   1      38.485  21.311  25.152  1.00  0.00    -0.458 OA
BRANCH   3   4
ATOM      4  C   UNL A   1      39.455  21.463  26.086  1.00  0.00     0.338 C 
ATOM      5  O   UNL A   1      39.958  20.455  26.580  1.00  0.00    -0.246 OA
BRANCH   4   6
ATOM      6  C   UNL A   1      39.854  22.786  26.655  1.00  0.00     0.060 A 
ATOM      7  C   UNL A   1      39.368  24.027  26.240  1.00  0.00     0.016 A 
ATOM      8  C   UNL A   1      40.845  22.768  27.657  1.00  0.00     0.016 A 
ATOM      9  C   UNL A   1      39.817  25.209  26.833  1.00  0.00     0.010 A 
ATOM     10  C   UNL A   1      41.299  23.949  28.254  1.00  0.00     0.010 A 
ATOM     11  C   UNL A   1      40.795  25.179  27.830  1.00  0.00    -0.014 A 
BRANCH  11  12
ATOM     12  C   UNL A   1      41.372  26.459  28.290  1.00  0.00     0.031 A 
ATOM     13  C   UNL A   1      42.807  26.756  27.970  1.00  0.00     0.074 A 
ATOM     14  C   UNL A   1      40.605  27.372  28.912  1.00  0.00     0.049 A 
ATOM     15  N   UNL A   1      43.456  27.883  28.084  1.00  0.00    -0.248 NA
ATOM     16  C   UNL A   1      43.606  25.649  27.418  1.00  0.00     0.031 C 
ATOM     17  C   UNL A   1      39.197  27.193  29.254  1.00  0.00     0.029 A 
ATOM     18  N   UNL A   1      40.902  28.631  29.366  1.00  0.00    -0.354 N 
ATOM     19  C   UNL A   1      44.733  27.629  27.604  1.00  0.00     0.074 A 
ATOM     20  C   UNL A   1      44.780  26.232  27.232  1.00  0.00     0.031 C 
ATOM     21  C   UNL A   1      38.759  28.284  29.905  1.00  0.00     0.029 A 
ATOM     22  C   UNL A   1      39.850  29.250  29.999  1.00  0.00     0.049 A 
ATOM     23  H   UNL A   1      41.783  29.054  29.249  1.00  0.00     0.167 HD
ATOM     24  C   UNL A   1      45.763  28.491  27.454  1.00  0.00     0.034 A 
ATOM     25  C   UNL A   1      39.774  30.469  30.569  1.00  0.00     0.034 A 
ATOM     26  C   UNL A   1      45.712  29.872  27.846  1.00  0.00     0.049 A 
ATOM     27  C   UNL A   1      40.947  31.404  30.423  1.00  0.00     0.074 A 
ATOM     28  C   UNL A   1      46.691  30.840  27.728  1.00  0.00     0.029 A 
ATOM     29  N   UNL A   1      44.623  30.472  28.461  1.00  0.00    -0.354 N 
ATOM     30  N   UNL A   1      42.089  31.201  29.809  1.00  0.00    -0.248 NA
ATOM     31  C   UNL A   1      40.802  32.754  30.985  1.00  0.00     0.031 C 
ATOM     32  C   UNL A   1      46.201  32.022  28.293  1.00  0.00     0.029 A 
ATOM     33  C   UNL A   1      44.908  31.795  28.743  1.00  0.00     0.049 A 
ATOM     34  H   UNL A   1      43.772  30.022  28.666  1.00  0.00     0.167 HD
ATOM     35  C   UNL A   1      42.778  32.408  29.867  1.00  0.00     0.074 A 
ATOM     36  C   UNL A   1      41.917  33.340  30.569  1.00  0.00     0.031 C 
ATOM     37  C   UNL A   1      44.010  32.718  29.392  1.00  0.00     0.034 A 
BRANCH  24  38
ATOM     38  C   UNL A   1      47.015  27.954  26.818  1.00  0.00     0.023 A 
ATOM     39  C   UNL A   1      48.076  27.521  27.641  1.00  0.00     0.012 A 
ATOM     40  C   UNL A   1      47.149  27.886  25.420  1.00  0.00     0.148 A 
ATOM     41  C   UNL A   1      49.266  27.061  27.078  1.00  0.00     0.002 A 
ATOM     42  C   UNL A   1      48.324  27.394  24.867  1.00  0.00     0.091 A 
ATOM     43  F   UNL A   1      46.139  28.332  24.659  1.00  0.00    -0.205 F 
ATOM     44  C   UNL A   1      49.388  26.991  25.693  1.00  0.00     0.022 A 
BRANCH  42  45
ATOM     45  S   UNL A   1      48.558  27.219  23.096  1.00  0.00     0.127 S 
ATOM     46  O   UNL A   1      49.973  27.557  22.949  1.00  0.00    -0.237 OA
ATOM     47  O   UNL A   1      48.243  25.806  22.882  1.00  0.00    -0.237 OA
ATOM     48  O   UNL A   1      47.622  28.148  22.476  1.00  0.00    -0.744 OA
ENDBRANCH  42  45
ENDBRANCH  24  38
BRANCH  25  49
ATOM     49  C   UNL A   1      38.511  30.898  31.237  1.00  0.00     0.023 A 
ATOM     50  C   UNL A   1      38.364  30.718  32.627  1.00  0.00     0.012 A 
ATOM     51  C   UNL A   1      37.470  31.514  30.509  1.00  0.00     0.148 A 
ATOM     52  C   UNL A   1      37.190  31.108  33.273  1.00  0.00     0.002 A 
ATOM     53  C   UNL A   1      36.324  31.945  31.166  1.00  0.00     0.091 A 
ATOM     54  F   UNL A   1      37.629  31.685  29.190  1.00  0.00    -0.205 F 
ATOM     55  C   UNL A   1      36.175  31.726  32.545  1.00  0.00     0.022 A 
BRANCH  53  56
ATOM     56  S   UNL A   1      35.007  32.849  30.338  1.00  0.00     0.127 S 
ATOM     57  O   UNL A   1      34.069  33.076  31.433  1.00  0.00    -0.237 OA
ATOM     58  O   UNL A   1      35.714  34.042  29.871  1.00  0.00    -0.237 OA
ATOM     59  O   UNL A   1      34.519  31.991  29.262  1.00  0.00    -0.744 OA
ENDBRANCH  53  56
ENDBRANCH  25  49
BRANCH  37  60
ATOM     60  C   UNL A   1      44.497  34.129  29.580  1.00  0.00     0.023 A 
ATOM     61  C   UNL A   1      45.097  34.505  30.797  1.00  0.00     0.012 A 
ATOM     62  C   UNL A   1      44.444  35.054  28.518  1.00  0.00     0.148 A 
ATOM     63  C   UNL A   1      45.613  35.790  30.964  1.00  0.00     0.002 A 
ATOM     64  C   UNL A   1      45.003  36.316  28.676  1.00  0.00     0.091 A 
ATOM     65  F   UNL A   1      43.846  34.685  27.376  1.00  0.00    -0.205 F 
ATOM     66  C   UNL A   1      45.579  36.689  29.901  1.00  0.00     0.022 A 
BRANCH  64  67
ATOM     67  S   UNL A   1      45.090  37.491  27.320  1.00  0.00     0.127 S 
ATOM     68  O   UNL A   1      45.781  38.618  27.946  1.00  0.00    -0.237 OA
ATOM     69  O   UNL A   1      45.881  36.767  26.325  1.00  0.00    -0.237 OA
ATOM     70  O   UNL A   1      43.710  37.738  26.924  1.00  0.00    -0.744 OA
ENDBRANCH  64  67
ENDBRANCH  37  60
ENDBRANCH  11  12
ENDBRANCH   4   6
ENDBRANCH   3   4
ENDBRANCH   2   3
ENDBRANCH   1   2
BRANCH   1  71
ATOM     71  O   UNL A   1      34.967  21.833  24.656  1.00  0.00    -0.458 OA
BRANCH  71  72
ATOM     72  C   UNL A   1      33.783  22.204  25.208  1.00  0.00     0.339 C 
ATOM     73  O   UNL A   1      33.034  21.502  25.867  1.00  0.00    -0.246 OA
BRANCH  72  74
ATOM     74  C   UNL A   1      33.582  23.645  25.024  1.00  0.00     0.078 A 
ATOM     75  C   UNL A   1      33.902  24.323  23.851  1.00  0.00     0.019 A 
ATOM     76  C   UNL A   1      33.065  24.365  26.088  1.00  0.00     0.127 A 
ATOM     77  C   UNL A   1      33.698  25.704  23.796  1.00  0.00     0.031 A 
ATOM     78  N   UNL A   1      32.890  25.705  26.068  1.00  0.00    -0.254 NA
ATOM     79  C   UNL A   1      33.208  26.366  24.923  1.00  0.00     0.094 A 
BRANCH  79  80
ATOM     80  C   UNL A   1      32.961  27.866  24.887  1.00  0.00     0.317 C 
BRANCH  80  81
ATOM     81  N   UNL A   1      31.536  28.164  24.694  1.00  0.00    -0.341 N 
ATOM     82  H   UNL A   1      31.158  28.527  25.569  1.00  0.00     0.346 HD
ATOM     83  H   UNL A   1      31.079  27.297  24.412  1.00  0.00     0.346 HD
BRANCH  81  84
ATOM     84  C   UNL A   1      31.298  29.145  23.643  1.00  0.00     0.264 C 
BRANCH  84  85
ATOM     85  C   UNL A   1      29.823  29.452  23.382  1.00  0.00     0.049 C 
ATOM     86  C   UNL A   1      29.436  29.707  21.898  1.00  0.00     0.041 C 
ATOM     87  C   UNL A   1      29.164  30.837  23.674  1.00  0.00     0.041 C 
ATOM     88  C   UNL A   1      28.294  30.616  22.419  1.00  0.00     0.115 C 
BRANCH  88  89
ATOM     89  O   UNL A   1      27.028  29.967  22.627  1.00  0.00    -0.393 OA
ATOM     90  H   UNL A   1      27.174  29.028  22.822  1.00  0.00     0.210 HD
ENDBRANCH  88  89
ENDBRANCH  84  85
ENDBRANCH  81  84
ENDBRANCH  80  81
ENDBRANCH  79  80
ENDBRANCH  72  74
ENDBRANCH  71  72
ENDBRANCH   1  71
TORSDOF 19
ENDMDL
