MODEL 1
REMARK VINA RESULT:     -11.9      0.000      0.000
REMARK SMILES CCC[C@]1(C(=O)OCCOC(=O)c2ccc(-c3c4nc(c(-c5cccc(S(=O)(=O)[O-])c5F)c5ccc([nH]5)c(-c5cccc(S(=O)(=O)[O-])c5F)c5nc(c(-c6cccc(S(=O)(=O)[O-])c6F)c6ccc3[nH]6)C=C5)C=C4)cc2)CCCN(C(=O)c2ccc(NS(=O)(=O)CC)cc2)C1
REMARK SMILES IDX 8 1 7 2 5 3 6 4 4 5 76 6 94 7 77 8 79 9 78 10 3 11 2 12 1 13
REMARK SMILES IDX 80 14 81 15 82 16 83 17 93 18 84 19 92 20 85 21 86 22 87 24
REMARK SMILES IDX 88 25 89 26 90 27 91 28 9 29 10 30 11 31 12 32 13 33 14 34
REMARK SMILES IDX 75 35 15 36 74 37 16 38 17 39 18 40 68 41 19 42 73 43 67 44
REMARK SMILES IDX 69 45 20 46 72 47 66 48 65 49 21 51 53 52 33 53 52 54 34 55
REMARK SMILES IDX 37 56 51 57 70 58 35 59 36 60 50 62 71 63 38 64 22 65 23 66
REMARK SMILES IDX 31 67 24 68 26 69 32 70 25 71 27 72 28 73 29 74 30 75 54 76
REMARK SMILES IDX 55 77 63 78 56 79 58 80 64 81 57 82 59 83 60 84 61 85 62 86
REMARK SMILES IDX 39 87 40 88 48 89 41 90 43 91 49 92 42 93 44 94 45 95 46 96
REMARK SMILES IDX 47 97
REMARK H PARENT 86 23 69 50 37 61
REMARK Flexibility Score: inf
ROOT
ATOM      1  C   UNL A   1      31.504  30.244  25.497  1.00  0.00     0.274 C 
ENDROOT
BRANCH   1   2
ATOM      2  O   UNL A   1      31.274  28.864  25.174  1.00  0.00    -0.462 OA
BRANCH   2   3
ATOM      3  C   UNL A   1      31.993  28.346  24.141  1.00  0.00     0.314 C 
ATOM      4  O   UNL A   1      32.364  28.993  23.170  1.00  0.00    -0.252 OA
BRANCH   3   5
ATOM      5  C   UNL A   1      32.240  26.843  24.335  1.00  0.00     0.086 C 
ATOM      6  C   UNL A   1      33.533  26.452  23.533  1.00  0.00     0.022 C 
ATOM      7  C   UNL A   1      32.509  26.612  25.844  1.00  0.00     0.138 C 
ATOM      8  C   UNL A   1      34.132  25.097  23.906  1.00  0.00     0.023 C 
ATOM      9  N   UNL A   1      33.071  25.275  26.072  1.00  0.00    -0.338 N 
ATOM     10  C   UNL A   1      34.345  25.023  25.408  1.00  0.00     0.120 C 
BRANCH   5  11
ATOM     11  C   UNL A   1      31.049  25.974  23.850  1.00  0.00     0.020 C 
BRANCH  11  12
ATOM     12  C   UNL A   1      29.708  26.029  24.591  1.00  0.00    -0.002 C 
ATOM     13  C   UNL A   1      28.545  26.562  23.765  1.00  0.00     0.004 C 
ENDBRANCH  11  12
ENDBRANCH   5  11
BRANCH   9  14
ATOM     14  C   UNL A   1      32.256  24.286  26.609  1.00  0.00     0.253 C 
ATOM     15  O   UNL A   1      31.265  24.499  27.299  1.00  0.00    -0.269 OA
BRANCH  14  16
ATOM     16  C   UNL A   1      32.560  22.886  26.277  1.00  0.00     0.040 A 
ATOM     17  C   UNL A   1      31.895  22.279  25.211  1.00  0.00     0.016 A 
ATOM     18  C   UNL A   1      33.457  22.165  27.061  1.00  0.00     0.016 A 
ATOM     19  C   UNL A   1      32.114  20.926  24.942  1.00  0.00     0.027 A 
ATOM     20  C   UNL A   1      33.649  20.807  26.800  1.00  0.00     0.027 A 
ATOM     21  C   UNL A   1      32.968  20.171  25.751  1.00  0.00     0.049 A 
BRANCH  21  22
ATOM     22  N   UNL A   1      32.970  18.746  25.758  1.00  0.00    -0.284 N 
ATOM     23  H   UNL A   1      32.539  18.295  26.519  1.00  0.00     0.180 HD
BRANCH  22  24
ATOM     24  S   UNL A   1      33.644  17.784  24.579  1.00  0.00     0.232 S 
ATOM     25  O   UNL A   1      32.756  17.764  23.438  1.00  0.00    -0.207 OA
ATOM     26  O   UNL A   1      34.998  18.288  24.443  1.00  0.00    -0.207 OA
BRANCH  24  27
ATOM     27  C   UNL A   1      33.755  16.132  25.273  1.00  0.00     0.156 C 
ATOM     28  C   UNL A   1      32.442  15.542  25.744  1.00  0.00     0.023 C 
ENDBRANCH  24  27
ENDBRANCH  22  24
ENDBRANCH  21  22
ENDBRANCH  14  16
ENDBRANCH   9  14
ENDBRANCH   3   5
ENDBRANCH   2   3
ENDBRANCH   1   2
BRANCH   1  29
ATOM     29  C   UNL A   1      32.165  30.329  26.876  1.00  0.00     0.275 C 
BRANCH  29  30
ATOM     30  O   UNL A   1      33.557  30.670  26.729  1.00  0.00    -0.458 OA
BRANCH  30  31
ATOM     31  C   UNL A   1      33.970  31.724  27.478  1.00  0.00     0.338 C 
ATOM     32  O   UNL A   1      33.322  32.712  27.780  1.00  0.00    -0.246 OA
BRANCH  31  33
ATOM     33  C   UNL A   1      35.273  31.394  28.085  1.00  0.00     0.060 A 
ATOM     34  C   UNL A   1      35.406  30.118  28.636  1.00  0.00     0.016 A 
ATOM     35  C   UNL A   1      36.345  32.285  28.115  1.00  0.00     0.016 A 
ATOM     36  C   UNL A   1      36.630  29.681  29.136  1.00  0.00     0.010 A 
ATOM     37  C   UNL A   1      37.553  31.879  28.696  1.00  0.00     0.010 A 
ATOM     38  C   UNL A   1      37.703  30.574  29.200  1.00  0.00    -0.014 A 
BRANCH  38  39
ATOM     39  C   UNL A   1      38.915  30.206  29.965  1.00  0.00     0.031 A 
ATOM     40  C   UNL A   1      39.842  29.182  29.376  1.00  0.00     0.074 A 
ATOM     41  C   UNL A   1      39.184  30.757  31.162  1.00  0.00     0.049 A 
ATOM     42  N   UNL A   1      40.884  28.603  29.909  1.00  0.00    -0.248 NA
ATOM     43  C   UNL A   1      39.558  28.762  27.992  1.00  0.00     0.031 C 
ATOM     44  C   UNL A   1      38.406  31.818  31.800  1.00  0.00     0.029 A 
ATOM     45  N   UNL A   1      40.177  30.475  32.068  1.00  0.00    -0.354 N 
ATOM     46  C   UNL A   1      41.359  27.726  28.943  1.00  0.00     0.074 A 
ATOM     47  C   UNL A   1      40.509  27.866  27.782  1.00  0.00     0.031 C 
ATOM     48  C   UNL A   1      38.926  32.067  33.016  1.00  0.00     0.029 A 
ATOM     49  C   UNL A   1      40.042  31.154  33.257  1.00  0.00     0.049 A 
ATOM     50  H   UNL A   1      40.913  29.848  31.885  1.00  0.00     0.167 HD
ATOM     51  C   UNL A   1      42.405  26.871  29.019  1.00  0.00     0.034 A 
ATOM     52  C   UNL A   1      40.715  31.017  34.419  1.00  0.00     0.034 A 
ATOM     53  C   UNL A   1      43.232  26.716  30.182  1.00  0.00     0.049 A 
ATOM     54  C   UNL A   1      41.823  29.994  34.506  1.00  0.00     0.074 A 
ATOM     55  C   UNL A   1      44.295  25.854  30.373  1.00  0.00     0.029 A 
ATOM     56  N   UNL A   1      43.078  27.433  31.358  1.00  0.00    -0.354 N 
ATOM     57  N   UNL A   1      42.298  29.205  33.573  1.00  0.00    -0.248 NA
ATOM     58  C   UNL A   1      42.501  29.854  35.805  1.00  0.00     0.031 C 
ATOM     59  C   UNL A   1      44.770  26.032  31.675  1.00  0.00     0.029 A 
ATOM     60  C   UNL A   1      44.023  27.030  32.283  1.00  0.00     0.049 A 
ATOM     61  H   UNL A   1      42.396  28.127  31.512  1.00  0.00     0.167 HD
ATOM     62  C   UNL A   1      43.353  28.511  34.156  1.00  0.00     0.074 A 
ATOM     63  C   UNL A   1      43.456  28.978  35.522  1.00  0.00     0.031 C 
ATOM     64  C   UNL A   1      44.157  27.562  33.614  1.00  0.00     0.034 A 
BRANCH  51  65
ATOM     65  C   UNL A   1      42.688  26.022  27.812  1.00  0.00     0.023 A 
ATOM     66  C   UNL A   1      43.490  26.531  26.772  1.00  0.00     0.012 A 
ATOM     67  C   UNL A   1      42.175  24.714  27.718  1.00  0.00     0.148 A 
ATOM     68  C   UNL A   1      43.753  25.760  25.640  1.00  0.00     0.002 A 
ATOM     69  C   UNL A   1      42.474  23.938  26.606  1.00  0.00     0.091 A 
ATOM     70  F   UNL A   1      41.389  24.263  28.706  1.00  0.00    -0.205 F 
ATOM     71  C   UNL A   1      43.253  24.462  25.562  1.00  0.00     0.022 A 
BRANCH  69  72
ATOM     72  S   UNL A   1      41.927  22.236  26.442  1.00  0.00     0.127 S 
ATOM     73  O   UNL A   1      40.475  22.397  26.383  1.00  0.00    -0.237 OA
ATOM     74  O   UNL A   1      42.548  21.834  25.179  1.00  0.00    -0.237 OA
ATOM     75  O   UNL A   1      42.432  21.537  27.615  1.00  0.00    -0.744 OA
ENDBRANCH  69  72
ENDBRANCH  51  65
BRANCH  52  76
ATOM     76  C   UNL A   1      40.367  31.857  35.601  1.00  0.00     0.023 A 
ATOM     77  C   UNL A   1      41.222  32.911  35.980  1.00  0.00     0.012 A 
ATOM     78  C   UNL A   1      39.208  31.610  36.362  1.00  0.00     0.148 A 
ATOM     79  C   UNL A   1      40.946  33.680  37.113  1.00  0.00     0.002 A 
ATOM     80  C   UNL A   1      38.910  32.413  37.457  1.00  0.00     0.091 A 
ATOM     81  F   UNL A   1      38.418  30.587  36.003  1.00  0.00    -0.205 F 
ATOM     82  C   UNL A   1      39.787  33.438  37.844  1.00  0.00     0.022 A 
BRANCH  80  83
ATOM     83  S   UNL A   1      37.384  32.247  38.389  1.00  0.00     0.127 S 
ATOM     84  O   UNL A   1      36.437  32.969  37.544  1.00  0.00    -0.237 OA
ATOM     85  O   UNL A   1      37.202  30.795  38.416  1.00  0.00    -0.237 OA
ATOM     86  O   UNL A   1      37.651  32.843  39.691  1.00  0.00    -0.744 OA
ENDBRANCH  80  83
ENDBRANCH  52  76
BRANCH  64  87
ATOM     87  C   UNL A   1      45.268  27.003  34.464  1.00  0.00     0.023 A 
ATOM     88  C   UNL A   1      46.518  27.651  34.508  1.00  0.00     0.012 A 
ATOM     89  C   UNL A   1      45.028  25.902  35.310  1.00  0.00     0.148 A 
ATOM     90  C   UNL A   1      47.519  27.195  35.365  1.00  0.00     0.002 A 
ATOM     91  C   UNL A   1      46.013  25.484  36.196  1.00  0.00     0.091 A 
ATOM     92  F   UNL A   1      43.836  25.289  35.239  1.00  0.00    -0.205 F 
ATOM     93  C   UNL A   1      47.263  26.123  36.218  1.00  0.00     0.022 A 
BRANCH  91  94
ATOM     94  S   UNL A   1      45.733  24.182  37.402  1.00  0.00     0.127 S 
ATOM     95  O   UNL A   1      47.025  24.126  38.085  1.00  0.00    -0.237 OA
ATOM     96  O   UNL A   1      44.642  24.732  38.206  1.00  0.00    -0.237 OA
ATOM     97  O   UNL A   1      45.379  22.994  36.636  1.00  0.00    -0.744 OA
ENDBRANCH  91  94
ENDBRANCH  64  87
ENDBRANCH  38  39
ENDBRANCH  31  33
ENDBRANCH  30  31
ENDBRANCH  29  30
ENDBRANCH   1  29
TORSDOF 21
ENDMDL
MODEL 2
REMARK VINA RESULT:     -11.4      1.710      2.419
REMARK SMILES CCC[C@]1(C(=O)OCCOC(=O)c2ccc(-c3c4nc(c(-c5cccc(S(=O)(=O)[O-])c5F)c5ccc([nH]5)c(-c5cccc(S(=O)(=O)[O-])c5F)c5nc(c(-c6cccc(S(=O)(=O)[O-])c6F)c6ccc3[nH]6)C=C5)C=C4)cc2)CCCN(C(=O)c2ccc(NS(=O)(=O)CC)cc2)C1
REMARK SMILES IDX 8 1 7 2 5 3 6 4 4 5 76 6 94 7 77 8 79 9 78 10 3 11 2 12 1 13
REMARK SMILES IDX 80 14 81 15 82 16 83 17 93 18 84 19 92 20 85 21 86 22 87 24
REMARK SMILES IDX 88 25 89 26 90 27 91 28 9 29 10 30 11 31 12 32 13 33 14 34
REMARK SMILES IDX 75 35 15 36 74 37 16 38 17 39 18 40 68 41 19 42 73 43 67 44
REMARK SMILES IDX 69 45 20 46 72 47 66 48 65 49 21 51 53 52 33 53 52 54 34 55
REMARK SMILES IDX 37 56 51 57 70 58 35 59 36 60 50 62 71 63 38 64 22 65 23 66
REMARK SMILES IDX 31 67 24 68 26 69 32 70 25 71 27 72 28 73 29 74 30 75 54 76
REMARK SMILES IDX 55 77 63 78 56 79 58 80 64 81 57 82 59 83 60 84 61 85 62 86
REMARK SMILES IDX 39 87 40 88 48 89 41 90 43 91 49 92 42 93 44 94 45 95 46 96
REMARK SMILES IDX 47 97
REMARK H PARENT 86 23 69 50 37 61
REMARK Flexibility Score: inf
ROOT
ATOM      1  C   UNL A   1      31.615  28.521  24.793  1.00  0.00     0.274 C 
ENDROOT
BRANCH   1   2
ATOM      2  O   UNL A   1      32.552  27.584  25.349  1.00  0.00    -0.462 OA
BRANCH   2   3
ATOM      3  C   UNL A   1      32.053  26.644  26.198  1.00  0.00     0.314 C 
ATOM      4  O   UNL A   1      31.600  26.893  27.307  1.00  0.00    -0.252 OA
BRANCH   3   5
ATOM      5  C   UNL A   1      32.171  25.236  25.598  1.00  0.00     0.086 C 
ATOM      6  C   UNL A   1      30.807  24.492  25.824  1.00  0.00     0.022 C 
ATOM      7  C   UNL A   1      32.395  25.402  24.074  1.00  0.00     0.138 C 
ATOM      8  C   UNL A   1      30.617  23.233  24.979  1.00  0.00     0.023 C 
ATOM      9  N   UNL A   1      32.195  24.125  23.378  1.00  0.00    -0.338 N 
ATOM     10  C   UNL A   1      30.860  23.554  23.514  1.00  0.00     0.120 C 
BRANCH   5  11
ATOM     11  C   UNL A   1      33.321  24.410  26.235  1.00  0.00     0.020 C 
BRANCH  11  12
ATOM     12  C   UNL A   1      33.074  23.620  27.525  1.00  0.00    -0.002 C 
ATOM     13  C   UNL A   1      33.464  22.149  27.456  1.00  0.00     0.004 C 
ENDBRANCH  11  12
ENDBRANCH   5  11
BRANCH   9  14
ATOM     14  C   UNL A   1      33.307  23.424  22.927  1.00  0.00     0.253 C 
ATOM     15  O   UNL A   1      34.067  23.815  22.048  1.00  0.00    -0.269 OA
BRANCH  14  16
ATOM     16  C   UNL A   1      33.639  22.155  23.592  1.00  0.00     0.040 A 
ATOM     17  C   UNL A   1      34.910  21.984  24.140  1.00  0.00     0.016 A 
ATOM     18  C   UNL A   1      32.707  21.120  23.615  1.00  0.00     0.016 A 
ATOM     19  C   UNL A   1      35.262  20.753  24.696  1.00  0.00     0.027 A 
ATOM     20  C   UNL A   1      33.078  19.884  24.151  1.00  0.00     0.027 A 
ATOM     21  C   UNL A   1      34.362  19.684  24.680  1.00  0.00     0.049 A 
BRANCH  21  22
ATOM     22  N   UNL A   1      34.759  18.333  24.902  1.00  0.00    -0.284 N 
ATOM     23  H   UNL A   1      35.566  18.180  25.443  1.00  0.00     0.180 HD
BRANCH  22  24
ATOM     24  S   UNL A   1      33.963  16.993  24.317  1.00  0.00     0.232 S 
ATOM     25  O   UNL A   1      33.428  17.310  23.012  1.00  0.00    -0.207 OA
ATOM     26  O   UNL A   1      34.924  15.916  24.471  1.00  0.00    -0.207 OA
BRANCH  24  27
ATOM     27  C   UNL A   1      32.609  16.671  25.451  1.00  0.00     0.156 C 
ATOM     28  C   UNL A   1      32.200  15.218  25.570  1.00  0.00     0.023 C 
ENDBRANCH  24  27
ENDBRANCH  22  24
ENDBRANCH  21  22
ENDBRANCH  14  16
ENDBRANCH   9  14
ENDBRANCH   3   5
ENDBRANCH   2   3
ENDBRANCH   1   2
BRANCH   1  29
ATOM     29  C   UNL A   1      31.685  29.827  25.590  1.00  0.00     0.275 C 
BRANCH  29  30
ATOM     30  O   UNL A   1      33.049  30.100  25.962  1.00  0.00    -0.458 OA
BRANCH  30  31
ATOM     31  C   UNL A   1      33.206  31.101  26.866  1.00  0.00     0.338 C 
ATOM     32  O   UNL A   1      32.362  31.900  27.235  1.00  0.00    -0.246 OA
BRANCH  31  33
ATOM     33  C   UNL A   1      34.513  30.939  27.530  1.00  0.00     0.060 A 
ATOM     34  C   UNL A   1      34.846  29.653  27.961  1.00  0.00     0.016 A 
ATOM     35  C   UNL A   1      35.402  31.996  27.725  1.00  0.00     0.016 A 
ATOM     36  C   UNL A   1      36.100  29.386  28.504  1.00  0.00     0.010 A 
ATOM     37  C   UNL A   1      36.630  31.747  28.349  1.00  0.00     0.010 A 
ATOM     38  C   UNL A   1      36.988  30.441  28.733  1.00  0.00    -0.014 A 
BRANCH  38  39
ATOM     39  C   UNL A   1      38.204  30.209  29.543  1.00  0.00     0.031 A 
ATOM     40  C   UNL A   1      39.248  29.275  29.004  1.00  0.00     0.074 A 
ATOM     41  C   UNL A   1      38.375  30.805  30.738  1.00  0.00     0.049 A 
ATOM     42  N   UNL A   1      40.324  28.812  29.582  1.00  0.00    -0.248 NA
ATOM     43  C   UNL A   1      39.055  28.805  27.621  1.00  0.00     0.031 C 
ATOM     44  C   UNL A   1      37.474  31.792  31.328  1.00  0.00     0.029 A 
ATOM     45  N   UNL A   1      39.360  30.639  31.680  1.00  0.00    -0.354 N 
ATOM     46  C   UNL A   1      40.918  27.972  28.649  1.00  0.00     0.074 A 
ATOM     47  C   UNL A   1      40.098  28.006  27.459  1.00  0.00     0.031 C 
ATOM     48  C   UNL A   1      37.925  32.112  32.555  1.00  0.00     0.029 A 
ATOM     49  C   UNL A   1      39.117  31.319  32.851  1.00  0.00     0.049 A 
ATOM     50  H   UNL A   1      40.161  30.086  31.533  1.00  0.00     0.167 HD
ATOM     51  C   UNL A   1      42.040  27.227  28.777  1.00  0.00     0.034 A 
ATOM     52  C   UNL A   1      39.762  31.270  34.036  1.00  0.00     0.034 A 
ATOM     53  C   UNL A   1      42.839  27.176  29.968  1.00  0.00     0.049 A 
ATOM     54  C   UNL A   1      40.963  30.366  34.179  1.00  0.00     0.074 A 
ATOM     55  C   UNL A   1      43.975  26.428  30.210  1.00  0.00     0.029 A 
ATOM     56  N   UNL A   1      42.574  27.893  31.124  1.00  0.00    -0.354 N 
ATOM     57  N   UNL A   1      41.545  29.613  33.277  1.00  0.00    -0.248 NA
ATOM     58  C   UNL A   1      41.606  30.316  35.502  1.00  0.00     0.031 C 
ATOM     59  C   UNL A   1      44.386  26.675  31.524  1.00  0.00     0.029 A 
ATOM     60  C   UNL A   1      43.523  27.603  32.087  1.00  0.00     0.049 A 
ATOM     61  H   UNL A   1      41.821  28.517  31.243  1.00  0.00     0.167 HD
ATOM     62  C   UNL A   1      42.644  29.038  33.908  1.00  0.00     0.074 A 
ATOM     63  C   UNL A   1      42.653  29.536  35.267  1.00  0.00     0.031 C 
ATOM     64  C   UNL A   1      43.557  28.167  33.411  1.00  0.00     0.034 A 
BRANCH  51  65
ATOM     65  C   UNL A   1      42.448  26.392  27.596  1.00  0.00     0.023 A 
ATOM     66  C   UNL A   1      43.252  26.955  26.585  1.00  0.00     0.012 A 
ATOM     67  C   UNL A   1      42.051  25.044  27.499  1.00  0.00     0.148 A 
ATOM     68  C   UNL A   1      43.630  26.195  25.478  1.00  0.00     0.002 A 
ATOM     69  C   UNL A   1      42.463  24.284  26.413  1.00  0.00     0.091 A 
ATOM     70  F   UNL A   1      41.261  24.541  28.458  1.00  0.00    -0.205 F 
ATOM     71  C   UNL A   1      43.243  24.860  25.397  1.00  0.00     0.022 A 
BRANCH  69  72
ATOM     72  S   UNL A   1      42.069  22.540  26.251  1.00  0.00     0.127 S 
ATOM     73  O   UNL A   1      42.767  22.194  25.014  1.00  0.00    -0.237 OA
ATOM     74  O   UNL A   1      42.662  21.976  27.463  1.00  0.00    -0.237 OA
ATOM     75  O   UNL A   1      40.616  22.461  26.192  1.00  0.00    -0.744 OA
ENDBRANCH  69  72
ENDBRANCH  51  65
BRANCH  52  76
ATOM     76  C   UNL A   1      39.291  32.091  35.190  1.00  0.00     0.023 A 
ATOM     77  C   UNL A   1      38.306  31.574  36.054  1.00  0.00     0.012 A 
ATOM     78  C   UNL A   1      39.798  33.383  35.427  1.00  0.00     0.148 A 
ATOM     79  C   UNL A   1      37.811  32.340  37.111  1.00  0.00     0.002 A 
ATOM     80  C   UNL A   1      39.340  34.121  36.512  1.00  0.00     0.091 A 
ATOM     81  F   UNL A   1      40.717  33.871  34.580  1.00  0.00    -0.205 F 
ATOM     82  C   UNL A   1      38.334  33.609  37.345  1.00  0.00     0.022 A 
BRANCH  80  83
ATOM     83  S   UNL A   1      40.037  35.716  36.957  1.00  0.00     0.127 S 
ATOM     84  O   UNL A   1      39.655  36.539  35.813  1.00  0.00    -0.237 OA
ATOM     85  O   UNL A   1      39.328  36.021  38.200  1.00  0.00    -0.237 OA
ATOM     86  O   UNL A   1      41.467  35.488  37.122  1.00  0.00    -0.744 OA
ENDBRANCH  80  83
ENDBRANCH  52  76
BRANCH  64  87
ATOM     87  C   UNL A   1      44.688  27.737  34.307  1.00  0.00     0.023 A 
ATOM     88  C   UNL A   1      45.902  28.452  34.305  1.00  0.00     0.012 A 
ATOM     89  C   UNL A   1      44.500  26.693  35.236  1.00  0.00     0.148 A 
ATOM     90  C   UNL A   1      46.918  28.119  35.201  1.00  0.00     0.002 A 
ATOM     91  C   UNL A   1      45.498  26.400  36.156  1.00  0.00     0.091 A 
ATOM     92  F   UNL A   1      43.344  26.014  35.207  1.00  0.00    -0.205 F 
ATOM     93  C   UNL A   1      46.712  27.105  36.134  1.00  0.00     0.022 A 
BRANCH  91  94
ATOM     94  S   UNL A   1      45.278  25.183  37.459  1.00  0.00     0.127 S 
ATOM     95  O   UNL A   1      46.084  24.068  36.965  1.00  0.00    -0.237 OA
ATOM     96  O   UNL A   1      45.837  25.870  38.624  1.00  0.00    -0.237 OA
ATOM     97  O   UNL A   1      43.845  24.932  37.537  1.00  0.00    -0.744 OA
ENDBRANCH  91  94
ENDBRANCH  64  87
ENDBRANCH  38  39
ENDBRANCH  31  33
ENDBRANCH  30  31
ENDBRANCH  29  30
ENDBRANCH   1  29
TORSDOF 21
ENDMDL
MODEL 3
REMARK VINA RESULT:     -11.0      5.131      8.828
REMARK SMILES CCC[C@]1(C(=O)OCCOC(=O)c2ccc(-c3c4nc(c(-c5cccc(S(=O)(=O)[O-])c5F)c5ccc([nH]5)c(-c5cccc(S(=O)(=O)[O-])c5F)c5nc(c(-c6cccc(S(=O)(=O)[O-])c6F)c6ccc3[nH]6)C=C5)C=C4)cc2)CCCN(C(=O)c2ccc(NS(=O)(=O)CC)cc2)C1
REMARK SMILES IDX 8 1 7 2 5 3 6 4 4 5 76 6 94 7 77 8 79 9 78 10 3 11 2 12 1 13
REMARK SMILES IDX 80 14 81 15 82 16 83 17 93 18 84 19 92 20 85 21 86 22 87 24
REMARK SMILES IDX 88 25 89 26 90 27 91 28 9 29 10 30 11 31 12 32 13 33 14 34
REMARK SMILES IDX 75 35 15 36 74 37 16 38 17 39 18 40 68 41 19 42 73 43 67 44
REMARK SMILES IDX 69 45 20 46 72 47 66 48 65 49 21 51 53 52 33 53 52 54 34 55
REMARK SMILES IDX 37 56 51 57 70 58 35 59 36 60 50 62 71 63 38 64 22 65 23 66
REMARK SMILES IDX 31 67 24 68 26 69 32 70 25 71 27 72 28 73 29 74 30 75 54 76
REMARK SMILES IDX 55 77 63 78 56 79 58 80 64 81 57 82 59 83 60 84 61 85 62 86
REMARK SMILES IDX 39 87 40 88 48 89 41 90 43 91 49 92 42 93 44 94 45 95 46 96
REMARK SMILES IDX 47 97
REMARK H PARENT 86 23 69 50 37 61
REMARK Flexibility Score: inf
ROOT
ATOM      1  C   UNL A   1      37.166  22.519  24.787  1.00  0.00     0.274 C 
ENDROOT
BRANCH   1   2
ATOM      2  O   UNL A   1      35.897  21.856  24.673  1.00  0.00    -0.462 OA
BRANCH   2   3
ATOM      3  C   UNL A   1      35.014  22.039  25.693  1.00  0.00     0.314 C 
ATOM      4  O   UNL A   1      35.127  21.526  26.798  1.00  0.00    -0.252 OA
BRANCH   3   5
ATOM      5  C   UNL A   1      33.845  22.934  25.261  1.00  0.00     0.086 C 
ATOM      6  C   UNL A   1      32.682  22.758  26.302  1.00  0.00     0.022 C 
ATOM      7  C   UNL A   1      34.342  24.401  25.321  1.00  0.00     0.138 C 
ATOM      8  C   UNL A   1      31.600  23.834  26.241  1.00  0.00     0.023 C 
ATOM      9  N   UNL A   1      33.212  25.335  25.242  1.00  0.00    -0.338 N 
ATOM     10  C   UNL A   1      32.236  25.211  26.319  1.00  0.00     0.120 C 
BRANCH   5  11
ATOM     11  C   UNL A   1      33.322  22.590  23.840  1.00  0.00     0.020 C 
BRANCH  11  12
ATOM     12  C   UNL A   1      32.531  21.298  23.607  1.00  0.00    -0.002 C 
ATOM     13  C   UNL A   1      31.995  21.125  22.191  1.00  0.00     0.004 C 
ENDBRANCH  11  12
ENDBRANCH   5  11
BRANCH   9  14
ATOM     14  C   UNL A   1      32.987  26.019  24.054  1.00  0.00     0.253 C 
ATOM     15  O   UNL A   1      33.470  25.710  22.970  1.00  0.00    -0.269 OA
BRANCH  14  16
ATOM     16  C   UNL A   1      32.054  27.156  24.078  1.00  0.00     0.040 A 
ATOM     17  C   UNL A   1      30.776  27.000  23.541  1.00  0.00     0.016 A 
ATOM     18  C   UNL A   1      32.473  28.387  24.577  1.00  0.00     0.016 A 
ATOM     19  C   UNL A   1      29.914  28.097  23.482  1.00  0.00     0.027 A 
ATOM     20  C   UNL A   1      31.613  29.484  24.489  1.00  0.00     0.027 A 
ATOM     21  C   UNL A   1      30.334  29.354  23.926  1.00  0.00     0.049 A 
BRANCH  21  22
ATOM     22  N   UNL A   1      29.660  30.562  23.583  1.00  0.00    -0.284 N 
ATOM     23  H   UNL A   1      29.875  31.366  24.108  1.00  0.00     0.180 HD
BRANCH  22  24
ATOM     24  S   UNL A   1      28.537  30.719  22.365  1.00  0.00     0.232 S 
ATOM     25  O   UNL A   1      29.050  30.067  21.180  1.00  0.00    -0.207 OA
ATOM     26  O   UNL A   1      27.296  30.270  22.967  1.00  0.00    -0.207 OA
BRANCH  24  27
ATOM     27  C   UNL A   1      28.373  32.479  22.049  1.00  0.00     0.156 C 
ATOM     28  C   UNL A   1      29.021  33.381  23.079  1.00  0.00     0.023 C 
ENDBRANCH  24  27
ENDBRANCH  22  24
ENDBRANCH  21  22
ENDBRANCH  14  16
ENDBRANCH   9  14
ENDBRANCH   3   5
ENDBRANCH   2   3
ENDBRANCH   1   2
BRANCH   1  29
ATOM     29  C   UNL A   1      38.197  21.530  25.340  1.00  0.00     0.275 C 
BRANCH  29  30
ATOM     30  O   UNL A   1      38.811  22.075  26.523  1.00  0.00    -0.458 OA
BRANCH  30  31
ATOM     31  C   UNL A   1      40.118  22.413  26.386  1.00  0.00     0.338 C 
ATOM     32  O   UNL A   1      40.977  21.800  25.775  1.00  0.00    -0.246 OA
BRANCH  31  33
ATOM     33  C   UNL A   1      40.310  23.783  26.898  1.00  0.00     0.060 A 
ATOM     34  C   UNL A   1      40.411  24.802  25.949  1.00  0.00     0.016 A 
ATOM     35  C   UNL A   1      40.383  24.081  28.258  1.00  0.00     0.016 A 
ATOM     36  C   UNL A   1      40.489  26.136  26.342  1.00  0.00     0.010 A 
ATOM     37  C   UNL A   1      40.548  25.414  28.656  1.00  0.00     0.010 A 
ATOM     38  C   UNL A   1      40.593  26.446  27.701  1.00  0.00    -0.014 A 
BRANCH  38  39
ATOM     39  C   UNL A   1      40.941  27.826  28.110  1.00  0.00     0.031 A 
ATOM     40  C   UNL A   1      42.390  28.219  28.120  1.00  0.00     0.074 A 
ATOM     41  C   UNL A   1      39.994  28.709  28.475  1.00  0.00     0.049 A 
ATOM     42  N   UNL A   1      42.948  29.313  28.563  1.00  0.00    -0.248 NA
ATOM     43  C   UNL A   1      43.336  27.246  27.545  1.00  0.00     0.031 C 
ATOM     44  C   UNL A   1      38.552  28.472  28.427  1.00  0.00     0.029 A 
ATOM     45  N   UNL A   1      40.112  29.978  28.986  1.00  0.00    -0.354 N 
ATOM     46  C   UNL A   1      44.311  29.148  28.353  1.00  0.00     0.074 A 
ATOM     47  C   UNL A   1      44.495  27.861  27.721  1.00  0.00     0.031 C 
ATOM     48  C   UNL A   1      37.919  29.546  28.934  1.00  0.00     0.029 A 
ATOM     49  C   UNL A   1      38.911  30.523  29.380  1.00  0.00     0.049 A 
ATOM     50  H   UNL A   1      40.971  30.451  29.064  1.00  0.00     0.167 HD
ATOM     51  C   UNL A   1      45.322  29.989  28.670  1.00  0.00     0.034 A 
ATOM     52  C   UNL A   1      38.654  31.658  30.063  1.00  0.00     0.034 A 
ATOM     53  C   UNL A   1      45.139  31.256  29.319  1.00  0.00     0.049 A 
ATOM     54  C   UNL A   1      39.807  32.540  30.480  1.00  0.00     0.074 A 
ATOM     55  C   UNL A   1      46.101  32.167  29.713  1.00  0.00     0.029 A 
ATOM     56  N   UNL A   1      43.911  31.783  29.684  1.00  0.00    -0.354 N 
ATOM     57  N   UNL A   1      41.087  32.400  30.234  1.00  0.00    -0.248 NA
ATOM     58  C   UNL A   1      39.478  33.746  31.257  1.00  0.00     0.031 C 
ATOM     59  C   UNL A   1      45.454  33.237  30.338  1.00  0.00     0.029 A 
ATOM     60  C   UNL A   1      44.087  33.006  30.304  1.00  0.00     0.049 A 
ATOM     61  H   UNL A   1      43.040  31.350  29.526  1.00  0.00     0.167 HD
ATOM     62  C   UNL A   1      41.708  33.517  30.783  1.00  0.00     0.074 A 
ATOM     63  C   UNL A   1      40.664  34.330  31.369  1.00  0.00     0.031 C 
ATOM     64  C   UNL A   1      43.026  33.836  30.813  1.00  0.00     0.034 A 
BRANCH  51  65
ATOM     65  C   UNL A   1      46.718  29.544  28.334  1.00  0.00     0.023 A 
ATOM     66  C   UNL A   1      47.299  29.930  27.109  1.00  0.00     0.012 A 
ATOM     67  C   UNL A   1      47.458  28.760  29.239  1.00  0.00     0.148 A 
ATOM     68  C   UNL A   1      48.589  29.515  26.778  1.00  0.00     0.002 A 
ATOM     69  C   UNL A   1      48.756  28.384  28.918  1.00  0.00     0.091 A 
ATOM     70  F   UNL A   1      46.872  28.381  30.383  1.00  0.00    -0.205 F 
ATOM     71  C   UNL A   1      49.319  28.751  27.685  1.00  0.00     0.022 A 
BRANCH  69  72
ATOM     72  S   UNL A   1      49.797  27.453  30.047  1.00  0.00     0.127 S 
ATOM     73  O   UNL A   1      51.057  27.399  29.308  1.00  0.00    -0.237 OA
ATOM     74  O   UNL A   1      49.820  28.316  31.228  1.00  0.00    -0.237 OA
ATOM     75  O   UNL A   1      49.132  26.173  30.243  1.00  0.00    -0.744 OA
ENDBRANCH  69  72
ENDBRANCH  51  65
BRANCH  52  76
ATOM     76  C   UNL A   1      37.252  32.035  30.407  1.00  0.00     0.023 A 
ATOM     77  C   UNL A   1      36.717  31.657  31.654  1.00  0.00     0.012 A 
ATOM     78  C   UNL A   1      36.440  32.747  29.502  1.00  0.00     0.148 A 
ATOM     79  C   UNL A   1      35.392  31.952  31.980  1.00  0.00     0.002 A 
ATOM     80  C   UNL A   1      35.138  33.085  29.854  1.00  0.00     0.091 A 
ATOM     81  F   UNL A   1      36.955  33.077  28.309  1.00  0.00    -0.205 F 
ATOM     82  C   UNL A   1      34.606  32.673  31.086  1.00  0.00     0.022 A 
BRANCH  80  83
ATOM     83  S   UNL A   1      34.092  34.109  28.812  1.00  0.00     0.127 S 
ATOM     84  O   UNL A   1      33.568  33.131  27.863  1.00  0.00    -0.237 OA
ATOM     85  O   UNL A   1      33.114  34.619  29.774  1.00  0.00    -0.237 OA
ATOM     86  O   UNL A   1      34.971  35.126  28.253  1.00  0.00    -0.744 OA
ENDBRANCH  80  83
ENDBRANCH  52  76
BRANCH  64  87
ATOM     87  C   UNL A   1      43.426  35.147  31.437  1.00  0.00     0.023 A 
ATOM     88  C   UNL A   1      43.763  35.205  32.804  1.00  0.00     0.012 A 
ATOM     89  C   UNL A   1      43.578  36.297  30.636  1.00  0.00     0.148 A 
ATOM     90  C   UNL A   1      44.226  36.394  33.366  1.00  0.00     0.002 A 
ATOM     91  C   UNL A   1      44.085  37.464  31.193  1.00  0.00     0.091 A 
ATOM     92  F   UNL A   1      43.233  36.224  29.342  1.00  0.00    -0.205 F 
ATOM     93  C   UNL A   1      44.401  37.518  32.561  1.00  0.00     0.022 A 
BRANCH  91  94
ATOM     94  S   UNL A   1      44.441  38.924  30.209  1.00  0.00     0.127 S 
ATOM     95  O   UNL A   1      45.112  39.784  31.183  1.00  0.00    -0.237 OA
ATOM     96  O   UNL A   1      45.315  38.390  29.164  1.00  0.00    -0.237 OA
ATOM     97  O   UNL A   1      43.154  39.409  29.729  1.00  0.00    -0.744 OA
ENDBRANCH  91  94
ENDBRANCH  64  87
ENDBRANCH  38  39
ENDBRANCH  31  33
ENDBRANCH  30  31
ENDBRANCH  29  30
ENDBRANCH   1  29
TORSDOF 21
ENDMDL
