MODEL 1
REMARK VINA RESULT:     -11.4      0.000      0.000
REMARK SMILES O=C(OCCOC(=O)c1cc(S(=O)(=O)Nc2cccc(Cl)c2)ccc1O)c1ccc(-c2c3nc(c(-c4cccc(S(=O)(=O)[O-])c4F)c4ccc([nH]4)c(-c4cccc(S(=O)(=O)[O-])c4F)c4nc(c(-c5cccc(S(=O)(=O)[O-])c5F)c5ccc2[nH]5)C=C4)C=C3)cc1
REMARK SMILES IDX 4 1 3 2 2 3 1 4 27 5 28 6 89 7 29 8 88 9 30 10 31 11 32 12
REMARK SMILES IDX 82 13 33 14 87 15 81 16 83 17 34 18 86 19 80 20 79 21 35 23
REMARK SMILES IDX 67 24 47 25 66 26 48 27 51 28 65 29 84 30 49 31 50 32 64 34
REMARK SMILES IDX 85 35 52 36 36 37 37 38 45 39 38 40 40 41 46 42 39 43 41 44
REMARK SMILES IDX 42 45 43 46 44 47 68 48 69 49 77 50 70 51 72 52 78 53 71 54
REMARK SMILES IDX 73 55 74 56 75 57 76 58 53 59 54 60 62 61 55 62 57 63 63 64
REMARK SMILES IDX 56 65 58 66 59 67 60 68 61 69 5 70 6 71 7 72 8 73 9 74 10 75
REMARK SMILES IDX 25 76 11 77 24 78 23 79 26 80 12 82 13 83 14 84 15 85 16 87
REMARK SMILES IDX 17 88 22 89 18 90 20 91 19 92 21 93
REMARK H PARENT 83 22 51 33 26 81 15 86
REMARK Flexibility Score: inf
ROOT
ATOM      1  C   UNL A   1      33.140  32.749  27.988  1.00  0.00     0.275 C 
ENDROOT
BRANCH   1   2
ATOM      2  O   UNL A   1      34.297  31.996  27.589  1.00  0.00    -0.458 OA
BRANCH   2   3
ATOM      3  C   UNL A   1      34.586  30.679  27.715  1.00  0.00     0.338 C 
ATOM      4  O   UNL A   1      33.692  29.869  27.471  1.00  0.00    -0.246 OA
BRANCH   3   5
ATOM      5  C   UNL A   1      35.895  30.134  28.201  1.00  0.00     0.060 A 
ATOM      6  C   UNL A   1      36.153  29.612  29.471  1.00  0.00     0.016 A 
ATOM      7  C   UNL A   1      36.971  30.198  27.296  1.00  0.00     0.016 A 
ATOM      8  C   UNL A   1      37.417  29.112  29.808  1.00  0.00     0.010 A 
ATOM      9  C   UNL A   1      38.233  29.693  27.626  1.00  0.00     0.010 A 
ATOM     10  C   UNL A   1      38.466  29.143  28.889  1.00  0.00    -0.014 A 
BRANCH  10  11
ATOM     11  C   UNL A   1      39.823  28.707  29.291  1.00  0.00     0.031 A 
ATOM     12  C   UNL A   1      40.589  29.532  30.280  1.00  0.00     0.074 A 
ATOM     13  C   UNL A   1      40.357  27.572  28.798  1.00  0.00     0.049 A 
ATOM     14  N   UNL A   1      41.746  29.283  30.830  1.00  0.00    -0.248 NA
ATOM     15  C   UNL A   1      39.951  30.776  30.748  1.00  0.00     0.031 C 
ATOM     16  C   UNL A   1      39.686  26.651  27.886  1.00  0.00     0.029 A 
ATOM     17  N   UNL A   1      41.598  27.014  28.967  1.00  0.00    -0.354 N 
ATOM     18  C   UNL A   1      41.953  30.307  31.744  1.00  0.00     0.074 A 
ATOM     19  C   UNL A   1      40.841  31.222  31.622  1.00  0.00     0.031 C 
ATOM     20  C   UNL A   1      40.554  25.707  27.485  1.00  0.00     0.029 A 
ATOM     21  C   UNL A   1      41.830  25.929  28.153  1.00  0.00     0.049 A 
ATOM     22  H   UNL A   1      42.261  27.357  29.610  1.00  0.00     0.167 HD
ATOM     23  C   UNL A   1      42.949  30.439  32.648  1.00  0.00     0.034 A 
ATOM     24  C   UNL A   1      42.944  25.193  27.973  1.00  0.00     0.034 A 
ATOM     25  C   UNL A   1      44.066  29.541  32.741  1.00  0.00     0.049 A 
ATOM     26  C   UNL A   1      44.108  25.438  28.894  1.00  0.00     0.074 A 
ATOM     27  C   UNL A   1      45.135  29.579  33.616  1.00  0.00     0.029 A 
ATOM     28  N   UNL A   1      44.268  28.453  31.904  1.00  0.00    -0.354 N 
ATOM     29  N   UNL A   1      44.218  26.320  29.858  1.00  0.00    -0.248 NA
ATOM     30  C   UNL A   1      45.262  24.538  28.766  1.00  0.00     0.031 C 
ATOM     31  C   UNL A   1      45.997  28.524  33.293  1.00  0.00     0.029 A 
ATOM     32  C   UNL A   1      45.452  27.817  32.232  1.00  0.00     0.049 A 
ATOM     33  H   UNL A   1      43.660  28.175  31.182  1.00  0.00     0.167 HD
ATOM     34  C   UNL A   1      45.417  26.038  30.497  1.00  0.00     0.074 A 
ATOM     35  C   UNL A   1      45.999  24.904  29.806  1.00  0.00     0.031 C 
ATOM     36  C   UNL A   1      45.982  26.655  31.564  1.00  0.00     0.034 A 
BRANCH  23  37
ATOM     37  C   UNL A   1      42.823  31.566  33.634  1.00  0.00     0.023 A 
ATOM     38  C   UNL A   1      43.328  32.837  33.286  1.00  0.00     0.012 A 
ATOM     39  C   UNL A   1      42.225  31.378  34.893  1.00  0.00     0.148 A 
ATOM     40  C   UNL A   1      43.273  33.896  34.190  1.00  0.00     0.002 A 
ATOM     41  C   UNL A   1      42.143  32.449  35.776  1.00  0.00     0.091 A 
ATOM     42  F   UNL A   1      41.774  30.158  35.210  1.00  0.00    -0.205 F 
ATOM     43  C   UNL A   1      42.676  33.703  35.432  1.00  0.00     0.022 A 
BRANCH  41  44
ATOM     44  S   UNL A   1      41.354  32.322  37.384  1.00  0.00     0.127 S 
ATOM     45  O   UNL A   1      41.404  33.709  37.848  1.00  0.00    -0.237 OA
ATOM     46  O   UNL A   1      40.016  31.846  37.031  1.00  0.00    -0.237 OA
ATOM     47  O   UNL A   1      42.154  31.380  38.152  1.00  0.00    -0.744 OA
ENDBRANCH  41  44
ENDBRANCH  23  37
BRANCH  24  48
ATOM     48  C   UNL A   1      42.983  24.115  26.945  1.00  0.00     0.023 A 
ATOM     49  C   UNL A   1      43.646  24.327  25.722  1.00  0.00     0.012 A 
ATOM     50  C   UNL A   1      42.357  22.874  27.179  1.00  0.00     0.148 A 
ATOM     51  C   UNL A   1      43.649  23.340  24.733  1.00  0.00     0.002 A 
ATOM     52  C   UNL A   1      42.400  21.880  26.206  1.00  0.00     0.091 A 
ATOM     53  F   UNL A   1      41.725  22.688  28.347  1.00  0.00    -0.205 F 
ATOM     54  C   UNL A   1      43.031  22.116  24.976  1.00  0.00     0.022 A 
BRANCH  52  55
ATOM     55  S   UNL A   1      41.727  20.239  26.490  1.00  0.00     0.127 S 
ATOM     56  O   UNL A   1      42.305  19.895  27.784  1.00  0.00    -0.237 OA
ATOM     57  O   UNL A   1      40.287  20.495  26.500  1.00  0.00    -0.237 OA
ATOM     58  O   UNL A   1      42.178  19.439  25.357  1.00  0.00    -0.744 OA
ENDBRANCH  52  55
ENDBRANCH  24  48
BRANCH  36  59
ATOM     59  C   UNL A   1      47.275  26.091  32.082  1.00  0.00     0.023 A 
ATOM     60  C   UNL A   1      48.498  26.509  31.524  1.00  0.00     0.012 A 
ATOM     61  C   UNL A   1      47.276  25.200  33.173  1.00  0.00     0.148 A 
ATOM     62  C   UNL A   1      49.705  26.027  32.028  1.00  0.00     0.002 A 
ATOM     63  C   UNL A   1      48.483  24.763  33.702  1.00  0.00     0.091 A 
ATOM     64  F   UNL A   1      46.099  24.794  33.671  1.00  0.00    -0.205 F 
ATOM     65  C   UNL A   1      49.698  25.166  33.123  1.00  0.00     0.022 A 
BRANCH  63  66
ATOM     66  S   UNL A   1      48.567  23.738  35.174  1.00  0.00     0.127 S 
ATOM     67  O   UNL A   1      47.856  22.537  34.739  1.00  0.00    -0.237 OA
ATOM     68  O   UNL A   1      50.009  23.563  35.350  1.00  0.00    -0.237 OA
ATOM     69  O   UNL A   1      47.921  24.504  36.231  1.00  0.00    -0.744 OA
ENDBRANCH  63  66
ENDBRANCH  36  59
ENDBRANCH  10  11
ENDBRANCH   3   5
ENDBRANCH   2   3
ENDBRANCH   1   2
BRANCH   1  70
ATOM     70  C   UNL A   1      33.336  34.264  27.985  1.00  0.00     0.275 C 
BRANCH  70  71
ATOM     71  O   UNL A   1      32.590  34.922  29.014  1.00  0.00    -0.458 OA
BRANCH  71  72
ATOM     72  C   UNL A   1      33.029  36.155  29.385  1.00  0.00     0.342 C 
ATOM     73  O   UNL A   1      32.962  37.183  28.734  1.00  0.00    -0.246 OA
BRANCH  72  74
ATOM     74  C   UNL A   1      33.459  36.092  30.795  1.00  0.00     0.103 A 
ATOM     75  C   UNL A   1      33.916  34.863  31.305  1.00  0.00     0.041 A 
ATOM     76  C   UNL A   1      33.493  37.239  31.592  1.00  0.00     0.130 A 
ATOM     77  C   UNL A   1      34.556  34.835  32.550  1.00  0.00     0.088 A 
ATOM     78  C   UNL A   1      34.106  37.195  32.836  1.00  0.00     0.048 A 
ATOM     79  C   UNL A   1      34.729  36.026  33.256  1.00  0.00     0.026 A 
BRANCH  76  80
ATOM     80  O   UNL A   1      32.955  38.417  31.155  1.00  0.00    -0.507 OA
ATOM     81  H   UNL A   1      33.387  38.910  30.487  1.00  0.00     0.293 HD
ENDBRANCH  76  80
BRANCH  77  82
ATOM     82  S   UNL A   1      35.291  33.333  33.157  1.00  0.00     0.261 S 
ATOM     83  O   UNL A   1      35.105  33.305  34.594  1.00  0.00    -0.201 OA
ATOM     84  O   UNL A   1      34.801  32.242  32.343  1.00  0.00    -0.201 OA
BRANCH  82  85
ATOM     85  N   UNL A   1      36.984  33.438  32.931  1.00  0.00    -0.280 N 
ATOM     86  H   UNL A   1      37.603  33.334  33.688  1.00  0.00     0.180 HD
BRANCH  85  87
ATOM     87  C   UNL A   1      37.475  33.681  31.605  1.00  0.00     0.050 A 
ATOM     88  C   UNL A   1      36.720  33.191  30.535  1.00  0.00     0.027 A 
ATOM     89  C   UNL A   1      38.716  34.278  31.375  1.00  0.00     0.047 A 
ATOM     90  C   UNL A   1      37.233  33.241  29.239  1.00  0.00     0.004 A 
ATOM     91  C   UNL A   1      39.210  34.346  30.070  1.00  0.00     0.043 A 
ATOM     92  C   UNL A   1      38.483  33.814  29.007  1.00  0.00     0.020 A 
ATOM     93  Cl  UNL A   1      40.745  35.068  29.776  1.00  0.00    -0.084 Cl
ENDBRANCH  85  87
ENDBRANCH  82  85
ENDBRANCH  77  82
ENDBRANCH  72  74
ENDBRANCH  71  72
ENDBRANCH  70  71
ENDBRANCH   1  70
TORSDOF 18
ENDMDL
MODEL 2
REMARK VINA RESULT:     -11.2      4.587     12.665
REMARK SMILES O=C(OCCOC(=O)c1cc(S(=O)(=O)Nc2cccc(Cl)c2)ccc1O)c1ccc(-c2c3nc(c(-c4cccc(S(=O)(=O)[O-])c4F)c4ccc([nH]4)c(-c4cccc(S(=O)(=O)[O-])c4F)c4nc(c(-c5cccc(S(=O)(=O)[O-])c5F)c5ccc2[nH]5)C=C4)C=C3)cc1
REMARK SMILES IDX 4 1 3 2 2 3 1 4 27 5 28 6 89 7 29 8 88 9 30 10 31 11 32 12
REMARK SMILES IDX 82 13 33 14 87 15 81 16 83 17 34 18 86 19 80 20 79 21 35 23
REMARK SMILES IDX 67 24 47 25 66 26 48 27 51 28 65 29 84 30 49 31 50 32 64 34
REMARK SMILES IDX 85 35 52 36 36 37 37 38 45 39 38 40 40 41 46 42 39 43 41 44
REMARK SMILES IDX 42 45 43 46 44 47 68 48 69 49 77 50 70 51 72 52 78 53 71 54
REMARK SMILES IDX 73 55 74 56 75 57 76 58 53 59 54 60 62 61 55 62 57 63 63 64
REMARK SMILES IDX 56 65 58 66 59 67 60 68 61 69 5 70 6 71 7 72 8 73 9 74 10 75
REMARK SMILES IDX 25 76 11 77 24 78 23 79 26 80 12 82 13 83 14 84 15 85 16 87
REMARK SMILES IDX 17 88 22 89 18 90 20 91 19 92 21 93
REMARK H PARENT 83 22 51 33 26 81 15 86
REMARK Flexibility Score: inf
ROOT
ATOM      1  C   UNL A   1      39.754  20.372  25.775  1.00  0.00     0.275 C 
ENDROOT
BRANCH   1   2
ATOM      2  O   UNL A   1      39.362  21.509  26.564  1.00  0.00    -0.458 OA
BRANCH   2   3
ATOM      3  C   UNL A   1      38.807  22.689  26.203  1.00  0.00     0.338 C 
ATOM      4  O   UNL A   1      37.897  22.668  25.375  1.00  0.00    -0.246 OA
BRANCH   3   5
ATOM      5  C   UNL A   1      39.267  24.033  26.686  1.00  0.00     0.060 A 
ATOM      6  C   UNL A   1      40.030  24.954  25.963  1.00  0.00     0.016 A 
ATOM      7  C   UNL A   1      38.927  24.369  28.008  1.00  0.00     0.016 A 
ATOM      8  C   UNL A   1      40.387  26.191  26.513  1.00  0.00     0.010 A 
ATOM      9  C   UNL A   1      39.275  25.608  28.559  1.00  0.00     0.010 A 
ATOM     10  C   UNL A   1      40.010  26.532  27.812  1.00  0.00    -0.014 A 
BRANCH  10  11
ATOM     11  C   UNL A   1      40.480  27.799  28.418  1.00  0.00     0.031 A 
ATOM     12  C   UNL A   1      41.947  27.987  28.660  1.00  0.00     0.074 A 
ATOM     13  C   UNL A   1      39.611  28.781  28.724  1.00  0.00     0.049 A 
ATOM     14  N   UNL A   1      42.573  29.047  29.094  1.00  0.00    -0.248 NA
ATOM     15  C   UNL A   1      42.830  26.855  28.329  1.00  0.00     0.031 C 
ATOM     16  C   UNL A   1      38.173  28.745  28.472  1.00  0.00     0.029 A 
ATOM     17  N   UNL A   1      39.801  29.990  29.344  1.00  0.00    -0.354 N 
ATOM     18  C   UNL A   1      43.924  28.730  29.040  1.00  0.00     0.074 A 
ATOM     19  C   UNL A   1      44.025  27.355  28.606  1.00  0.00     0.031 C 
ATOM     20  C   UNL A   1      37.594  29.820  29.032  1.00  0.00     0.029 A 
ATOM     21  C   UNL A   1      38.629  30.648  29.638  1.00  0.00     0.049 A 
ATOM     22  H   UNL A   1      40.691  30.352  29.558  1.00  0.00     0.167 HD
ATOM     23  C   UNL A   1      44.986  29.533  29.272  1.00  0.00     0.034 A 
ATOM     24  C   UNL A   1      38.415  31.794  30.314  1.00  0.00     0.034 A 
ATOM     25  C   UNL A   1      44.876  30.888  29.733  1.00  0.00     0.049 A 
ATOM     26  C   UNL A   1      39.612  32.621  30.695  1.00  0.00     0.074 A 
ATOM     27  C   UNL A   1      45.884  31.794  30.004  1.00  0.00     0.029 A 
ATOM     28  N   UNL A   1      43.675  31.524  30.019  1.00  0.00    -0.354 N 
ATOM     29  N   UNL A   1      40.882  32.366  30.493  1.00  0.00    -0.248 NA
ATOM     30  C   UNL A   1      39.351  33.928  31.315  1.00  0.00     0.031 C 
ATOM     31  C   UNL A   1      45.293  32.973  30.475  1.00  0.00     0.029 A 
ATOM     32  C   UNL A   1      43.916  32.807  30.475  1.00  0.00     0.049 A 
ATOM     33  H   UNL A   1      42.784  31.121  29.913  1.00  0.00     0.167 HD
ATOM     34  C   UNL A   1      41.568  33.505  30.894  1.00  0.00     0.074 A 
ATOM     35  C   UNL A   1      40.569  34.450  31.354  1.00  0.00     0.031 C 
ATOM     36  C   UNL A   1      42.901  33.749  30.875  1.00  0.00     0.034 A 
BRANCH  23  37
ATOM     37  C   UNL A   1      46.343  28.965  28.966  1.00  0.00     0.023 A 
ATOM     38  C   UNL A   1      47.146  28.505  30.031  1.00  0.00     0.012 A 
ATOM     39  C   UNL A   1      46.830  28.892  27.649  1.00  0.00     0.148 A 
ATOM     40  C   UNL A   1      48.429  28.014  29.795  1.00  0.00     0.002 A 
ATOM     41  C   UNL A   1      48.098  28.370  27.417  1.00  0.00     0.091 A 
ATOM     42  F   UNL A   1      46.060  29.356  26.656  1.00  0.00    -0.205 F 
ATOM     43  C   UNL A   1      48.902  27.943  28.488  1.00  0.00     0.022 A 
BRANCH  41  44
ATOM     44  S   UNL A   1      48.787  28.189  25.769  1.00  0.00     0.127 S 
ATOM     45  O   UNL A   1      49.792  29.251  25.751  1.00  0.00    -0.237 OA
ATOM     46  O   UNL A   1      49.335  26.833  25.815  1.00  0.00    -0.237 OA
ATOM     47  O   UNL A   1      47.676  28.367  24.846  1.00  0.00    -0.744 OA
ENDBRANCH  41  44
ENDBRANCH  23  37
BRANCH  24  48
ATOM     48  C   UNL A   1      37.029  32.260  30.597  1.00  0.00     0.023 A 
ATOM     49  C   UNL A   1      36.465  32.070  31.873  1.00  0.00     0.012 A 
ATOM     50  C   UNL A   1      36.262  32.892  29.597  1.00  0.00     0.148 A 
ATOM     51  C   UNL A   1      35.150  32.462  32.136  1.00  0.00     0.002 A 
ATOM     52  C   UNL A   1      34.968  33.318  29.878  1.00  0.00     0.091 A 
ATOM     53  F   UNL A   1      36.811  33.062  28.386  1.00  0.00    -0.205 F 
ATOM     54  C   UNL A   1      34.403  33.089  31.142  1.00  0.00     0.022 A 
BRANCH  52  55
ATOM     55  S   UNL A   1      33.986  34.235  28.686  1.00  0.00     0.127 S 
ATOM     56  O   UNL A   1      34.876  35.341  28.350  1.00  0.00    -0.237 OA
ATOM     57  O   UNL A   1      33.792  33.248  27.624  1.00  0.00    -0.237 OA
ATOM     58  O   UNL A   1      32.762  34.593  29.393  1.00  0.00    -0.744 OA
ENDBRANCH  52  55
ENDBRANCH  24  48
BRANCH  36  59
ATOM     59  C   UNL A   1      43.359  35.109  31.321  1.00  0.00     0.023 A 
ATOM     60  C   UNL A   1      43.711  35.325  32.667  1.00  0.00     0.012 A 
ATOM     61  C   UNL A   1      43.510  36.152  30.387  1.00  0.00     0.148 A 
ATOM     62  C   UNL A   1      44.180  36.570  33.083  1.00  0.00     0.002 A 
ATOM     63  C   UNL A   1      44.026  37.373  30.798  1.00  0.00     0.091 A 
ATOM     64  F   UNL A   1      43.143  35.932  29.116  1.00  0.00    -0.205 F 
ATOM     65  C   UNL A   1      44.350  37.588  32.148  1.00  0.00     0.022 A 
BRANCH  63  66
ATOM     66  S   UNL A   1      44.373  38.703  29.641  1.00  0.00     0.127 S 
ATOM     67  O   UNL A   1      43.062  38.915  29.031  1.00  0.00    -0.237 OA
ATOM     68  O   UNL A   1      44.814  39.780  30.528  1.00  0.00    -0.237 OA
ATOM     69  O   UNL A   1      45.407  38.196  28.750  1.00  0.00    -0.744 OA
ENDBRANCH  63  66
ENDBRANCH  36  59
ENDBRANCH  10  11
ENDBRANCH   3   5
ENDBRANCH   2   3
ENDBRANCH   1   2
BRANCH   1  70
ATOM     70  C   UNL A   1      40.848  19.511  26.402  1.00  0.00     0.275 C 
BRANCH  70  71
ATOM     71  O   UNL A   1      41.865  19.139  25.467  1.00  0.00    -0.458 OA
BRANCH  71  72
ATOM     72  C   UNL A   1      42.988  18.575  25.987  1.00  0.00     0.342 C 
ATOM     73  O   UNL A   1      43.061  17.534  26.619  1.00  0.00    -0.246 OA
BRANCH  72  74
ATOM     74  C   UNL A   1      44.157  19.344  25.519  1.00  0.00     0.103 A 
ATOM     75  C   UNL A   1      43.979  20.697  25.180  1.00  0.00     0.041 A 
ATOM     76  C   UNL A   1      45.433  18.774  25.489  1.00  0.00     0.130 A 
ATOM     77  C   UNL A   1      45.105  21.504  24.974  1.00  0.00     0.088 A 
ATOM     78  C   UNL A   1      46.541  19.578  25.259  1.00  0.00     0.048 A 
ATOM     79  C   UNL A   1      46.378  20.951  25.115  1.00  0.00     0.026 A 
BRANCH  76  80
ATOM     80  O   UNL A   1      45.613  17.438  25.710  1.00  0.00    -0.507 OA
ATOM     81  H   UNL A   1      45.927  16.888  25.021  1.00  0.00     0.293 HD
ENDBRANCH  76  80
BRANCH  77  82
ATOM     82  S   UNL A   1      44.928  23.254  24.703  1.00  0.00     0.261 S 
ATOM     83  O   UNL A   1      46.039  23.682  23.876  1.00  0.00    -0.201 OA
ATOM     84  O   UNL A   1      43.569  23.498  24.271  1.00  0.00    -0.201 OA
BRANCH  82  85
ATOM     85  N   UNL A   1      45.156  24.052  26.199  1.00  0.00    -0.280 N 
ATOM     86  H   UNL A   1      45.802  24.790  26.286  1.00  0.00     0.180 HD
BRANCH  85  87
ATOM     87  C   UNL A   1      44.377  23.617  27.323  1.00  0.00     0.050 A 
ATOM     88  C   UNL A   1      43.077  23.168  27.074  1.00  0.00     0.027 A 
ATOM     89  C   UNL A   1      44.840  23.743  28.634  1.00  0.00     0.047 A 
ATOM     90  C   UNL A   1      42.217  22.901  28.138  1.00  0.00     0.004 A 
ATOM     91  C   UNL A   1      43.977  23.449  29.693  1.00  0.00     0.043 A 
ATOM     92  C   UNL A   1      42.665  23.048  29.451  1.00  0.00     0.020 A 
ATOM     93  Cl  UNL A   1      44.532  23.612  31.315  1.00  0.00    -0.084 Cl
ENDBRANCH  85  87
ENDBRANCH  82  85
ENDBRANCH  77  82
ENDBRANCH  72  74
ENDBRANCH  71  72
ENDBRANCH  70  71
ENDBRANCH   1  70
TORSDOF 18
ENDMDL
MODEL 3
REMARK VINA RESULT:     -11.1      1.788      2.317
REMARK SMILES O=C(OCCOC(=O)c1cc(S(=O)(=O)Nc2cccc(Cl)c2)ccc1O)c1ccc(-c2c3nc(c(-c4cccc(S(=O)(=O)[O-])c4F)c4ccc([nH]4)c(-c4cccc(S(=O)(=O)[O-])c4F)c4nc(c(-c5cccc(S(=O)(=O)[O-])c5F)c5ccc2[nH]5)C=C4)C=C3)cc1
REMARK SMILES IDX 4 1 3 2 2 3 1 4 27 5 28 6 89 7 29 8 88 9 30 10 31 11 32 12
REMARK SMILES IDX 82 13 33 14 87 15 81 16 83 17 34 18 86 19 80 20 79 21 35 23
REMARK SMILES IDX 67 24 47 25 66 26 48 27 51 28 65 29 84 30 49 31 50 32 64 34
REMARK SMILES IDX 85 35 52 36 36 37 37 38 45 39 38 40 40 41 46 42 39 43 41 44
REMARK SMILES IDX 42 45 43 46 44 47 68 48 69 49 77 50 70 51 72 52 78 53 71 54
REMARK SMILES IDX 73 55 74 56 75 57 76 58 53 59 54 60 62 61 55 62 57 63 63 64
REMARK SMILES IDX 56 65 58 66 59 67 60 68 61 69 5 70 6 71 7 72 8 73 9 74 10 75
REMARK SMILES IDX 25 76 11 77 24 78 23 79 26 80 12 82 13 83 14 84 15 85 16 87
REMARK SMILES IDX 17 88 22 89 18 90 20 91 19 92 21 93
REMARK H PARENT 83 22 51 33 26 81 15 86
REMARK Flexibility Score: inf
ROOT
ATOM      1  C   UNL A   1      34.380  33.400  28.325  1.00  0.00     0.275 C 
ENDROOT
BRANCH   1   2
ATOM      2  O   UNL A   1      33.968  32.023  28.361  1.00  0.00    -0.458 OA
BRANCH   2   3
ATOM      3  C   UNL A   1      34.551  30.909  27.861  1.00  0.00     0.338 C 
ATOM      4  O   UNL A   1      33.980  30.323  26.943  1.00  0.00    -0.246 OA
BRANCH   3   5
ATOM      5  C   UNL A   1      35.810  30.292  28.393  1.00  0.00     0.060 A 
ATOM      6  C   UNL A   1      35.981  29.717  29.655  1.00  0.00     0.016 A 
ATOM      7  C   UNL A   1      36.933  30.339  27.546  1.00  0.00     0.016 A 
ATOM      8  C   UNL A   1      37.204  29.152  30.037  1.00  0.00     0.010 A 
ATOM      9  C   UNL A   1      38.155  29.769  27.921  1.00  0.00     0.010 A 
ATOM     10  C   UNL A   1      38.299  29.168  29.174  1.00  0.00    -0.014 A 
BRANCH  10  11
ATOM     11  C   UNL A   1      39.614  28.660  29.627  1.00  0.00     0.031 A 
ATOM     12  C   UNL A   1      40.343  29.397  30.709  1.00  0.00     0.074 A 
ATOM     13  C   UNL A   1      40.140  27.539  29.097  1.00  0.00     0.049 A 
ATOM     14  N   UNL A   1      41.457  29.074  31.310  1.00  0.00    -0.248 NA
ATOM     15  C   UNL A   1      39.719  30.632  31.215  1.00  0.00     0.031 C 
ATOM     16  C   UNL A   1      39.497  26.698  28.092  1.00  0.00     0.029 A 
ATOM     17  N   UNL A   1      41.350  26.927  29.305  1.00  0.00    -0.354 N 
ATOM     18  C   UNL A   1      41.640  30.033  32.296  1.00  0.00     0.074 A 
ATOM     19  C   UNL A   1      40.568  30.994  32.165  1.00  0.00     0.031 C 
ATOM     20  C   UNL A   1      40.357  25.749  27.685  1.00  0.00     0.029 A 
ATOM     21  C   UNL A   1      41.596  25.885  28.441  1.00  0.00     0.049 A 
ATOM     22  H   UNL A   1      41.983  27.207  30.006  1.00  0.00     0.167 HD
ATOM     23  C   UNL A   1      42.583  30.075  33.264  1.00  0.00     0.034 A 
ATOM     24  C   UNL A   1      42.695  25.122  28.281  1.00  0.00     0.034 A 
ATOM     25  C   UNL A   1      43.663  29.134  33.367  1.00  0.00     0.049 A 
ATOM     26  C   UNL A   1      43.808  25.270  29.283  1.00  0.00     0.074 A 
ATOM     27  C   UNL A   1      44.677  29.081  34.304  1.00  0.00     0.029 A 
ATOM     28  N   UNL A   1      43.881  28.091  32.477  1.00  0.00    -0.354 N 
ATOM     29  N   UNL A   1      43.887  26.088  30.304  1.00  0.00    -0.248 NA
ATOM     30  C   UNL A   1      44.938  24.337  29.168  1.00  0.00     0.031 C 
ATOM     31  C   UNL A   1      45.522  28.017  33.969  1.00  0.00     0.029 A 
ATOM     32  C   UNL A   1      45.020  27.395  32.835  1.00  0.00     0.049 A 
ATOM     33  H   UNL A   1      43.309  27.879  31.706  1.00  0.00     0.167 HD
ATOM     34  C   UNL A   1      45.035  25.725  30.995  1.00  0.00     0.074 A 
ATOM     35  C   UNL A   1      45.621  24.614  30.270  1.00  0.00     0.031 C 
ATOM     36  C   UNL A   1      45.553  26.257  32.129  1.00  0.00     0.034 A 
BRANCH  23  37
ATOM     37  C   UNL A   1      42.433  31.145  34.309  1.00  0.00     0.023 A 
ATOM     38  C   UNL A   1      41.882  30.802  35.562  1.00  0.00     0.012 A 
ATOM     39  C   UNL A   1      42.819  32.474  34.061  1.00  0.00     0.148 A 
ATOM     40  C   UNL A   1      41.682  31.774  36.541  1.00  0.00     0.002 A 
ATOM     41  C   UNL A   1      42.648  33.431  35.055  1.00  0.00     0.091 A 
ATOM     42  F   UNL A   1      43.318  32.780  32.857  1.00  0.00    -0.205 F 
ATOM     43  C   UNL A   1      42.070  33.086  36.289  1.00  0.00     0.022 A 
BRANCH  41  44
ATOM     44  S   UNL A   1      43.155  35.142  34.853  1.00  0.00     0.127 S 
ATOM     45  O   UNL A   1      42.830  35.703  36.164  1.00  0.00    -0.237 OA
ATOM     46  O   UNL A   1      44.588  35.006  34.587  1.00  0.00    -0.237 OA
ATOM     47  O   UNL A   1      42.375  35.664  33.741  1.00  0.00    -0.744 OA
ENDBRANCH  41  44
ENDBRANCH  23  37
BRANCH  24  48
ATOM     48  C   UNL A   1      42.762  24.106  27.193  1.00  0.00     0.023 A 
ATOM     49  C   UNL A   1      43.400  24.414  25.977  1.00  0.00     0.012 A 
ATOM     50  C   UNL A   1      42.188  22.830  27.362  1.00  0.00     0.148 A 
ATOM     51  C   UNL A   1      43.428  23.486  24.933  1.00  0.00     0.002 A 
ATOM     52  C   UNL A   1      42.257  21.896  26.334  1.00  0.00     0.091 A 
ATOM     53  F   UNL A   1      41.580  22.553  28.525  1.00  0.00    -0.205 F 
ATOM     54  C   UNL A   1      42.861  22.227  25.112  1.00  0.00     0.022 A 
BRANCH  52  55
ATOM     55  S   UNL A   1      41.652  20.215  26.531  1.00  0.00     0.127 S 
ATOM     56  O   UNL A   1      42.312  19.800  27.763  1.00  0.00    -0.237 OA
ATOM     57  O   UNL A   1      40.208  20.419  26.636  1.00  0.00    -0.237 OA
ATOM     58  O   UNL A   1      42.065  19.516  25.319  1.00  0.00    -0.744 OA
ENDBRANCH  52  55
ENDBRANCH  24  48
BRANCH  36  59
ATOM     59  C   UNL A   1      46.793  25.616  32.687  1.00  0.00     0.023 A 
ATOM     60  C   UNL A   1      48.062  26.062  32.271  1.00  0.00     0.012 A 
ATOM     61  C   UNL A   1      46.696  24.622  33.680  1.00  0.00     0.148 A 
ATOM     62  C   UNL A   1      49.218  25.507  32.816  1.00  0.00     0.002 A 
ATOM     63  C   UNL A   1      47.851  24.110  34.255  1.00  0.00     0.091 A 
ATOM     64  F   UNL A   1      45.477  24.194  34.042  1.00  0.00    -0.205 F 
ATOM     65  C   UNL A   1      49.113  24.542  33.816  1.00  0.00     0.022 A 
BRANCH  63  66
ATOM     66  S   UNL A   1      47.804  22.942  35.618  1.00  0.00     0.127 S 
ATOM     67  O   UNL A   1      49.227  22.738  35.883  1.00  0.00    -0.237 OA
ATOM     68  O   UNL A   1      47.093  23.696  36.650  1.00  0.00    -0.237 OA
ATOM     69  O   UNL A   1      47.083  21.778  35.121  1.00  0.00    -0.744 OA
ENDBRANCH  63  66
ENDBRANCH  36  59
ENDBRANCH  10  11
ENDBRANCH   3   5
ENDBRANCH   2   3
ENDBRANCH   1   2
BRANCH   1  70
ATOM     70  C   UNL A   1      33.316  34.369  27.812  1.00  0.00     0.275 C 
BRANCH  70  71
ATOM     71  O   UNL A   1      32.567  34.979  28.866  1.00  0.00    -0.458 OA
BRANCH  71  72
ATOM     72  C   UNL A   1      32.982  36.210  29.270  1.00  0.00     0.342 C 
ATOM     73  O   UNL A   1      32.912  37.251  28.638  1.00  0.00    -0.246 OA
BRANCH  72  74
ATOM     74  C   UNL A   1      33.389  36.125  30.686  1.00  0.00     0.103 A 
ATOM     75  C   UNL A   1      33.811  34.882  31.190  1.00  0.00     0.041 A 
ATOM     76  C   UNL A   1      33.436  37.264  31.494  1.00  0.00     0.130 A 
ATOM     77  C   UNL A   1      34.430  34.828  32.445  1.00  0.00     0.088 A 
ATOM     78  C   UNL A   1      34.029  37.195  32.747  1.00  0.00     0.048 A 
ATOM     79  C   UNL A   1      34.619  36.008  33.165  1.00  0.00     0.026 A 
BRANCH  76  80
ATOM     80  O   UNL A   1      32.931  38.457  31.060  1.00  0.00    -0.507 OA
ATOM     81  H   UNL A   1      33.400  38.961  30.426  1.00  0.00     0.293 HD
ENDBRANCH  76  80
BRANCH  77  82
ATOM     82  S   UNL A   1      35.123  33.304  33.048  1.00  0.00     0.261 S 
ATOM     83  O   UNL A   1      34.586  33.076  34.376  1.00  0.00    -0.201 OA
ATOM     84  O   UNL A   1      34.953  32.303  32.018  1.00  0.00    -0.201 OA
BRANCH  82  85
ATOM     85  N   UNL A   1      36.802  33.537  33.284  1.00  0.00    -0.280 N 
ATOM     86  H   UNL A   1      37.334  34.064  32.647  1.00  0.00     0.180 HD
BRANCH  85  87
ATOM     87  C   UNL A   1      37.411  32.941  34.439  1.00  0.00     0.050 A 
ATOM     88  C   UNL A   1      37.743  31.585  34.368  1.00  0.00     0.027 A 
ATOM     89  C   UNL A   1      37.564  33.642  35.636  1.00  0.00     0.047 A 
ATOM     90  C   UNL A   1      38.172  30.912  35.512  1.00  0.00     0.004 A 
ATOM     91  C   UNL A   1      38.018  32.964  36.771  1.00  0.00     0.043 A 
ATOM     92  C   UNL A   1      38.304  31.601  36.717  1.00  0.00     0.020 A 
ATOM     93  Cl  UNL A   1      38.199  33.815  38.256  1.00  0.00    -0.084 Cl
ENDBRANCH  85  87
ENDBRANCH  82  85
ENDBRANCH  77  82
ENDBRANCH  72  74
ENDBRANCH  71  72
ENDBRANCH  70  71
ENDBRANCH   1  70
TORSDOF 18
ENDMDL
