MODEL 1
REMARK VINA RESULT:     -12.1      0.000      0.000
REMARK SMILES COC(=O)c1cccc(-c2cnc(Cl)cc2C(=O)OCCOC(=O)c2ccc(-c3c4nc(c(-c5cccc(S(=O)(=O)[O-])c5F)c5ccc([nH]5)c(-c5cccc(S(=O)(=O)[O-])c5F)c5nc(c(-c6cccc(S(=O)(=O)[O-])c6F)c6ccc3[nH]6)C=C5)C=C4)cc2)c1
REMARK SMILES IDX 20 1 19 2 17 3 18 4 16 5 10 6 11 7 12 8 15 9 13 10 14 11
REMARK SMILES IDX 9 12 5 13 6 14 88 15 7 16 8 17 3 18 4 19 2 20 1 21 21 22
REMARK SMILES IDX 22 23 23 24 24 25 25 26 26 27 87 28 27 29 86 30 28 31 29 32
REMARK SMILES IDX 30 33 80 34 31 35 85 36 79 37 81 38 32 39 84 40 78 41 77 42
REMARK SMILES IDX 33 44 65 45 45 46 64 47 46 48 49 49 63 50 82 51 47 52 48 53
REMARK SMILES IDX 62 55 83 56 50 57 34 58 35 59 43 60 36 61 38 62 44 63 37 64
REMARK SMILES IDX 39 65 40 66 41 67 42 68 66 69 67 70 75 71 68 72 70 73 76 74
REMARK SMILES IDX 69 75 71 76 72 77 73 78 74 79 51 80 52 81 60 82 53 83 55 84
REMARK SMILES IDX 61 85 54 86 56 87 57 88 58 89 59 90
REMARK H PARENT 81 43 49 54
REMARK Flexibility Score: inf
ROOT
ATOM      1  C   UNL A   1      35.685  22.033  24.015  1.00  0.00     0.275 C 
ENDROOT
BRANCH   1   2
ATOM      2  O   UNL A   1      35.235  23.155  24.815  1.00  0.00    -0.458 OA
BRANCH   2   3
ATOM      3  C   UNL A   1      34.498  24.095  24.167  1.00  0.00     0.339 C 
ATOM      4  O   UNL A   1      34.697  24.526  23.045  1.00  0.00    -0.246 OA
BRANCH   3   5
ATOM      5  C   UNL A   1      33.466  24.651  25.074  1.00  0.00     0.072 A 
ATOM      6  C   UNL A   1      32.198  24.057  25.307  1.00  0.00     0.015 A 
ATOM      7  C   UNL A   1      31.309  24.825  26.050  1.00  0.00     0.122 A 
ATOM      8  N   UNL A   1      31.584  26.059  26.547  1.00  0.00    -0.244 NA
ATOM      9  C   UNL A   1      33.785  25.908  25.590  1.00  0.00     0.057 A 
ATOM     10  C   UNL A   1      32.810  26.560  26.306  1.00  0.00     0.129 A 
ATOM     11  Cl  UNL A   1      33.091  28.137  26.916  1.00  0.00    -0.062 Cl
BRANCH   6  12
ATOM     12  C   UNL A   1      31.809  22.729  24.786  1.00  0.00    -0.015 A 
ATOM     13  C   UNL A   1      32.458  19.482  24.767  1.00  0.00     0.060 A 
ATOM     14  C   UNL A   1      32.314  19.535  22.963  1.00  0.00     0.016 A 
ATOM     15  C   UNL A   1      32.130  21.226  25.755  1.00  0.00     0.024 A 
ATOM     16  C   UNL A   1      31.922  21.048  22.172  1.00  0.00     0.002 A 
ATOM     17  C   UNL A   1      31.685  22.566  23.038  1.00  0.00     0.009 A 
BRANCH  13  18
ATOM     18  C   UNL A   1      33.219  18.110  24.950  1.00  0.00     0.337 C 
ATOM     19  O   UNL A   1      34.359  18.000  24.503  1.00  0.00    -0.246 OA
BRANCH  18  20
ATOM     20  O   UNL A   1      32.608  17.146  25.675  1.00  0.00    -0.465 OA
ATOM     21  C   UNL A   1      32.880  15.809  25.238  1.00  0.00     0.282 C 
ENDBRANCH  18  20
ENDBRANCH  13  18
ENDBRANCH   6  12
ENDBRANCH   3   5
ENDBRANCH   2   3
ENDBRANCH   1   2
BRANCH   1  22
ATOM     22  C   UNL A   1      35.939  20.825  24.913  1.00  0.00     0.275 C 
BRANCH  22  23
ATOM     23  O   UNL A   1      36.848  21.238  25.937  1.00  0.00    -0.458 OA
BRANCH  23  24
ATOM     24  C   UNL A   1      38.143  21.027  25.639  1.00  0.00     0.338 C 
ATOM     25  O   UNL A   1      38.631  20.161  24.933  1.00  0.00    -0.246 OA
BRANCH  24  26
ATOM     26  C   UNL A   1      38.932  22.113  26.194  1.00  0.00     0.060 A 
ATOM     27  C   UNL A   1      40.349  21.829  27.261  1.00  0.00     0.016 A 
ATOM     28  C   UNL A   1      38.305  23.746  26.069  1.00  0.00     0.016 A 
ATOM     29  C   UNL A   1      41.110  23.406  28.274  1.00  0.00     0.010 A 
ATOM     30  C   UNL A   1      39.046  25.137  26.910  1.00  0.00     0.010 A 
ATOM     31  C   UNL A   1      40.443  25.057  27.993  1.00  0.00    -0.014 A 
BRANCH  31  32
ATOM     32  C   UNL A   1      41.195  26.331  28.441  1.00  0.00     0.031 A 
ATOM     33  C   UNL A   1      40.513  27.444  29.241  1.00  0.00     0.074 A 
ATOM     34  C   UNL A   1      42.462  26.617  28.032  1.00  0.00     0.049 A 
ATOM     35  N   UNL A   1      40.889  28.691  29.424  1.00  0.00    -0.248 NA
ATOM     36  C   UNL A   1      39.207  27.154  29.844  1.00  0.00     0.031 C 
ATOM     37  C   UNL A   1      43.269  25.826  27.119  1.00  0.00     0.029 A 
ATOM     38  N   UNL A   1      43.311  27.681  28.307  1.00  0.00    -0.354 N 
ATOM     39  C   UNL A   1      39.810  29.351  30.015  1.00  0.00     0.074 A 
ATOM     40  C   UNL A   1      38.752  28.369  30.122  1.00  0.00     0.031 C 
ATOM     41  C   UNL A   1      44.504  26.316  27.006  1.00  0.00     0.029 A 
ATOM     42  C   UNL A   1      44.557  27.576  27.709  1.00  0.00     0.049 A 
ATOM     43  H   UNL A   1      43.051  28.440  28.876  1.00  0.00     0.167 HD
ATOM     44  C   UNL A   1      39.709  30.626  30.481  1.00  0.00     0.034 A 
ATOM     45  C   UNL A   1      45.630  28.391  27.647  1.00  0.00     0.034 A 
ATOM     46  C   UNL A   1      40.820  31.542  30.581  1.00  0.00     0.049 A 
ATOM     47  C   UNL A   1      45.560  29.725  28.312  1.00  0.00     0.074 A 
ATOM     48  C   UNL A   1      40.862  32.778  31.207  1.00  0.00     0.029 A 
ATOM     49  N   UNL A   1      42.093  31.310  30.084  1.00  0.00    -0.354 N 
ATOM     50  N   UNL A   1      44.546  30.275  28.927  1.00  0.00    -0.248 NA
ATOM     51  C   UNL A   1      46.778  30.547  28.292  1.00  0.00     0.031 C 
ATOM     52  C   UNL A   1      42.157  33.292  31.087  1.00  0.00     0.029 A 
ATOM     53  C   UNL A   1      42.929  32.368  30.407  1.00  0.00     0.049 A 
ATOM     54  H   UNL A   1      42.364  30.511  29.576  1.00  0.00     0.167 HD
ATOM     55  C   UNL A   1      45.009  31.492  29.398  1.00  0.00     0.074 A 
ATOM     56  C   UNL A   1      46.403  31.591  29.016  1.00  0.00     0.031 C 
ATOM     57  C   UNL A   1      44.328  32.446  30.074  1.00  0.00     0.034 A 
BRANCH  44  58
ATOM     58  C   UNL A   1      38.368  31.092  31.020  1.00  0.00     0.023 A 
ATOM     59  C   UNL A   1      38.074  30.962  32.394  1.00  0.00     0.012 A 
ATOM     60  C   UNL A   1      37.418  31.715  30.179  1.00  0.00     0.148 A 
ATOM     61  C   UNL A   1      36.838  31.357  32.905  1.00  0.00     0.002 A 
ATOM     62  C   UNL A   1      36.209  32.161  30.708  1.00  0.00     0.091 A 
ATOM     63  F   UNL A   1      37.707  31.855  28.877  1.00  0.00    -0.205 F 
ATOM     64  C   UNL A   1      35.909  31.961  32.064  1.00  0.00     0.022 A 
BRANCH  62  65
ATOM     65  S   UNL A   1      34.979  33.046  29.739  1.00  0.00     0.127 S 
ATOM     66  O   UNL A   1      34.452  31.980  28.886  1.00  0.00    -0.237 OA
ATOM     67  O   UNL A   1      34.052  33.513  30.769  1.00  0.00    -0.237 OA
ATOM     68  O   UNL A   1      35.698  34.103  29.042  1.00  0.00    -0.744 OA
ENDBRANCH  62  65
ENDBRANCH  44  58
BRANCH  45  69
ATOM     69  C   UNL A   1      46.884  27.935  26.967  1.00  0.00     0.023 A 
ATOM     70  C   UNL A   1      47.888  27.313  27.736  1.00  0.00     0.012 A 
ATOM     71  C   UNL A   1      47.062  28.041  25.572  1.00  0.00     0.148 A 
ATOM     72  C   UNL A   1      49.052  26.829  27.136  1.00  0.00     0.002 A 
ATOM     73  C   UNL A   1      48.194  27.496  24.972  1.00  0.00     0.091 A 
ATOM     74  F   UNL A   1      46.103  28.639  24.852  1.00  0.00    -0.205 F 
ATOM     75  C   UNL A   1      49.199  26.906  25.754  1.00  0.00     0.022 A 
BRANCH  73  76
ATOM     76  S   UNL A   1      48.389  27.399  23.187  1.00  0.00     0.127 S 
ATOM     77  O   UNL A   1      48.255  25.964  22.949  1.00  0.00    -0.237 OA
ATOM     78  O   UNL A   1      47.267  28.209  22.714  1.00  0.00    -0.237 OA
ATOM     79  O   UNL A   1      49.699  27.971  22.907  1.00  0.00    -0.744 OA
ENDBRANCH  73  76
ENDBRANCH  45  69
BRANCH  57  80
ATOM     80  C   UNL A   1      45.100  33.657  30.513  1.00  0.00     0.023 A 
ATOM     81  C   UNL A   1      45.753  33.668  31.760  1.00  0.00     0.012 A 
ATOM     82  C   UNL A   1      45.206  34.773  29.662  1.00  0.00     0.148 A 
ATOM     83  C   UNL A   1      46.475  34.789  32.169  1.00  0.00     0.002 A 
ATOM     84  C   UNL A   1      45.969  35.865  30.052  1.00  0.00     0.091 A 
ATOM     85  F   UNL A   1      44.548  34.750  28.493  1.00  0.00    -0.205 F 
ATOM     86  C   UNL A   1      46.594  35.880  31.311  1.00  0.00     0.022 A 
BRANCH  84  87
ATOM     87  S   UNL A   1      46.256  37.270  28.973  1.00  0.00     0.127 S 
ATOM     88  O   UNL A   1      47.153  38.090  29.784  1.00  0.00    -0.237 OA
ATOM     89  O   UNL A   1      46.884  36.643  27.811  1.00  0.00    -0.237 OA
ATOM     90  O   UNL A   1      44.945  37.851  28.712  1.00  0.00    -0.744 OA
ENDBRANCH  84  87
ENDBRANCH  57  80
ENDBRANCH  31  32
ENDBRANCH  24  26
ENDBRANCH  23  24
ENDBRANCH  22  23
ENDBRANCH   1  22
TORSDOF 17
ENDMDL
MODEL 2
REMARK VINA RESULT:     -11.9      5.701      8.259
REMARK SMILES COC(=O)c1cccc(-c2cnc(Cl)cc2C(=O)OCCOC(=O)c2ccc(-c3c4nc(c(-c5cccc(S(=O)(=O)[O-])c5F)c5ccc([nH]5)c(-c5cccc(S(=O)(=O)[O-])c5F)c5nc(c(-c6cccc(S(=O)(=O)[O-])c6F)c6ccc3[nH]6)C=C5)C=C4)cc2)c1
REMARK SMILES IDX 20 1 19 2 17 3 18 4 16 5 10 6 11 7 12 8 15 9 13 10 14 11
REMARK SMILES IDX 9 12 5 13 6 14 88 15 7 16 8 17 3 18 4 19 2 20 1 21 21 22
REMARK SMILES IDX 22 23 23 24 24 25 25 26 26 27 87 28 27 29 86 30 28 31 29 32
REMARK SMILES IDX 30 33 80 34 31 35 85 36 79 37 81 38 32 39 84 40 78 41 77 42
REMARK SMILES IDX 33 44 65 45 45 46 64 47 46 48 49 49 63 50 82 51 47 52 48 53
REMARK SMILES IDX 62 55 83 56 50 57 34 58 35 59 43 60 36 61 38 62 44 63 37 64
REMARK SMILES IDX 39 65 40 66 41 67 42 68 66 69 67 70 75 71 68 72 70 73 76 74
REMARK SMILES IDX 69 75 71 76 72 77 73 78 74 79 51 80 52 81 60 82 53 83 55 84
REMARK SMILES IDX 61 85 54 86 56 87 57 88 58 89 59 90
REMARK H PARENT 81 43 49 54
REMARK Flexibility Score: inf
ROOT
ATOM      1  C   UNL A   1      32.026  29.384  25.203  1.00  0.00     0.275 C 
ENDROOT
BRANCH   1   2
ATOM      2  O   UNL A   1      31.058  28.338  25.463  1.00  0.00    -0.458 OA
BRANCH   2   3
ATOM      3  C   UNL A   1      31.529  27.228  26.090  1.00  0.00     0.339 C 
ATOM      4  O   UNL A   1      31.416  26.962  27.274  1.00  0.00    -0.246 OA
BRANCH   3   5
ATOM      5  C   UNL A   1      32.342  26.417  25.154  1.00  0.00     0.072 A 
ATOM      6  C   UNL A   1      31.937  26.057  23.842  1.00  0.00     0.015 A 
ATOM      7  C   UNL A   1      32.762  25.147  23.193  1.00  0.00     0.122 A 
ATOM      8  N   UNL A   1      33.891  24.612  23.726  1.00  0.00    -0.244 NA
ATOM      9  C   UNL A   1      33.509  25.900  25.721  1.00  0.00     0.057 A 
ATOM     10  C   UNL A   1      34.231  25.005  24.968  1.00  0.00     0.129 A 
ATOM     11  Cl  UNL A   1      35.638  24.268  25.612  1.00  0.00    -0.062 Cl
BRANCH   6  12
ATOM     12  C   UNL A   1      30.713  26.576  23.193  1.00  0.00    -0.015 A 
ATOM     13  C   UNL A   1      29.101  29.253  22.100  1.00  0.00     0.060 A 
ATOM     14  C   UNL A   1      27.630  28.629  22.950  1.00  0.00     0.016 A 
ATOM     15  C   UNL A   1      30.767  28.096  22.199  1.00  0.00     0.024 A 
ATOM     16  C   UNL A   1      27.710  27.103  23.807  1.00  0.00     0.002 A 
ATOM     17  C   UNL A   1      29.175  26.129  23.925  1.00  0.00     0.009 A 
BRANCH  13  18
ATOM     18  C   UNL A   1      28.685  30.762  21.885  1.00  0.00     0.337 C 
ATOM     19  O   UNL A   1      27.948  31.046  20.944  1.00  0.00    -0.246 OA
BRANCH  18  20
ATOM     20  O   UNL A   1      29.090  31.662  22.811  1.00  0.00    -0.465 OA
ATOM     21  C   UNL A   1      28.530  32.970  22.654  1.00  0.00     0.282 C 
ENDBRANCH  18  20
ENDBRANCH  13  18
ENDBRANCH   6  12
ENDBRANCH   3   5
ENDBRANCH   2   3
ENDBRANCH   1   2
BRANCH   1  22
ATOM     22  C   UNL A   1      31.365  30.752  25.353  1.00  0.00     0.275 C 
BRANCH  22  23
ATOM     23  O   UNL A   1      31.408  31.097  26.740  1.00  0.00    -0.458 OA
BRANCH  23  24
ATOM     24  C   UNL A   1      32.108  32.215  27.006  1.00  0.00     0.338 C 
ATOM     25  O   UNL A   1      31.781  33.376  26.837  1.00  0.00    -0.246 OA
BRANCH  24  26
ATOM     26  C   UNL A   1      33.335  31.845  27.690  1.00  0.00     0.060 A 
ATOM     27  C   UNL A   1      34.567  33.055  28.184  1.00  0.00     0.016 A 
ATOM     28  C   UNL A   1      33.768  30.147  27.763  1.00  0.00     0.016 A 
ATOM     29  C   UNL A   1      36.384  32.382  28.764  1.00  0.00     0.010 A 
ATOM     30  C   UNL A   1      35.353  29.574  28.358  1.00  0.00     0.010 A 
ATOM     31  C   UNL A   1      36.684  30.609  28.891  1.00  0.00    -0.014 A 
BRANCH  31  32
ATOM     32  C   UNL A   1      37.898  30.037  29.660  1.00  0.00     0.031 A 
ATOM     33  C   UNL A   1      38.195  30.413  31.115  1.00  0.00     0.074 A 
ATOM     34  C   UNL A   1      38.859  29.284  29.058  1.00  0.00     0.049 A 
ATOM     35  N   UNL A   1      39.311  30.284  31.799  1.00  0.00    -0.248 NA
ATOM     36  C   UNL A   1      37.141  31.094  31.876  1.00  0.00     0.031 C 
ATOM     37  C   UNL A   1      38.920  28.937  27.649  1.00  0.00     0.029 A 
ATOM     38  N   UNL A   1      40.009  28.678  29.547  1.00  0.00    -0.354 N 
ATOM     39  C   UNL A   1      39.136  30.996  32.987  1.00  0.00     0.074 A 
ATOM     40  C   UNL A   1      37.817  31.586  32.908  1.00  0.00     0.031 C 
ATOM     41  C   UNL A   1      39.924  28.097  27.394  1.00  0.00     0.029 A 
ATOM     42  C   UNL A   1      40.713  27.957  28.596  1.00  0.00     0.049 A 
ATOM     43  H   UNL A   1      40.297  28.755  30.484  1.00  0.00     0.167 HD
ATOM     44  C   UNL A   1      39.952  31.111  34.069  1.00  0.00     0.034 A 
ATOM     45  C   UNL A   1      41.887  27.294  28.614  1.00  0.00     0.034 A 
ATOM     46  C   UNL A   1      41.167  30.353  34.252  1.00  0.00     0.049 A 
ATOM     47  C   UNL A   1      42.693  27.291  29.869  1.00  0.00     0.074 A 
ATOM     48  C   UNL A   1      41.959  30.258  35.386  1.00  0.00     0.029 A 
ATOM     49  N   UNL A   1      41.743  29.527  33.300  1.00  0.00    -0.354 N 
ATOM     50  N   UNL A   1      42.449  27.913  30.993  1.00  0.00    -0.248 NA
ATOM     51  C   UNL A   1      43.924  26.488  29.872  1.00  0.00     0.031 C 
ATOM     52  C   UNL A   1      43.012  29.377  35.118  1.00  0.00     0.029 A 
ATOM     53  C   UNL A   1      42.865  28.905  33.826  1.00  0.00     0.049 A 
ATOM     54  H   UNL A   1      41.405  29.400  32.384  1.00  0.00     0.167 HD
ATOM     55  C   UNL A   1      43.477  27.552  31.850  1.00  0.00     0.074 A 
ATOM     56  C   UNL A   1      44.334  26.639  31.122  1.00  0.00     0.031 C 
ATOM     57  C   UNL A   1      43.690  27.958  33.123  1.00  0.00     0.034 A 
BRANCH  44  58
ATOM     58  C   UNL A   1      39.520  32.022  35.205  1.00  0.00     0.023 A 
ATOM     59  C   UNL A   1      39.821  33.400  35.160  1.00  0.00     0.012 A 
ATOM     60  C   UNL A   1      38.763  31.529  36.291  1.00  0.00     0.148 A 
ATOM     61  C   UNL A   1      39.458  34.249  36.205  1.00  0.00     0.002 A 
ATOM     62  C   UNL A   1      38.353  32.394  37.303  1.00  0.00     0.091 A 
ATOM     63  F   UNL A   1      38.461  30.222  36.322  1.00  0.00    -0.205 F 
ATOM     64  C   UNL A   1      38.721  33.748  37.273  1.00  0.00     0.022 A 
BRANCH  62  65
ATOM     65  S   UNL A   1      37.311  31.878  38.675  1.00  0.00     0.127 S 
ATOM     66  O   UNL A   1      38.155  32.198  39.825  1.00  0.00    -0.237 OA
ATOM     67  O   UNL A   1      36.143  32.746  38.519  1.00  0.00    -0.237 OA
ATOM     68  O   UNL A   1      37.046  30.461  38.471  1.00  0.00    -0.744 OA
ENDBRANCH  62  65
ENDBRANCH  44  58
BRANCH  45  69
ATOM     69  C   UNL A   1      42.340  26.532  27.406  1.00  0.00     0.023 A 
ATOM     70  C   UNL A   1      43.135  27.188  26.445  1.00  0.00     0.012 A 
ATOM     71  C   UNL A   1      42.059  25.160  27.235  1.00  0.00     0.148 A 
ATOM     72  C   UNL A   1      43.621  26.504  25.329  1.00  0.00     0.002 A 
ATOM     73  C   UNL A   1      42.602  24.468  26.156  1.00  0.00     0.091 A 
ATOM     74  F   UNL A   1      41.298  24.549  28.153  1.00  0.00    -0.205 F 
ATOM     75  C   UNL A   1      43.367  25.142  25.192  1.00  0.00     0.022 A 
BRANCH  73  76
ATOM     76  S   UNL A   1      42.469  22.683  25.989  1.00  0.00     0.127 S 
ATOM     77  O   UNL A   1      43.091  22.458  24.687  1.00  0.00    -0.237 OA
ATOM     78  O   UNL A   1      43.249  22.211  27.134  1.00  0.00    -0.237 OA
ATOM     79  O   UNL A   1      41.045  22.388  26.075  1.00  0.00    -0.744 OA
ENDBRANCH  73  76
ENDBRANCH  45  69
BRANCH  57  80
ATOM     80  C   UNL A   1      44.865  27.361  33.844  1.00  0.00     0.023 A 
ATOM     81  C   UNL A   1      46.122  27.996  33.796  1.00  0.00     0.012 A 
ATOM     82  C   UNL A   1      44.707  26.186  34.602  1.00  0.00     0.148 A 
ATOM     83  C   UNL A   1      47.214  27.448  34.468  1.00  0.00     0.002 A 
ATOM     84  C   UNL A   1      45.785  25.676  35.311  1.00  0.00     0.091 A 
ATOM     85  F   UNL A   1      43.508  25.584  34.605  1.00  0.00    -0.205 F 
ATOM     86  C   UNL A   1      47.043  26.297  35.235  1.00  0.00     0.022 A 
BRANCH  84  87
ATOM     87  S   UNL A   1      45.633  24.256  36.399  1.00  0.00     0.127 S 
ATOM     88  O   UNL A   1      46.930  24.257  37.072  1.00  0.00    -0.237 OA
ATOM     89  O   UNL A   1      44.503  24.638  37.246  1.00  0.00    -0.237 OA
ATOM     90  O   UNL A   1      45.379  23.111  35.533  1.00  0.00    -0.744 OA
ENDBRANCH  84  87
ENDBRANCH  57  80
ENDBRANCH  31  32
ENDBRANCH  24  26
ENDBRANCH  23  24
ENDBRANCH  22  23
ENDBRANCH   1  22
TORSDOF 17
ENDMDL
MODEL 3
REMARK VINA RESULT:     -11.9      5.446     10.045
REMARK SMILES COC(=O)c1cccc(-c2cnc(Cl)cc2C(=O)OCCOC(=O)c2ccc(-c3c4nc(c(-c5cccc(S(=O)(=O)[O-])c5F)c5ccc([nH]5)c(-c5cccc(S(=O)(=O)[O-])c5F)c5nc(c(-c6cccc(S(=O)(=O)[O-])c6F)c6ccc3[nH]6)C=C5)C=C4)cc2)c1
REMARK SMILES IDX 20 1 19 2 17 3 18 4 16 5 10 6 11 7 12 8 15 9 13 10 14 11
REMARK SMILES IDX 9 12 5 13 6 14 88 15 7 16 8 17 3 18 4 19 2 20 1 21 21 22
REMARK SMILES IDX 22 23 23 24 24 25 25 26 26 27 87 28 27 29 86 30 28 31 29 32
REMARK SMILES IDX 30 33 80 34 31 35 85 36 79 37 81 38 32 39 84 40 78 41 77 42
REMARK SMILES IDX 33 44 65 45 45 46 64 47 46 48 49 49 63 50 82 51 47 52 48 53
REMARK SMILES IDX 62 55 83 56 50 57 34 58 35 59 43 60 36 61 38 62 44 63 37 64
REMARK SMILES IDX 39 65 40 66 41 67 42 68 66 69 67 70 75 71 68 72 70 73 76 74
REMARK SMILES IDX 69 75 71 76 72 77 73 78 74 79 51 80 52 81 60 82 53 83 55 84
REMARK SMILES IDX 61 85 54 86 56 87 57 88 58 89 59 90
REMARK H PARENT 81 43 49 54
REMARK Flexibility Score: inf
ROOT
ATOM      1  C   UNL A   1      31.625  28.060  25.572  1.00  0.00     0.275 C 
ENDROOT
BRANCH   1   2
ATOM      2  O   UNL A   1      32.715  27.391  24.891  1.00  0.00    -0.458 OA
BRANCH   2   3
ATOM      3  C   UNL A   1      33.041  26.154  25.352  1.00  0.00     0.339 C 
ATOM      4  O   UNL A   1      33.061  25.797  26.517  1.00  0.00    -0.246 OA
BRANCH   3   5
ATOM      5  C   UNL A   1      33.515  25.301  24.237  1.00  0.00     0.072 A 
ATOM      6  C   UNL A   1      32.753  24.995  23.080  1.00  0.00     0.015 A 
ATOM      7  C   UNL A   1      33.307  24.037  22.239  1.00  0.00     0.122 A 
ATOM      8  N   UNL A   1      34.492  23.411  22.458  1.00  0.00    -0.244 NA
ATOM      9  C   UNL A   1      34.747  24.690  24.478  1.00  0.00     0.057 A 
ATOM     10  C   UNL A   1      35.176  23.757  23.565  1.00  0.00     0.129 A 
ATOM     11  Cl  UNL A   1      36.643  22.907  23.818  1.00  0.00    -0.062 Cl
BRANCH   6  12
ATOM     12  C   UNL A   1      31.445  25.613  22.775  1.00  0.00    -0.015 A 
ATOM     13  C   UNL A   1      29.777  28.434  22.301  1.00  0.00     0.060 A 
ATOM     14  C   UNL A   1      28.505  27.788  23.415  1.00  0.00     0.016 A 
ATOM     15  C   UNL A   1      31.356  27.214  21.920  1.00  0.00     0.024 A 
ATOM     16  C   UNL A   1      28.693  26.189  24.106  1.00  0.00     0.002 A 
ATOM     17  C   UNL A   1      30.091  25.157  23.804  1.00  0.00     0.009 A 
BRANCH  13  18
ATOM     18  C   UNL A   1      29.408  29.970  22.310  1.00  0.00     0.337 C 
ATOM     19  O   UNL A   1      29.193  30.535  21.240  1.00  0.00    -0.246 OA
BRANCH  18  20
ATOM     20  O   UNL A   1      29.256  30.571  23.513  1.00  0.00    -0.465 OA
ATOM     21  C   UNL A   1      28.879  31.952  23.445  1.00  0.00     0.282 C 
ENDBRANCH  18  20
ENDBRANCH  13  18
ENDBRANCH   6  12
ENDBRANCH   3   5
ENDBRANCH   2   3
ENDBRANCH   1   2
BRANCH   1  22
ATOM     22  C   UNL A   1      31.729  29.568  25.360  1.00  0.00     0.275 C 
BRANCH  22  23
ATOM     23  O   UNL A   1      31.452  30.195  26.615  1.00  0.00    -0.458 OA
BRANCH  23  24
ATOM     24  C   UNL A   1      31.970  31.432  26.737  1.00  0.00     0.338 C 
ATOM     25  O   UNL A   1      31.467  32.501  26.442  1.00  0.00    -0.246 OA
BRANCH  24  26
ATOM     26  C   UNL A   1      33.240  31.337  27.436  1.00  0.00     0.060 A 
ATOM     27  C   UNL A   1      34.197  32.785  27.897  1.00  0.00     0.016 A 
ATOM     28  C   UNL A   1      34.006  29.765  27.564  1.00  0.00     0.016 A 
ATOM     29  C   UNL A   1      36.108  32.512  28.504  1.00  0.00     0.010 A 
ATOM     30  C   UNL A   1      35.668  29.542  28.181  1.00  0.00     0.010 A 
ATOM     31  C   UNL A   1      36.758  30.840  28.686  1.00  0.00    -0.014 A 
BRANCH  31  32
ATOM     32  C   UNL A   1      38.055  30.548  29.477  1.00  0.00     0.031 A 
ATOM     33  C   UNL A   1      39.166  29.653  28.921  1.00  0.00     0.074 A 
ATOM     34  C   UNL A   1      38.232  30.942  30.768  1.00  0.00     0.049 A 
ATOM     35  N   UNL A   1      40.153  29.057  29.555  1.00  0.00    -0.248 NA
ATOM     36  C   UNL A   1      39.123  29.312  27.495  1.00  0.00     0.031 C 
ATOM     37  C   UNL A   1      37.261  31.640  31.593  1.00  0.00     0.029 A 
ATOM     38  N   UNL A   1      39.294  30.792  31.649  1.00  0.00    -0.354 N 
ATOM     39  C   UNL A   1      40.733  28.170  28.646  1.00  0.00     0.074 A 
ATOM     40  C   UNL A   1      39.958  28.282  27.429  1.00  0.00     0.031 C 
ATOM     41  C   UNL A   1      37.777  31.981  32.774  1.00  0.00     0.029 A 
ATOM     42  C   UNL A   1      39.086  31.380  32.887  1.00  0.00     0.049 A 
ATOM     43  H   UNL A   1      40.120  30.312  31.416  1.00  0.00     0.167 HD
ATOM     44  C   UNL A   1      41.832  27.379  28.773  1.00  0.00     0.034 A 
ATOM     45  C   UNL A   1      39.797  31.413  34.032  1.00  0.00     0.034 A 
ATOM     46  C   UNL A   1      42.737  27.422  29.896  1.00  0.00     0.049 A 
ATOM     47  C   UNL A   1      41.091  30.672  34.097  1.00  0.00     0.074 A 
ATOM     48  C   UNL A   1      43.970  26.803  30.033  1.00  0.00     0.029 A 
ATOM     49  N   UNL A   1      42.536  28.156  31.055  1.00  0.00    -0.354 N 
ATOM     50  N   UNL A   1      41.639  29.911  33.186  1.00  0.00    -0.248 NA
ATOM     51  C   UNL A   1      41.875  30.803  35.333  1.00  0.00     0.031 C 
ATOM     52  C   UNL A   1      44.511  27.161  31.272  1.00  0.00     0.029 A 
ATOM     53  C   UNL A   1      43.627  28.020  31.899  1.00  0.00     0.049 A 
ATOM     54  H   UNL A   1      41.734  28.694  31.250  1.00  0.00     0.167 HD
ATOM     55  C   UNL A   1      42.847  29.497  33.722  1.00  0.00     0.074 A 
ATOM     56  C   UNL A   1      42.962  30.109  35.030  1.00  0.00     0.031 C 
ATOM     57  C   UNL A   1      43.768  28.669  33.177  1.00  0.00     0.034 A 
BRANCH  44  58
ATOM     58  C   UNL A   1      42.191  26.454  27.622  1.00  0.00     0.023 A 
ATOM     59  C   UNL A   1      42.994  26.925  26.561  1.00  0.00     0.012 A 
ATOM     60  C   UNL A   1      41.786  25.101  27.617  1.00  0.00     0.148 A 
ATOM     61  C   UNL A   1      43.312  26.102  25.481  1.00  0.00     0.002 A 
ATOM     62  C   UNL A   1      42.157  24.268  26.564  1.00  0.00     0.091 A 
ATOM     63  F   UNL A   1      41.039  24.651  28.636  1.00  0.00    -0.205 F 
ATOM     64  C   UNL A   1      42.898  24.773  25.485  1.00  0.00     0.022 A 
BRANCH  62  65
ATOM     65  S   UNL A   1      41.767  22.513  26.514  1.00  0.00     0.127 S 
ATOM     66  O   UNL A   1      40.318  22.537  26.313  1.00  0.00    -0.237 OA
ATOM     67  O   UNL A   1      42.534  22.060  25.353  1.00  0.00    -0.237 OA
ATOM     68  O   UNL A   1      42.211  21.964  27.787  1.00  0.00    -0.744 OA
ENDBRANCH  62  65
ENDBRANCH  44  58
BRANCH  45  69
ATOM     69  C   UNL A   1      39.316  32.225  35.195  1.00  0.00     0.023 A 
ATOM     70  C   UNL A   1      38.487  31.613  36.156  1.00  0.00     0.012 A 
ATOM     71  C   UNL A   1      39.724  33.560  35.399  1.00  0.00     0.148 A 
ATOM     72  C   UNL A   1      38.055  32.318  37.282  1.00  0.00     0.002 A 
ATOM     73  C   UNL A   1      39.345  34.234  36.556  1.00  0.00     0.091 A 
ATOM     74  F   UNL A   1      40.509  34.132  34.475  1.00  0.00    -0.205 F 
ATOM     75  C   UNL A   1      38.495  33.621  37.490  1.00  0.00     0.022 A 
BRANCH  73  76
ATOM     76  S   UNL A   1      39.999  35.852  36.989  1.00  0.00     0.127 S 
ATOM     77  O   UNL A   1      39.762  36.608  35.762  1.00  0.00    -0.237 OA
ATOM     78  O   UNL A   1      39.152  36.231  38.120  1.00  0.00    -0.237 OA
ATOM     79  O   UNL A   1      41.395  35.627  37.338  1.00  0.00    -0.744 OA
ENDBRANCH  73  76
ENDBRANCH  45  69
BRANCH  57  80
ATOM     80  C   UNL A   1      45.024  28.429  33.965  1.00  0.00     0.023 A 
ATOM     81  C   UNL A   1      46.128  29.291  33.817  1.00  0.00     0.012 A 
ATOM     82  C   UNL A   1      45.090  27.365  34.883  1.00  0.00     0.148 A 
ATOM     83  C   UNL A   1      47.295  29.075  34.551  1.00  0.00     0.002 A 
ATOM     84  C   UNL A   1      46.234  27.187  35.648  1.00  0.00     0.091 A 
ATOM     85  F   UNL A   1      44.037  26.540  34.982  1.00  0.00    -0.205 F 
ATOM     86  C   UNL A   1      47.343  28.033  35.473  1.00  0.00     0.022 A 
BRANCH  84  87
ATOM     87  S   UNL A   1      46.348  25.933  36.927  1.00  0.00     0.127 S 
ATOM     88  O   UNL A   1      46.089  24.711  36.170  1.00  0.00    -0.237 OA
ATOM     89  O   UNL A   1      47.729  26.087  37.387  1.00  0.00    -0.237 OA
ATOM     90  O   UNL A   1      45.339  26.279  37.920  1.00  0.00    -0.744 OA
ENDBRANCH  84  87
ENDBRANCH  57  80
ENDBRANCH  31  32
ENDBRANCH  24  26
ENDBRANCH  23  24
ENDBRANCH  22  23
ENDBRANCH   1  22
TORSDOF 17
ENDMDL
