MODEL 1
REMARK VINA RESULT:     -11.8      0.000      0.000
REMARK SMILES CCn1c(C(=O)OCCOC(=O)c2ccc(-c3c4nc(c(-c5cccc(S(=O)(=O)[O-])c5F)c5ccc([nH]5)c(-c5cccc(S(=O)(=O)[O-])c5F)c5nc(c(-c6cccc(S(=O)(=O)[O-])c6F)c6ccc3[nH]6)C=C5)C=C4)cc2)c(CC(=O)Nc2ccccc2OC)c2ccccc21
REMARK SMILES IDX 8 1 7 2 5 3 6 4 4 5 3 6 94 7 76 8 89 9 93 10 90 11 92 12
REMARK SMILES IDX 91 13 2 14 1 15 77 16 78 17 79 18 80 19 81 21 82 22 86 23
REMARK SMILES IDX 83 24 85 25 84 26 87 27 88 28 9 29 10 30 11 31 12 32 13 33
REMARK SMILES IDX 14 34 75 35 15 36 74 37 16 38 17 39 18 40 68 41 19 42 73 43
REMARK SMILES IDX 67 44 69 45 20 46 72 47 66 48 65 49 21 51 53 52 33 53 52 54
REMARK SMILES IDX 34 55 37 56 51 57 70 58 35 59 36 60 50 62 71 63 38 64 22 65
REMARK SMILES IDX 23 66 31 67 24 68 26 69 32 70 25 71 27 72 28 73 29 74 30 75
REMARK SMILES IDX 54 76 55 77 63 78 56 79 58 80 64 81 57 82 59 83 60 84 61 85
REMARK SMILES IDX 62 86 39 87 40 88 48 89 41 90 43 91 49 92 42 93 44 94 45 95
REMARK SMILES IDX 46 96 47 97
REMARK H PARENT 80 20 69 50 37 61
REMARK Flexibility Score: inf
ROOT
ATOM      1  C   UNL A   1      34.243  26.100  25.628  1.00  0.00     0.275 C 
ENDROOT
BRANCH   1   2
ATOM      2  O   UNL A   1      33.906  24.834  24.998  1.00  0.00    -0.457 OA
BRANCH   2   3
ATOM      3  C   UNL A   1      33.779  23.794  25.865  1.00  0.00     0.355 C 
ATOM      4  O   UNL A   1      33.227  23.942  26.957  1.00  0.00    -0.244 OA
BRANCH   3   5
ATOM      5  C   UNL A   1      34.318  22.520  25.403  1.00  0.00     0.132 A 
ATOM      6  N   UNL A   1      35.620  22.043  25.404  1.00  0.00    -0.335 N 
ATOM      7  C   UNL A   1      35.649  20.692  25.071  1.00  0.00     0.049 A 
ATOM      8  C   UNL A   1      33.557  21.463  24.894  1.00  0.00     0.002 A 
ATOM      9  C   UNL A   1      34.338  20.293  24.843  1.00  0.00     0.004 A 
ATOM     10  C   UNL A   1      36.697  19.765  24.965  1.00  0.00     0.027 A 
ATOM     11  C   UNL A   1      34.032  18.943  24.576  1.00  0.00     0.010 A 
ATOM     12  C   UNL A   1      36.378  18.431  24.665  1.00  0.00     0.002 A 
ATOM     13  C   UNL A   1      35.064  18.016  24.497  1.00  0.00     0.001 A 
BRANCH   6  14
ATOM     14  C   UNL A   1      36.806  22.815  25.721  1.00  0.00     0.119 C 
ATOM     15  C   UNL A   1      37.381  23.527  24.512  1.00  0.00     0.027 C 
ENDBRANCH   6  14
BRANCH   8  16
ATOM     16  C   UNL A   1      32.139  21.530  24.505  1.00  0.00     0.139 C 
BRANCH  16  17
ATOM     17  C   UNL A   1      31.778  21.778  23.050  1.00  0.00     0.229 C 
ATOM     18  O   UNL A   1      31.907  20.888  22.202  1.00  0.00    -0.274 OA
ATOM     19  N   UNL A   1      31.064  22.897  22.686  1.00  0.00    -0.323 N 
ATOM     20  H   UNL A   1      30.617  22.848  21.810  1.00  0.00     0.170 HD
BRANCH  19  21
ATOM     21  C   UNL A   1      30.886  24.096  23.392  1.00  0.00     0.083 A 
ATOM     22  C   UNL A   1      30.458  24.003  24.725  1.00  0.00     0.030 A 
ATOM     23  C   UNL A   1      31.181  25.364  22.875  1.00  0.00     0.142 A 
ATOM     24  C   UNL A   1      30.137  25.124  25.485  1.00  0.00     0.002 A 
ATOM     25  C   UNL A   1      30.877  26.493  23.665  1.00  0.00     0.048 A 
ATOM     26  C   UNL A   1      30.323  26.380  24.940  1.00  0.00     0.004 A 
BRANCH  23  27
ATOM     27  O   UNL A   1      31.678  25.737  21.658  1.00  0.00    -0.495 OA
ATOM     28  C   UNL A   1      32.969  26.299  21.534  1.00  0.00     0.278 C 
ENDBRANCH  23  27
ENDBRANCH  19  21
ENDBRANCH  16  17
ENDBRANCH   8  16
ENDBRANCH   3   5
ENDBRANCH   2   3
ENDBRANCH   1   2
BRANCH   1  29
ATOM     29  C   UNL A   1      33.754  27.364  24.892  1.00  0.00     0.275 C 
BRANCH  29  30
ATOM     30  O   UNL A   1      34.343  28.556  25.449  1.00  0.00    -0.458 OA
BRANCH  30  31
ATOM     31  C   UNL A   1      33.493  29.582  25.708  1.00  0.00     0.338 C 
ATOM     32  O   UNL A   1      32.518  29.873  25.038  1.00  0.00    -0.246 OA
BRANCH  31  33
ATOM     33  C   UNL A   1      33.744  30.135  27.070  1.00  0.00     0.060 A 
ATOM     34  C   UNL A   1      33.929  31.503  27.262  1.00  0.00     0.016 A 
ATOM     35  C   UNL A   1      34.335  29.250  27.958  1.00  0.00     0.016 A 
ATOM     36  C   UNL A   1      35.088  31.930  27.915  1.00  0.00     0.010 A 
ATOM     37  C   UNL A   1      35.427  29.705  28.680  1.00  0.00     0.010 A 
ATOM     38  C   UNL A   1      35.965  30.980  28.427  1.00  0.00    -0.014 A 
BRANCH  38  39
ATOM     39  C   UNL A   1      37.365  31.272  28.828  1.00  0.00     0.031 A 
ATOM     40  C   UNL A   1      38.212  30.075  28.637  1.00  0.00     0.074 A 
ATOM     41  C   UNL A   1      38.011  32.405  29.224  1.00  0.00     0.049 A 
ATOM     42  N   UNL A   1      38.147  29.047  29.413  1.00  0.00    -0.248 NA
ATOM     43  C   UNL A   1      38.970  29.852  27.398  1.00  0.00     0.031 C 
ATOM     44  C   UNL A   1      37.618  33.818  29.267  1.00  0.00     0.029 A 
ATOM     45  N   UNL A   1      39.302  32.482  29.692  1.00  0.00    -0.354 N 
ATOM     46  C   UNL A   1      39.050  28.150  28.890  1.00  0.00     0.074 A 
ATOM     47  C   UNL A   1      39.278  28.558  27.529  1.00  0.00     0.031 C 
ATOM     48  C   UNL A   1      38.693  34.613  29.534  1.00  0.00     0.029 A 
ATOM     49  C   UNL A   1      39.810  33.767  29.905  1.00  0.00     0.049 A 
ATOM     50  H   UNL A   1      39.838  31.676  29.869  1.00  0.00     0.167 HD
ATOM     51  C   UNL A   1      39.754  27.317  29.698  1.00  0.00     0.034 A 
ATOM     52  C   UNL A   1      41.014  34.084  30.460  1.00  0.00     0.034 A 
ATOM     53  C   UNL A   1      39.357  27.457  31.080  1.00  0.00     0.049 A 
ATOM     54  C   UNL A   1      41.346  32.937  31.336  1.00  0.00     0.074 A 
ATOM     55  C   UNL A   1      38.177  27.292  31.782  1.00  0.00     0.029 A 
ATOM     56  N   UNL A   1      40.131  28.299  31.847  1.00  0.00    -0.354 N 
ATOM     57  N   UNL A   1      40.659  32.605  32.392  1.00  0.00    -0.248 NA
ATOM     58  C   UNL A   1      42.229  31.917  30.805  1.00  0.00     0.031 C 
ATOM     59  C   UNL A   1      38.123  28.395  32.689  1.00  0.00     0.029 A 
ATOM     60  C   UNL A   1      39.296  29.137  32.543  1.00  0.00     0.049 A 
ATOM     61  H   UNL A   1      41.115  28.299  31.889  1.00  0.00     0.167 HD
ATOM     62  C   UNL A   1      40.659  31.218  32.370  1.00  0.00     0.074 A 
ATOM     63  C   UNL A   1      41.721  30.855  31.433  1.00  0.00     0.031 C 
ATOM     64  C   UNL A   1      39.621  30.506  32.894  1.00  0.00     0.034 A 
BRANCH  51  65
ATOM     65  C   UNL A   1      41.023  26.633  29.299  1.00  0.00     0.023 A 
ATOM     66  C   UNL A   1      42.217  27.361  29.456  1.00  0.00     0.012 A 
ATOM     67  C   UNL A   1      41.090  25.396  28.620  1.00  0.00     0.148 A 
ATOM     68  C   UNL A   1      43.431  26.872  28.969  1.00  0.00     0.002 A 
ATOM     69  C   UNL A   1      42.309  24.878  28.206  1.00  0.00     0.091 A 
ATOM     70  F   UNL A   1      39.963  24.770  28.262  1.00  0.00    -0.205 F 
ATOM     71  C   UNL A   1      43.481  25.623  28.363  1.00  0.00     0.022 A 
BRANCH  69  72
ATOM     72  S   UNL A   1      42.446  23.258  27.444  1.00  0.00     0.127 S 
ATOM     73  O   UNL A   1      43.893  23.119  27.312  1.00  0.00    -0.237 OA
ATOM     74  O   UNL A   1      41.829  22.399  28.456  1.00  0.00    -0.237 OA
ATOM     75  O   UNL A   1      41.695  23.349  26.199  1.00  0.00    -0.744 OA
ENDBRANCH  69  72
ENDBRANCH  51  65
BRANCH  52  76
ATOM     76  C   UNL A   1      42.040  35.146  30.234  1.00  0.00     0.023 A 
ATOM     77  C   UNL A   1      42.993  35.401  31.254  1.00  0.00     0.012 A 
ATOM     78  C   UNL A   1      42.336  35.614  28.937  1.00  0.00     0.148 A 
ATOM     79  C   UNL A   1      44.229  36.003  30.977  1.00  0.00     0.002 A 
ATOM     80  C   UNL A   1      43.568  36.225  28.669  1.00  0.00     0.091 A 
ATOM     81  F   UNL A   1      41.462  35.371  27.952  1.00  0.00    -0.205 F 
ATOM     82  C   UNL A   1      44.525  36.395  29.679  1.00  0.00     0.022 A 
BRANCH  80  83
ATOM     83  S   UNL A   1      44.023  36.788  27.022  1.00  0.00     0.127 S 
ATOM     84  O   UNL A   1      44.070  35.539  26.258  1.00  0.00    -0.237 OA
ATOM     85  O   UNL A   1      42.913  37.669  26.674  1.00  0.00    -0.237 OA
ATOM     86  O   UNL A   1      45.328  37.417  27.182  1.00  0.00    -0.744 OA
ENDBRANCH  80  83
ENDBRANCH  52  76
BRANCH  64  87
ATOM     87  C   UNL A   1      38.598  31.252  33.722  1.00  0.00     0.023 A 
ATOM     88  C   UNL A   1      38.819  31.600  35.073  1.00  0.00     0.012 A 
ATOM     89  C   UNL A   1      37.466  31.764  33.071  1.00  0.00     0.148 A 
ATOM     90  C   UNL A   1      37.935  32.447  35.753  1.00  0.00     0.002 A 
ATOM     91  C   UNL A   1      36.608  32.632  33.736  1.00  0.00     0.091 A 
ATOM     92  F   UNL A   1      37.269  31.419  31.789  1.00  0.00    -0.205 F 
ATOM     93  C   UNL A   1      36.838  32.976  35.078  1.00  0.00     0.022 A 
BRANCH  91  94
ATOM     94  S   UNL A   1      35.228  33.423  32.905  1.00  0.00     0.127 S 
ATOM     95  O   UNL A   1      35.712  34.792  32.741  1.00  0.00    -0.237 OA
ATOM     96  O   UNL A   1      35.136  32.655  31.662  1.00  0.00    -0.237 OA
ATOM     97  O   UNL A   1      34.079  33.273  33.789  1.00  0.00    -0.744 OA
ENDBRANCH  91  94
ENDBRANCH  64  87
ENDBRANCH  38  39
ENDBRANCH  31  33
ENDBRANCH  30  31
ENDBRANCH  29  30
ENDBRANCH   1  29
TORSDOF 19
ENDMDL
MODEL 2
REMARK VINA RESULT:     -11.7      3.593      8.270
REMARK SMILES CCn1c(C(=O)OCCOC(=O)c2ccc(-c3c4nc(c(-c5cccc(S(=O)(=O)[O-])c5F)c5ccc([nH]5)c(-c5cccc(S(=O)(=O)[O-])c5F)c5nc(c(-c6cccc(S(=O)(=O)[O-])c6F)c6ccc3[nH]6)C=C5)C=C4)cc2)c(CC(=O)Nc2ccccc2OC)c2ccccc21
REMARK SMILES IDX 8 1 7 2 5 3 6 4 4 5 3 6 94 7 76 8 89 9 93 10 90 11 92 12
REMARK SMILES IDX 91 13 2 14 1 15 77 16 78 17 79 18 80 19 81 21 82 22 86 23
REMARK SMILES IDX 83 24 85 25 84 26 87 27 88 28 9 29 10 30 11 31 12 32 13 33
REMARK SMILES IDX 14 34 75 35 15 36 74 37 16 38 17 39 18 40 68 41 19 42 73 43
REMARK SMILES IDX 67 44 69 45 20 46 72 47 66 48 65 49 21 51 53 52 33 53 52 54
REMARK SMILES IDX 34 55 37 56 51 57 70 58 35 59 36 60 50 62 71 63 38 64 22 65
REMARK SMILES IDX 23 66 31 67 24 68 26 69 32 70 25 71 27 72 28 73 29 74 30 75
REMARK SMILES IDX 54 76 55 77 63 78 56 79 58 80 64 81 57 82 59 83 60 84 61 85
REMARK SMILES IDX 62 86 39 87 40 88 48 89 41 90 43 91 49 92 42 93 44 94 45 95
REMARK SMILES IDX 46 96 47 97
REMARK H PARENT 80 20 69 50 37 61
REMARK Flexibility Score: inf
ROOT
ATOM      1  C   UNL A   1      33.643  29.638  26.285  1.00  0.00     0.275 C 
ENDROOT
BRANCH   1   2
ATOM      2  O   UNL A   1      32.278  29.559  26.781  1.00  0.00    -0.457 OA
BRANCH   2   3
ATOM      3  C   UNL A   1      31.769  28.299  26.818  1.00  0.00     0.355 C 
ATOM      4  O   UNL A   1      31.331  27.821  27.866  1.00  0.00    -0.244 OA
BRANCH   3   5
ATOM      5  C   UNL A   1      31.767  27.585  25.546  1.00  0.00     0.132 A 
ATOM      6  N   UNL A   1      31.401  28.010  24.278  1.00  0.00    -0.335 N 
ATOM      7  C   UNL A   1      31.765  27.069  23.319  1.00  0.00     0.049 A 
ATOM      8  C   UNL A   1      32.216  26.273  25.361  1.00  0.00     0.002 A 
ATOM      9  C   UNL A   1      32.370  26.011  23.986  1.00  0.00     0.004 A 
ATOM     10  C   UNL A   1      31.642  27.045  21.921  1.00  0.00     0.027 A 
ATOM     11  C   UNL A   1      32.934  24.937  23.269  1.00  0.00     0.010 A 
ATOM     12  C   UNL A   1      32.180  25.950  21.226  1.00  0.00     0.002 A 
ATOM     13  C   UNL A   1      32.840  24.921  21.883  1.00  0.00     0.001 A 
BRANCH   6  14
ATOM     14  C   UNL A   1      30.747  29.265  23.960  1.00  0.00     0.119 C 
ATOM     15  C   UNL A   1      29.474  29.075  23.159  1.00  0.00     0.027 C 
ENDBRANCH   6  14
BRANCH   8  16
ATOM     16  C   UNL A   1      32.530  25.311  26.428  1.00  0.00     0.139 C 
BRANCH  16  17
ATOM     17  C   UNL A   1      31.565  24.171  26.709  1.00  0.00     0.229 C 
ATOM     18  O   UNL A   1      30.421  24.394  27.122  1.00  0.00    -0.274 OA
ATOM     19  N   UNL A   1      31.841  22.895  26.276  1.00  0.00    -0.323 N 
ATOM     20  H   UNL A   1      31.068  22.288  26.225  1.00  0.00     0.170 HD
BRANCH  19  21
ATOM     21  C   UNL A   1      33.073  22.341  25.895  1.00  0.00     0.083 A 
ATOM     22  C   UNL A   1      34.196  22.676  26.664  1.00  0.00     0.030 A 
ATOM     23  C   UNL A   1      33.232  21.422  24.850  1.00  0.00     0.142 A 
ATOM     24  C   UNL A   1      35.485  22.281  26.314  1.00  0.00     0.002 A 
ATOM     25  C   UNL A   1      34.539  21.006  24.521  1.00  0.00     0.048 A 
ATOM     26  C   UNL A   1      35.660  21.460  25.217  1.00  0.00     0.004 A 
BRANCH  23  27
ATOM     27  O   UNL A   1      32.314  20.867  24.003  1.00  0.00    -0.495 OA
ATOM     28  C   UNL A   1      32.228  21.269  22.650  1.00  0.00     0.278 C 
ENDBRANCH  23  27
ENDBRANCH  19  21
ENDBRANCH  16  17
ENDBRANCH   8  16
ENDBRANCH   3   5
ENDBRANCH   2   3
ENDBRANCH   1   2
BRANCH   1  29
ATOM     29  C   UNL A   1      34.751  29.446  27.341  1.00  0.00     0.275 C 
BRANCH  29  30
ATOM     30  O   UNL A   1      34.712  30.489  28.337  1.00  0.00    -0.458 OA
BRANCH  30  31
ATOM     31  C   UNL A   1      35.638  31.474  28.211  1.00  0.00     0.338 C 
ATOM     32  O   UNL A   1      35.573  32.402  27.424  1.00  0.00    -0.246 OA
BRANCH  31  33
ATOM     33  C   UNL A   1      36.602  31.429  29.347  1.00  0.00     0.060 A 
ATOM     34  C   UNL A   1      37.878  31.976  29.221  1.00  0.00     0.016 A 
ATOM     35  C   UNL A   1      36.408  30.383  30.235  1.00  0.00     0.016 A 
ATOM     36  C   UNL A   1      38.979  31.163  29.502  1.00  0.00     0.010 A 
ATOM     37  C   UNL A   1      37.519  29.634  30.591  1.00  0.00     0.010 A 
ATOM     38  C   UNL A   1      38.763  29.875  29.980  1.00  0.00    -0.014 A 
BRANCH  38  39
ATOM     39  C   UNL A   1      39.799  28.810  29.991  1.00  0.00     0.031 A 
ATOM     40  C   UNL A   1      40.303  28.601  31.366  1.00  0.00     0.074 A 
ATOM     41  C   UNL A   1      40.280  27.957  29.043  1.00  0.00     0.049 A 
ATOM     42  N   UNL A   1      41.083  29.443  31.955  1.00  0.00    -0.248 NA
ATOM     43  C   UNL A   1      39.728  27.584  32.256  1.00  0.00     0.031 C 
ATOM     44  C   UNL A   1      39.862  27.648  27.670  1.00  0.00     0.029 A 
ATOM     45  N   UNL A   1      41.348  27.104  29.185  1.00  0.00    -0.354 N 
ATOM     46  C   UNL A   1      41.292  28.916  33.208  1.00  0.00     0.074 A 
ATOM     47  C   UNL A   1      40.223  27.979  33.433  1.00  0.00     0.031 C 
ATOM     48  C   UNL A   1      40.526  26.556  27.196  1.00  0.00     0.029 A 
ATOM     49  C   UNL A   1      41.578  26.215  28.131  1.00  0.00     0.049 A 
ATOM     50  H   UNL A   1      41.922  27.119  29.986  1.00  0.00     0.167 HD
ATOM     51  C   UNL A   1      42.481  29.077  33.844  1.00  0.00     0.034 A 
ATOM     52  C   UNL A   1      42.631  25.358  28.004  1.00  0.00     0.034 A 
ATOM     53  C   UNL A   1      43.382  29.909  33.080  1.00  0.00     0.049 A 
ATOM     54  C   UNL A   1      43.729  25.982  28.778  1.00  0.00     0.074 A 
ATOM     55  C   UNL A   1      43.354  31.207  32.607  1.00  0.00     0.029 A 
ATOM     56  N   UNL A   1      44.289  29.243  32.285  1.00  0.00    -0.354 N 
ATOM     57  N   UNL A   1      44.285  27.117  28.464  1.00  0.00    -0.248 NA
ATOM     58  C   UNL A   1      43.941  25.523  30.136  1.00  0.00     0.031 C 
ATOM     59  C   UNL A   1      43.884  31.135  31.282  1.00  0.00     0.029 A 
ATOM     60  C   UNL A   1      44.269  29.816  31.038  1.00  0.00     0.049 A 
ATOM     61  H   UNL A   1      44.854  28.486  32.564  1.00  0.00     0.167 HD
ATOM     62  C   UNL A   1      44.505  27.732  29.688  1.00  0.00     0.074 A 
ATOM     63  C   UNL A   1      44.367  26.666  30.678  1.00  0.00     0.031 C 
ATOM     64  C   UNL A   1      44.499  29.091  29.804  1.00  0.00     0.034 A 
BRANCH  51  65
ATOM     65  C   UNL A   1      42.953  28.219  34.974  1.00  0.00     0.023 A 
ATOM     66  C   UNL A   1      43.282  28.870  36.177  1.00  0.00     0.012 A 
ATOM     67  C   UNL A   1      43.257  26.843  34.866  1.00  0.00     0.148 A 
ATOM     68  C   UNL A   1      43.879  28.179  37.233  1.00  0.00     0.002 A 
ATOM     69  C   UNL A   1      43.779  26.144  35.945  1.00  0.00     0.091 A 
ATOM     70  F   UNL A   1      43.159  26.231  33.680  1.00  0.00    -0.205 F 
ATOM     71  C   UNL A   1      44.108  26.813  37.125  1.00  0.00     0.022 A 
BRANCH  69  72
ATOM     72  S   UNL A   1      44.070  24.373  35.879  1.00  0.00     0.127 S 
ATOM     73  O   UNL A   1      45.096  24.285  34.845  1.00  0.00    -0.237 OA
ATOM     74  O   UNL A   1      44.534  24.096  37.239  1.00  0.00    -0.237 OA
ATOM     75  O   UNL A   1      42.781  23.778  35.555  1.00  0.00    -0.744 OA
ENDBRANCH  69  72
ENDBRANCH  51  65
BRANCH  52  76
ATOM     76  C   UNL A   1      42.816  23.976  27.467  1.00  0.00     0.023 A 
ATOM     77  C   UNL A   1      41.709  23.087  27.478  1.00  0.00     0.012 A 
ATOM     78  C   UNL A   1      43.895  23.658  26.617  1.00  0.00     0.148 A 
ATOM     79  C   UNL A   1      41.635  21.989  26.609  1.00  0.00     0.002 A 
ATOM     80  C   UNL A   1      43.819  22.553  25.759  1.00  0.00     0.091 A 
ATOM     81  F   UNL A   1      44.944  24.490  26.574  1.00  0.00    -0.205 F 
ATOM     82  C   UNL A   1      42.681  21.735  25.733  1.00  0.00     0.022 A 
BRANCH  80  83
ATOM     83  S   UNL A   1      45.141  22.134  24.612  1.00  0.00     0.127 S 
ATOM     84  O   UNL A   1      44.614  20.946  23.938  1.00  0.00    -0.237 OA
ATOM     85  O   UNL A   1      45.215  23.324  23.771  1.00  0.00    -0.237 OA
ATOM     86  O   UNL A   1      46.299  21.857  25.451  1.00  0.00    -0.744 OA
ENDBRANCH  80  83
ENDBRANCH  52  76
BRANCH  64  87
ATOM     87  C   UNL A   1      44.504  29.909  28.531  1.00  0.00     0.023 A 
ATOM     88  C   UNL A   1      43.346  30.105  27.746  1.00  0.00     0.012 A 
ATOM     89  C   UNL A   1      45.662  30.637  28.217  1.00  0.00     0.148 A 
ATOM     90  C   UNL A   1      43.342  31.014  26.681  1.00  0.00     0.002 A 
ATOM     91  C   UNL A   1      45.646  31.564  27.181  1.00  0.00     0.091 A 
ATOM     92  F   UNL A   1      46.754  30.435  28.969  1.00  0.00    -0.205 F 
ATOM     93  C   UNL A   1      44.489  31.756  26.410  1.00  0.00     0.022 A 
BRANCH  91  94
ATOM     94  S   UNL A   1      47.056  32.619  26.832  1.00  0.00     0.127 S 
ATOM     95  O   UNL A   1      46.568  33.420  25.711  1.00  0.00    -0.237 OA
ATOM     96  O   UNL A   1      47.208  33.354  28.089  1.00  0.00    -0.237 OA
ATOM     97  O   UNL A   1      48.165  31.727  26.520  1.00  0.00    -0.744 OA
ENDBRANCH  91  94
ENDBRANCH  64  87
ENDBRANCH  38  39
ENDBRANCH  31  33
ENDBRANCH  30  31
ENDBRANCH  29  30
ENDBRANCH   1  29
TORSDOF 19
ENDMDL
MODEL 3
REMARK VINA RESULT:     -11.7      5.766     10.648
REMARK SMILES CCn1c(C(=O)OCCOC(=O)c2ccc(-c3c4nc(c(-c5cccc(S(=O)(=O)[O-])c5F)c5ccc([nH]5)c(-c5cccc(S(=O)(=O)[O-])c5F)c5nc(c(-c6cccc(S(=O)(=O)[O-])c6F)c6ccc3[nH]6)C=C5)C=C4)cc2)c(CC(=O)Nc2ccccc2OC)c2ccccc21
REMARK SMILES IDX 8 1 7 2 5 3 6 4 4 5 3 6 94 7 76 8 89 9 93 10 90 11 92 12
REMARK SMILES IDX 91 13 2 14 1 15 77 16 78 17 79 18 80 19 81 21 82 22 86 23
REMARK SMILES IDX 83 24 85 25 84 26 87 27 88 28 9 29 10 30 11 31 12 32 13 33
REMARK SMILES IDX 14 34 75 35 15 36 74 37 16 38 17 39 18 40 68 41 19 42 73 43
REMARK SMILES IDX 67 44 69 45 20 46 72 47 66 48 65 49 21 51 53 52 33 53 52 54
REMARK SMILES IDX 34 55 37 56 51 57 70 58 35 59 36 60 50 62 71 63 38 64 22 65
REMARK SMILES IDX 23 66 31 67 24 68 26 69 32 70 25 71 27 72 28 73 29 74 30 75
REMARK SMILES IDX 54 76 55 77 63 78 56 79 58 80 64 81 57 82 59 83 60 84 61 85
REMARK SMILES IDX 62 86 39 87 40 88 48 89 41 90 43 91 49 92 42 93 44 94 45 95
REMARK SMILES IDX 46 96 47 97
REMARK H PARENT 80 20 69 50 37 61
REMARK Flexibility Score: inf
ROOT
ATOM      1  C   UNL A   1      42.040  29.046  25.515  1.00  0.00     0.275 C 
ENDROOT
BRANCH   1   2
ATOM      2  O   UNL A   1      42.567  27.868  24.845  1.00  0.00    -0.457 OA
BRANCH   2   3
ATOM      3  C   UNL A   1      43.720  27.388  25.383  1.00  0.00     0.355 C 
ATOM      4  O   UNL A   1      44.815  27.666  24.890  1.00  0.00    -0.244 OA
BRANCH   3   5
ATOM      5  C   UNL A   1      43.561  26.555  26.570  1.00  0.00     0.132 A 
ATOM      6  N   UNL A   1      43.079  25.261  26.700  1.00  0.00    -0.335 N 
ATOM      7  C   UNL A   1      43.308  24.778  27.986  1.00  0.00     0.049 A 
ATOM      8  C   UNL A   1      43.944  26.920  27.865  1.00  0.00     0.002 A 
ATOM      9  C   UNL A   1      43.944  25.786  28.700  1.00  0.00     0.004 A 
ATOM     10  C   UNL A   1      43.039  23.543  28.595  1.00  0.00     0.027 A 
ATOM     11  C   UNL A   1      44.393  25.562  30.016  1.00  0.00     0.010 A 
ATOM     12  C   UNL A   1      43.464  23.349  29.919  1.00  0.00     0.002 A 
ATOM     13  C   UNL A   1      44.154  24.331  30.616  1.00  0.00     0.001 A 
BRANCH   6  14
ATOM     14  C   UNL A   1      42.438  24.486  25.656  1.00  0.00     0.119 C 
ATOM     15  C   UNL A   1      43.397  23.546  24.951  1.00  0.00     0.027 C 
ENDBRANCH   6  14
BRANCH   8  16
ATOM     16  C   UNL A   1      44.335  28.269  28.300  1.00  0.00     0.139 C 
BRANCH  16  17
ATOM     17  C   UNL A   1      45.802  28.667  28.262  1.00  0.00     0.229 C 
ATOM     18  O   UNL A   1      46.692  27.810  28.208  1.00  0.00    -0.274 OA
ATOM     19  N   UNL A   1      46.168  29.972  28.031  1.00  0.00    -0.323 N 
ATOM     20  H   UNL A   1      47.096  30.105  27.729  1.00  0.00     0.170 HD
BRANCH  19  21
ATOM     21  C   UNL A   1      45.402  31.139  28.166  1.00  0.00     0.083 A 
ATOM     22  C   UNL A   1      44.497  31.198  29.236  1.00  0.00     0.030 A 
ATOM     23  C   UNL A   1      45.541  32.270  27.350  1.00  0.00     0.142 A 
ATOM     24  C   UNL A   1      43.604  32.253  29.401  1.00  0.00     0.002 A 
ATOM     25  C   UNL A   1      44.649  33.346  27.544  1.00  0.00     0.048 A 
ATOM     26  C   UNL A   1      43.663  33.325  28.531  1.00  0.00     0.004 A 
BRANCH  23  27
ATOM     27  O   UNL A   1      46.384  32.516  26.303  1.00  0.00    -0.495 OA
ATOM     28  C   UNL A   1      47.637  33.139  26.502  1.00  0.00     0.278 C 
ENDBRANCH  23  27
ENDBRANCH  19  21
ENDBRANCH  16  17
ENDBRANCH   8  16
ENDBRANCH   3   5
ENDBRANCH   2   3
ENDBRANCH   1   2
BRANCH   1  29
ATOM     29  C   UNL A   1      40.642  28.889  26.144  1.00  0.00     0.275 C 
BRANCH  29  30
ATOM     30  O   UNL A   1      40.731  28.542  27.541  1.00  0.00    -0.458 OA
BRANCH  30  31
ATOM     31  C   UNL A   1      40.158  27.366  27.906  1.00  0.00     0.338 C 
ATOM     32  O   UNL A   1      39.868  26.460  27.145  1.00  0.00    -0.246 OA
BRANCH  31  33
ATOM     33  C   UNL A   1      40.185  27.214  29.389  1.00  0.00     0.060 A 
ATOM     34  C   UNL A   1      39.034  26.864  30.091  1.00  0.00     0.016 A 
ATOM     35  C   UNL A   1      41.161  27.957  30.033  1.00  0.00     0.016 A 
ATOM     36  C   UNL A   1      38.620  27.690  31.140  1.00  0.00     0.010 A 
ATOM     37  C   UNL A   1      40.771  28.703  31.135  1.00  0.00     0.010 A 
ATOM     38  C   UNL A   1      39.414  28.772  31.501  1.00  0.00    -0.014 A 
BRANCH  38  39
ATOM     39  C   UNL A   1      38.944  29.904  32.341  1.00  0.00     0.031 A 
ATOM     40  C   UNL A   1      37.880  30.654  31.638  1.00  0.00     0.074 A 
ATOM     41  C   UNL A   1      39.217  30.306  33.614  1.00  0.00     0.049 A 
ATOM     42  N   UNL A   1      38.123  31.428  30.635  1.00  0.00    -0.248 NA
ATOM     43  C   UNL A   1      36.456  30.354  31.840  1.00  0.00     0.031 C 
ATOM     44  C   UNL A   1      39.970  29.696  34.716  1.00  0.00     0.029 A 
ATOM     45  N   UNL A   1      38.788  31.469  34.209  1.00  0.00    -0.354 N 
ATOM     46  C   UNL A   1      36.891  31.904  30.248  1.00  0.00     0.074 A 
ATOM     47  C   UNL A   1      35.920  30.996  30.798  1.00  0.00     0.031 C 
ATOM     48  C   UNL A   1      39.774  30.383  35.877  1.00  0.00     0.029 A 
ATOM     49  C   UNL A   1      39.067  31.610  35.571  1.00  0.00     0.049 A 
ATOM     50  H   UNL A   1      38.311  32.165  33.701  1.00  0.00     0.167 HD
ATOM     51  C   UNL A   1      36.753  33.158  29.749  1.00  0.00     0.034 A 
ATOM     52  C   UNL A   1      38.835  32.712  36.339  1.00  0.00     0.034 A 
ATOM     53  C   UNL A   1      38.030  33.821  29.619  1.00  0.00     0.049 A 
ATOM     54  C   UNL A   1      38.866  33.852  35.393  1.00  0.00     0.074 A 
ATOM     55  C   UNL A   1      39.196  33.572  28.919  1.00  0.00     0.029 A 
ATOM     56  N   UNL A   1      38.391  34.645  30.662  1.00  0.00    -0.354 N 
ATOM     57  N   UNL A   1      39.926  34.221  34.733  1.00  0.00    -0.248 NA
ATOM     58  C   UNL A   1      37.599  34.341  34.887  1.00  0.00     0.031 C 
ATOM     59  C   UNL A   1      40.253  33.873  29.833  1.00  0.00     0.029 A 
ATOM     60  C   UNL A   1      39.685  34.351  31.014  1.00  0.00     0.049 A 
ATOM     61  H   UNL A   1      37.819  35.328  31.082  1.00  0.00     0.167 HD
ATOM     62  C   UNL A   1      39.437  34.578  33.486  1.00  0.00     0.074 A 
ATOM     63  C   UNL A   1      37.995  34.727  33.672  1.00  0.00     0.031 C 
ATOM     64  C   UNL A   1      40.203  34.445  32.365  1.00  0.00     0.034 A 
BRANCH  51  65
ATOM     65  C   UNL A   1      35.459  33.906  29.703  1.00  0.00     0.023 A 
ATOM     66  C   UNL A   1      34.963  34.246  28.431  1.00  0.00     0.012 A 
ATOM     67  C   UNL A   1      34.800  34.443  30.831  1.00  0.00     0.148 A 
ATOM     68  C   UNL A   1      33.850  35.077  28.287  1.00  0.00     0.002 A 
ATOM     69  C   UNL A   1      33.649  35.204  30.686  1.00  0.00     0.091 A 
ATOM     70  F   UNL A   1      35.352  34.324  32.044  1.00  0.00    -0.205 F 
ATOM     71  C   UNL A   1      33.181  35.539  29.413  1.00  0.00     0.022 A 
BRANCH  69  72
ATOM     72  S   UNL A   1      32.722  35.806  32.102  1.00  0.00     0.127 S 
ATOM     73  O   UNL A   1      33.683  36.718  32.713  1.00  0.00    -0.237 OA
ATOM     74  O   UNL A   1      31.578  36.452  31.457  1.00  0.00    -0.237 OA
ATOM     75  O   UNL A   1      32.380  34.621  32.876  1.00  0.00    -0.744 OA
ENDBRANCH  69  72
ENDBRANCH  51  65
BRANCH  52  76
ATOM     76  C   UNL A   1      38.407  32.951  37.751  1.00  0.00     0.023 A 
ATOM     77  C   UNL A   1      37.053  32.714  38.101  1.00  0.00     0.012 A 
ATOM     78  C   UNL A   1      39.347  33.020  38.799  1.00  0.00     0.148 A 
ATOM     79  C   UNL A   1      36.667  32.455  39.424  1.00  0.00     0.002 A 
ATOM     80  C   UNL A   1      38.953  32.770  40.121  1.00  0.00     0.091 A 
ATOM     81  F   UNL A   1      40.635  33.224  38.495  1.00  0.00    -0.205 F 
ATOM     82  C   UNL A   1      37.622  32.461  40.431  1.00  0.00     0.022 A 
BRANCH  80  83
ATOM     83  S   UNL A   1      40.119  32.786  41.491  1.00  0.00     0.127 S 
ATOM     84  O   UNL A   1      39.251  32.582  42.652  1.00  0.00    -0.237 OA
ATOM     85  O   UNL A   1      40.987  31.656  41.177  1.00  0.00    -0.237 OA
ATOM     86  O   UNL A   1      40.733  34.107  41.453  1.00  0.00    -0.744 OA
ENDBRANCH  80  83
ENDBRANCH  52  76
BRANCH  64  87
ATOM     87  C   UNL A   1      41.674  34.144  32.546  1.00  0.00     0.023 A 
ATOM     88  C   UNL A   1      42.640  35.154  32.750  1.00  0.00     0.012 A 
ATOM     89  C   UNL A   1      42.062  32.802  32.688  1.00  0.00     0.148 A 
ATOM     90  C   UNL A   1      43.958  34.832  33.098  1.00  0.00     0.002 A 
ATOM     91  C   UNL A   1      43.361  32.485  33.066  1.00  0.00     0.091 A 
ATOM     92  F   UNL A   1      41.133  31.855  32.486  1.00  0.00    -0.205 F 
ATOM     93  C   UNL A   1      44.314  33.497  33.272  1.00  0.00     0.022 A 
BRANCH  91  94
ATOM     94  S   UNL A   1      43.867  30.795  33.397  1.00  0.00     0.127 S 
ATOM     95  O   UNL A   1      45.309  30.938  33.585  1.00  0.00    -0.237 OA
ATOM     96  O   UNL A   1      43.120  30.484  34.617  1.00  0.00    -0.237 OA
ATOM     97  O   UNL A   1      43.468  30.015  32.233  1.00  0.00    -0.744 OA
ENDBRANCH  91  94
ENDBRANCH  64  87
ENDBRANCH  38  39
ENDBRANCH  31  33
ENDBRANCH  30  31
ENDBRANCH  29  30
ENDBRANCH   1  29
TORSDOF 19
ENDMDL
