MODEL 1
REMARK VINA RESULT:     -10.8      0.000      0.000
REMARK SMILES O=C(/C=C/C(=O)OCCOC(=O)c1ccc(-c2c3nc(c(-c4cccc(S(=O)(=O)[O-])c4F)c4ccc([nH]4)c(-c4cccc(S(=O)(=O)[O-])c4F)c4nc(c(-c5cccc(S(=O)(=O)[O-])c5F)c5ccc2[nH]5)C=C4)C=C3)cc1)Nc1ccccn1
REMARK SMILES IDX 9 1 8 2 7 3 5 4 6 5 4 6 3 7 2 8 1 9 76 10 77 12 78 13 82 14
REMARK SMILES IDX 79 15 81 16 80 17 10 18 11 19 12 20 13 21 14 22 75 23 15 24
REMARK SMILES IDX 74 25 16 26 17 27 18 28 68 29 19 30 73 31 67 32 69 33 20 34
REMARK SMILES IDX 72 35 66 36 65 37 21 39 53 40 33 41 52 42 34 43 37 44 51 45
REMARK SMILES IDX 70 46 35 47 36 48 50 50 71 51 38 52 22 53 23 54 31 55 24 56
REMARK SMILES IDX 26 57 32 58 25 59 27 60 28 61 29 62 30 63 54 64 55 65 63 66
REMARK SMILES IDX 56 67 58 68 64 69 57 70 59 71 60 72 61 73 62 74 39 75 40 76
REMARK SMILES IDX 48 77 41 78 43 79 49 80 42 81 44 82 45 83 46 84 47 85
REMARK H PARENT 76 11 69 38 37 49
REMARK Flexibility Score: inf
ROOT
ATOM      1  C   UNL A   1      36.588  20.346  25.016  1.00  0.00     0.275 C 
ENDROOT
BRANCH   1   2
ATOM      2  C   UNL A   1      35.151  20.782  24.709  1.00  0.00     0.275 C 
BRANCH   2   3
ATOM      3  O   UNL A   1      34.241  19.666  24.725  1.00  0.00    -0.459 OA
BRANCH   3   4
ATOM      4  C   UNL A   1      33.028  19.902  25.278  1.00  0.00     0.331 C 
ATOM      5  O   UNL A   1      32.104  19.106  25.358  1.00  0.00    -0.247 OA
BRANCH   4   6
ATOM      6  C   UNL A   1      32.911  21.260  25.838  1.00  0.00     0.099 C 
ATOM      7  C   UNL A   1      31.856  22.065  25.648  1.00  0.00     0.079 C 
BRANCH   7   8
ATOM      8  C   UNL A   1      31.789  23.367  26.347  1.00  0.00     0.249 C 
ATOM      9  O   UNL A   1      31.312  23.401  27.474  1.00  0.00    -0.270 OA
ATOM     10  N   UNL A   1      32.228  24.425  25.598  1.00  0.00    -0.307 N 
ATOM     11  H   UNL A   1      32.480  24.229  24.666  1.00  0.00     0.171 HD
BRANCH  10  12
ATOM     12  C   UNL A   1      32.356  25.754  26.010  1.00  0.00     0.132 A 
ATOM     13  C   UNL A   1      31.299  26.514  26.494  1.00  0.00     0.047 A 
ATOM     14  N   UNL A   1      33.612  26.240  25.916  1.00  0.00    -0.239 NA
ATOM     15  C   UNL A   1      31.534  27.836  26.872  1.00  0.00     0.005 A 
ATOM     16  C   UNL A   1      33.810  27.530  26.275  1.00  0.00     0.113 A 
ATOM     17  C   UNL A   1      32.811  28.361  26.750  1.00  0.00     0.020 A 
ENDBRANCH  10  12
ENDBRANCH   7   8
ENDBRANCH   4   6
ENDBRANCH   3   4
ENDBRANCH   2   3
ENDBRANCH   1   2
BRANCH   1  18
ATOM     18  O   UNL A   1      37.406  21.444  25.457  1.00  0.00    -0.458 OA
BRANCH  18  19
ATOM     19  C   UNL A   1      38.632  21.103  25.922  1.00  0.00     0.338 C 
ATOM     20  O   UNL A   1      39.184  20.019  25.815  1.00  0.00    -0.246 OA
BRANCH  19  21
ATOM     21  C   UNL A   1      39.303  22.287  26.482  1.00  0.00     0.060 A 
ATOM     22  C   UNL A   1      38.804  23.547  26.134  1.00  0.00     0.016 A 
ATOM     23  C   UNL A   1      40.442  22.170  27.282  1.00  0.00     0.016 A 
ATOM     24  C   UNL A   1      39.451  24.699  26.573  1.00  0.00     0.010 A 
ATOM     25  C   UNL A   1      41.088  23.329  27.723  1.00  0.00     0.010 A 
ATOM     26  C   UNL A   1      40.606  24.599  27.359  1.00  0.00    -0.014 A 
BRANCH  26  27
ATOM     27  C   UNL A   1      41.336  25.823  27.769  1.00  0.00     0.031 A 
ATOM     28  C   UNL A   1      40.626  26.882  28.566  1.00  0.00     0.074 A 
ATOM     29  C   UNL A   1      42.619  25.995  27.399  1.00  0.00     0.049 A 
ATOM     30  N   UNL A   1      41.061  28.051  28.956  1.00  0.00    -0.248 NA
ATOM     31  C   UNL A   1      39.242  26.589  28.977  1.00  0.00     0.031 C 
ATOM     32  C   UNL A   1      43.409  25.038  26.624  1.00  0.00     0.029 A 
ATOM     33  N   UNL A   1      43.474  27.049  27.602  1.00  0.00    -0.354 N 
ATOM     34  C   UNL A   1      39.996  28.654  29.613  1.00  0.00     0.074 A 
ATOM     35  C   UNL A   1      38.894  27.717  29.580  1.00  0.00     0.031 C 
ATOM     36  C   UNL A   1      44.625  25.561  26.393  1.00  0.00     0.029 A 
ATOM     37  C   UNL A   1      44.689  26.899  26.973  1.00  0.00     0.049 A 
ATOM     38  H   UNL A   1      43.241  27.837  28.145  1.00  0.00     0.167 HD
ATOM     39  C   UNL A   1      39.946  29.874  30.197  1.00  0.00     0.034 A 
ATOM     40  C   UNL A   1      45.722  27.756  26.855  1.00  0.00     0.034 A 
ATOM     41  C   UNL A   1      41.059  30.781  30.267  1.00  0.00     0.049 A 
ATOM     42  C   UNL A   1      45.633  29.107  27.516  1.00  0.00     0.074 A 
ATOM     43  C   UNL A   1      41.127  32.007  30.905  1.00  0.00     0.029 A 
ATOM     44  N   UNL A   1      42.294  30.567  29.676  1.00  0.00    -0.354 N 
ATOM     45  N   UNL A   1      44.667  29.605  28.250  1.00  0.00    -0.248 NA
ATOM     46  C   UNL A   1      46.787  30.005  27.357  1.00  0.00     0.031 C 
ATOM     47  C   UNL A   1      42.396  32.548  30.676  1.00  0.00     0.029 A 
ATOM     48  C   UNL A   1      43.126  31.646  29.918  1.00  0.00     0.049 A 
ATOM     49  H   UNL A   1      42.543  29.767  29.159  1.00  0.00     0.167 HD
ATOM     50  C   UNL A   1      45.114  30.851  28.674  1.00  0.00     0.074 A 
ATOM     51  C   UNL A   1      46.443  31.027  28.129  1.00  0.00     0.031 C 
ATOM     52  C   UNL A   1      44.474  31.775  29.433  1.00  0.00     0.034 A 
BRANCH  39  53
ATOM     53  C   UNL A   1      38.654  30.306  30.834  1.00  0.00     0.023 A 
ATOM     54  C   UNL A   1      38.409  30.012  32.188  1.00  0.00     0.012 A 
ATOM     55  C   UNL A   1      37.731  31.096  30.117  1.00  0.00     0.148 A 
ATOM     56  C   UNL A   1      37.258  30.483  32.819  1.00  0.00     0.002 A 
ATOM     57  C   UNL A   1      36.607  31.594  30.763  1.00  0.00     0.091 A 
ATOM     58  F   UNL A   1      37.977  31.347  28.823  1.00  0.00    -0.205 F 
ATOM     59  C   UNL A   1      36.365  31.284  32.111  1.00  0.00     0.022 A 
BRANCH  57  60
ATOM     60  S   UNL A   1      35.436  32.695  29.960  1.00  0.00     0.127 S 
ATOM     61  O   UNL A   1      36.274  33.860  29.677  1.00  0.00    -0.237 OA
ATOM     62  O   UNL A   1      35.048  31.923  28.780  1.00  0.00    -0.237 OA
ATOM     63  O   UNL A   1      34.366  32.919  30.921  1.00  0.00    -0.744 OA
ENDBRANCH  57  60
ENDBRANCH  39  53
BRANCH  40  64
ATOM     64  C   UNL A   1      46.947  27.361  26.101  1.00  0.00     0.023 A 
ATOM     65  C   UNL A   1      47.036  27.649  24.725  1.00  0.00     0.012 A 
ATOM     66  C   UNL A   1      48.016  26.699  26.734  1.00  0.00     0.148 A 
ATOM     67  C   UNL A   1      48.150  27.249  23.986  1.00  0.00     0.002 A 
ATOM     68  C   UNL A   1      49.147  26.352  26.002  1.00  0.00     0.091 A 
ATOM     69  F   UNL A   1      47.907  26.410  28.038  1.00  0.00    -0.205 F 
ATOM     70  C   UNL A   1      49.209  26.609  24.624  1.00  0.00     0.022 A 
BRANCH  68  71
ATOM     71  S   UNL A   1      50.601  25.640  26.780  1.00  0.00     0.127 S 
ATOM     72  O   UNL A   1      51.501  25.476  25.642  1.00  0.00    -0.237 OA
ATOM     73  O   UNL A   1      50.990  26.688  27.726  1.00  0.00    -0.237 OA
ATOM     74  O   UNL A   1      50.136  24.412  27.412  1.00  0.00    -0.744 OA
ENDBRANCH  68  71
ENDBRANCH  40  64
BRANCH  52  75
ATOM     75  C   UNL A   1      45.214  33.041  29.772  1.00  0.00     0.023 A 
ATOM     76  C   UNL A   1      46.040  33.085  30.912  1.00  0.00     0.012 A 
ATOM     77  C   UNL A   1      45.162  34.153  28.909  1.00  0.00     0.148 A 
ATOM     78  C   UNL A   1      46.785  34.229  31.201  1.00  0.00     0.002 A 
ATOM     79  C   UNL A   1      45.945  35.271  29.177  1.00  0.00     0.091 A 
ATOM     80  F   UNL A   1      44.355  34.096  27.840  1.00  0.00    -0.205 F 
ATOM     81  C   UNL A   1      46.748  35.314  30.327  1.00  0.00     0.022 A 
BRANCH  79  82
ATOM     82  S   UNL A   1      46.036  36.671  28.056  1.00  0.00     0.127 S 
ATOM     83  O   UNL A   1      46.552  36.046  26.839  1.00  0.00    -0.237 OA
ATOM     84  O   UNL A   1      44.638  37.097  27.977  1.00  0.00    -0.237 OA
ATOM     85  O   UNL A   1      46.926  37.635  28.689  1.00  0.00    -0.744 OA
ENDBRANCH  79  82
ENDBRANCH  52  75
ENDBRANCH  26  27
ENDBRANCH  19  21
ENDBRANCH  18  19
ENDBRANCH   1  18
TORSDOF 16
ENDMDL
MODEL 2
REMARK VINA RESULT:     -10.6      5.388     10.195
REMARK SMILES O=C(/C=C/C(=O)OCCOC(=O)c1ccc(-c2c3nc(c(-c4cccc(S(=O)(=O)[O-])c4F)c4ccc([nH]4)c(-c4cccc(S(=O)(=O)[O-])c4F)c4nc(c(-c5cccc(S(=O)(=O)[O-])c5F)c5ccc2[nH]5)C=C4)C=C3)cc1)Nc1ccccn1
REMARK SMILES IDX 9 1 8 2 7 3 5 4 6 5 4 6 3 7 2 8 1 9 76 10 77 12 78 13 82 14
REMARK SMILES IDX 79 15 81 16 80 17 10 18 11 19 12 20 13 21 14 22 75 23 15 24
REMARK SMILES IDX 74 25 16 26 17 27 18 28 68 29 19 30 73 31 67 32 69 33 20 34
REMARK SMILES IDX 72 35 66 36 65 37 21 39 53 40 33 41 52 42 34 43 37 44 51 45
REMARK SMILES IDX 70 46 35 47 36 48 50 50 71 51 38 52 22 53 23 54 31 55 24 56
REMARK SMILES IDX 26 57 32 58 25 59 27 60 28 61 29 62 30 63 54 64 55 65 63 66
REMARK SMILES IDX 56 67 58 68 64 69 57 70 59 71 60 72 61 73 62 74 39 75 40 76
REMARK SMILES IDX 48 77 41 78 43 79 49 80 42 81 44 82 45 83 46 84 47 85
REMARK H PARENT 76 11 69 38 37 49
REMARK Flexibility Score: inf
ROOT
ATOM      1  C   UNL A   1      31.493  29.785  25.333  1.00  0.00     0.275 C 
ENDROOT
BRANCH   1   2
ATOM      2  C   UNL A   1      31.399  28.271  25.118  1.00  0.00     0.275 C 
BRANCH   2   3
ATOM      3  O   UNL A   1      31.294  27.935  23.722  1.00  0.00    -0.459 OA
BRANCH   3   4
ATOM      4  C   UNL A   1      32.465  27.823  23.052  1.00  0.00     0.331 C 
ATOM      5  O   UNL A   1      33.018  28.705  22.412  1.00  0.00    -0.247 OA
BRANCH   4   6
ATOM      6  C   UNL A   1      33.075  26.489  23.190  1.00  0.00     0.099 C 
ATOM      7  C   UNL A   1      32.854  25.469  22.349  1.00  0.00     0.079 C 
BRANCH   7   8
ATOM      8  C   UNL A   1      33.603  24.204  22.514  1.00  0.00     0.249 C 
ATOM      9  O   UNL A   1      33.532  23.364  21.625  1.00  0.00    -0.270 OA
ATOM     10  N   UNL A   1      34.257  24.095  23.711  1.00  0.00    -0.307 N 
ATOM     11  H   UNL A   1      34.117  24.826  24.355  1.00  0.00     0.171 HD
BRANCH  10  12
ATOM     12  C   UNL A   1      35.102  23.059  24.118  1.00  0.00     0.132 A 
ATOM     13  C   UNL A   1      36.487  23.164  24.151  1.00  0.00     0.047 A 
ATOM     14  N   UNL A   1      34.453  21.939  24.501  1.00  0.00    -0.239 NA
ATOM     15  C   UNL A   1      37.238  22.066  24.568  1.00  0.00     0.005 A 
ATOM     16  C   UNL A   1      35.206  20.882  24.887  1.00  0.00     0.113 A 
ATOM     17  C   UNL A   1      36.589  20.896  24.932  1.00  0.00     0.020 A 
ENDBRANCH  10  12
ENDBRANCH   7   8
ENDBRANCH   4   6
ENDBRANCH   3   4
ENDBRANCH   2   3
ENDBRANCH   1   2
BRANCH   1  18
ATOM     18  O   UNL A   1      32.834  30.209  25.633  1.00  0.00    -0.458 OA
BRANCH  18  19
ATOM     19  C   UNL A   1      32.955  31.046  26.690  1.00  0.00     0.338 C 
ATOM     20  O   UNL A   1      32.095  31.786  27.144  1.00  0.00    -0.246 OA
BRANCH  19  21
ATOM     21  C   UNL A   1      34.262  30.851  27.338  1.00  0.00     0.060 A 
ATOM     22  C   UNL A   1      34.664  29.541  27.619  1.00  0.00     0.016 A 
ATOM     23  C   UNL A   1      35.053  31.935  27.724  1.00  0.00     0.016 A 
ATOM     24  C   UNL A   1      35.856  29.308  28.300  1.00  0.00     0.010 A 
ATOM     25  C   UNL A   1      36.251  31.698  28.407  1.00  0.00     0.010 A 
ATOM     26  C   UNL A   1      36.651  30.385  28.713  1.00  0.00    -0.014 A 
BRANCH  26  27
ATOM     27  C   UNL A   1      37.883  30.141  29.500  1.00  0.00     0.031 A 
ATOM     28  C   UNL A   1      38.945  29.225  28.957  1.00  0.00     0.074 A 
ATOM     29  C   UNL A   1      38.032  30.716  30.708  1.00  0.00     0.049 A 
ATOM     30  N   UNL A   1      40.055  28.825  29.520  1.00  0.00    -0.248 NA
ATOM     31  C   UNL A   1      38.728  28.684  27.604  1.00  0.00     0.031 C 
ATOM     32  C   UNL A   1      37.070  31.621  31.337  1.00  0.00     0.029 A 
ATOM     33  N   UNL A   1      39.038  30.600  31.635  1.00  0.00    -0.354 N 
ATOM     34  C   UNL A   1      40.645  27.951  28.616  1.00  0.00     0.074 A 
ATOM     35  C   UNL A   1      39.776  27.885  27.461  1.00  0.00     0.031 C 
ATOM     36  C   UNL A   1      37.518  31.956  32.558  1.00  0.00     0.029 A 
ATOM     37  C   UNL A   1      38.779  31.266  32.811  1.00  0.00     0.049 A 
ATOM     38  H   UNL A   1      39.865  30.090  31.475  1.00  0.00     0.167 HD
ATOM     39  C   UNL A   1      41.809  27.271  28.737  1.00  0.00     0.034 A 
ATOM     40  C   UNL A   1      39.468  31.292  33.969  1.00  0.00     0.034 A 
ATOM     41  C   UNL A   1      42.692  27.377  29.868  1.00  0.00     0.049 A 
ATOM     42  C   UNL A   1      40.760  30.523  34.070  1.00  0.00     0.074 A 
ATOM     43  C   UNL A   1      43.930  26.787  30.047  1.00  0.00     0.029 A 
ATOM     44  N   UNL A   1      42.429  28.113  31.012  1.00  0.00    -0.354 N 
ATOM     45  N   UNL A   1      41.371  29.811  33.154  1.00  0.00    -0.248 NA
ATOM     46  C   UNL A   1      41.474  30.584  35.355  1.00  0.00     0.031 C 
ATOM     47  C   UNL A   1      44.405  27.144  31.313  1.00  0.00     0.029 A 
ATOM     48  C   UNL A   1      43.473  27.978  31.909  1.00  0.00     0.049 A 
ATOM     49  H   UNL A   1      41.618  28.651  31.165  1.00  0.00     0.167 HD
ATOM     50  C   UNL A   1      42.556  29.376  33.737  1.00  0.00     0.074 A 
ATOM     51  C   UNL A   1      42.587  29.918  35.079  1.00  0.00     0.031 C 
ATOM     52  C   UNL A   1      43.525  28.585  33.213  1.00  0.00     0.034 A 
BRANCH  39  53
ATOM     53  C   UNL A   1      42.225  26.363  27.612  1.00  0.00     0.023 A 
ATOM     54  C   UNL A   1      43.123  26.828  26.633  1.00  0.00     0.012 A 
ATOM     55  C   UNL A   1      41.806  25.017  27.588  1.00  0.00     0.148 A 
ATOM     56  C   UNL A   1      43.589  25.972  25.636  1.00  0.00     0.002 A 
ATOM     57  C   UNL A   1      42.305  24.160  26.614  1.00  0.00     0.091 A 
ATOM     58  F   UNL A   1      40.937  24.602  28.520  1.00  0.00    -0.205 F 
ATOM     59  C   UNL A   1      43.190  24.637  25.634  1.00  0.00     0.022 A 
BRANCH  57  60
ATOM     60  S   UNL A   1      41.913  22.408  26.571  1.00  0.00     0.127 S 
ATOM     61  O   UNL A   1      42.381  21.969  27.885  1.00  0.00    -0.237 OA
ATOM     62  O   UNL A   1      40.458  22.423  26.417  1.00  0.00    -0.237 OA
ATOM     63  O   UNL A   1      42.640  21.858  25.437  1.00  0.00    -0.744 OA
ENDBRANCH  57  60
ENDBRANCH  39  53
BRANCH  40  64
ATOM     64  C   UNL A   1      38.971  32.092  35.125  1.00  0.00     0.023 A 
ATOM     65  C   UNL A   1      39.074  33.496  35.091  1.00  0.00     0.012 A 
ATOM     66  C   UNL A   1      38.405  31.474  36.256  1.00  0.00     0.148 A 
ATOM     67  C   UNL A   1      38.660  34.267  36.178  1.00  0.00     0.002 A 
ATOM     68  C   UNL A   1      37.944  32.251  37.314  1.00  0.00     0.091 A 
ATOM     69  F   UNL A   1      38.336  30.135  36.285  1.00  0.00    -0.205 F 
ATOM     70  C   UNL A   1      38.088  33.646  37.285  1.00  0.00     0.022 A 
BRANCH  68  71
ATOM     71  S   UNL A   1      37.081  31.533  38.716  1.00  0.00     0.127 S 
ATOM     72  O   UNL A   1      36.913  30.147  38.289  1.00  0.00    -0.237 OA
ATOM     73  O   UNL A   1      38.043  31.730  39.803  1.00  0.00    -0.237 OA
ATOM     74  O   UNL A   1      35.859  32.314  38.856  1.00  0.00    -0.744 OA
ENDBRANCH  68  71
ENDBRANCH  40  64
BRANCH  52  75
ATOM     75  C   UNL A   1      44.733  28.295  34.063  1.00  0.00     0.023 A 
ATOM     76  C   UNL A   1      45.826  29.183  34.054  1.00  0.00     0.012 A 
ATOM     77  C   UNL A   1      44.742  27.193  34.941  1.00  0.00     0.148 A 
ATOM     78  C   UNL A   1      46.922  28.963  34.888  1.00  0.00     0.002 A 
ATOM     79  C   UNL A   1      45.815  27.008  35.805  1.00  0.00     0.091 A 
ATOM     80  F   UNL A   1      43.699  26.351  34.921  1.00  0.00    -0.205 F 
ATOM     81  C   UNL A   1      46.910  27.886  35.772  1.00  0.00     0.022 A 
BRANCH  79  82
ATOM     82  S   UNL A   1      45.840  25.708  37.044  1.00  0.00     0.127 S 
ATOM     83  O   UNL A   1      44.576  25.937  37.741  1.00  0.00    -0.237 OA
ATOM     84  O   UNL A   1      45.872  24.497  36.223  1.00  0.00    -0.237 OA
ATOM     85  O   UNL A   1      47.041  25.932  37.838  1.00  0.00    -0.744 OA
ENDBRANCH  79  82
ENDBRANCH  52  75
ENDBRANCH  26  27
ENDBRANCH  19  21
ENDBRANCH  18  19
ENDBRANCH   1  18
TORSDOF 16
ENDMDL
MODEL 3
REMARK VINA RESULT:     -10.5      3.797      9.736
REMARK SMILES O=C(/C=C/C(=O)OCCOC(=O)c1ccc(-c2c3nc(c(-c4cccc(S(=O)(=O)[O-])c4F)c4ccc([nH]4)c(-c4cccc(S(=O)(=O)[O-])c4F)c4nc(c(-c5cccc(S(=O)(=O)[O-])c5F)c5ccc2[nH]5)C=C4)C=C3)cc1)Nc1ccccn1
REMARK SMILES IDX 9 1 8 2 7 3 5 4 6 5 4 6 3 7 2 8 1 9 76 10 77 12 78 13 82 14
REMARK SMILES IDX 79 15 81 16 80 17 10 18 11 19 12 20 13 21 14 22 75 23 15 24
REMARK SMILES IDX 74 25 16 26 17 27 18 28 68 29 19 30 73 31 67 32 69 33 20 34
REMARK SMILES IDX 72 35 66 36 65 37 21 39 53 40 33 41 52 42 34 43 37 44 51 45
REMARK SMILES IDX 70 46 35 47 36 48 50 50 71 51 38 52 22 53 23 54 31 55 24 56
REMARK SMILES IDX 26 57 32 58 25 59 27 60 28 61 29 62 30 63 54 64 55 65 63 66
REMARK SMILES IDX 56 67 58 68 64 69 57 70 59 71 60 72 61 73 62 74 39 75 40 76
REMARK SMILES IDX 48 77 41 78 43 79 49 80 42 81 44 82 45 83 46 84 47 85
REMARK H PARENT 76 11 69 38 37 49
REMARK Flexibility Score: inf
ROOT
ATOM      1  C   UNL A   1      42.583  18.449  26.715  1.00  0.00     0.275 C 
ENDROOT
BRANCH   1   2
ATOM      2  C   UNL A   1      43.140  19.013  25.403  1.00  0.00     0.275 C 
BRANCH   2   3
ATOM      3  O   UNL A   1      44.363  18.359  25.018  1.00  0.00    -0.459 OA
BRANCH   3   4
ATOM      4  C   UNL A   1      45.295  19.148  24.432  1.00  0.00     0.331 C 
ATOM      5  O   UNL A   1      46.034  18.830  23.512  1.00  0.00    -0.247 OA
BRANCH   4   6
ATOM      6  C   UNL A   1      45.328  20.508  24.997  1.00  0.00     0.099 C 
ATOM      7  C   UNL A   1      46.178  21.467  24.605  1.00  0.00     0.079 C 
BRANCH   7   8
ATOM      8  C   UNL A   1      46.054  22.832  25.159  1.00  0.00     0.249 C 
ATOM      9  O   UNL A   1      46.740  23.133  26.128  1.00  0.00    -0.270 OA
ATOM     10  N   UNL A   1      45.108  23.602  24.539  1.00  0.00    -0.307 N 
ATOM     11  H   UNL A   1      44.571  23.161  23.842  1.00  0.00     0.171 HD
BRANCH  10  12
ATOM     12  C   UNL A   1      44.819  24.947  24.789  1.00  0.00     0.132 A 
ATOM     13  C   UNL A   1      43.536  25.430  25.010  1.00  0.00     0.047 A 
ATOM     14  N   UNL A   1      45.907  25.746  24.817  1.00  0.00    -0.239 NA
ATOM     15  C   UNL A   1      43.357  26.793  25.243  1.00  0.00     0.005 A 
ATOM     16  C   UNL A   1      45.705  27.068  25.029  1.00  0.00     0.113 A 
ATOM     17  C   UNL A   1      44.460  27.634  25.241  1.00  0.00     0.020 A 
ENDBRANCH  10  12
ENDBRANCH   7   8
ENDBRANCH   4   6
ENDBRANCH   3   4
ENDBRANCH   2   3
ENDBRANCH   1   2
BRANCH   1  18
ATOM     18  O   UNL A   1      42.168  19.486  27.620  1.00  0.00    -0.458 OA
BRANCH  18  19
ATOM     19  C   UNL A   1      41.196  20.306  27.154  1.00  0.00     0.338 C 
ATOM     20  O   UNL A   1      40.184  19.980  26.553  1.00  0.00    -0.246 OA
BRANCH  19  21
ATOM     21  C   UNL A   1      41.450  21.687  27.596  1.00  0.00     0.060 A 
ATOM     22  C   UNL A   1      40.948  22.729  26.809  1.00  0.00     0.016 A 
ATOM     23  C   UNL A   1      42.223  21.960  28.727  1.00  0.00     0.016 A 
ATOM     24  C   UNL A   1      41.228  24.052  27.142  1.00  0.00     0.010 A 
ATOM     25  C   UNL A   1      42.501  23.290  29.060  1.00  0.00     0.010 A 
ATOM     26  C   UNL A   1      42.019  24.342  28.262  1.00  0.00    -0.014 A 
BRANCH  26  27
ATOM     27  C   UNL A   1      42.376  25.746  28.576  1.00  0.00     0.031 A 
ATOM     28  C   UNL A   1      43.822  26.158  28.605  1.00  0.00     0.074 A 
ATOM     29  C   UNL A   1      41.409  26.636  28.864  1.00  0.00     0.049 A 
ATOM     30  N   UNL A   1      44.344  27.312  28.929  1.00  0.00    -0.248 NA
ATOM     31  C   UNL A   1      44.813  25.138  28.221  1.00  0.00     0.031 C 
ATOM     32  C   UNL A   1      39.973  26.350  28.869  1.00  0.00     0.029 A 
ATOM     33  N   UNL A   1      41.489  27.955  29.236  1.00  0.00    -0.354 N 
ATOM     34  C   UNL A   1      45.720  27.146  28.837  1.00  0.00     0.074 A 
ATOM     35  C   UNL A   1      45.955  25.782  28.417  1.00  0.00     0.031 C 
ATOM     36  C   UNL A   1      39.309  27.453  29.253  1.00  0.00     0.029 A 
ATOM     37  C   UNL A   1      40.270  28.510  29.554  1.00  0.00     0.049 A 
ATOM     38  H   UNL A   1      42.336  28.455  29.273  1.00  0.00     0.167 HD
ATOM     39  C   UNL A   1      46.697  28.052  29.076  1.00  0.00     0.034 A 
ATOM     40  C   UNL A   1      39.969  29.724  30.057  1.00  0.00     0.034 A 
ATOM     41  C   UNL A   1      46.456  29.420  29.447  1.00  0.00     0.049 A 
ATOM     42  C   UNL A   1      41.081  30.708  30.311  1.00  0.00     0.074 A 
ATOM     43  C   UNL A   1      47.379  30.433  29.636  1.00  0.00     0.029 A 
ATOM     44  N   UNL A   1      45.206  29.965  29.696  1.00  0.00    -0.354 N 
ATOM     45  N   UNL A   1      42.367  30.577  30.089  1.00  0.00    -0.248 NA
ATOM     46  C   UNL A   1      40.700  32.018  30.860  1.00  0.00     0.031 C 
ATOM     47  C   UNL A   1      46.689  31.586  30.025  1.00  0.00     0.029 A 
ATOM     48  C   UNL A   1      45.335  31.295  30.053  1.00  0.00     0.049 A 
ATOM     49  H   UNL A   1      44.353  29.477  29.630  1.00  0.00     0.167 HD
ATOM     50  C   UNL A   1      42.939  31.798  30.428  1.00  0.00     0.074 A 
ATOM     51  C   UNL A   1      41.859  32.662  30.857  1.00  0.00     0.031 C 
ATOM     52  C   UNL A   1      44.244  32.166  30.404  1.00  0.00     0.034 A 
BRANCH  39  53
ATOM     53  C   UNL A   1      48.128  27.614  28.922  1.00  0.00     0.023 A 
ATOM     54  C   UNL A   1      48.813  27.874  27.720  1.00  0.00     0.012 A 
ATOM     55  C   UNL A   1      48.821  27.040  30.007  1.00  0.00     0.148 A 
ATOM     56  C   UNL A   1      50.166  27.557  27.594  1.00  0.00     0.002 A 
ATOM     57  C   UNL A   1      50.177  26.763  29.886  1.00  0.00     0.091 A 
ATOM     58  F   UNL A   1      48.142  26.785  31.135  1.00  0.00    -0.205 F 
ATOM     59  C   UNL A   1      50.849  27.014  28.679  1.00  0.00     0.022 A 
BRANCH  57  60
ATOM     60  S   UNL A   1      51.163  26.134  31.250  1.00  0.00     0.127 S 
ATOM     61  O   UNL A   1      51.043  27.217  32.225  1.00  0.00    -0.237 OA
ATOM     62  O   UNL A   1      50.446  24.910  31.608  1.00  0.00    -0.237 OA
ATOM     63  O   UNL A   1      52.502  25.922  30.717  1.00  0.00    -0.744 OA
ENDBRANCH  57  60
ENDBRANCH  39  53
BRANCH  40  64
ATOM     64  C   UNL A   1      38.552  30.095  30.332  1.00  0.00     0.023 A 
ATOM     65  C   UNL A   1      38.005  29.843  31.606  1.00  0.00     0.012 A 
ATOM     66  C   UNL A   1      37.742  30.687  29.344  1.00  0.00     0.148 A 
ATOM     67  C   UNL A   1      36.668  30.136  31.876  1.00  0.00     0.002 A 
ATOM     68  C   UNL A   1      36.426  31.028  29.638  1.00  0.00     0.091 A 
ATOM     69  F   UNL A   1      38.269  30.899  28.130  1.00  0.00    -0.205 F 
ATOM     70  C   UNL A   1      35.881  30.737  30.897  1.00  0.00     0.022 A 
BRANCH  68  71
ATOM     71  S   UNL A   1      35.391  31.918  28.470  1.00  0.00     0.127 S 
ATOM     72  O   UNL A   1      35.088  30.882  27.487  1.00  0.00    -0.237 OA
ATOM     73  O   UNL A   1      34.259  32.322  29.307  1.00  0.00    -0.237 OA
ATOM     74  O   UNL A   1      36.209  33.028  28.001  1.00  0.00    -0.744 OA
ENDBRANCH  68  71
ENDBRANCH  40  64
BRANCH  52  75
ATOM     75  C   UNL A   1      44.585  33.578  30.798  1.00  0.00     0.023 A 
ATOM     76  C   UNL A   1      44.989  33.859  32.118  1.00  0.00     0.012 A 
ATOM     77  C   UNL A   1      44.595  34.606  29.835  1.00  0.00     0.148 A 
ATOM     78  C   UNL A   1      45.374  35.149  32.479  1.00  0.00     0.002 A 
ATOM     79  C   UNL A   1      45.028  35.879  30.191  1.00  0.00     0.091 A 
ATOM     80  F   UNL A   1      44.190  34.321  28.590  1.00  0.00    -0.205 F 
ATOM     81  C   UNL A   1      45.407  36.154  31.514  1.00  0.00     0.022 A 
BRANCH  79  82
ATOM     82  S   UNL A   1      45.197  37.206  28.993  1.00  0.00     0.127 S 
ATOM     83  O   UNL A   1      43.812  37.406  28.572  1.00  0.00    -0.237 OA
ATOM     84  O   UNL A   1      45.750  38.290  29.806  1.00  0.00    -0.237 OA
ATOM     85  O   UNL A   1      46.097  36.705  27.963  1.00  0.00    -0.744 OA
ENDBRANCH  79  82
ENDBRANCH  52  75
ENDBRANCH  26  27
ENDBRANCH  19  21
ENDBRANCH  18  19
ENDBRANCH   1  18
TORSDOF 16
ENDMDL
