MODEL 1
REMARK VINA RESULT:     -12.4      0.000      0.000
REMARK SMILES Nc1nc2ccccc2nc1N1CCC(C(=O)OCCOC(=O)c2ccc(-c3c4nc(c(-c5cccc(S(=O)(=O)[O-])c5F)c5ccc([nH]5)c(-c5cccc(S(=O)(=O)[O-])c5F)c5nc(c(-c6cccc(S(=O)(=O)[O-])c6F)c6ccc3[nH]6)C=C5)C=C4)cc2)CC1
REMARK SMILES IDX 20 1 19 2 18 3 16 4 17 5 15 6 12 7 13 8 88 9 14 10 87 11
REMARK SMILES IDX 11 12 2 13 3 14 4 15 10 16 5 17 9 18 6 19 8 20 7 21 1 22
REMARK SMILES IDX 21 25 22 26 23 27 24 28 25 29 86 30 26 31 85 32 27 33 28 34
REMARK SMILES IDX 29 35 79 36 30 37 84 38 78 39 80 40 31 41 83 42 77 43 76 44
REMARK SMILES IDX 32 46 64 47 44 48 63 49 45 50 48 51 62 52 81 53 46 54 47 55
REMARK SMILES IDX 61 57 82 58 49 59 33 60 34 61 42 62 35 63 37 64 43 65 36 66
REMARK SMILES IDX 38 67 39 68 40 69 41 70 65 71 66 72 74 73 67 74 69 75 75 76
REMARK SMILES IDX 68 77 70 78 71 79 72 80 73 81 50 82 51 83 59 84 52 85 54 86
REMARK SMILES IDX 60 87 53 88 55 89 56 90 57 91 58 92
REMARK H PARENT 1 23 1 24 80 45 48 56
REMARK Flexibility Score: inf
ROOT
ATOM      1  C   UNL A   1      37.458  20.641  24.787  1.00  0.00     0.275 C 
ENDROOT
BRANCH   1   2
ATOM      2  C   UNL A   1      35.994  20.289  25.061  1.00  0.00     0.274 C 
BRANCH   2   3
ATOM      3  O   UNL A   1      35.136  21.421  24.829  1.00  0.00    -0.462 OA
BRANCH   3   4
ATOM      4  C   UNL A   1      33.818  21.145  24.671  1.00  0.00     0.309 C 
ATOM      5  O   UNL A   1      33.254  20.156  25.125  1.00  0.00    -0.252 OA
BRANCH   4   6
ATOM      6  C   UNL A   1      33.080  22.191  23.866  1.00  0.00     0.103 C 
ATOM      7  N   UNL A   1      31.972  24.684  23.056  1.00  0.00    -0.353 N 
ATOM      8  C   UNL A   1      31.065  23.632  23.502  1.00  0.00     0.119 C 
ATOM      9  C   UNL A   1      33.293  24.303  22.561  1.00  0.00     0.119 C 
ATOM     10  C   UNL A   1      31.757  22.672  24.465  1.00  0.00     0.037 C 
ATOM     11  C   UNL A   1      33.987  23.380  23.562  1.00  0.00     0.037 C 
BRANCH   7  12
ATOM     12  C   UNL A   1      31.867  25.943  23.644  1.00  0.00     0.172 A 
ATOM     13  C   UNL A   1      31.611  27.092  22.846  1.00  0.00     0.167 A 
ATOM     14  N   UNL A   1      31.522  28.330  23.366  1.00  0.00    -0.226 NA
ATOM     15  C   UNL A   1      31.668  28.426  24.697  1.00  0.00     0.091 A 
ATOM     16  N   UNL A   1      31.984  26.052  24.987  1.00  0.00    -0.225 NA
ATOM     17  C   UNL A   1      31.592  29.680  25.290  1.00  0.00     0.031 A 
ATOM     18  C   UNL A   1      31.900  27.289  25.509  1.00  0.00     0.091 A 
ATOM     19  C   UNL A   1      31.750  29.843  26.665  1.00  0.00     0.002 A 
ATOM     20  C   UNL A   1      32.054  27.465  26.878  1.00  0.00     0.031 A 
ATOM     21  C   UNL A   1      31.984  28.731  27.464  1.00  0.00     0.002 A 
BRANCH  13  22
ATOM     22  N   UNL A   1      31.455  26.999  21.467  1.00  0.00    -0.381 N 
ATOM     23  H   UNL A   1      32.103  27.436  20.868  1.00  0.00     0.158 HD
ATOM     24  H   UNL A   1      30.698  26.496  21.089  1.00  0.00     0.158 HD
ENDBRANCH  13  22
ENDBRANCH   7  12
ENDBRANCH   4   6
ENDBRANCH   3   4
ENDBRANCH   2   3
ENDBRANCH   1   2
BRANCH   1  25
ATOM     25  O   UNL A   1      37.952  21.621  25.717  1.00  0.00    -0.458 OA
BRANCH  25  26
ATOM     26  C   UNL A   1      39.196  21.389  26.203  1.00  0.00     0.338 C 
ATOM     27  O   UNL A   1      39.823  20.346  26.155  1.00  0.00    -0.246 OA
BRANCH  26  28
ATOM     28  C   UNL A   1      39.755  22.650  26.712  1.00  0.00     0.060 A 
ATOM     29  C   UNL A   1      40.766  22.648  27.672  1.00  0.00     0.016 A 
ATOM     30  C   UNL A   1      39.288  23.852  26.174  1.00  0.00     0.016 A 
ATOM     31  C   UNL A   1      41.288  23.866  28.112  1.00  0.00     0.010 A 
ATOM     32  C   UNL A   1      39.813  25.066  26.608  1.00  0.00     0.010 A 
ATOM     33  C   UNL A   1      40.811  25.083  27.588  1.00  0.00    -0.014 A 
BRANCH  33  34
ATOM     34  C   UNL A   1      41.400  26.371  28.023  1.00  0.00     0.031 A 
ATOM     35  C   UNL A   1      42.824  26.717  27.701  1.00  0.00     0.074 A 
ATOM     36  C   UNL A   1      40.640  27.221  28.738  1.00  0.00     0.049 A 
ATOM     37  N   UNL A   1      43.462  27.838  27.922  1.00  0.00    -0.248 NA
ATOM     38  C   UNL A   1      43.644  25.676  27.058  1.00  0.00     0.031 C 
ATOM     39  C   UNL A   1      39.271  26.951  29.185  1.00  0.00     0.029 A 
ATOM     40  N   UNL A   1      40.905  28.479  29.212  1.00  0.00    -0.354 N 
ATOM     41  C   UNL A   1      44.752  27.640  27.448  1.00  0.00     0.074 A 
ATOM     42  C   UNL A   1      44.822  26.280  26.961  1.00  0.00     0.031 C 
ATOM     43  C   UNL A   1      38.803  28.027  29.836  1.00  0.00     0.029 A 
ATOM     44  C   UNL A   1      39.839  29.056  29.862  1.00  0.00     0.049 A 
ATOM     45  H   UNL A   1      41.774  28.927  29.097  1.00  0.00     0.167 HD
ATOM     46  C   UNL A   1      45.775  28.527  27.392  1.00  0.00     0.034 A 
ATOM     47  C   UNL A   1      39.703  30.283  30.399  1.00  0.00     0.034 A 
ATOM     48  C   UNL A   1      45.690  29.885  27.854  1.00  0.00     0.049 A 
ATOM     49  C   UNL A   1      40.839  31.259  30.296  1.00  0.00     0.074 A 
ATOM     50  C   UNL A   1      46.651  30.878  27.780  1.00  0.00     0.029 A 
ATOM     51  N   UNL A   1      44.584  30.443  28.478  1.00  0.00    -0.354 N 
ATOM     52  N   UNL A   1      42.007  31.100  29.724  1.00  0.00    -0.248 NA
ATOM     53  C   UNL A   1      40.633  32.591  30.884  1.00  0.00     0.031 C 
ATOM     54  C   UNL A   1      46.130  32.035  28.367  1.00  0.00     0.029 A 
ATOM     55  C   UNL A   1      44.840  31.765  28.795  1.00  0.00     0.049 A 
ATOM     56  H   UNL A   1      43.743  29.968  28.667  1.00  0.00     0.167 HD
ATOM     57  C   UNL A   1      42.669  32.314  29.863  1.00  0.00     0.074 A 
ATOM     58  C   UNL A   1      41.766  33.204  30.564  1.00  0.00     0.031 C 
ATOM     59  C   UNL A   1      43.917  32.651  29.457  1.00  0.00     0.034 A 
BRANCH  46  60
ATOM     60  C   UNL A   1      47.053  28.090  26.731  1.00  0.00     0.023 A 
ATOM     61  C   UNL A   1      48.091  27.576  27.534  1.00  0.00     0.012 A 
ATOM     62  C   UNL A   1      47.192  28.087  25.330  1.00  0.00     0.148 A 
ATOM     63  C   UNL A   1      49.254  27.075  26.955  1.00  0.00     0.002 A 
ATOM     64  C   UNL A   1      48.344  27.558  24.757  1.00  0.00     0.091 A 
ATOM     65  F   UNL A   1      46.196  28.589  24.587  1.00  0.00    -0.205 F 
ATOM     66  C   UNL A   1      49.377  27.056  25.569  1.00  0.00     0.022 A 
BRANCH  64  67
ATOM     67  S   UNL A   1      48.586  27.436  22.982  1.00  0.00     0.127 S 
ATOM     68  O   UNL A   1      49.949  27.944  22.834  1.00  0.00    -0.237 OA
ATOM     69  O   UNL A   1      48.443  25.999  22.751  1.00  0.00    -0.237 OA
ATOM     70  O   UNL A   1      47.550  28.261  22.374  1.00  0.00    -0.744 OA
ENDBRANCH  64  67
ENDBRANCH  46  60
BRANCH  47  71
ATOM     71  C   UNL A   1      38.392  30.673  30.982  1.00  0.00     0.023 A 
ATOM     72  C   UNL A   1      38.166  30.468  32.356  1.00  0.00     0.012 A 
ATOM     73  C   UNL A   1      37.416  31.330  30.209  1.00  0.00     0.148 A 
ATOM     74  C   UNL A   1      36.986  30.911  32.954  1.00  0.00     0.002 A 
ATOM     75  C   UNL A   1      36.259  31.801  30.818  1.00  0.00     0.091 A 
ATOM     76  F   UNL A   1      37.660  31.514  28.904  1.00  0.00    -0.205 F 
ATOM     77  C   UNL A   1      36.039  31.585  32.189  1.00  0.00     0.022 A 
BRANCH  75  78
ATOM     78  S   UNL A   1      35.025  32.768  29.942  1.00  0.00     0.127 S 
ATOM     79  O   UNL A   1      34.111  33.136  31.023  1.00  0.00    -0.237 OA
ATOM     80  O   UNL A   1      35.830  33.870  29.415  1.00  0.00    -0.237 OA
ATOM     81  O   UNL A   1      34.468  31.882  28.930  1.00  0.00    -0.744 OA
ENDBRANCH  75  78
ENDBRANCH  47  71
BRANCH  59  82
ATOM     82  C   UNL A   1      44.402  34.043  29.749  1.00  0.00     0.023 A 
ATOM     83  C   UNL A   1      45.101  34.292  30.945  1.00  0.00     0.012 A 
ATOM     84  C   UNL A   1      44.288  35.061  28.783  1.00  0.00     0.148 A 
ATOM     85  C   UNL A   1      45.677  35.540  31.179  1.00  0.00     0.002 A 
ATOM     86  C   UNL A   1      44.893  36.291  29.008  1.00  0.00     0.091 A 
ATOM     87  F   UNL A   1      43.612  34.798  27.655  1.00  0.00    -0.205 F 
ATOM     88  C   UNL A   1      45.583  36.533  30.207  1.00  0.00     0.022 A 
BRANCH  86  89
ATOM     89  S   UNL A   1      44.893  37.611  27.789  1.00  0.00     0.127 S 
ATOM     90  O   UNL A   1      45.623  36.994  26.682  1.00  0.00    -0.237 OA
ATOM     91  O   UNL A   1      43.464  37.804  27.544  1.00  0.00    -0.237 OA
ATOM     92  O   UNL A   1      45.564  38.742  28.415  1.00  0.00    -0.744 OA
ENDBRANCH  86  89
ENDBRANCH  59  82
ENDBRANCH  33  34
ENDBRANCH  26  28
ENDBRANCH  25  26
ENDBRANCH   1  25
TORSDOF 16
ENDMDL
MODEL 2
REMARK VINA RESULT:     -12.3      5.164     10.161
REMARK SMILES Nc1nc2ccccc2nc1N1CCC(C(=O)OCCOC(=O)c2ccc(-c3c4nc(c(-c5cccc(S(=O)(=O)[O-])c5F)c5ccc([nH]5)c(-c5cccc(S(=O)(=O)[O-])c5F)c5nc(c(-c6cccc(S(=O)(=O)[O-])c6F)c6ccc3[nH]6)C=C5)C=C4)cc2)CC1
REMARK SMILES IDX 20 1 19 2 18 3 16 4 17 5 15 6 12 7 13 8 88 9 14 10 87 11
REMARK SMILES IDX 11 12 2 13 3 14 4 15 10 16 5 17 9 18 6 19 8 20 7 21 1 22
REMARK SMILES IDX 21 25 22 26 23 27 24 28 25 29 86 30 26 31 85 32 27 33 28 34
REMARK SMILES IDX 29 35 79 36 30 37 84 38 78 39 80 40 31 41 83 42 77 43 76 44
REMARK SMILES IDX 32 46 64 47 44 48 63 49 45 50 48 51 62 52 81 53 46 54 47 55
REMARK SMILES IDX 61 57 82 58 49 59 33 60 34 61 42 62 35 63 37 64 43 65 36 66
REMARK SMILES IDX 38 67 39 68 40 69 41 70 65 71 66 72 74 73 67 74 69 75 75 76
REMARK SMILES IDX 68 77 70 78 71 79 72 80 73 81 50 82 51 83 59 84 52 85 54 86
REMARK SMILES IDX 60 87 53 88 55 89 56 90 57 91 58 92
REMARK H PARENT 1 23 1 24 80 45 48 56
REMARK Flexibility Score: inf
ROOT
ATOM      1  C   UNL A   1      31.541  30.187  25.881  1.00  0.00     0.275 C 
ENDROOT
BRANCH   1   2
ATOM      2  C   UNL A   1      31.280  29.341  24.633  1.00  0.00     0.274 C 
BRANCH   2   3
ATOM      3  O   UNL A   1      31.096  27.955  24.976  1.00  0.00    -0.462 OA
BRANCH   3   4
ATOM      4  C   UNL A   1      30.276  27.246  24.161  1.00  0.00     0.309 C 
ATOM      5  O   UNL A   1      29.536  27.739  23.316  1.00  0.00    -0.252 OA
BRANCH   4   6
ATOM      6  C   UNL A   1      30.351  25.753  24.388  1.00  0.00     0.103 C 
ATOM      7  N   UNL A   1      31.393  23.146  24.854  1.00  0.00    -0.353 N 
ATOM      8  C   UNL A   1      30.833  23.447  23.542  1.00  0.00     0.119 C 
ATOM      9  C   UNL A   1      30.965  23.952  25.997  1.00  0.00     0.119 C 
ATOM     10  C   UNL A   1      30.921  24.937  23.227  1.00  0.00     0.037 C 
ATOM     11  C   UNL A   1      31.107  25.439  25.677  1.00  0.00     0.037 C 
BRANCH   7  12
ATOM     12  C   UNL A   1      32.675  22.604  24.920  1.00  0.00     0.172 A 
ATOM     13  C   UNL A   1      32.859  21.218  25.181  1.00  0.00     0.167 A 
ATOM     14  N   UNL A   1      34.078  20.655  25.274  1.00  0.00    -0.226 NA
ATOM     15  C   UNL A   1      35.126  21.472  25.085  1.00  0.00     0.091 A 
ATOM     16  N   UNL A   1      33.740  23.410  24.704  1.00  0.00    -0.225 NA
ATOM     17  C   UNL A   1      36.408  20.948  25.175  1.00  0.00     0.031 A 
ATOM     18  C   UNL A   1      34.959  22.850  24.801  1.00  0.00     0.091 A 
ATOM     19  C   UNL A   1      37.535  21.751  25.002  1.00  0.00     0.002 A 
ATOM     20  C   UNL A   1      36.090  23.639  24.629  1.00  0.00     0.031 A 
ATOM     21  C   UNL A   1      37.376  23.103  24.730  1.00  0.00     0.002 A 
BRANCH  13  22
ATOM     22  N   UNL A   1      31.779  20.365  25.374  1.00  0.00    -0.381 N 
ATOM     23  H   UNL A   1      31.627  19.614  24.755  1.00  0.00     0.158 HD
ATOM     24  H   UNL A   1      31.165  20.510  26.130  1.00  0.00     0.158 HD
ENDBRANCH  13  22
ENDBRANCH   7  12
ENDBRANCH   4   6
ENDBRANCH   3   4
ENDBRANCH   2   3
ENDBRANCH   1   2
BRANCH   1  25
ATOM     25  O   UNL A   1      32.938  30.501  26.028  1.00  0.00    -0.458 OA
BRANCH  25  26
ATOM     26  C   UNL A   1      33.227  31.465  26.936  1.00  0.00     0.338 C 
ATOM     27  O   UNL A   1      32.530  32.412  27.253  1.00  0.00    -0.246 OA
BRANCH  26  28
ATOM     28  C   UNL A   1      34.496  31.133  27.599  1.00  0.00     0.060 A 
ATOM     29  C   UNL A   1      35.439  32.123  27.874  1.00  0.00     0.016 A 
ATOM     30  C   UNL A   1      34.716  29.812  27.998  1.00  0.00     0.016 A 
ATOM     31  C   UNL A   1      36.622  31.772  28.527  1.00  0.00     0.010 A 
ATOM     32  C   UNL A   1      35.893  29.464  28.655  1.00  0.00     0.010 A 
ATOM     33  C   UNL A   1      36.860  30.439  28.917  1.00  0.00    -0.014 A 
BRANCH  33  34
ATOM     34  C   UNL A   1      38.095  30.080  29.651  1.00  0.00     0.031 A 
ATOM     35  C   UNL A   1      38.354  30.608  31.032  1.00  0.00     0.074 A 
ATOM     36  C   UNL A   1      38.999  29.287  29.047  1.00  0.00     0.049 A 
ATOM     37  N   UNL A   1      39.334  30.314  31.848  1.00  0.00    -0.248 NA
ATOM     38  C   UNL A   1      37.403  31.596  31.567  1.00  0.00     0.031 C 
ATOM     39  C   UNL A   1      38.894  28.787  27.674  1.00  0.00     0.029 A 
ATOM     40  N   UNL A   1      40.179  28.760  29.505  1.00  0.00    -0.354 N 
ATOM     41  C   UNL A   1      39.120  31.077  32.988  1.00  0.00     0.074 A 
ATOM     42  C   UNL A   1      37.939  31.877  32.748  1.00  0.00     0.031 C 
ATOM     43  C   UNL A   1      39.946  27.997  27.414  1.00  0.00     0.029 A 
ATOM     44  C   UNL A   1      40.804  27.942  28.595  1.00  0.00     0.049 A 
ATOM     45  H   UNL A   1      40.543  28.950  30.401  1.00  0.00     0.167 HD
ATOM     46  C   UNL A   1      39.826  31.081  34.144  1.00  0.00     0.034 A 
ATOM     47  C   UNL A   1      41.930  27.210  28.705  1.00  0.00     0.034 A 
ATOM     48  C   UNL A   1      40.984  30.264  34.385  1.00  0.00     0.049 A 
ATOM     49  C   UNL A   1      42.677  27.206  30.007  1.00  0.00     0.074 A 
ATOM     50  C   UNL A   1      41.726  30.150  35.547  1.00  0.00     0.029 A 
ATOM     51  N   UNL A   1      41.569  29.424  33.450  1.00  0.00    -0.354 N 
ATOM     52  N   UNL A   1      42.385  27.830  31.122  1.00  0.00    -0.248 NA
ATOM     53  C   UNL A   1      43.890  26.379  30.080  1.00  0.00     0.031 C 
ATOM     54  C   UNL A   1      42.767  29.247  35.312  1.00  0.00     0.029 A 
ATOM     55  C   UNL A   1      42.664  28.789  34.008  1.00  0.00     0.049 A 
ATOM     56  H   UNL A   1      41.251  29.298  32.527  1.00  0.00     0.167 HD
ATOM     57  C   UNL A   1      43.363  27.457  32.036  1.00  0.00     0.074 A 
ATOM     58  C   UNL A   1      44.251  26.542  31.347  1.00  0.00     0.031 C 
ATOM     59  C   UNL A   1      43.515  27.851  33.323  1.00  0.00     0.034 A 
BRANCH  46  60
ATOM     60  C   UNL A   1      39.321  31.932  35.277  1.00  0.00     0.023 A 
ATOM     61  C   UNL A   1      38.431  31.361  36.209  1.00  0.00     0.012 A 
ATOM     62  C   UNL A   1      39.797  33.241  35.484  1.00  0.00     0.148 A 
ATOM     63  C   UNL A   1      38.012  32.082  37.324  1.00  0.00     0.002 A 
ATOM     64  C   UNL A   1      39.397  33.944  36.614  1.00  0.00     0.091 A 
ATOM     65  F   UNL A   1      40.635  33.766  34.579  1.00  0.00    -0.205 F 
ATOM     66  C   UNL A   1      38.501  33.368  37.533  1.00  0.00     0.022 A 
BRANCH  64  67
ATOM     67  S   UNL A   1      40.005  35.588  37.009  1.00  0.00     0.127 S 
ATOM     68  O   UNL A   1      39.285  35.880  38.248  1.00  0.00    -0.237 OA
ATOM     69  O   UNL A   1      41.439  35.352  37.178  1.00  0.00    -0.237 OA
ATOM     70  O   UNL A   1      39.653  36.433  35.876  1.00  0.00    -0.744 OA
ENDBRANCH  64  67
ENDBRANCH  46  60
BRANCH  47  71
ATOM     71  C   UNL A   1      42.339  26.343  27.569  1.00  0.00     0.023 A 
ATOM     72  C   UNL A   1      43.236  26.849  26.611  1.00  0.00     0.012 A 
ATOM     73  C   UNL A   1      41.925  24.999  27.492  1.00  0.00     0.148 A 
ATOM     74  C   UNL A   1      43.716  26.031  25.588  1.00  0.00     0.002 A 
ATOM     75  C   UNL A   1      42.436  24.180  26.492  1.00  0.00     0.091 A 
ATOM     76  F   UNL A   1      41.074  24.544  28.421  1.00  0.00    -0.205 F 
ATOM     77  C   UNL A   1      43.325  24.696  25.534  1.00  0.00     0.022 A 
BRANCH  75  78
ATOM     78  S   UNL A   1      42.074  22.423  26.397  1.00  0.00     0.127 S 
ATOM     79  O   UNL A   1      42.815  22.030  25.199  1.00  0.00    -0.237 OA
ATOM     80  O   UNL A   1      42.635  21.935  27.656  1.00  0.00    -0.237 OA
ATOM     81  O   UNL A   1      40.625  22.320  26.294  1.00  0.00    -0.744 OA
ENDBRANCH  75  78
ENDBRANCH  47  71
BRANCH  59  82
ATOM     82  C   UNL A   1      44.681  27.301  34.096  1.00  0.00     0.023 A 
ATOM     83  C   UNL A   1      45.898  28.009  34.101  1.00  0.00     0.012 A 
ATOM     84  C   UNL A   1      44.528  26.170  34.921  1.00  0.00     0.148 A 
ATOM     85  C   UNL A   1      46.952  27.594  34.914  1.00  0.00     0.002 A 
ATOM     86  C   UNL A   1      45.571  25.782  35.753  1.00  0.00     0.091 A 
ATOM     87  F   UNL A   1      43.360  25.512  34.891  1.00  0.00    -0.205 F 
ATOM     88  C   UNL A   1      46.784  26.490  35.748  1.00  0.00     0.022 A 
BRANCH  86  89
ATOM     89  S   UNL A   1      45.429  24.420  36.917  1.00  0.00     0.127 S 
ATOM     90  O   UNL A   1      45.177  23.290  36.023  1.00  0.00    -0.237 OA
ATOM     91  O   UNL A   1      46.748  24.416  37.547  1.00  0.00    -0.237 OA
ATOM     92  O   UNL A   1      44.327  24.760  37.807  1.00  0.00    -0.744 OA
ENDBRANCH  86  89
ENDBRANCH  59  82
ENDBRANCH  33  34
ENDBRANCH  26  28
ENDBRANCH  25  26
ENDBRANCH   1  25
TORSDOF 16
ENDMDL
MODEL 3
REMARK VINA RESULT:     -12.2      5.207     10.267
REMARK SMILES Nc1nc2ccccc2nc1N1CCC(C(=O)OCCOC(=O)c2ccc(-c3c4nc(c(-c5cccc(S(=O)(=O)[O-])c5F)c5ccc([nH]5)c(-c5cccc(S(=O)(=O)[O-])c5F)c5nc(c(-c6cccc(S(=O)(=O)[O-])c6F)c6ccc3[nH]6)C=C5)C=C4)cc2)CC1
REMARK SMILES IDX 20 1 19 2 18 3 16 4 17 5 15 6 12 7 13 8 88 9 14 10 87 11
REMARK SMILES IDX 11 12 2 13 3 14 4 15 10 16 5 17 9 18 6 19 8 20 7 21 1 22
REMARK SMILES IDX 21 25 22 26 23 27 24 28 25 29 86 30 26 31 85 32 27 33 28 34
REMARK SMILES IDX 29 35 79 36 30 37 84 38 78 39 80 40 31 41 83 42 77 43 76 44
REMARK SMILES IDX 32 46 64 47 44 48 63 49 45 50 48 51 62 52 81 53 46 54 47 55
REMARK SMILES IDX 61 57 82 58 49 59 33 60 34 61 42 62 35 63 37 64 43 65 36 66
REMARK SMILES IDX 38 67 39 68 40 69 41 70 65 71 66 72 74 73 67 74 69 75 75 76
REMARK SMILES IDX 68 77 70 78 71 79 72 80 73 81 50 82 51 83 59 84 52 85 54 86
REMARK SMILES IDX 60 87 53 88 55 89 56 90 57 91 58 92
REMARK H PARENT 1 23 1 24 80 45 48 56
REMARK Flexibility Score: inf
ROOT
ATOM      1  C   UNL A   1      31.737  29.698  26.018  1.00  0.00     0.275 C 
ENDROOT
BRANCH   1   2
ATOM      2  C   UNL A   1      31.585  28.669  24.895  1.00  0.00     0.274 C 
BRANCH   2   3
ATOM      3  O   UNL A   1      31.678  27.326  25.406  1.00  0.00    -0.462 OA
BRANCH   3   4
ATOM      4  C   UNL A   1      32.155  26.395  24.544  1.00  0.00     0.309 C 
ATOM      5  O   UNL A   1      31.766  26.249  23.389  1.00  0.00    -0.252 OA
BRANCH   4   6
ATOM      6  C   UNL A   1      33.238  25.525  25.141  1.00  0.00     0.103 C 
ATOM      7  N   UNL A   1      34.876  23.269  25.709  1.00  0.00    -0.353 N 
ATOM      8  C   UNL A   1      33.956  23.738  26.739  1.00  0.00     0.119 C 
ATOM      9  C   UNL A   1      35.301  24.209  24.673  1.00  0.00     0.119 C 
ATOM     10  C   UNL A   1      32.759  24.461  26.130  1.00  0.00     0.037 C 
ATOM     11  C   UNL A   1      34.084  24.886  24.044  1.00  0.00     0.037 C 
BRANCH   7  12
ATOM     12  C   UNL A   1      34.841  21.922  25.352  1.00  0.00     0.172 A 
ATOM     13  C   UNL A   1      36.013  21.122  25.446  1.00  0.00     0.167 A 
ATOM     14  N   UNL A   1      36.033  19.823  25.092  1.00  0.00    -0.226 NA
ATOM     15  C   UNL A   1      34.871  19.308  24.661  1.00  0.00     0.091 A 
ATOM     16  N   UNL A   1      33.671  21.382  24.942  1.00  0.00    -0.225 NA
ATOM     17  C   UNL A   1      34.832  17.974  24.277  1.00  0.00     0.031 A 
ATOM     18  C   UNL A   1      33.689  20.085  24.584  1.00  0.00     0.091 A 
ATOM     19  C   UNL A   1      33.657  17.387  23.808  1.00  0.00     0.002 A 
ATOM     20  C   UNL A   1      32.525  19.489  24.116  1.00  0.00     0.031 A 
ATOM     21  C   UNL A   1      32.498  18.148  23.725  1.00  0.00     0.002 A 
BRANCH  13  22
ATOM     22  N   UNL A   1      37.219  21.648  25.895  1.00  0.00    -0.381 N 
ATOM     23  H   UNL A   1      37.973  21.755  25.270  1.00  0.00     0.158 HD
ATOM     24  H   UNL A   1      37.320  21.916  26.836  1.00  0.00     0.158 HD
ENDBRANCH  13  22
ENDBRANCH   7  12
ENDBRANCH   4   6
ENDBRANCH   3   4
ENDBRANCH   2   3
ENDBRANCH   1   2
BRANCH   1  25
ATOM     25  O   UNL A   1      32.978  30.417  25.915  1.00  0.00    -0.458 OA
BRANCH  25  26
ATOM     26  C   UNL A   1      33.205  31.331  26.890  1.00  0.00     0.338 C 
ATOM     27  O   UNL A   1      32.457  32.220  27.256  1.00  0.00    -0.246 OA
BRANCH  26  28
ATOM     28  C   UNL A   1      34.480  31.019  27.553  1.00  0.00     0.060 A 
ATOM     29  C   UNL A   1      35.420  32.018  27.800  1.00  0.00     0.016 A 
ATOM     30  C   UNL A   1      34.707  29.708  27.979  1.00  0.00     0.016 A 
ATOM     31  C   UNL A   1      36.609  31.685  28.454  1.00  0.00     0.010 A 
ATOM     32  C   UNL A   1      35.889  29.378  28.636  1.00  0.00     0.010 A 
ATOM     33  C   UNL A   1      36.854  30.363  28.871  1.00  0.00    -0.014 A 
BRANCH  33  34
ATOM     34  C   UNL A   1      38.095  30.023  29.606  1.00  0.00     0.031 A 
ATOM     35  C   UNL A   1      38.365  30.590  30.969  1.00  0.00     0.074 A 
ATOM     36  C   UNL A   1      38.993  29.213  29.017  1.00  0.00     0.049 A 
ATOM     37  N   UNL A   1      39.350  30.320  31.785  1.00  0.00    -0.248 NA
ATOM     38  C   UNL A   1      37.418  31.595  31.483  1.00  0.00     0.031 C 
ATOM     39  C   UNL A   1      38.877  28.674  27.661  1.00  0.00     0.029 A 
ATOM     40  N   UNL A   1      40.176  28.699  29.481  1.00  0.00    -0.354 N 
ATOM     41  C   UNL A   1      39.146  31.116  32.905  1.00  0.00     0.074 A 
ATOM     42  C   UNL A   1      37.963  31.909  32.651  1.00  0.00     0.031 C 
ATOM     43  C   UNL A   1      39.927  27.876  27.415  1.00  0.00     0.029 A 
ATOM     44  C   UNL A   1      40.794  27.855  28.590  1.00  0.00     0.049 A 
ATOM     45  H   UNL A   1      40.547  28.914  30.368  1.00  0.00     0.167 HD
ATOM     46  C   UNL A   1      39.861  31.153  34.054  1.00  0.00     0.034 A 
ATOM     47  C   UNL A   1      41.920  27.126  28.712  1.00  0.00     0.034 A 
ATOM     48  C   UNL A   1      41.020  30.342  34.310  1.00  0.00     0.049 A 
ATOM     49  C   UNL A   1      42.678  27.159  30.008  1.00  0.00     0.074 A 
ATOM     50  C   UNL A   1      41.772  30.261  35.468  1.00  0.00     0.029 A 
ATOM     51  N   UNL A   1      41.598  29.475  33.394  1.00  0.00    -0.354 N 
ATOM     52  N   UNL A   1      42.395  27.814  31.107  1.00  0.00    -0.248 NA
ATOM     53  C   UNL A   1      43.891  26.333  30.095  1.00  0.00     0.031 C 
ATOM     54  C   UNL A   1      42.810  29.351  35.251  1.00  0.00     0.029 A 
ATOM     55  C   UNL A   1      42.697  28.856  33.961  1.00  0.00     0.049 A 
ATOM     56  H   UNL A   1      41.273  29.322  32.478  1.00  0.00     0.167 HD
ATOM     57  C   UNL A   1      43.380  27.467  32.023  1.00  0.00     0.074 A 
ATOM     58  C   UNL A   1      44.262  26.533  31.354  1.00  0.00     0.031 C 
ATOM     59  C   UNL A   1      43.542  27.897  33.297  1.00  0.00     0.034 A 
BRANCH  46  60
ATOM     60  C   UNL A   1      39.365  32.035  35.167  1.00  0.00     0.023 A 
ATOM     61  C   UNL A   1      38.472  31.495  36.114  1.00  0.00     0.012 A 
ATOM     62  C   UNL A   1      39.852  33.345  35.339  1.00  0.00     0.148 A 
ATOM     63  C   UNL A   1      38.061  32.249  37.211  1.00  0.00     0.002 A 
ATOM     64  C   UNL A   1      39.460  34.081  36.452  1.00  0.00     0.091 A 
ATOM     65  F   UNL A   1      40.693  33.840  34.420  1.00  0.00    -0.205 F 
ATOM     66  C   UNL A   1      38.562  33.535  37.386  1.00  0.00     0.022 A 
BRANCH  64  67
ATOM     67  S   UNL A   1      40.083  35.728  36.804  1.00  0.00     0.127 S 
ATOM     68  O   UNL A   1      39.596  36.481  35.648  1.00  0.00    -0.237 OA
ATOM     69  O   UNL A   1      39.413  36.047  38.064  1.00  0.00    -0.237 OA
ATOM     70  O   UNL A   1      41.531  35.603  36.894  1.00  0.00    -0.744 OA
ENDBRANCH  64  67
ENDBRANCH  46  60
BRANCH  47  71
ATOM     71  C   UNL A   1      42.320  26.225  27.599  1.00  0.00     0.023 A 
ATOM     72  C   UNL A   1      43.286  26.668  26.675  1.00  0.00     0.012 A 
ATOM     73  C   UNL A   1      41.827  24.910  27.511  1.00  0.00     0.148 A 
ATOM     74  C   UNL A   1      43.755  25.813  25.677  1.00  0.00     0.002 A 
ATOM     75  C   UNL A   1      42.325  24.053  26.537  1.00  0.00     0.091 A 
ATOM     76  F   UNL A   1      40.912  24.516  28.407  1.00  0.00    -0.205 F 
ATOM     77  C   UNL A   1      43.283  24.505  25.614  1.00  0.00     0.022 A 
BRANCH  75  78
ATOM     78  S   UNL A   1      41.858  22.322  26.436  1.00  0.00     0.127 S 
ATOM     79  O   UNL A   1      40.411  22.413  26.249  1.00  0.00    -0.237 OA
ATOM     80  O   UNL A   1      42.605  21.880  25.258  1.00  0.00    -0.237 OA
ATOM     81  O   UNL A   1      42.287  21.719  27.691  1.00  0.00    -0.744 OA
ENDBRANCH  75  78
ENDBRANCH  47  71
BRANCH  59  82
ATOM     82  C   UNL A   1      44.714  27.370  34.077  1.00  0.00     0.023 A 
ATOM     83  C   UNL A   1      45.897  28.131  34.142  1.00  0.00     0.012 A 
ATOM     84  C   UNL A   1      44.595  26.199  34.849  1.00  0.00     0.148 A 
ATOM     85  C   UNL A   1      46.949  27.732  34.964  1.00  0.00     0.002 A 
ATOM     86  C   UNL A   1      45.635  25.824  35.691  1.00  0.00     0.091 A 
ATOM     87  F   UNL A   1      43.460  25.490  34.763  1.00  0.00    -0.205 F 
ATOM     88  C   UNL A   1      46.813  26.587  35.746  1.00  0.00     0.022 A 
BRANCH  86  89
ATOM     89  S   UNL A   1      45.529  24.409  36.794  1.00  0.00     0.127 S 
ATOM     90  O   UNL A   1      46.928  23.990  36.875  1.00  0.00    -0.237 OA
ATOM     91  O   UNL A   1      45.001  25.011  38.017  1.00  0.00    -0.237 OA
ATOM     92  O   UNL A   1      44.637  23.456  36.147  1.00  0.00    -0.744 OA
ENDBRANCH  86  89
ENDBRANCH  59  82
ENDBRANCH  33  34
ENDBRANCH  26  28
ENDBRANCH  25  26
ENDBRANCH   1  25
TORSDOF 16
ENDMDL
