MODEL 1
REMARK VINA RESULT:     -11.0      0.000      0.000
REMARK SMILES COCCS(=O)(=O)Cc1ccc(C(=O)OCCOC(=O)c2ccc(-c3c4nc(c(-c5cccc(S(=O)(=O)[O-])c5F)c5ccc([nH]5)c(-c5cccc(S(=O)(=O)[O-])c5F)c5nc(c(-c6cccc(S(=O)(=O)[O-])c6F)c6ccc3[nH]6)C=C5)C=C4)cc2)cn1
REMARK SMILES IDX 16 1 15 2 13 3 14 4 12 5 9 6 10 7 85 8 11 9 84 10 8 11 5 12
REMARK SMILES IDX 6 13 7 14 4 15 3 16 2 17 1 18 17 19 18 20 19 21 20 22 21 23
REMARK SMILES IDX 22 24 83 25 23 26 82 27 24 28 25 29 26 30 76 31 27 32 81 33
REMARK SMILES IDX 75 34 77 35 28 36 80 37 74 38 73 39 29 41 61 42 41 43 60 44
REMARK SMILES IDX 42 45 45 46 59 47 78 48 43 49 44 50 58 52 79 53 46 54 30 55
REMARK SMILES IDX 31 56 39 57 32 58 34 59 40 60 33 61 35 62 36 63 37 64 38 65
REMARK SMILES IDX 62 66 63 67 71 68 64 69 66 70 72 71 65 72 67 73 68 74 69 75
REMARK SMILES IDX 70 76 47 77 48 78 56 79 49 80 51 81 57 82 50 83 52 84 53 85
REMARK SMILES IDX 54 86 55 87
REMARK H PARENT 77 40 45 51
REMARK Flexibility Score: inf
ROOT
ATOM      1  C   UNL A   1      35.063  20.809  25.260  1.00  0.00     0.275 C 
ENDROOT
BRANCH   1   2
ATOM      2  O   UNL A   1      34.134  20.071  24.443  1.00  0.00    -0.458 OA
BRANCH   2   3
ATOM      3  C   UNL A   1      32.844  20.104  24.855  1.00  0.00     0.339 C 
ATOM      4  O   UNL A   1      32.203  19.157  25.290  1.00  0.00    -0.246 OA
BRANCH   3   5
ATOM      5  C   UNL A   1      32.268  21.458  24.758  1.00  0.00     0.078 A 
ATOM      6  C   UNL A   1      31.000  23.937  24.758  1.00  0.00     0.055 A 
ATOM      7  C   UNL A   1      31.525  23.414  23.578  1.00  0.00     0.026 A 
ATOM      8  N   UNL A   1      31.185  23.281  25.929  1.00  0.00    -0.259 NA
ATOM      9  C   UNL A   1      32.143  22.159  23.568  1.00  0.00     0.019 A 
ATOM     10  C   UNL A   1      31.797  22.072  25.908  1.00  0.00     0.127 A 
BRANCH   6  11
ATOM     11  C   UNL A   1      30.332  25.274  24.899  1.00  0.00     0.193 C 
BRANCH  11  12
ATOM     12  S   UNL A   1      31.352  26.565  25.584  1.00  0.00     0.158 S 
ATOM     13  O   UNL A   1      31.075  26.601  27.014  1.00  0.00    -0.228 OA
ATOM     14  O   UNL A   1      31.163  27.777  24.805  1.00  0.00    -0.228 OA
BRANCH  12  15
ATOM     15  C   UNL A   1      33.078  26.148  25.448  1.00  0.00     0.165 C 
BRANCH  15  16
ATOM     16  C   UNL A   1      33.774  26.788  24.261  1.00  0.00     0.176 C 
BRANCH  16  17
ATOM     17  O   UNL A   1      33.774  25.890  23.158  1.00  0.00    -0.384 OA
ATOM     18  C   UNL A   1      33.258  26.418  21.942  1.00  0.00     0.194 C 
ENDBRANCH  16  17
ENDBRANCH  15  16
ENDBRANCH  12  15
ENDBRANCH  11  12
ENDBRANCH   6  11
ENDBRANCH   3   5
ENDBRANCH   2   3
ENDBRANCH   1   2
BRANCH   1  19
ATOM     19  C   UNL A   1      36.510  20.389  24.994  1.00  0.00     0.275 C 
BRANCH  19  20
ATOM     20  O   UNL A   1      37.423  21.479  25.218  1.00  0.00    -0.458 OA
BRANCH  20  21
ATOM     21  C   UNL A   1      38.599  21.126  25.783  1.00  0.00     0.338 C 
ATOM     22  O   UNL A   1      39.179  20.057  25.672  1.00  0.00    -0.246 OA
BRANCH  21  23
ATOM     23  C   UNL A   1      39.201  22.267  26.485  1.00  0.00     0.060 A 
ATOM     24  C   UNL A   1      38.698  23.530  26.194  1.00  0.00     0.016 A 
ATOM     25  C   UNL A   1      40.363  22.135  27.240  1.00  0.00     0.016 A 
ATOM     26  C   UNL A   1      39.404  24.670  26.555  1.00  0.00     0.010 A 
ATOM     27  C   UNL A   1      41.013  23.290  27.701  1.00  0.00     0.010 A 
ATOM     28  C   UNL A   1      40.565  24.573  27.330  1.00  0.00    -0.014 A 
BRANCH  28  29
ATOM     29  C   UNL A   1      41.305  25.810  27.722  1.00  0.00     0.031 A 
ATOM     30  C   UNL A   1      40.632  26.873  28.555  1.00  0.00     0.074 A 
ATOM     31  C   UNL A   1      42.587  25.986  27.337  1.00  0.00     0.049 A 
ATOM     32  N   UNL A   1      41.048  28.078  28.852  1.00  0.00    -0.248 NA
ATOM     33  C   UNL A   1      39.310  26.547  29.115  1.00  0.00     0.031 C 
ATOM     34  C   UNL A   1      43.375  25.034  26.551  1.00  0.00     0.029 A 
ATOM     35  N   UNL A   1      43.454  27.032  27.544  1.00  0.00    -0.354 N 
ATOM     36  C   UNL A   1      40.011  28.681  29.556  1.00  0.00     0.074 A 
ATOM     37  C   UNL A   1      38.948  27.704  29.652  1.00  0.00     0.031 C 
ATOM     38  C   UNL A   1      44.608  25.522  26.364  1.00  0.00     0.029 A 
ATOM     39  C   UNL A   1      44.671  26.867  26.921  1.00  0.00     0.049 A 
ATOM     40  H   UNL A   1      43.227  27.824  28.085  1.00  0.00     0.167 HD
ATOM     41  C   UNL A   1      39.951  29.930  30.078  1.00  0.00     0.034 A 
ATOM     42  C   UNL A   1      45.703  27.716  26.756  1.00  0.00     0.034 A 
ATOM     43  C   UNL A   1      41.038  30.874  30.036  1.00  0.00     0.049 A 
ATOM     44  C   UNL A   1      45.606  29.100  27.330  1.00  0.00     0.074 A 
ATOM     45  C   UNL A   1      41.094  32.145  30.580  1.00  0.00     0.029 A 
ATOM     46  N   UNL A   1      42.259  30.653  29.416  1.00  0.00    -0.354 N 
ATOM     47  N   UNL A   1      44.635  29.636  28.027  1.00  0.00    -0.248 NA
ATOM     48  C   UNL A   1      46.750  29.992  27.104  1.00  0.00     0.031 C 
ATOM     49  C   UNL A   1      42.332  32.707  30.256  1.00  0.00     0.029 A 
ATOM     50  C   UNL A   1      43.068  31.769  29.550  1.00  0.00     0.049 A 
ATOM     51  H   UNL A   1      42.513  29.825  28.950  1.00  0.00     0.167 HD
ATOM     52  C   UNL A   1      45.061  30.919  28.348  1.00  0.00     0.074 A 
ATOM     53  C   UNL A   1      46.390  31.067  27.790  1.00  0.00     0.031 C 
ATOM     54  C   UNL A   1      44.406  31.890  29.029  1.00  0.00     0.034 A 
BRANCH  41  55
ATOM     55  C   UNL A   1      38.665  30.359  30.742  1.00  0.00     0.023 A 
ATOM     56  C   UNL A   1      38.455  30.112  32.113  1.00  0.00     0.012 A 
ATOM     57  C   UNL A   1      37.684  31.061  30.011  1.00  0.00     0.148 A 
ATOM     58  C   UNL A   1      37.275  30.518  32.736  1.00  0.00     0.002 A 
ATOM     59  C   UNL A   1      36.534  31.506  30.650  1.00  0.00     0.091 A 
ATOM     60  F   UNL A   1      37.892  31.274  28.703  1.00  0.00    -0.205 F 
ATOM     61  C   UNL A   1      36.320  31.224  32.008  1.00  0.00     0.022 A 
BRANCH  59  62
ATOM     62  S   UNL A   1      35.283  32.495  29.819  1.00  0.00     0.127 S 
ATOM     63  O   UNL A   1      36.071  33.634  29.351  1.00  0.00    -0.237 OA
ATOM     64  O   UNL A   1      34.830  31.591  28.762  1.00  0.00    -0.237 OA
ATOM     65  O   UNL A   1      34.278  32.804  30.827  1.00  0.00    -0.744 OA
ENDBRANCH  59  62
ENDBRANCH  41  55
BRANCH  42  66
ATOM     66  C   UNL A   1      46.911  27.281  25.995  1.00  0.00     0.023 A 
ATOM     67  C   UNL A   1      47.854  26.436  26.610  1.00  0.00     0.012 A 
ATOM     68  C   UNL A   1      47.112  27.676  24.658  1.00  0.00     0.148 A 
ATOM     69  C   UNL A   1      48.989  26.014  25.916  1.00  0.00     0.002 A 
ATOM     70  C   UNL A   1      48.209  27.200  23.951  1.00  0.00     0.091 A 
ATOM     71  F   UNL A   1      46.212  28.495  24.095  1.00  0.00    -0.205 F 
ATOM     72  C   UNL A   1      49.159  26.385  24.584  1.00  0.00     0.022 A 
BRANCH  70  73
ATOM     73  S   UNL A   1      48.434  27.513  22.197  1.00  0.00     0.127 S 
ATOM     74  O   UNL A   1      47.167  28.144  21.841  1.00  0.00    -0.237 OA
ATOM     75  O   UNL A   1      49.591  28.410  22.198  1.00  0.00    -0.237 OA
ATOM     76  O   UNL A   1      48.685  26.212  21.592  1.00  0.00    -0.744 OA
ENDBRANCH  70  73
ENDBRANCH  42  66
BRANCH  54  77
ATOM     77  C   UNL A   1      45.133  33.190  29.255  1.00  0.00     0.023 A 
ATOM     78  C   UNL A   1      45.890  33.382  30.428  1.00  0.00     0.012 A 
ATOM     79  C   UNL A   1      45.108  34.199  28.274  1.00  0.00     0.148 A 
ATOM     80  C   UNL A   1      46.580  34.574  30.638  1.00  0.00     0.002 A 
ATOM     81  C   UNL A   1      45.842  35.363  28.465  1.00  0.00     0.091 A 
ATOM     82  F   UNL A   1      44.367  34.005  27.174  1.00  0.00    -0.205 F 
ATOM     83  C   UNL A   1      46.566  35.559  29.652  1.00  0.00     0.022 A 
BRANCH  81  84
ATOM     84  S   UNL A   1      45.966  36.642  27.210  1.00  0.00     0.127 S 
ATOM     85  O   UNL A   1      44.613  37.196  27.216  1.00  0.00    -0.237 OA
ATOM     86  O   UNL A   1      46.990  37.524  27.768  1.00  0.00    -0.237 OA
ATOM     87  O   UNL A   1      46.354  35.965  25.980  1.00  0.00    -0.744 OA
ENDBRANCH  81  84
ENDBRANCH  54  77
ENDBRANCH  28  29
ENDBRANCH  21  23
ENDBRANCH  20  21
ENDBRANCH  19  20
ENDBRANCH   1  19
TORSDOF 19
ENDMDL
MODEL 2
REMARK VINA RESULT:     -10.8      5.383     10.304
REMARK SMILES COCCS(=O)(=O)Cc1ccc(C(=O)OCCOC(=O)c2ccc(-c3c4nc(c(-c5cccc(S(=O)(=O)[O-])c5F)c5ccc([nH]5)c(-c5cccc(S(=O)(=O)[O-])c5F)c5nc(c(-c6cccc(S(=O)(=O)[O-])c6F)c6ccc3[nH]6)C=C5)C=C4)cc2)cn1
REMARK SMILES IDX 16 1 15 2 13 3 14 4 12 5 9 6 10 7 85 8 11 9 84 10 8 11 5 12
REMARK SMILES IDX 6 13 7 14 4 15 3 16 2 17 1 18 17 19 18 20 19 21 20 22 21 23
REMARK SMILES IDX 22 24 83 25 23 26 82 27 24 28 25 29 26 30 76 31 27 32 81 33
REMARK SMILES IDX 75 34 77 35 28 36 80 37 74 38 73 39 29 41 61 42 41 43 60 44
REMARK SMILES IDX 42 45 45 46 59 47 78 48 43 49 44 50 58 52 79 53 46 54 30 55
REMARK SMILES IDX 31 56 39 57 32 58 34 59 40 60 33 61 35 62 36 63 37 64 38 65
REMARK SMILES IDX 62 66 63 67 71 68 64 69 66 70 72 71 65 72 67 73 68 74 69 75
REMARK SMILES IDX 70 76 47 77 48 78 56 79 49 80 51 81 57 82 50 83 52 84 53 85
REMARK SMILES IDX 54 86 55 87
REMARK H PARENT 77 40 45 51
REMARK Flexibility Score: inf
ROOT
ATOM      1  C   UNL A   1      31.538  29.383  24.968  1.00  0.00     0.275 C 
ENDROOT
BRANCH   1   2
ATOM      2  O   UNL A   1      32.906  29.120  24.602  1.00  0.00    -0.458 OA
BRANCH   2   3
ATOM      3  C   UNL A   1      33.078  28.463  23.430  1.00  0.00     0.339 C 
ATOM      4  O   UNL A   1      32.920  28.935  22.312  1.00  0.00    -0.246 OA
BRANCH   3   5
ATOM      5  C   UNL A   1      33.525  27.073  23.636  1.00  0.00     0.078 A 
ATOM      6  C   UNL A   1      34.172  24.375  23.856  1.00  0.00     0.055 A 
ATOM      7  C   UNL A   1      34.287  25.219  24.958  1.00  0.00     0.026 A 
ATOM      8  N   UNL A   1      33.830  24.883  22.648  1.00  0.00    -0.259 NA
ATOM      9  C   UNL A   1      33.942  26.571  24.859  1.00  0.00     0.019 A 
ATOM     10  C   UNL A   1      33.510  26.197  22.562  1.00  0.00     0.127 A 
BRANCH   6  11
ATOM     11  C   UNL A   1      34.526  22.916  23.834  1.00  0.00     0.193 C 
BRANCH  11  12
ATOM     12  S   UNL A   1      33.206  21.806  24.284  1.00  0.00     0.158 S 
ATOM     13  O   UNL A   1      33.820  20.511  24.546  1.00  0.00    -0.228 OA
ATOM     14  O   UNL A   1      32.157  21.892  23.283  1.00  0.00    -0.228 OA
BRANCH  12  15
ATOM     15  C   UNL A   1      32.464  22.296  25.827  1.00  0.00     0.165 C 
BRANCH  15  16
ATOM     16  C   UNL A   1      30.961  22.489  25.754  1.00  0.00     0.176 C 
BRANCH  16  17
ATOM     17  O   UNL A   1      30.569  23.558  26.607  1.00  0.00    -0.384 OA
ATOM     18  C   UNL A   1      30.814  24.864  26.101  1.00  0.00     0.194 C 
ENDBRANCH  16  17
ENDBRANCH  15  16
ENDBRANCH  12  15
ENDBRANCH  11  12
ENDBRANCH   6  11
ENDBRANCH   3   5
ENDBRANCH   2   3
ENDBRANCH   1   2
BRANCH   1  19
ATOM     19  C   UNL A   1      31.426  30.575  25.920  1.00  0.00     0.275 C 
BRANCH  19  20
ATOM     20  O   UNL A   1      32.382  30.482  26.993  1.00  0.00    -0.458 OA
BRANCH  20  21
ATOM     21  C   UNL A   1      33.057  31.625  27.250  1.00  0.00     0.338 C 
ATOM     22  O   UNL A   1      32.614  32.763  27.235  1.00  0.00    -0.246 OA
BRANCH  21  23
ATOM     23  C   UNL A   1      34.425  31.329  27.696  1.00  0.00     0.060 A 
ATOM     24  C   UNL A   1      34.719  30.009  28.015  1.00  0.00     0.016 A 
ATOM     25  C   UNL A   1      35.332  32.340  28.001  1.00  0.00     0.016 A 
ATOM     26  C   UNL A   1      35.864  29.696  28.736  1.00  0.00     0.010 A 
ATOM     27  C   UNL A   1      36.541  32.006  28.630  1.00  0.00     0.010 A 
ATOM     28  C   UNL A   1      36.805  30.685  29.042  1.00  0.00    -0.014 A 
BRANCH  28  29
ATOM     29  C   UNL A   1      38.038  30.329  29.807  1.00  0.00     0.031 A 
ATOM     30  C   UNL A   1      39.067  29.400  29.212  1.00  0.00     0.074 A 
ATOM     31  C   UNL A   1      38.244  30.840  31.040  1.00  0.00     0.049 A 
ATOM     32  N   UNL A   1      40.108  28.846  29.780  1.00  0.00    -0.248 NA
ATOM     33  C   UNL A   1      38.896  29.031  27.797  1.00  0.00     0.031 C 
ATOM     34  C   UNL A   1      37.349  31.770  31.734  1.00  0.00     0.029 A 
ATOM     35  N   UNL A   1      39.267  30.644  31.936  1.00  0.00    -0.354 N 
ATOM     36  C   UNL A   1      40.664  28.002  28.824  1.00  0.00     0.074 A 
ATOM     37  C   UNL A   1      39.850  28.125  27.634  1.00  0.00     0.031 C 
ATOM     38  C   UNL A   1      37.869  32.082  32.927  1.00  0.00     0.029 A 
ATOM     39  C   UNL A   1      39.077  31.296  33.134  1.00  0.00     0.049 A 
ATOM     40  H   UNL A   1      40.058  30.091  31.742  1.00  0.00     0.167 HD
ATOM     41  C   UNL A   1      41.753  27.203  28.927  1.00  0.00     0.034 A 
ATOM     42  C   UNL A   1      39.757  31.228  34.296  1.00  0.00     0.034 A 
ATOM     43  C   UNL A   1      42.597  27.135  30.091  1.00  0.00     0.049 A 
ATOM     44  C   UNL A   1      40.951  30.323  34.388  1.00  0.00     0.074 A 
ATOM     45  C   UNL A   1      43.752  26.395  30.275  1.00  0.00     0.029 A 
ATOM     46  N   UNL A   1      42.380  27.832  31.271  1.00  0.00    -0.354 N 
ATOM     47  N   UNL A   1      41.484  29.565  33.462  1.00  0.00    -0.248 NA
ATOM     48  C   UNL A   1      41.643  30.271  35.683  1.00  0.00     0.031 C 
ATOM     49  C   UNL A   1      44.211  26.613  31.578  1.00  0.00     0.029 A 
ATOM     50  C   UNL A   1      43.369  27.527  32.191  1.00  0.00     0.049 A 
ATOM     51  H   UNL A   1      41.632  28.452  31.431  1.00  0.00     0.167 HD
ATOM     52  C   UNL A   1      42.591  28.967  34.051  1.00  0.00     0.074 A 
ATOM     53  C   UNL A   1      42.665  29.473  35.407  1.00  0.00     0.031 C 
ATOM     54  C   UNL A   1      43.458  28.070  33.523  1.00  0.00     0.034 A 
BRANCH  41  55
ATOM     55  C   UNL A   1      42.102  26.328  27.747  1.00  0.00     0.023 A 
ATOM     56  C   UNL A   1      42.884  26.835  26.690  1.00  0.00     0.012 A 
ATOM     57  C   UNL A   1      41.698  24.976  27.717  1.00  0.00     0.148 A 
ATOM     58  C   UNL A   1      43.222  26.027  25.604  1.00  0.00     0.002 A 
ATOM     59  C   UNL A   1      42.080  24.164  26.656  1.00  0.00     0.091 A 
ATOM     60  F   UNL A   1      40.940  24.513  28.722  1.00  0.00    -0.205 F 
ATOM     61  C   UNL A   1      42.830  24.690  25.593  1.00  0.00     0.022 A 
BRANCH  59  62
ATOM     62  S   UNL A   1      41.695  22.410  26.589  1.00  0.00     0.127 S 
ATOM     63  O   UNL A   1      42.291  21.930  27.835  1.00  0.00    -0.237 OA
ATOM     64  O   UNL A   1      40.232  22.417  26.576  1.00  0.00    -0.237 OA
ATOM     65  O   UNL A   1      42.312  21.908  25.370  1.00  0.00    -0.744 OA
ENDBRANCH  59  62
ENDBRANCH  41  55
BRANCH  42  66
ATOM     66  C   UNL A   1      39.306  32.031  35.470  1.00  0.00     0.023 A 
ATOM     67  C   UNL A   1      38.442  31.453  36.419  1.00  0.00     0.012 A 
ATOM     68  C   UNL A   1      39.753  33.354  35.664  1.00  0.00     0.148 A 
ATOM     69  C   UNL A   1      38.011  32.186  37.526  1.00  0.00     0.002 A 
ATOM     70  C   UNL A   1      39.373  34.055  36.801  1.00  0.00     0.091 A 
ATOM     71  F   UNL A   1      40.561  33.893  34.740  1.00  0.00    -0.205 F 
ATOM     72  C   UNL A   1      38.486  33.480  37.724  1.00  0.00     0.022 A 
BRANCH  70  73
ATOM     73  S   UNL A   1      40.045  35.670  37.206  1.00  0.00     0.127 S 
ATOM     74  O   UNL A   1      41.473  35.384  37.304  1.00  0.00    -0.237 OA
ATOM     75  O   UNL A   1      39.653  36.460  36.037  1.00  0.00    -0.237 OA
ATOM     76  O   UNL A   1      39.394  36.071  38.445  1.00  0.00    -0.744 OA
ENDBRANCH  70  73
ENDBRANCH  42  66
BRANCH  54  77
ATOM     77  C   UNL A   1      44.596  27.608  34.395  1.00  0.00     0.023 A 
ATOM     78  C   UNL A   1      45.797  28.344  34.438  1.00  0.00     0.012 A 
ATOM     79  C   UNL A   1      44.450  26.473  35.215  1.00  0.00     0.148 A 
ATOM     80  C   UNL A   1      46.849  27.934  35.255  1.00  0.00     0.002 A 
ATOM     81  C   UNL A   1      45.481  26.102  36.068  1.00  0.00     0.091 A 
ATOM     82  F   UNL A   1      43.306  25.776  35.145  1.00  0.00    -0.205 F 
ATOM     83  C   UNL A   1      46.687  26.821  36.079  1.00  0.00     0.022 A 
BRANCH  81  84
ATOM     84  S   UNL A   1      45.327  24.745  37.235  1.00  0.00     0.127 S 
ATOM     85  O   UNL A   1      44.213  25.195  38.069  1.00  0.00    -0.237 OA
ATOM     86  O   UNL A   1      45.016  23.617  36.358  1.00  0.00    -0.237 OA
ATOM     87  O   UNL A   1      46.612  24.649  37.914  1.00  0.00    -0.744 OA
ENDBRANCH  81  84
ENDBRANCH  54  77
ENDBRANCH  28  29
ENDBRANCH  21  23
ENDBRANCH  20  21
ENDBRANCH  19  20
ENDBRANCH   1  19
TORSDOF 19
ENDMDL
MODEL 3
REMARK VINA RESULT:     -10.6      1.717      2.110
REMARK SMILES COCCS(=O)(=O)Cc1ccc(C(=O)OCCOC(=O)c2ccc(-c3c4nc(c(-c5cccc(S(=O)(=O)[O-])c5F)c5ccc([nH]5)c(-c5cccc(S(=O)(=O)[O-])c5F)c5nc(c(-c6cccc(S(=O)(=O)[O-])c6F)c6ccc3[nH]6)C=C5)C=C4)cc2)cn1
REMARK SMILES IDX 16 1 15 2 13 3 14 4 12 5 9 6 10 7 85 8 11 9 84 10 8 11 5 12
REMARK SMILES IDX 6 13 7 14 4 15 3 16 2 17 1 18 17 19 18 20 19 21 20 22 21 23
REMARK SMILES IDX 22 24 83 25 23 26 82 27 24 28 25 29 26 30 76 31 27 32 81 33
REMARK SMILES IDX 75 34 77 35 28 36 80 37 74 38 73 39 29 41 61 42 41 43 60 44
REMARK SMILES IDX 42 45 45 46 59 47 78 48 43 49 44 50 58 52 79 53 46 54 30 55
REMARK SMILES IDX 31 56 39 57 32 58 34 59 40 60 33 61 35 62 36 63 37 64 38 65
REMARK SMILES IDX 62 66 63 67 71 68 64 69 66 70 72 71 65 72 67 73 68 74 69 75
REMARK SMILES IDX 70 76 47 77 48 78 56 79 49 80 51 81 57 82 50 83 52 84 53 85
REMARK SMILES IDX 54 86 55 87
REMARK H PARENT 77 40 45 51
REMARK Flexibility Score: inf
ROOT
ATOM      1  C   UNL A   1      35.024  21.094  25.389  1.00  0.00     0.275 C 
ENDROOT
BRANCH   1   2
ATOM      2  O   UNL A   1      33.972  20.586  24.546  1.00  0.00    -0.458 OA
BRANCH   2   3
ATOM      3  C   UNL A   1      32.730  21.052  24.822  1.00  0.00     0.339 C 
ATOM      4  O   UNL A   1      31.819  20.413  25.331  1.00  0.00    -0.246 OA
BRANCH   3   5
ATOM      5  C   UNL A   1      32.583  22.475  24.466  1.00  0.00     0.078 A 
ATOM      6  C   UNL A   1      32.474  25.115  23.588  1.00  0.00     0.055 A 
ATOM      7  C   UNL A   1      32.441  24.823  24.950  1.00  0.00     0.026 A 
ATOM      8  N   UNL A   1      32.468  24.109  22.681  1.00  0.00    -0.259 NA
ATOM      9  C   UNL A   1      32.518  23.501  25.397  1.00  0.00     0.019 A 
ATOM     10  C   UNL A   1      32.531  22.831  23.127  1.00  0.00     0.127 A 
BRANCH   6  11
ATOM     11  C   UNL A   1      32.382  26.487  22.987  1.00  0.00     0.193 C 
BRANCH  11  12
ATOM     12  S   UNL A   1      30.811  27.305  23.196  1.00  0.00     0.158 S 
ATOM     13  O   UNL A   1      29.924  26.346  23.839  1.00  0.00    -0.228 OA
ATOM     14  O   UNL A   1      30.410  27.885  21.925  1.00  0.00    -0.228 OA
BRANCH  12  15
ATOM     15  C   UNL A   1      30.951  28.661  24.341  1.00  0.00     0.165 C 
BRANCH  15  16
ATOM     16  C   UNL A   1      32.093  28.517  25.329  1.00  0.00     0.176 C 
BRANCH  16  17
ATOM     17  O   UNL A   1      31.812  29.267  26.505  1.00  0.00    -0.384 OA
ATOM     18  C   UNL A   1      31.785  30.679  26.335  1.00  0.00     0.194 C 
ENDBRANCH  16  17
ENDBRANCH  15  16
ENDBRANCH  12  15
ENDBRANCH  11  12
ENDBRANCH   6  11
ENDBRANCH   3   5
ENDBRANCH   2   3
ENDBRANCH   1   2
BRANCH   1  19
ATOM     19  C   UNL A   1      36.392  20.547  24.979  1.00  0.00     0.275 C 
BRANCH  19  20
ATOM     20  O   UNL A   1      37.412  21.559  25.072  1.00  0.00    -0.458 OA
BRANCH  20  21
ATOM     21  C   UNL A   1      38.533  21.176  25.725  1.00  0.00     0.338 C 
ATOM     22  O   UNL A   1      39.077  20.084  25.677  1.00  0.00    -0.246 OA
BRANCH  21  23
ATOM     23  C   UNL A   1      39.128  22.312  26.441  1.00  0.00     0.060 A 
ATOM     24  C   UNL A   1      38.654  23.580  26.131  1.00  0.00     0.016 A 
ATOM     25  C   UNL A   1      40.264  22.165  27.233  1.00  0.00     0.016 A 
ATOM     26  C   UNL A   1      39.364  24.711  26.510  1.00  0.00     0.010 A 
ATOM     27  C   UNL A   1      40.916  23.312  27.711  1.00  0.00     0.010 A 
ATOM     28  C   UNL A   1      40.499  24.600  27.322  1.00  0.00    -0.014 A 
BRANCH  28  29
ATOM     29  C   UNL A   1      41.244  25.828  27.733  1.00  0.00     0.031 A 
ATOM     30  C   UNL A   1      40.568  26.892  28.563  1.00  0.00     0.074 A 
ATOM     31  C   UNL A   1      42.533  25.995  27.369  1.00  0.00     0.049 A 
ATOM     32  N   UNL A   1      40.990  28.091  28.873  1.00  0.00    -0.248 NA
ATOM     33  C   UNL A   1      39.235  26.574  29.100  1.00  0.00     0.031 C 
ATOM     34  C   UNL A   1      43.325  25.040  26.589  1.00  0.00     0.029 A 
ATOM     35  N   UNL A   1      43.406  27.031  27.596  1.00  0.00    -0.354 N 
ATOM     36  C   UNL A   1      39.949  28.699  29.566  1.00  0.00     0.074 A 
ATOM     37  C   UNL A   1      38.875  27.731  29.639  1.00  0.00     0.031 C 
ATOM     38  C   UNL A   1      44.564  25.518  26.424  1.00  0.00     0.029 A 
ATOM     39  C   UNL A   1      44.631  26.858  26.991  1.00  0.00     0.049 A 
ATOM     40  H   UNL A   1      43.179  27.821  28.138  1.00  0.00     0.167 HD
ATOM     41  C   UNL A   1      39.892  29.946  30.095  1.00  0.00     0.034 A 
ATOM     42  C   UNL A   1      45.674  27.699  26.847  1.00  0.00     0.034 A 
ATOM     43  C   UNL A   1      40.988  30.880  30.076  1.00  0.00     0.049 A 
ATOM     44  C   UNL A   1      45.580  29.080  27.428  1.00  0.00     0.074 A 
ATOM     45  C   UNL A   1      41.047  32.147  30.629  1.00  0.00     0.029 A 
ATOM     46  N   UNL A   1      42.216  30.651  29.473  1.00  0.00    -0.354 N 
ATOM     47  N   UNL A   1      44.604  29.621  28.114  1.00  0.00    -0.248 NA
ATOM     48  C   UNL A   1      46.736  29.963  27.225  1.00  0.00     0.031 C 
ATOM     49  C   UNL A   1      42.296  32.699  30.327  1.00  0.00     0.029 A 
ATOM     50  C   UNL A   1      43.034  31.758  29.627  1.00  0.00     0.049 A 
ATOM     51  H   UNL A   1      42.469  29.823  29.005  1.00  0.00     0.167 HD
ATOM     52  C   UNL A   1      45.036  30.898  28.449  1.00  0.00     0.074 A 
ATOM     53  C   UNL A   1      46.375  31.037  27.913  1.00  0.00     0.031 C 
ATOM     54  C   UNL A   1      44.381  31.870  29.127  1.00  0.00     0.034 A 
BRANCH  41  55
ATOM     55  C   UNL A   1      38.600  30.381  30.742  1.00  0.00     0.023 A 
ATOM     56  C   UNL A   1      38.374  30.142  32.112  1.00  0.00     0.012 A 
ATOM     57  C   UNL A   1      37.630  31.084  29.996  1.00  0.00     0.148 A 
ATOM     58  C   UNL A   1      37.188  30.556  32.720  1.00  0.00     0.002 A 
ATOM     59  C   UNL A   1      36.474  31.536  30.620  1.00  0.00     0.091 A 
ATOM     60  F   UNL A   1      37.853  31.289  28.690  1.00  0.00    -0.205 F 
ATOM     61  C   UNL A   1      36.244  31.262  31.977  1.00  0.00     0.022 A 
BRANCH  59  62
ATOM     62  S   UNL A   1      35.236  32.524  29.770  1.00  0.00     0.127 S 
ATOM     63  O   UNL A   1      36.038  33.645  29.282  1.00  0.00    -0.237 OA
ATOM     64  O   UNL A   1      34.773  31.607  28.729  1.00  0.00    -0.237 OA
ATOM     65  O   UNL A   1      34.234  32.864  30.771  1.00  0.00    -0.744 OA
ENDBRANCH  59  62
ENDBRANCH  41  55
BRANCH  42  66
ATOM     66  C   UNL A   1      46.888  27.257  26.102  1.00  0.00     0.023 A 
ATOM     67  C   UNL A   1      46.996  27.524  24.724  1.00  0.00     0.012 A 
ATOM     68  C   UNL A   1      47.948  26.601  26.758  1.00  0.00     0.148 A 
ATOM     69  C   UNL A   1      48.125  27.123  24.008  1.00  0.00     0.002 A 
ATOM     70  C   UNL A   1      49.098  26.262  26.055  1.00  0.00     0.091 A 
ATOM     71  F   UNL A   1      47.820  26.339  28.067  1.00  0.00    -0.205 F 
ATOM     72  C   UNL A   1      49.180  26.505  24.676  1.00  0.00     0.022 A 
BRANCH  70  73
ATOM     73  S   UNL A   1      50.557  25.591  26.858  1.00  0.00     0.127 S 
ATOM     74  O   UNL A   1      50.908  26.664  27.785  1.00  0.00    -0.237 OA
ATOM     75  O   UNL A   1      50.023  24.382  27.489  1.00  0.00    -0.237 OA
ATOM     76  O   UNL A   1      51.515  25.338  25.792  1.00  0.00    -0.744 OA
ENDBRANCH  70  73
ENDBRANCH  42  66
BRANCH  54  77
ATOM     77  C   UNL A   1      45.116  33.162  29.373  1.00  0.00     0.023 A 
ATOM     78  C   UNL A   1      45.914  33.313  30.524  1.00  0.00     0.012 A 
ATOM     79  C   UNL A   1      45.057  34.205  28.429  1.00  0.00     0.148 A 
ATOM     80  C   UNL A   1      46.611  34.498  30.751  1.00  0.00     0.002 A 
ATOM     81  C   UNL A   1      45.799  35.361  28.634  1.00  0.00     0.091 A 
ATOM     82  F   UNL A   1      44.277  34.048  27.349  1.00  0.00    -0.205 F 
ATOM     83  C   UNL A   1      46.564  35.517  29.801  1.00  0.00     0.022 A 
BRANCH  81  84
ATOM     84  S   UNL A   1      45.879  36.683  27.421  1.00  0.00     0.127 S 
ATOM     85  O   UNL A   1      46.783  37.630  28.072  1.00  0.00    -0.237 OA
ATOM     86  O   UNL A   1      46.445  36.001  26.257  1.00  0.00    -0.237 OA
ATOM     87  O   UNL A   1      44.511  37.152  27.242  1.00  0.00    -0.744 OA
ENDBRANCH  81  84
ENDBRANCH  54  77
ENDBRANCH  28  29
ENDBRANCH  21  23
ENDBRANCH  20  21
ENDBRANCH  19  20
ENDBRANCH   1  19
TORSDOF 19
ENDMDL
