MODEL 1
REMARK VINA RESULT:     -13.0      0.000      0.000
REMARK SMILES O=C(OCCOC(=O)[C@H](c1c[nH]c2cc(F)ccc12)[NH+]1CCN(c2ccccc2)CC1)c1ccc(-c2c3nc(c(-c4cccc(S(=O)(=O)[O-])c4F)c4ccc([nH]4)c(-c4cccc(S(=O)(=O)[O-])c4F)c4nc(c(-c5cccc(S(=O)(=O)[O-])c5F)c5ccc2[nH]5)C=C4)C=C3)cc1
REMARK SMILES IDX 4 1 3 2 2 3 1 4 32 5 33 6 94 7 34 8 93 9 35 10 36 11 37 12
REMARK SMILES IDX 87 13 38 14 92 15 86 16 88 17 39 18 91 19 85 20 84 21 40 23
REMARK SMILES IDX 72 24 52 25 71 26 53 27 56 28 70 29 89 30 54 31 55 32 69 34
REMARK SMILES IDX 90 35 57 36 41 37 42 38 50 39 43 40 45 41 51 42 44 43 46 44
REMARK SMILES IDX 47 45 48 46 49 47 73 48 74 49 82 50 75 51 77 52 83 53 76 54
REMARK SMILES IDX 78 55 79 56 80 57 81 58 58 59 59 60 67 61 60 62 62 63 68 64
REMARK SMILES IDX 61 65 63 66 64 67 65 68 66 69 5 70 6 71 7 72 8 73 9 74 20 75
REMARK SMILES IDX 21 76 31 77 22 79 30 80 23 81 24 82 25 83 29 84 26 85 28 86
REMARK SMILES IDX 27 87 10 88 11 89 19 90 12 91 13 92 18 93 14 95 17 96 15 97
REMARK SMILES IDX 16 98
REMARK H PARENT 88 22 56 33 20 78 12 94
REMARK Flexibility Score: inf
ROOT
ATOM      1  C   UNL A   1      32.990  29.391  24.470  1.00  0.00     0.275 C 
ENDROOT
BRANCH   1   2
ATOM      2  O   UNL A   1      32.319  30.125  25.505  1.00  0.00    -0.458 OA
BRANCH   2   3
ATOM      3  C   UNL A   1      32.794  30.875  26.525  1.00  0.00     0.338 C 
ATOM      4  O   UNL A   1      32.207  31.932  26.757  1.00  0.00    -0.246 OA
BRANCH   3   5
ATOM      5  C   UNL A   1      33.997  30.552  27.378  1.00  0.00     0.060 A 
ATOM      6  C   UNL A   1      34.495  29.290  27.715  1.00  0.00     0.016 A 
ATOM      7  C   UNL A   1      34.718  31.660  27.859  1.00  0.00     0.016 A 
ATOM      8  C   UNL A   1      35.721  29.138  28.386  1.00  0.00     0.010 A 
ATOM      9  C   UNL A   1      35.925  31.517  28.560  1.00  0.00     0.010 A 
ATOM     10  C   UNL A   1      36.462  30.252  28.786  1.00  0.00    -0.014 A 
BRANCH  10  11
ATOM     11  C   UNL A   1      37.703  30.073  29.577  1.00  0.00     0.031 A 
ATOM     12  C   UNL A   1      38.889  29.499  28.880  1.00  0.00     0.074 A 
ATOM     13  C   UNL A   1      37.777  30.374  30.889  1.00  0.00     0.049 A 
ATOM     14  N   UNL A   1      40.089  29.299  29.343  1.00  0.00    -0.248 NA
ATOM     15  C   UNL A   1      38.671  29.019  27.505  1.00  0.00     0.031 C 
ATOM     16  C   UNL A   1      36.640  30.737  31.716  1.00  0.00     0.029 A 
ATOM     17  N   UNL A   1      38.839  30.443  31.762  1.00  0.00    -0.354 N 
ATOM     18  C   UNL A   1      40.730  28.549  28.372  1.00  0.00     0.074 A 
ATOM     19  C   UNL A   1      39.816  28.403  27.261  1.00  0.00     0.031 C 
ATOM     20  C   UNL A   1      37.070  31.134  32.927  1.00  0.00     0.029 A 
ATOM     21  C   UNL A   1      38.516  30.993  32.990  1.00  0.00     0.049 A 
ATOM     22  H   UNL A   1      39.744  30.130  31.534  1.00  0.00     0.167 HD
ATOM     23  C   UNL A   1      41.952  27.980  28.437  1.00  0.00     0.034 A 
ATOM     24  C   UNL A   1      39.304  31.346  34.030  1.00  0.00     0.034 A 
ATOM     25  C   UNL A   1      42.845  28.132  29.547  1.00  0.00     0.049 A 
ATOM     26  C   UNL A   1      40.749  30.921  33.967  1.00  0.00     0.074 A 
ATOM     27  C   UNL A   1      44.123  27.629  29.693  1.00  0.00     0.029 A 
ATOM     28  N   UNL A   1      42.544  28.820  30.713  1.00  0.00    -0.354 N 
ATOM     29  N   UNL A   1      41.392  30.347  32.980  1.00  0.00    -0.248 NA
ATOM     30  C   UNL A   1      41.566  31.134  35.172  1.00  0.00     0.031 C 
ATOM     31  C   UNL A   1      44.587  27.990  30.960  1.00  0.00     0.029 A 
ATOM     32  C   UNL A   1      43.612  28.751  31.588  1.00  0.00     0.049 A 
ATOM     33  H   UNL A   1      41.697  29.289  30.892  1.00  0.00     0.167 HD
ATOM     34  C   UNL A   1      42.665  30.077  33.463  1.00  0.00     0.074 A 
ATOM     35  C   UNL A   1      42.739  30.647  34.793  1.00  0.00     0.031 C 
ATOM     36  C   UNL A   1      43.660  29.358  32.892  1.00  0.00     0.034 A 
BRANCH  23  37
ATOM     37  C   UNL A   1      42.341  27.083  27.302  1.00  0.00     0.023 A 
ATOM     38  C   UNL A   1      42.941  27.616  26.145  1.00  0.00     0.012 A 
ATOM     39  C   UNL A   1      42.092  25.699  27.388  1.00  0.00     0.148 A 
ATOM     40  C   UNL A   1      43.256  26.786  25.071  1.00  0.00     0.002 A 
ATOM     41  C   UNL A   1      42.455  24.873  26.335  1.00  0.00     0.091 A 
ATOM     42  F   UNL A   1      41.489  25.226  28.487  1.00  0.00    -0.205 F 
ATOM     43  C   UNL A   1      43.022  25.416  25.170  1.00  0.00     0.022 A 
BRANCH  41  44
ATOM     44  S   UNL A   1      42.259  23.091  26.393  1.00  0.00     0.127 S 
ATOM     45  O   UNL A   1      40.805  22.957  26.495  1.00  0.00    -0.237 OA
ATOM     46  O   UNL A   1      42.819  22.688  25.102  1.00  0.00    -0.237 OA
ATOM     47  O   UNL A   1      43.002  22.636  27.557  1.00  0.00    -0.744 OA
ENDBRANCH  41  44
ENDBRANCH  23  37
BRANCH  24  48
ATOM     48  C   UNL A   1      38.803  32.138  35.204  1.00  0.00     0.023 A 
ATOM     49  C   UNL A   1      38.828  33.551  35.135  1.00  0.00     0.012 A 
ATOM     50  C   UNL A   1      38.336  31.545  36.389  1.00  0.00     0.148 A 
ATOM     51  C   UNL A   1      38.449  34.341  36.226  1.00  0.00     0.002 A 
ATOM     52  C   UNL A   1      37.874  32.338  37.441  1.00  0.00     0.091 A 
ATOM     53  F   UNL A   1      38.366  30.208  36.493  1.00  0.00    -0.205 F 
ATOM     54  C   UNL A   1      37.956  33.735  37.375  1.00  0.00     0.022 A 
BRANCH  52  55
ATOM     55  S   UNL A   1      37.051  31.613  38.864  1.00  0.00     0.127 S 
ATOM     56  O   UNL A   1      36.840  30.238  38.428  1.00  0.00    -0.237 OA
ATOM     57  O   UNL A   1      38.047  31.779  39.923  1.00  0.00    -0.237 OA
ATOM     58  O   UNL A   1      35.853  32.426  39.046  1.00  0.00    -0.744 OA
ENDBRANCH  52  55
ENDBRANCH  24  48
BRANCH  36  59
ATOM     59  C   UNL A   1      44.897  29.123  33.711  1.00  0.00     0.023 A 
ATOM     60  C   UNL A   1      45.950  30.059  33.660  1.00  0.00     0.012 A 
ATOM     61  C   UNL A   1      44.966  28.043  34.608  1.00  0.00     0.148 A 
ATOM     62  C   UNL A   1      47.066  29.909  34.480  1.00  0.00     0.002 A 
ATOM     63  C   UNL A   1      46.056  27.929  35.458  1.00  0.00     0.091 A 
ATOM     64  F   UNL A   1      43.956  27.161  34.622  1.00  0.00    -0.205 F 
ATOM     65  C   UNL A   1      47.113  28.854  35.388  1.00  0.00     0.022 A 
BRANCH  63  66
ATOM     66  S   UNL A   1      46.155  26.665  36.728  1.00  0.00     0.127 S 
ATOM     67  O   UNL A   1      45.080  27.068  37.634  1.00  0.00    -0.237 OA
ATOM     68  O   UNL A   1      45.890  25.445  35.967  1.00  0.00    -0.237 OA
ATOM     69  O   UNL A   1      47.499  26.755  37.283  1.00  0.00    -0.744 OA
ENDBRANCH  63  66
ENDBRANCH  36  59
ENDBRANCH  10  11
ENDBRANCH   3   5
ENDBRANCH   2   3
ENDBRANCH   1   2
BRANCH   1  70
ATOM     70  C   UNL A   1      32.951  27.887  24.708  1.00  0.00     0.274 C 
BRANCH  70  71
ATOM     71  O   UNL A   1      32.172  27.564  25.868  1.00  0.00    -0.457 OA
BRANCH  71  72
ATOM     72  C   UNL A   1      31.080  26.756  25.689  1.00  0.00     0.370 C 
ATOM     73  O   UNL A   1      30.388  26.361  26.618  1.00  0.00    -0.245 OA
BRANCH  72  74
ATOM     74  C   UNL A   1      30.974  26.332  24.179  1.00  0.00     0.328 C 
BRANCH  74  75
ATOM     75  N   UNL A   1      31.025  24.847  24.014  1.00  0.00    -0.316 N 
ATOM     76  C   UNL A   1      31.784  24.403  22.815  1.00  0.00     0.284 C 
ATOM     77  C   UNL A   1      31.480  24.041  25.163  1.00  0.00     0.284 C 
ATOM     78  H   UNL A   1      30.027  24.660  23.910  1.00  0.00     0.349 HD
ATOM     79  C   UNL A   1      33.341  24.265  22.967  1.00  0.00     0.178 C 
ATOM     80  C   UNL A   1      33.006  23.955  25.386  1.00  0.00     0.178 C 
ATOM     81  N   UNL A   1      33.654  23.486  24.168  1.00  0.00    -0.360 N 
BRANCH  81  82
ATOM     82  C   UNL A   1      34.803  22.737  24.323  1.00  0.00     0.037 A 
ATOM     83  C   UNL A   1      36.094  23.241  24.148  1.00  0.00     0.026 A 
ATOM     84  C   UNL A   1      34.674  21.398  24.726  1.00  0.00     0.026 A 
ATOM     85  C   UNL A   1      37.217  22.439  24.411  1.00  0.00     0.002 A 
ATOM     86  C   UNL A   1      35.783  20.590  24.971  1.00  0.00     0.002 A 
ATOM     87  C   UNL A   1      37.060  21.116  24.824  1.00  0.00     0.000 A 
ENDBRANCH  81  82
ENDBRANCH  74  75
BRANCH  74  88
ATOM     88  C   UNL A   1      29.629  26.874  23.674  1.00  0.00     0.046 A 
ATOM     89  C   UNL A   1      28.390  26.305  23.930  1.00  0.00     0.094 A 
ATOM     90  C   UNL A   1      29.341  28.137  23.032  1.00  0.00     0.009 A 
ATOM     91  N   UNL A   1      27.414  27.214  23.641  1.00  0.00    -0.361 N 
ATOM     92  C   UNL A   1      27.970  28.375  23.166  1.00  0.00     0.049 A 
ATOM     93  C   UNL A   1      30.100  29.146  22.405  1.00  0.00     0.014 A 
ATOM     94  H   UNL A   1      26.448  27.059  23.755  1.00  0.00     0.166 HD
ATOM     95  C   UNL A   1      27.366  29.602  22.846  1.00  0.00     0.065 A 
ATOM     96  C   UNL A   1      29.522  30.379  22.067  1.00  0.00     0.040 A 
ATOM     97  C   UNL A   1      28.179  30.601  22.321  1.00  0.00     0.125 A 
ATOM     98  F   UNL A   1      27.644  31.799  22.036  1.00  0.00    -0.207 F 
ENDBRANCH  74  88
ENDBRANCH  72  74
ENDBRANCH  71  72
ENDBRANCH  70  71
ENDBRANCH   1  70
TORSDOF 17
ENDMDL
MODEL 2
REMARK VINA RESULT:     -13.0      5.135      7.749
REMARK SMILES O=C(OCCOC(=O)[C@H](c1c[nH]c2cc(F)ccc12)[NH+]1CCN(c2ccccc2)CC1)c1ccc(-c2c3nc(c(-c4cccc(S(=O)(=O)[O-])c4F)c4ccc([nH]4)c(-c4cccc(S(=O)(=O)[O-])c4F)c4nc(c(-c5cccc(S(=O)(=O)[O-])c5F)c5ccc2[nH]5)C=C4)C=C3)cc1
REMARK SMILES IDX 4 1 3 2 2 3 1 4 32 5 33 6 94 7 34 8 93 9 35 10 36 11 37 12
REMARK SMILES IDX 87 13 38 14 92 15 86 16 88 17 39 18 91 19 85 20 84 21 40 23
REMARK SMILES IDX 72 24 52 25 71 26 53 27 56 28 70 29 89 30 54 31 55 32 69 34
REMARK SMILES IDX 90 35 57 36 41 37 42 38 50 39 43 40 45 41 51 42 44 43 46 44
REMARK SMILES IDX 47 45 48 46 49 47 73 48 74 49 82 50 75 51 77 52 83 53 76 54
REMARK SMILES IDX 78 55 79 56 80 57 81 58 58 59 59 60 67 61 60 62 62 63 68 64
REMARK SMILES IDX 61 65 63 66 64 67 65 68 66 69 5 70 6 71 7 72 8 73 9 74 20 75
REMARK SMILES IDX 21 76 31 77 22 79 30 80 23 81 24 82 25 83 29 84 26 85 28 86
REMARK SMILES IDX 27 87 10 88 11 89 19 90 12 91 13 92 18 93 14 95 17 96 15 97
REMARK SMILES IDX 16 98
REMARK H PARENT 88 22 56 33 20 78 12 94
REMARK Flexibility Score: inf
ROOT
ATOM      1  C   UNL A   1      35.756  21.712  26.361  1.00  0.00     0.275 C 
ENDROOT
BRANCH   1   2
ATOM      2  O   UNL A   1      36.906  21.457  25.539  1.00  0.00    -0.458 OA
BRANCH   2   3
ATOM      3  C   UNL A   1      38.229  21.481  25.816  1.00  0.00     0.338 C 
ATOM      4  O   UNL A   1      38.853  20.435  25.635  1.00  0.00    -0.246 OA
BRANCH   3   5
ATOM      5  C   UNL A   1      39.000  22.660  26.359  1.00  0.00     0.060 A 
ATOM      6  C   UNL A   1      40.101  22.641  27.220  1.00  0.00     0.016 A 
ATOM      7  C   UNL A   1      38.576  23.924  25.910  1.00  0.00     0.016 A 
ATOM      8  C   UNL A   1      40.823  23.810  27.517  1.00  0.00     0.010 A 
ATOM      9  C   UNL A   1      39.271  25.101  26.230  1.00  0.00     0.010 A 
ATOM     10  C   UNL A   1      40.433  25.046  26.997  1.00  0.00    -0.014 A 
BRANCH  10  11
ATOM     11  C   UNL A   1      41.148  26.280  27.399  1.00  0.00     0.031 A 
ATOM     12  C   UNL A   1      42.449  26.571  26.732  1.00  0.00     0.074 A 
ATOM     13  C   UNL A   1      40.685  27.109  28.355  1.00  0.00     0.049 A 
ATOM     14  N   UNL A   1      43.226  27.606  26.876  1.00  0.00    -0.248 NA
ATOM     15  C   UNL A   1      42.978  25.523  25.843  1.00  0.00     0.031 C 
ATOM     16  C   UNL A   1      39.549  26.823  29.213  1.00  0.00     0.029 A 
ATOM     17  N   UNL A   1      41.085  28.361  28.765  1.00  0.00    -0.354 N 
ATOM     18  C   UNL A   1      44.393  27.277  26.208  1.00  0.00     0.074 A 
ATOM     19  C   UNL A   1      44.191  25.985  25.590  1.00  0.00     0.031 C 
ATOM     20  C   UNL A   1      39.246  27.913  29.940  1.00  0.00     0.029 A 
ATOM     21  C   UNL A   1      40.209  28.964  29.650  1.00  0.00     0.049 A 
ATOM     22  H   UNL A   1      41.918  28.788  28.457  1.00  0.00     0.167 HD
ATOM     23  C   UNL A   1      45.552  27.968  26.176  1.00  0.00     0.034 A 
ATOM     24  C   UNL A   1      40.190  30.219  30.151  1.00  0.00     0.034 A 
ATOM     25  C   UNL A   1      45.736  29.245  26.797  1.00  0.00     0.049 A 
ATOM     26  C   UNL A   1      41.398  31.080  29.881  1.00  0.00     0.074 A 
ATOM     27  C   UNL A   1      46.861  30.048  26.786  1.00  0.00     0.029 A 
ATOM     28  N   UNL A   1      44.780  29.897  27.561  1.00  0.00    -0.354 N 
ATOM     29  N   UNL A   1      42.435  30.823  29.121  1.00  0.00    -0.248 NA
ATOM     30  C   UNL A   1      41.470  32.374  30.578  1.00  0.00     0.031 C 
ATOM     31  C   UNL A   1      46.594  31.175  27.567  1.00  0.00     0.029 A 
ATOM     32  C   UNL A   1      45.290  31.092  28.033  1.00  0.00     0.049 A 
ATOM     33  H   UNL A   1      43.873  29.560  27.740  1.00  0.00     0.167 HD
ATOM     34  C   UNL A   1      43.305  31.891  29.293  1.00  0.00     0.074 A 
ATOM     35  C   UNL A   1      42.629  32.850  30.144  1.00  0.00     0.031 C 
ATOM     36  C   UNL A   1      44.576  32.035  28.852  1.00  0.00     0.034 A 
BRANCH  23  37
ATOM     37  C   UNL A   1      46.716  27.304  25.506  1.00  0.00     0.023 A 
ATOM     38  C   UNL A   1      47.442  26.296  26.169  1.00  0.00     0.012 A 
ATOM     39  C   UNL A   1      47.093  27.701  24.207  1.00  0.00     0.148 A 
ATOM     40  C   UNL A   1      48.554  25.716  25.561  1.00  0.00     0.002 A 
ATOM     41  C   UNL A   1      48.170  27.083  23.590  1.00  0.00     0.091 A 
ATOM     42  F   UNL A   1      46.404  28.686  23.615  1.00  0.00    -0.205 F 
ATOM     43  C   UNL A   1      48.911  26.103  24.270  1.00  0.00     0.022 A 
BRANCH  41  44
ATOM     44  S   UNL A   1      48.666  27.459  21.908  1.00  0.00     0.127 S 
ATOM     45  O   UNL A   1      49.198  26.170  21.462  1.00  0.00    -0.237 OA
ATOM     46  O   UNL A   1      47.390  27.835  21.298  1.00  0.00    -0.237 OA
ATOM     47  O   UNL A   1      49.646  28.530  22.002  1.00  0.00    -0.744 OA
ENDBRANCH  41  44
ENDBRANCH  23  37
BRANCH  24  48
ATOM     48  C   UNL A   1      39.032  30.771  30.932  1.00  0.00     0.023 A 
ATOM     49  C   UNL A   1      39.023  30.619  32.339  1.00  0.00     0.012 A 
ATOM     50  C   UNL A   1      37.934  31.410  30.332  1.00  0.00     0.148 A 
ATOM     51  C   UNL A   1      37.936  31.043  33.111  1.00  0.00     0.002 A 
ATOM     52  C   UNL A   1      36.894  31.911  31.116  1.00  0.00     0.091 A 
ATOM     53  F   UNL A   1      37.899  31.505  28.994  1.00  0.00    -0.205 F 
ATOM     54  C   UNL A   1      36.877  31.705  32.501  1.00  0.00     0.022 A 
BRANCH  52  55
ATOM     55  S   UNL A   1      35.602  32.939  30.406  1.00  0.00     0.127 S 
ATOM     56  O   UNL A   1      34.783  31.959  29.703  1.00  0.00    -0.237 OA
ATOM     57  O   UNL A   1      34.979  33.527  31.593  1.00  0.00    -0.237 OA
ATOM     58  O   UNL A   1      36.317  33.902  29.575  1.00  0.00    -0.744 OA
ENDBRANCH  52  55
ENDBRANCH  24  48
BRANCH  36  59
ATOM     59  C   UNL A   1      45.328  33.255  29.303  1.00  0.00     0.023 A 
ATOM     60  C   UNL A   1      46.118  33.190  30.469  1.00  0.00     0.012 A 
ATOM     61  C   UNL A   1      45.339  34.420  28.517  1.00  0.00     0.148 A 
ATOM     62  C   UNL A   1      46.895  34.279  30.856  1.00  0.00     0.002 A 
ATOM     63  C   UNL A   1      46.155  35.481  28.880  1.00  0.00     0.091 A 
ATOM     64  F   UNL A   1      44.565  34.458  27.422  1.00  0.00    -0.205 F 
ATOM     65  C   UNL A   1      46.925  35.418  30.055  1.00  0.00     0.022 A 
BRANCH  63  66
ATOM     66  S   UNL A   1      46.337  36.945  27.859  1.00  0.00     0.127 S 
ATOM     67  O   UNL A   1      47.198  37.784  28.692  1.00  0.00    -0.237 OA
ATOM     68  O   UNL A   1      46.981  36.406  26.661  1.00  0.00    -0.237 OA
ATOM     69  O   UNL A   1      44.991  37.459  27.645  1.00  0.00    -0.744 OA
ENDBRANCH  63  66
ENDBRANCH  36  59
ENDBRANCH  10  11
ENDBRANCH   3   5
ENDBRANCH   2   3
ENDBRANCH   1   2
BRANCH   1  70
ATOM     70  C   UNL A   1      34.957  22.916  25.881  1.00  0.00     0.274 C 
BRANCH  70  71
ATOM     71  O   UNL A   1      35.393  23.347  24.584  1.00  0.00    -0.457 OA
BRANCH  71  72
ATOM     72  C   UNL A   1      34.571  23.076  23.522  1.00  0.00     0.370 C 
ATOM     73  O   UNL A   1      34.978  23.009  22.370  1.00  0.00    -0.245 OA
BRANCH  72  74
ATOM     74  C   UNL A   1      33.076  23.022  24.005  1.00  0.00     0.328 C 
BRANCH  74  75
ATOM     75  N   UNL A   1      32.310  24.232  23.578  1.00  0.00    -0.316 N 
ATOM     76  C   UNL A   1      31.292  24.676  24.566  1.00  0.00     0.284 C 
ATOM     77  C   UNL A   1      33.076  25.418  23.151  1.00  0.00     0.284 C 
ATOM     78  H   UNL A   1      31.869  23.858  22.737  1.00  0.00     0.349 HD
ATOM     79  C   UNL A   1      31.786  25.614  25.726  1.00  0.00     0.178 C 
ATOM     80  C   UNL A   1      33.645  26.314  24.273  1.00  0.00     0.178 C 
ATOM     81  N   UNL A   1      32.570  26.720  25.170  1.00  0.00    -0.360 N 
BRANCH  81  82
ATOM     82  C   UNL A   1      32.693  27.955  25.770  1.00  0.00     0.037 A 
ATOM     83  C   UNL A   1      31.702  28.940  25.745  1.00  0.00     0.026 A 
ATOM     84  C   UNL A   1      33.866  28.230  26.492  1.00  0.00     0.026 A 
ATOM     85  C   UNL A   1      31.866  30.140  26.456  1.00  0.00     0.002 A 
ATOM     86  C   UNL A   1      34.045  29.426  27.185  1.00  0.00     0.002 A 
ATOM     87  C   UNL A   1      33.035  30.380  27.177  1.00  0.00     0.000 A 
ENDBRANCH  81  82
ENDBRANCH  74  75
BRANCH  74  88
ATOM     88  C   UNL A   1      32.467  21.761  23.376  1.00  0.00     0.046 A 
ATOM     89  C   UNL A   1      31.888  21.695  22.116  1.00  0.00     0.094 A 
ATOM     90  C   UNL A   1      32.538  20.391  23.833  1.00  0.00     0.009 A 
ATOM     91  N   UNL A   1      31.777  20.386  21.746  1.00  0.00    -0.361 N 
ATOM     92  C   UNL A   1      32.242  19.567  22.743  1.00  0.00     0.049 A 
ATOM     93  C   UNL A   1      32.885  19.747  25.037  1.00  0.00     0.014 A 
ATOM     94  H   UNL A   1      31.414  20.073  20.886  1.00  0.00     0.166 HD
ATOM     95  C   UNL A   1      32.418  18.174  22.761  1.00  0.00     0.065 A 
ATOM     96  C   UNL A   1      33.060  18.355  25.088  1.00  0.00     0.040 A 
ATOM     97  C   UNL A   1      32.858  17.596  23.948  1.00  0.00     0.125 A 
ATOM     98  F   UNL A   1      33.071  16.272  23.993  1.00  0.00    -0.207 F 
ENDBRANCH  74  88
ENDBRANCH  72  74
ENDBRANCH  71  72
ENDBRANCH  70  71
ENDBRANCH   1  70
TORSDOF 17
ENDMDL
MODEL 3
REMARK VINA RESULT:     -13.0      0.651      7.344
REMARK SMILES O=C(OCCOC(=O)[C@H](c1c[nH]c2cc(F)ccc12)[NH+]1CCN(c2ccccc2)CC1)c1ccc(-c2c3nc(c(-c4cccc(S(=O)(=O)[O-])c4F)c4ccc([nH]4)c(-c4cccc(S(=O)(=O)[O-])c4F)c4nc(c(-c5cccc(S(=O)(=O)[O-])c5F)c5ccc2[nH]5)C=C4)C=C3)cc1
REMARK SMILES IDX 4 1 3 2 2 3 1 4 32 5 33 6 94 7 34 8 93 9 35 10 36 11 37 12
REMARK SMILES IDX 87 13 38 14 92 15 86 16 88 17 39 18 91 19 85 20 84 21 40 23
REMARK SMILES IDX 72 24 52 25 71 26 53 27 56 28 70 29 89 30 54 31 55 32 69 34
REMARK SMILES IDX 90 35 57 36 41 37 42 38 50 39 43 40 45 41 51 42 44 43 46 44
REMARK SMILES IDX 47 45 48 46 49 47 73 48 74 49 82 50 75 51 77 52 83 53 76 54
REMARK SMILES IDX 78 55 79 56 80 57 81 58 58 59 59 60 67 61 60 62 62 63 68 64
REMARK SMILES IDX 61 65 63 66 64 67 65 68 66 69 5 70 6 71 7 72 8 73 9 74 20 75
REMARK SMILES IDX 21 76 31 77 22 79 30 80 23 81 24 82 25 83 29 84 26 85 28 86
REMARK SMILES IDX 27 87 10 88 11 89 19 90 12 91 13 92 18 93 14 95 17 96 15 97
REMARK SMILES IDX 16 98
REMARK H PARENT 88 22 56 33 20 78 12 94
REMARK Flexibility Score: inf
ROOT
ATOM      1  C   UNL A   1      32.648  29.725  24.786  1.00  0.00     0.275 C 
ENDROOT
BRANCH   1   2
ATOM      2  O   UNL A   1      32.274  30.341  26.028  1.00  0.00    -0.458 OA
BRANCH   2   3
ATOM      3  C   UNL A   1      32.971  31.114  26.891  1.00  0.00     0.338 C 
ATOM      4  O   UNL A   1      32.565  32.265  27.057  1.00  0.00    -0.246 OA
BRANCH   3   5
ATOM      5  C   UNL A   1      34.217  30.706  27.640  1.00  0.00     0.060 A 
ATOM      6  C   UNL A   1      34.634  29.414  27.973  1.00  0.00     0.016 A 
ATOM      7  C   UNL A   1      35.075  31.758  28.012  1.00  0.00     0.016 A 
ATOM      8  C   UNL A   1      35.900  29.171  28.532  1.00  0.00     0.010 A 
ATOM      9  C   UNL A   1      36.326  31.526  28.603  1.00  0.00     0.010 A 
ATOM     10  C   UNL A   1      36.770  30.224  28.822  1.00  0.00    -0.014 A 
BRANCH  10  11
ATOM     11  C   UNL A   1      38.061  29.955  29.500  1.00  0.00     0.031 A 
ATOM     12  C   UNL A   1      38.172  30.322  30.941  1.00  0.00     0.074 A 
ATOM     13  C   UNL A   1      39.125  29.435  28.858  1.00  0.00     0.049 A 
ATOM     14  N   UNL A   1      39.171  30.138  31.755  1.00  0.00    -0.248 NA
ATOM     15  C   UNL A   1      37.035  31.059  31.518  1.00  0.00     0.031 C 
ATOM     16  C   UNL A   1      39.203  29.236  27.421  1.00  0.00     0.029 A 
ATOM     17  N   UNL A   1      40.336  28.961  29.310  1.00  0.00    -0.354 N 
ATOM     18  C   UNL A   1      38.844  30.853  32.895  1.00  0.00     0.074 A 
ATOM     19  C   UNL A   1      37.521  31.402  32.700  1.00  0.00     0.031 C 
ATOM     20  C   UNL A   1      40.320  28.551  27.120  1.00  0.00     0.029 A 
ATOM     21  C   UNL A   1      41.080  28.315  28.337  1.00  0.00     0.049 A 
ATOM     22  H   UNL A   1      40.644  29.072  30.238  1.00  0.00     0.167 HD
ATOM     23  C   UNL A   1      39.616  31.082  33.978  1.00  0.00     0.034 A 
ATOM     24  C   UNL A   1      42.229  27.612  28.433  1.00  0.00     0.034 A 
ATOM     25  C   UNL A   1      40.927  30.531  34.154  1.00  0.00     0.049 A 
ATOM     26  C   UNL A   1      42.956  27.667  29.753  1.00  0.00     0.074 A 
ATOM     27  C   UNL A   1      41.774  30.670  35.237  1.00  0.00     0.029 A 
ATOM     28  N   UNL A   1      41.592  29.758  33.215  1.00  0.00    -0.354 N 
ATOM     29  N   UNL A   1      42.571  28.217  30.879  1.00  0.00    -0.248 NA
ATOM     30  C   UNL A   1      44.297  27.063  29.807  1.00  0.00     0.031 C 
ATOM     31  C   UNL A   1      42.965  30.001  34.941  1.00  0.00     0.029 A 
ATOM     32  C   UNL A   1      42.844  29.415  33.689  1.00  0.00     0.049 A 
ATOM     33  H   UNL A   1      41.227  29.493  32.339  1.00  0.00     0.167 HD
ATOM     34  C   UNL A   1      43.639  28.078  31.753  1.00  0.00     0.074 A 
ATOM     35  C   UNL A   1      44.647  27.298  31.064  1.00  0.00     0.031 C 
ATOM     36  C   UNL A   1      43.807  28.610  32.987  1.00  0.00     0.034 A 
BRANCH  23  37
ATOM     37  C   UNL A   1      39.073  32.026  35.007  1.00  0.00     0.023 A 
ATOM     38  C   UNL A   1      39.112  33.417  34.790  1.00  0.00     0.012 A 
ATOM     39  C   UNL A   1      38.532  31.518  36.204  1.00  0.00     0.148 A 
ATOM     40  C   UNL A   1      38.650  34.294  35.770  1.00  0.00     0.002 A 
ATOM     41  C   UNL A   1      38.029  32.395  37.153  1.00  0.00     0.091 A 
ATOM     42  F   UNL A   1      38.540  30.192  36.397  1.00  0.00    -0.205 F 
ATOM     43  C   UNL A   1      38.102  33.782  36.946  1.00  0.00     0.022 A 
BRANCH  41  44
ATOM     44  S   UNL A   1      37.242  31.837  38.665  1.00  0.00     0.127 S 
ATOM     45  O   UNL A   1      38.298  32.071  39.651  1.00  0.00    -0.237 OA
ATOM     46  O   UNL A   1      36.103  32.752  38.764  1.00  0.00    -0.237 OA
ATOM     47  O   UNL A   1      36.895  30.441  38.453  1.00  0.00    -0.744 OA
ENDBRANCH  41  44
ENDBRANCH  23  37
BRANCH  24  48
ATOM     48  C   UNL A   1      42.781  26.788  27.304  1.00  0.00     0.023 A 
ATOM     49  C   UNL A   1      43.657  27.401  26.377  1.00  0.00     0.012 A 
ATOM     50  C   UNL A   1      42.447  25.438  27.102  1.00  0.00     0.148 A 
ATOM     51  C   UNL A   1      44.140  26.707  25.263  1.00  0.00     0.002 A 
ATOM     52  C   UNL A   1      43.003  24.726  26.039  1.00  0.00     0.091 A 
ATOM     53  F   UNL A   1      41.568  24.862  27.935  1.00  0.00    -0.205 F 
ATOM     54  C   UNL A   1      43.827  25.363  25.101  1.00  0.00     0.022 A 
BRANCH  52  55
ATOM     55  S   UNL A   1      42.788  22.948  25.893  1.00  0.00     0.127 S 
ATOM     56  O   UNL A   1      41.358  22.793  26.127  1.00  0.00    -0.237 OA
ATOM     57  O   UNL A   1      43.220  22.689  24.519  1.00  0.00    -0.237 OA
ATOM     58  O   UNL A   1      43.676  22.388  26.907  1.00  0.00    -0.744 OA
ENDBRANCH  52  55
ENDBRANCH  24  48
BRANCH  36  59
ATOM     59  C   UNL A   1      45.134  28.392  33.656  1.00  0.00     0.023 A 
ATOM     60  C   UNL A   1      46.164  29.339  33.478  1.00  0.00     0.012 A 
ATOM     61  C   UNL A   1      45.321  27.317  34.542  1.00  0.00     0.148 A 
ATOM     62  C   UNL A   1      47.370  29.206  34.161  1.00  0.00     0.002 A 
ATOM     63  C   UNL A   1      46.505  27.220  35.258  1.00  0.00     0.091 A 
ATOM     64  F   UNL A   1      44.329  26.425  34.679  1.00  0.00    -0.205 F 
ATOM     65  C   UNL A   1      47.535  28.156  35.062  1.00  0.00     0.022 A 
BRANCH  63  66
ATOM     66  S   UNL A   1      46.767  25.964  36.512  1.00  0.00     0.127 S 
ATOM     67  O   UNL A   1      45.638  26.200  37.412  1.00  0.00    -0.237 OA
ATOM     68  O   UNL A   1      46.680  24.729  35.733  1.00  0.00    -0.237 OA
ATOM     69  O   UNL A   1      48.080  26.230  37.083  1.00  0.00    -0.744 OA
ENDBRANCH  63  66
ENDBRANCH  36  59
ENDBRANCH  10  11
ENDBRANCH   3   5
ENDBRANCH   2   3
ENDBRANCH   1   2
BRANCH   1  70
ATOM     70  C   UNL A   1      33.031  28.262  24.957  1.00  0.00     0.274 C 
BRANCH  70  71
ATOM     71  O   UNL A   1      32.404  27.691  26.114  1.00  0.00    -0.457 OA
BRANCH  71  72
ATOM     72  C   UNL A   1      31.317  26.884  25.907  1.00  0.00     0.370 C 
ATOM     73  O   UNL A   1      30.554  26.556  26.807  1.00  0.00    -0.245 OA
BRANCH  72  74
ATOM     74  C   UNL A   1      31.314  26.363  24.424  1.00  0.00     0.328 C 
BRANCH  74  75
ATOM     75  N   UNL A   1      31.528  24.886  24.353  1.00  0.00    -0.316 N 
ATOM     76  C   UNL A   1      32.351  24.455  23.192  1.00  0.00     0.284 C 
ATOM     77  C   UNL A   1      32.047  24.205  25.555  1.00  0.00     0.284 C 
ATOM     78  H   UNL A   1      30.558  24.585  24.250  1.00  0.00     0.349 HD
ATOM     79  C   UNL A   1      33.911  24.496  23.370  1.00  0.00     0.178 C 
ATOM     80  C   UNL A   1      33.569  24.300  25.799  1.00  0.00     0.178 C 
ATOM     81  N   UNL A   1      34.286  23.830  24.620  1.00  0.00    -0.360 N 
BRANCH  81  82
ATOM     82  C   UNL A   1      35.505  23.222  24.834  1.00  0.00     0.037 A 
ATOM     83  C   UNL A   1      36.568  23.818  25.516  1.00  0.00     0.026 A 
ATOM     84  C   UNL A   1      35.679  21.904  24.380  1.00  0.00     0.026 A 
ATOM     85  C   UNL A   1      37.748  23.101  25.771  1.00  0.00     0.002 A 
ATOM     86  C   UNL A   1      36.854  21.191  24.612  1.00  0.00     0.002 A 
ATOM     87  C   UNL A   1      37.889  21.788  25.322  1.00  0.00     0.000 A 
ENDBRANCH  81  82
ENDBRANCH  74  75
BRANCH  74  88
ATOM     88  C   UNL A   1      29.940  26.727  23.844  1.00  0.00     0.046 A 
ATOM     89  C   UNL A   1      28.754  26.063  24.119  1.00  0.00     0.094 A 
ATOM     90  C   UNL A   1      29.552  27.899  23.090  1.00  0.00     0.009 A 
ATOM     91  N   UNL A   1      27.705  26.845  23.731  1.00  0.00    -0.361 N 
ATOM     92  C   UNL A   1      28.161  28.011  23.172  1.00  0.00     0.049 A 
ATOM     93  C   UNL A   1      30.230  28.922  22.397  1.00  0.00     0.014 A 
ATOM     94  H   UNL A   1      26.755  26.607  23.836  1.00  0.00     0.166 HD
ATOM     95  C   UNL A   1      27.454  29.143  22.734  1.00  0.00     0.065 A 
ATOM     96  C   UNL A   1      29.548  30.060  21.941  1.00  0.00     0.040 A 
ATOM     97  C   UNL A   1      28.183  30.170  22.144  1.00  0.00     0.125 A 
ATOM     98  F   UNL A   1      27.545  31.282  21.747  1.00  0.00    -0.207 F 
ENDBRANCH  74  88
ENDBRANCH  72  74
ENDBRANCH  71  72
ENDBRANCH  70  71
ENDBRANCH   1  70
TORSDOF 17
ENDMDL
