MODEL 1
REMARK VINA RESULT:     -11.8      0.000      0.000
REMARK SMILES CCc1ccc2c(CC(=O)OCCOC(=O)c3ccc(-c4c5nc(c(-c6cccc(S(=O)(=O)[O-])c6F)c6ccc([nH]6)c(-c6cccc(S(=O)(=O)[O-])c6F)c6nc(c(-c7cccc(S(=O)(=O)[O-])c7F)c7ccc4[nH]7)C=C6)C=C5)cc3)c(C(=O)c3cc(C)ccn3)[nH]c2c1
REMARK SMILES IDX 12 1 11 2 9 3 10 4 8 5 7 6 3 7 4 8 92 9 5 10 91 11 6 12
REMARK SMILES IDX 90 13 80 14 2 16 1 17 81 18 82 19 83 20 84 21 89 22 85 23
REMARK SMILES IDX 88 24 86 25 87 26 13 27 14 28 15 29 16 30 17 31 18 32 79 33
REMARK SMILES IDX 19 34 78 35 20 36 21 37 22 38 72 39 23 40 77 41 71 42 73 43
REMARK SMILES IDX 24 44 76 45 70 46 69 47 25 49 57 50 37 51 56 52 38 53 41 54
REMARK SMILES IDX 55 55 74 56 39 57 40 58 54 60 75 61 42 62 26 63 27 64 35 65
REMARK SMILES IDX 28 66 30 67 36 68 29 69 31 70 32 71 33 72 34 73 58 74 59 75
REMARK SMILES IDX 67 76 60 77 62 78 68 79 61 80 63 81 64 82 65 83 66 84 43 85
REMARK SMILES IDX 44 86 52 87 45 88 47 89 53 90 46 91 48 92 49 93 50 94 51 95
REMARK H PARENT 90 15 73 48 41 59
REMARK Flexibility Score: inf
ROOT
ATOM      1  C   UNL A   1      36.157  21.174  24.809  1.00  0.00     0.274 C 
ENDROOT
BRANCH   1   2
ATOM      2  O   UNL A   1      36.165  22.368  24.000  1.00  0.00    -0.462 OA
BRANCH   2   3
ATOM      3  C   UNL A   1      35.804  23.514  24.640  1.00  0.00     0.310 C 
ATOM      4  O   UNL A   1      36.324  23.915  25.678  1.00  0.00    -0.252 OA
BRANCH   3   5
ATOM      5  C   UNL A   1      34.719  24.313  23.950  1.00  0.00     0.161 C 
BRANCH   5   6
ATOM      6  C   UNL A   1      33.508  24.653  24.766  1.00  0.00     0.000 A 
ATOM      7  C   UNL A   1      32.289  28.132  26.813  1.00  0.00    -0.046 A 
ATOM      8  C   UNL A   1      33.609  28.123  26.342  1.00  0.00     0.004 A 
ATOM      9  C   UNL A   1      31.503  26.973  26.688  1.00  0.00     0.030 A 
ATOM     10  C   UNL A   1      34.157  26.996  25.718  1.00  0.00     0.011 A 
ATOM     11  C   UNL A   1      32.060  25.866  26.033  1.00  0.00     0.046 A 
ATOM     12  C   UNL A   1      33.349  25.863  25.517  1.00  0.00     0.004 A 
ATOM     13  N   UNL A   1      31.505  24.647  25.728  1.00  0.00    -0.352 N 
ATOM     14  C   UNL A   1      32.274  24.000  24.785  1.00  0.00     0.093 A 
ATOM     15  H   UNL A   1      30.679  24.287  26.125  1.00  0.00     0.167 HD
BRANCH   7  16
ATOM     16  C   UNL A   1      31.722  29.432  27.335  1.00  0.00     0.032 C 
ATOM     17  C   UNL A   1      32.040  30.672  26.511  1.00  0.00     0.009 C 
ENDBRANCH   7  16
BRANCH  14  18
ATOM     18  C   UNL A   1      31.779  22.933  23.928  1.00  0.00     0.227 C 
ATOM     19  O   UNL A   1      30.952  23.119  23.040  1.00  0.00    -0.285 OA
BRANCH  18  20
ATOM     20  C   UNL A   1      32.159  21.532  24.233  1.00  0.00     0.113 A 
ATOM     21  C   UNL A   1      32.152  20.587  23.213  1.00  0.00     0.036 A 
ATOM     22  N   UNL A   1      32.490  21.261  25.516  1.00  0.00    -0.253 NA
ATOM     23  C   UNL A   1      32.525  19.279  23.524  1.00  0.00    -0.047 A 
ATOM     24  C   UNL A   1      32.935  20.014  25.769  1.00  0.00     0.112 A 
ATOM     25  C   UNL A   1      32.495  18.192  22.493  1.00  0.00     0.044 C 
ATOM     26  C   UNL A   1      32.963  19.001  24.823  1.00  0.00     0.023 A 
ENDBRANCH  18  20
ENDBRANCH  14  18
ENDBRANCH   5   6
ENDBRANCH   3   5
ENDBRANCH   2   3
ENDBRANCH   1   2
BRANCH   1  27
ATOM     27  C   UNL A   1      37.575  20.648  25.000  1.00  0.00     0.275 C 
BRANCH  27  28
ATOM     28  O   UNL A   1      38.164  21.263  26.156  1.00  0.00    -0.458 OA
BRANCH  28  29
ATOM     29  C   UNL A   1      39.490  21.045  26.308  1.00  0.00     0.338 C 
ATOM     30  O   UNL A   1      40.070  19.971  26.186  1.00  0.00    -0.246 OA
BRANCH  29  31
ATOM     31  C   UNL A   1      40.175  22.285  26.707  1.00  0.00     0.060 A 
ATOM     32  C   UNL A   1      41.163  22.287  27.693  1.00  0.00     0.016 A 
ATOM     33  C   UNL A   1      39.751  23.488  26.141  1.00  0.00     0.016 A 
ATOM     34  C   UNL A   1      41.658  23.499  28.178  1.00  0.00     0.010 A 
ATOM     35  C   UNL A   1      40.328  24.690  26.552  1.00  0.00     0.010 A 
ATOM     36  C   UNL A   1      41.265  24.714  27.597  1.00  0.00    -0.014 A 
BRANCH  36  37
ATOM     37  C   UNL A   1      41.854  26.008  28.041  1.00  0.00     0.031 A 
ATOM     38  C   UNL A   1      41.021  27.026  28.774  1.00  0.00     0.074 A 
ATOM     39  C   UNL A   1      43.128  26.304  27.711  1.00  0.00     0.049 A 
ATOM     40  N   UNL A   1      41.303  28.272  29.062  1.00  0.00    -0.248 NA
ATOM     41  C   UNL A   1      39.685  26.597  29.225  1.00  0.00     0.031 C 
ATOM     42  C   UNL A   1      44.037  25.420  26.979  1.00  0.00     0.029 A 
ATOM     43  N   UNL A   1      43.868  27.442  27.919  1.00  0.00    -0.354 N 
ATOM     44  C   UNL A   1      40.164  28.795  29.662  1.00  0.00     0.074 A 
ATOM     45  C   UNL A   1      39.185  27.729  29.706  1.00  0.00     0.031 C 
ATOM     46  C   UNL A   1      45.209  26.045  26.799  1.00  0.00     0.029 A 
ATOM     47  C   UNL A   1      45.115  27.395  27.341  1.00  0.00     0.049 A 
ATOM     48  H   UNL A   1      43.539  28.215  28.433  1.00  0.00     0.167 HD
ATOM     49  C   UNL A   1      39.958  30.044  30.145  1.00  0.00     0.034 A 
ATOM     50  C   UNL A   1      46.067  28.339  27.217  1.00  0.00     0.034 A 
ATOM     51  C   UNL A   1      40.960  31.079  30.175  1.00  0.00     0.049 A 
ATOM     52  C   UNL A   1      45.830  29.701  27.799  1.00  0.00     0.074 A 
ATOM     53  C   UNL A   1      40.867  32.350  30.716  1.00  0.00     0.029 A 
ATOM     54  N   UNL A   1      42.240  30.960  29.655  1.00  0.00    -0.354 N 
ATOM     55  N   UNL A   1      44.780  30.149  28.443  1.00  0.00    -0.248 NA
ATOM     56  C   UNL A   1      46.914  30.683  27.657  1.00  0.00     0.031 C 
ATOM     57  C   UNL A   1      42.091  33.002  30.519  1.00  0.00     0.029 A 
ATOM     58  C   UNL A   1      42.946  32.135  29.858  1.00  0.00     0.049 A 
ATOM     59  H   UNL A   1      42.594  30.160  29.205  1.00  0.00     0.167 HD
ATOM     60  C   UNL A   1      45.079  31.460  28.791  1.00  0.00     0.074 A 
ATOM     61  C   UNL A   1      46.422  31.724  28.316  1.00  0.00     0.031 C 
ATOM     62  C   UNL A   1      44.299  32.370  29.423  1.00  0.00     0.034 A 
BRANCH  49  63
ATOM     63  C   UNL A   1      38.608  30.358  30.734  1.00  0.00     0.023 A 
ATOM     64  C   UNL A   1      38.331  29.989  32.066  1.00  0.00     0.012 A 
ATOM     65  C   UNL A   1      37.643  31.077  30.002  1.00  0.00     0.148 A 
ATOM     66  C   UNL A   1      37.108  30.313  32.653  1.00  0.00     0.002 A 
ATOM     67  C   UNL A   1      36.439  31.425  30.604  1.00  0.00     0.091 A 
ATOM     68  F   UNL A   1      37.911  31.398  28.728  1.00  0.00    -0.205 F 
ATOM     69  C   UNL A   1      36.167  31.038  31.926  1.00  0.00     0.022 A 
BRANCH  67  70
ATOM     70  S   UNL A   1      35.201  32.418  29.759  1.00  0.00     0.127 S 
ATOM     71  O   UNL A   1      34.228  32.648  30.826  1.00  0.00    -0.237 OA
ATOM     72  O   UNL A   1      35.963  33.606  29.365  1.00  0.00    -0.237 OA
ATOM     73  O   UNL A   1      34.742  31.604  28.643  1.00  0.00    -0.744 OA
ENDBRANCH  67  70
ENDBRANCH  49  63
BRANCH  50  74
ATOM     74  C   UNL A   1      47.342  27.996  26.529  1.00  0.00     0.023 A 
ATOM     75  C   UNL A   1      48.411  27.473  27.278  1.00  0.00     0.012 A 
ATOM     76  C   UNL A   1      47.467  28.097  25.128  1.00  0.00     0.148 A 
ATOM     77  C   UNL A   1      49.586  27.062  26.648  1.00  0.00     0.002 A 
ATOM     78  C   UNL A   1      48.616  27.630  24.500  1.00  0.00     0.091 A 
ATOM     79  F   UNL A   1      46.447  28.620  24.433  1.00  0.00    -0.205 F 
ATOM     80  C   UNL A   1      49.682  27.124  25.259  1.00  0.00     0.022 A 
BRANCH  78  81
ATOM     81  S   UNL A   1      48.745  27.533  22.711  1.00  0.00     0.127 S 
ATOM     82  O   UNL A   1      50.040  28.162  22.469  1.00  0.00    -0.237 OA
ATOM     83  O   UNL A   1      48.707  26.089  22.475  1.00  0.00    -0.237 OA
ATOM     84  O   UNL A   1      47.581  28.247  22.203  1.00  0.00    -0.744 OA
ENDBRANCH  78  81
ENDBRANCH  50  74
BRANCH  62  85
ATOM     85  C   UNL A   1      44.878  33.742  29.641  1.00  0.00     0.023 A 
ATOM     86  C   UNL A   1      45.577  34.010  30.835  1.00  0.00     0.012 A 
ATOM     87  C   UNL A   1      44.787  34.740  28.652  1.00  0.00     0.148 A 
ATOM     88  C   UNL A   1      46.155  35.260  31.052  1.00  0.00     0.002 A 
ATOM     89  C   UNL A   1      45.397  35.972  28.860  1.00  0.00     0.091 A 
ATOM     90  F   UNL A   1      44.096  34.473  27.534  1.00  0.00    -0.205 F 
ATOM     91  C   UNL A   1      46.075  36.236  30.061  1.00  0.00     0.022 A 
BRANCH  89  92
ATOM     92  S   UNL A   1      45.405  37.254  27.602  1.00  0.00     0.127 S 
ATOM     93  O   UNL A   1      46.108  36.594  26.504  1.00  0.00    -0.237 OA
ATOM     94  O   UNL A   1      43.978  37.477  27.366  1.00  0.00    -0.237 OA
ATOM     95  O   UNL A   1      46.094  38.390  28.203  1.00  0.00    -0.744 OA
ENDBRANCH  89  92
ENDBRANCH  62  85
ENDBRANCH  36  37
ENDBRANCH  29  31
ENDBRANCH  28  29
ENDBRANCH  27  28
ENDBRANCH   1  27
TORSDOF 18
ENDMDL
MODEL 2
REMARK VINA RESULT:     -11.7      5.117     10.088
REMARK SMILES CCc1ccc2c(CC(=O)OCCOC(=O)c3ccc(-c4c5nc(c(-c6cccc(S(=O)(=O)[O-])c6F)c6ccc([nH]6)c(-c6cccc(S(=O)(=O)[O-])c6F)c6nc(c(-c7cccc(S(=O)(=O)[O-])c7F)c7ccc4[nH]7)C=C6)C=C5)cc3)c(C(=O)c3cc(C)ccn3)[nH]c2c1
REMARK SMILES IDX 12 1 11 2 9 3 10 4 8 5 7 6 3 7 4 8 92 9 5 10 91 11 6 12
REMARK SMILES IDX 90 13 80 14 2 16 1 17 81 18 82 19 83 20 84 21 89 22 85 23
REMARK SMILES IDX 88 24 86 25 87 26 13 27 14 28 15 29 16 30 17 31 18 32 79 33
REMARK SMILES IDX 19 34 78 35 20 36 21 37 22 38 72 39 23 40 77 41 71 42 73 43
REMARK SMILES IDX 24 44 76 45 70 46 69 47 25 49 57 50 37 51 56 52 38 53 41 54
REMARK SMILES IDX 55 55 74 56 39 57 40 58 54 60 75 61 42 62 26 63 27 64 35 65
REMARK SMILES IDX 28 66 30 67 36 68 29 69 31 70 32 71 33 72 34 73 58 74 59 75
REMARK SMILES IDX 67 76 60 77 62 78 68 79 61 80 63 81 64 82 65 83 66 84 43 85
REMARK SMILES IDX 44 86 52 87 45 88 47 89 53 90 46 91 48 92 49 93 50 94 51 95
REMARK H PARENT 90 15 73 48 41 59
REMARK Flexibility Score: inf
ROOT
ATOM      1  C   UNL A   1      31.974  28.518  27.275  1.00  0.00     0.274 C 
ENDROOT
BRANCH   1   2
ATOM      2  O   UNL A   1      31.329  27.553  26.417  1.00  0.00    -0.462 OA
BRANCH   2   3
ATOM      3  C   UNL A   1      31.844  26.294  26.457  1.00  0.00     0.310 C 
ATOM      4  O   UNL A   1      31.239  25.318  26.893  1.00  0.00    -0.252 OA
BRANCH   3   5
ATOM      5  C   UNL A   1      33.232  26.156  25.871  1.00  0.00     0.161 C 
BRANCH   5   6
ATOM      6  C   UNL A   1      33.429  25.080  24.845  1.00  0.00     0.000 A 
ATOM      7  C   UNL A   1      33.598  20.873  25.069  1.00  0.00    -0.046 A 
ATOM      8  C   UNL A   1      33.623  21.558  26.292  1.00  0.00     0.004 A 
ATOM      9  C   UNL A   1      33.638  21.602  23.868  1.00  0.00     0.030 A 
ATOM     10  C   UNL A   1      33.652  22.956  26.348  1.00  0.00     0.011 A 
ATOM     11  C   UNL A   1      33.636  23.001  23.945  1.00  0.00     0.046 A 
ATOM     12  C   UNL A   1      33.609  23.692  25.150  1.00  0.00     0.004 A 
ATOM     13  N   UNL A   1      33.615  23.943  22.945  1.00  0.00    -0.352 N 
ATOM     14  C   UNL A   1      33.269  25.173  23.461  1.00  0.00     0.093 A 
ATOM     15  H   UNL A   1      33.818  23.766  21.998  1.00  0.00     0.167 HD
BRANCH   7  16
ATOM     16  C   UNL A   1      33.412  19.373  25.090  1.00  0.00     0.032 C 
ATOM     17  C   UNL A   1      32.669  18.780  23.901  1.00  0.00     0.009 C 
ENDBRANCH   7  16
BRANCH  14  18
ATOM     18  C   UNL A   1      32.730  26.265  22.664  1.00  0.00     0.227 C 
ATOM     19  O   UNL A   1      33.392  26.867  21.823  1.00  0.00    -0.285 OA
BRANCH  18  20
ATOM     20  C   UNL A   1      31.379  26.789  22.983  1.00  0.00     0.113 A 
ATOM     21  C   UNL A   1      31.147  28.158  22.915  1.00  0.00     0.036 A 
ATOM     22  N   UNL A   1      30.444  25.877  23.332  1.00  0.00    -0.253 NA
ATOM     23  C   UNL A   1      29.864  28.624  23.207  1.00  0.00    -0.047 A 
ATOM     24  C   UNL A   1      29.193  26.343  23.518  1.00  0.00     0.112 A 
ATOM     25  C   UNL A   1      29.545  30.088  23.205  1.00  0.00     0.044 C 
ATOM     26  C   UNL A   1      28.860  27.688  23.476  1.00  0.00     0.023 A 
ENDBRANCH  18  20
ENDBRANCH  14  18
ENDBRANCH   5   6
ENDBRANCH   3   5
ENDBRANCH   2   3
ENDBRANCH   1   2
BRANCH   1  27
ATOM     27  C   UNL A   1      31.948  29.902  26.637  1.00  0.00     0.275 C 
BRANCH  27  28
ATOM     28  O   UNL A   1      33.292  30.380  26.472  1.00  0.00    -0.458 OA
BRANCH  28  29
ATOM     29  C   UNL A   1      33.628  31.427  27.259  1.00  0.00     0.338 C 
ATOM     30  O   UNL A   1      33.019  32.487  27.360  1.00  0.00    -0.246 OA
BRANCH  29  31
ATOM     31  C   UNL A   1      34.890  31.158  27.966  1.00  0.00     0.060 A 
ATOM     32  C   UNL A   1      35.908  32.111  28.029  1.00  0.00     0.016 A 
ATOM     33  C   UNL A   1      35.091  29.884  28.500  1.00  0.00     0.016 A 
ATOM     34  C   UNL A   1      37.157  31.759  28.543  1.00  0.00     0.010 A 
ATOM     35  C   UNL A   1      36.306  29.572  29.111  1.00  0.00     0.010 A 
ATOM     36  C   UNL A   1      37.365  30.493  29.113  1.00  0.00    -0.014 A 
BRANCH  36  37
ATOM     37  C   UNL A   1      38.664  30.136  29.747  1.00  0.00     0.031 A 
ATOM     38  C   UNL A   1      39.572  29.107  29.126  1.00  0.00     0.074 A 
ATOM     39  C   UNL A   1      38.994  30.684  30.935  1.00  0.00     0.049 A 
ATOM     40  N   UNL A   1      40.634  28.532  29.630  1.00  0.00    -0.248 NA
ATOM     41  C   UNL A   1      39.229  28.645  27.770  1.00  0.00     0.031 C 
ATOM     42  C   UNL A   1      38.193  31.673  31.659  1.00  0.00     0.029 A 
ATOM     43  N   UNL A   1      40.072  30.463  31.757  1.00  0.00    -0.354 N 
ATOM     44  C   UNL A   1      41.047  27.596  28.690  1.00  0.00     0.074 A 
ATOM     45  C   UNL A   1      40.124  27.684  27.577  1.00  0.00     0.031 C 
ATOM     46  C   UNL A   1      38.804  31.974  32.814  1.00  0.00     0.029 A 
ATOM     47  C   UNL A   1      40.001  31.153  32.945  1.00  0.00     0.049 A 
ATOM     48  H   UNL A   1      40.821  29.871  31.520  1.00  0.00     0.167 HD
ATOM     49  C   UNL A   1      42.105  26.751  28.742  1.00  0.00     0.034 A 
ATOM     50  C   UNL A   1      40.782  31.106  34.041  1.00  0.00     0.034 A 
ATOM     51  C   UNL A   1      43.069  26.721  29.811  1.00  0.00     0.049 A 
ATOM     52  C   UNL A   1      41.973  30.193  34.055  1.00  0.00     0.074 A 
ATOM     53  C   UNL A   1      44.218  25.955  29.914  1.00  0.00     0.029 A 
ATOM     54  N   UNL A   1      43.007  27.499  30.958  1.00  0.00    -0.354 N 
ATOM     55  N   UNL A   1      42.397  29.381  33.118  1.00  0.00    -0.248 NA
ATOM     56  C   UNL A   1      42.804  30.203  35.267  1.00  0.00     0.031 C 
ATOM     57  C   UNL A   1      44.848  26.267  31.124  1.00  0.00     0.029 A 
ATOM     58  C   UNL A   1      44.093  27.229  31.775  1.00  0.00     0.049 A 
ATOM     59  H   UNL A   1      42.294  28.146  31.163  1.00  0.00     0.167 HD
ATOM     60  C   UNL A   1      43.550  28.790  33.621  1.00  0.00     0.074 A 
ATOM     61  C   UNL A   1      43.775  29.363  34.933  1.00  0.00     0.031 C 
ATOM     62  C   UNL A   1      44.333  27.839  33.057  1.00  0.00     0.034 A 
BRANCH  49  63
ATOM     63  C   UNL A   1      42.316  25.815  27.581  1.00  0.00     0.023 A 
ATOM     64  C   UNL A   1      43.063  26.249  26.467  1.00  0.00     0.012 A 
ATOM     65  C   UNL A   1      41.843  24.488  27.620  1.00  0.00     0.148 A 
ATOM     66  C   UNL A   1      43.317  25.386  25.402  1.00  0.00     0.002 A 
ATOM     67  C   UNL A   1      42.128  23.623  26.569  1.00  0.00     0.091 A 
ATOM     68  F   UNL A   1      41.113  24.097  28.675  1.00  0.00    -0.205 F 
ATOM     69  C   UNL A   1      42.859  24.072  25.457  1.00  0.00     0.022 A 
BRANCH  67  70
ATOM     70  S   UNL A   1      41.634  21.895  26.595  1.00  0.00     0.127 S 
ATOM     71  O   UNL A   1      42.289  21.382  25.393  1.00  0.00    -0.237 OA
ATOM     72  O   UNL A   1      42.213  21.418  27.853  1.00  0.00    -0.237 OA
ATOM     73  O   UNL A   1      40.178  21.905  26.572  1.00  0.00    -0.744 OA
ENDBRANCH  67  70
ENDBRANCH  49  63
BRANCH  50  74
ATOM     74  C   UNL A   1      40.458  31.983  35.200  1.00  0.00     0.023 A 
ATOM     75  C   UNL A   1      41.175  33.179  35.381  1.00  0.00     0.012 A 
ATOM     76  C   UNL A   1      39.386  31.684  36.065  1.00  0.00     0.148 A 
ATOM     77  C   UNL A   1      40.835  34.062  36.407  1.00  0.00     0.002 A 
ATOM     78  C   UNL A   1      39.014  32.596  37.046  1.00  0.00     0.091 A 
ATOM     79  F   UNL A   1      38.729  30.528  35.892  1.00  0.00    -0.205 F 
ATOM     80  C   UNL A   1      39.744  33.779  37.227  1.00  0.00     0.022 A 
BRANCH  78  81
ATOM     81  S   UNL A   1      37.529  32.372  38.033  1.00  0.00     0.127 S 
ATOM     82  O   UNL A   1      36.521  33.038  37.213  1.00  0.00    -0.237 OA
ATOM     83  O   UNL A   1      37.412  30.914  38.091  1.00  0.00    -0.237 OA
ATOM     84  O   UNL A   1      37.824  32.995  39.317  1.00  0.00    -0.744 OA
ENDBRANCH  78  81
ENDBRANCH  50  74
BRANCH  62  85
ATOM     85  C   UNL A   1      45.513  27.355  33.855  1.00  0.00     0.023 A 
ATOM     86  C   UNL A   1      46.743  28.034  33.744  1.00  0.00     0.012 A 
ATOM     87  C   UNL A   1      45.395  26.278  34.755  1.00  0.00     0.148 A 
ATOM     88  C   UNL A   1      47.845  27.630  34.496  1.00  0.00     0.002 A 
ATOM     89  C   UNL A   1      46.487  25.905  35.529  1.00  0.00     0.091 A 
ATOM     90  F   UNL A   1      44.223  25.630  34.828  1.00  0.00    -0.205 F 
ATOM     91  C   UNL A   1      47.715  26.574  35.396  1.00  0.00     0.022 A 
BRANCH  89  92
ATOM     92  S   UNL A   1      46.380  24.606  36.765  1.00  0.00     0.127 S 
ATOM     93  O   UNL A   1      46.302  23.406  35.935  1.00  0.00    -0.237 OA
ATOM     94  O   UNL A   1      47.638  24.760  37.498  1.00  0.00    -0.237 OA
ATOM     95  O   UNL A   1      45.191  24.910  37.552  1.00  0.00    -0.744 OA
ENDBRANCH  89  92
ENDBRANCH  62  85
ENDBRANCH  36  37
ENDBRANCH  29  31
ENDBRANCH  28  29
ENDBRANCH  27  28
ENDBRANCH   1  27
TORSDOF 18
ENDMDL
MODEL 3
REMARK VINA RESULT:     -11.5      1.310      3.626
REMARK SMILES CCc1ccc2c(CC(=O)OCCOC(=O)c3ccc(-c4c5nc(c(-c6cccc(S(=O)(=O)[O-])c6F)c6ccc([nH]6)c(-c6cccc(S(=O)(=O)[O-])c6F)c6nc(c(-c7cccc(S(=O)(=O)[O-])c7F)c7ccc4[nH]7)C=C6)C=C5)cc3)c(C(=O)c3cc(C)ccn3)[nH]c2c1
REMARK SMILES IDX 12 1 11 2 9 3 10 4 8 5 7 6 3 7 4 8 92 9 5 10 91 11 6 12
REMARK SMILES IDX 90 13 80 14 2 16 1 17 81 18 82 19 83 20 84 21 89 22 85 23
REMARK SMILES IDX 88 24 86 25 87 26 13 27 14 28 15 29 16 30 17 31 18 32 79 33
REMARK SMILES IDX 19 34 78 35 20 36 21 37 22 38 72 39 23 40 77 41 71 42 73 43
REMARK SMILES IDX 24 44 76 45 70 46 69 47 25 49 57 50 37 51 56 52 38 53 41 54
REMARK SMILES IDX 55 55 74 56 39 57 40 58 54 60 75 61 42 62 26 63 27 64 35 65
REMARK SMILES IDX 28 66 30 67 36 68 29 69 31 70 32 71 33 72 34 73 58 74 59 75
REMARK SMILES IDX 67 76 60 77 62 78 68 79 61 80 63 81 64 82 65 83 66 84 43 85
REMARK SMILES IDX 44 86 52 87 45 88 47 89 53 90 46 91 48 92 49 93 50 94 51 95
REMARK H PARENT 90 15 73 48 41 59
REMARK Flexibility Score: inf
ROOT
ATOM      1  C   UNL A   1      37.289  21.829  24.193  1.00  0.00     0.274 C 
ENDROOT
BRANCH   1   2
ATOM      2  O   UNL A   1      36.996  23.014  24.961  1.00  0.00    -0.462 OA
BRANCH   2   3
ATOM      3  C   UNL A   1      35.680  23.354  25.039  1.00  0.00     0.310 C 
ATOM      4  O   UNL A   1      35.139  24.180  24.308  1.00  0.00    -0.252 OA
BRANCH   3   5
ATOM      5  C   UNL A   1      34.888  22.596  26.083  1.00  0.00     0.161 C 
BRANCH   5   6
ATOM      6  C   UNL A   1      33.765  21.736  25.586  1.00  0.00     0.000 A 
ATOM      7  C   UNL A   1      33.520  17.687  24.435  1.00  0.00    -0.046 A 
ATOM      8  C   UNL A   1      34.812  18.196  24.634  1.00  0.00     0.004 A 
ATOM      9  C   UNL A   1      32.417  18.555  24.510  1.00  0.00     0.030 A 
ATOM     10  C   UNL A   1      35.029  19.544  24.940  1.00  0.00     0.011 A 
ATOM     11  C   UNL A   1      32.653  19.894  24.847  1.00  0.00     0.046 A 
ATOM     12  C   UNL A   1      33.923  20.399  25.097  1.00  0.00     0.004 A 
ATOM     13  N   UNL A   1      31.769  20.927  25.041  1.00  0.00    -0.352 N 
ATOM     14  C   UNL A   1      32.393  21.968  25.695  1.00  0.00     0.093 A 
ATOM     15  H   UNL A   1      30.826  20.925  24.755  1.00  0.00     0.167 HD
BRANCH   7  16
ATOM     16  C   UNL A   1      33.356  16.195  24.261  1.00  0.00     0.032 C 
ATOM     17  C   UNL A   1      32.600  15.477  25.371  1.00  0.00     0.009 C 
ENDBRANCH   7  16
BRANCH  14  18
ATOM     18  C   UNL A   1      31.685  23.001  26.436  1.00  0.00     0.227 C 
ATOM     19  O   UNL A   1      31.243  22.826  27.568  1.00  0.00    -0.285 OA
BRANCH  18  20
ATOM     20  C   UNL A   1      31.335  24.268  25.748  1.00  0.00     0.113 A 
ATOM     21  C   UNL A   1      31.613  24.406  24.394  1.00  0.00     0.036 A 
ATOM     22  N   UNL A   1      30.760  25.229  26.507  1.00  0.00    -0.253 NA
ATOM     23  C   UNL A   1      31.262  25.603  23.767  1.00  0.00    -0.047 A 
ATOM     24  C   UNL A   1      30.347  26.336  25.858  1.00  0.00     0.112 A 
ATOM     25  C   UNL A   1      31.573  25.849  22.322  1.00  0.00     0.044 C 
ATOM     26  C   UNL A   1      30.580  26.570  24.512  1.00  0.00     0.023 A 
ENDBRANCH  18  20
ENDBRANCH  14  18
ENDBRANCH   5   6
ENDBRANCH   3   5
ENDBRANCH   2   3
ENDBRANCH   1   2
BRANCH   1  27
ATOM     27  C   UNL A   1      38.166  20.875  24.996  1.00  0.00     0.275 C 
BRANCH  27  28
ATOM     28  O   UNL A   1      38.528  21.489  26.243  1.00  0.00    -0.458 OA
BRANCH  28  29
ATOM     29  C   UNL A   1      39.810  21.294  26.626  1.00  0.00     0.338 C 
ATOM     30  O   UNL A   1      40.389  20.216  26.711  1.00  0.00    -0.246 OA
BRANCH  29  31
ATOM     31  C   UNL A   1      40.438  22.572  26.997  1.00  0.00     0.060 A 
ATOM     32  C   UNL A   1      41.402  22.646  28.003  1.00  0.00     0.016 A 
ATOM     33  C   UNL A   1      39.981  23.738  26.381  1.00  0.00     0.016 A 
ATOM     34  C   UNL A   1      41.839  23.892  28.457  1.00  0.00     0.010 A 
ATOM     35  C   UNL A   1      40.502  24.975  26.763  1.00  0.00     0.010 A 
ATOM     36  C   UNL A   1      41.414  25.071  27.826  1.00  0.00    -0.014 A 
BRANCH  36  37
ATOM     37  C   UNL A   1      41.942  26.401  28.238  1.00  0.00     0.031 A 
ATOM     38  C   UNL A   1      41.049  27.418  28.899  1.00  0.00     0.074 A 
ATOM     39  C   UNL A   1      43.218  26.728  27.944  1.00  0.00     0.049 A 
ATOM     40  N   UNL A   1      41.279  28.683  29.146  1.00  0.00    -0.248 NA
ATOM     41  C   UNL A   1      39.712  26.962  29.318  1.00  0.00     0.031 C 
ATOM     42  C   UNL A   1      44.182  25.847  27.282  1.00  0.00     0.029 A 
ATOM     43  N   UNL A   1      43.911  27.898  28.132  1.00  0.00    -0.354 N 
ATOM     44  C   UNL A   1      40.101  29.190  29.681  1.00  0.00     0.074 A 
ATOM     45  C   UNL A   1      39.157  28.093  29.733  1.00  0.00     0.031 C 
ATOM     46  C   UNL A   1      45.339  26.504  27.120  1.00  0.00     0.029 A 
ATOM     47  C   UNL A   1      45.180  27.870  27.602  1.00  0.00     0.049 A 
ATOM     48  H   UNL A   1      43.538  28.679  28.601  1.00  0.00     0.167 HD
ATOM     49  C   UNL A   1      39.836  30.450  30.105  1.00  0.00     0.034 A 
ATOM     50  C   UNL A   1      46.105  28.841  27.475  1.00  0.00     0.034 A 
ATOM     51  C   UNL A   1      40.801  31.519  30.130  1.00  0.00     0.049 A 
ATOM     52  C   UNL A   1      45.801  30.217  27.992  1.00  0.00     0.074 A 
ATOM     53  C   UNL A   1      40.646  32.806  30.614  1.00  0.00     0.029 A 
ATOM     54  N   UNL A   1      42.103  31.423  29.662  1.00  0.00    -0.354 N 
ATOM     55  N   UNL A   1      44.713  30.653  28.578  1.00  0.00    -0.248 NA
ATOM     56  C   UNL A   1      46.856  31.228  27.850  1.00  0.00     0.031 C 
ATOM     57  C   UNL A   1      41.854  33.491  30.436  1.00  0.00     0.029 A 
ATOM     58  C   UNL A   1      42.762  32.629  29.842  1.00  0.00     0.049 A 
ATOM     59  H   UNL A   1      42.500  30.619  29.258  1.00  0.00     0.167 HD
ATOM     60  C   UNL A   1      44.955  31.986  28.883  1.00  0.00     0.074 A 
ATOM     61  C   UNL A   1      46.306  32.277  28.448  1.00  0.00     0.031 C 
ATOM     62  C   UNL A   1      44.121  32.894  29.448  1.00  0.00     0.034 A 
BRANCH  49  63
ATOM     63  C   UNL A   1      38.455  30.739  30.631  1.00  0.00     0.023 A 
ATOM     64  C   UNL A   1      38.151  30.449  31.976  1.00  0.00     0.012 A 
ATOM     65  C   UNL A   1      37.484  31.363  29.823  1.00  0.00     0.148 A 
ATOM     66  C   UNL A   1      36.896  30.755  32.503  1.00  0.00     0.002 A 
ATOM     67  C   UNL A   1      36.246  31.694  30.364  1.00  0.00     0.091 A 
ATOM     68  F   UNL A   1      37.779  31.610  28.539  1.00  0.00    -0.205 F 
ATOM     69  C   UNL A   1      35.949  31.385  31.701  1.00  0.00     0.022 A 
BRANCH  67  70
ATOM     70  S   UNL A   1      34.995  32.570  29.417  1.00  0.00     0.127 S 
ATOM     71  O   UNL A   1      34.037  32.936  30.459  1.00  0.00    -0.237 OA
ATOM     72  O   UNL A   1      35.748  33.697  28.862  1.00  0.00    -0.237 OA
ATOM     73  O   UNL A   1      34.520  31.619  28.422  1.00  0.00    -0.744 OA
ENDBRANCH  67  70
ENDBRANCH  49  63
BRANCH  50  74
ATOM     74  C   UNL A   1      47.416  28.515  26.849  1.00  0.00     0.023 A 
ATOM     75  C   UNL A   1      48.558  28.403  27.660  1.00  0.00     0.012 A 
ATOM     76  C   UNL A   1      47.516  28.226  25.473  1.00  0.00     0.148 A 
ATOM     77  C   UNL A   1      49.782  28.014  27.113  1.00  0.00     0.002 A 
ATOM     78  C   UNL A   1      48.723  27.781  24.946  1.00  0.00     0.091 A 
ATOM     79  F   UNL A   1      46.421  28.362  24.710  1.00  0.00    -0.205 F 
ATOM     80  C   UNL A   1      49.860  27.686  25.761  1.00  0.00     0.022 A 
BRANCH  78  81
ATOM     81  S   UNL A   1      48.858  27.193  23.253  1.00  0.00     0.127 S 
ATOM     82  O   UNL A   1      50.305  27.078  23.090  1.00  0.00    -0.237 OA
ATOM     83  O   UNL A   1      48.141  25.918  23.310  1.00  0.00    -0.237 OA
ATOM     84  O   UNL A   1      48.200  28.207  22.440  1.00  0.00    -0.744 OA
ENDBRANCH  78  81
ENDBRANCH  50  74
BRANCH  62  85
ATOM     85  C   UNL A   1      44.647  34.291  29.631  1.00  0.00     0.023 A 
ATOM     86  C   UNL A   1      45.306  34.626  30.831  1.00  0.00     0.012 A 
ATOM     87  C   UNL A   1      44.545  35.251  28.606  1.00  0.00     0.148 A 
ATOM     88  C   UNL A   1      45.834  35.903  31.017  1.00  0.00     0.002 A 
ATOM     89  C   UNL A   1      45.106  36.510  28.784  1.00  0.00     0.091 A 
ATOM     90  F   UNL A   1      43.892  34.921  27.481  1.00  0.00    -0.205 F 
ATOM     91  C   UNL A   1      45.744  36.841  29.990  1.00  0.00     0.022 A 
BRANCH  89  92
ATOM     92  S   UNL A   1      45.101  37.748  27.482  1.00  0.00     0.127 S 
ATOM     93  O   UNL A   1      45.711  38.893  28.153  1.00  0.00    -0.237 OA
ATOM     94  O   UNL A   1      45.936  37.129  26.451  1.00  0.00    -0.237 OA
ATOM     95  O   UNL A   1      43.703  37.910  27.099  1.00  0.00    -0.744 OA
ENDBRANCH  89  92
ENDBRANCH  62  85
ENDBRANCH  36  37
ENDBRANCH  29  31
ENDBRANCH  28  29
ENDBRANCH  27  28
ENDBRANCH   1  27
TORSDOF 18
ENDMDL
