MODEL 1
REMARK VINA RESULT:     -10.8      0.000      0.000
REMARK SMILES [NH3+]C[C@@H](Cc1ccc(Br)cc1)C(=O)OCCOC(=O)c1ccc(-c2c3nc(c(-c4cccc(S(=O)(=O)[O-])c4F)c4ccc([nH]4)c(-c4cccc(S(=O)(=O)[O-])c4F)c4nc(c(-c5cccc(S(=O)(=O)[O-])c5F)c5ccc2[nH]5)C=C4)C=C3)cc1
REMARK SMILES IDX 16 1 15 2 14 3 12 4 13 5 3 6 2 7 1 8 4 12 5 13 6 14 11 15
REMARK SMILES IDX 7 16 10 17 8 18 9 19 17 20 18 21 19 22 20 23 21 24 82 25
REMARK SMILES IDX 22 26 81 27 23 28 24 29 25 30 75 31 26 32 80 33 74 34 76 35
REMARK SMILES IDX 27 36 79 37 73 38 72 39 28 41 60 42 40 43 59 44 41 45 44 46
REMARK SMILES IDX 58 47 77 48 42 49 43 50 57 52 78 53 45 54 29 55 30 56 38 57
REMARK SMILES IDX 31 58 33 59 39 60 32 61 34 62 35 63 36 64 37 65 61 66 62 67
REMARK SMILES IDX 70 68 63 69 65 70 71 71 64 72 66 73 67 74 68 75 69 76 46 77
REMARK SMILES IDX 47 78 55 79 48 80 50 81 56 82 49 83 51 84 52 85 53 86 54 87
REMARK H PARENT 1 9 1 10 1 11 76 40 44 51
REMARK Flexibility Score: inf
ROOT
ATOM      1  C   UNL A   1      31.776  29.735  26.186  1.00  0.00     0.275 C 
ENDROOT
BRANCH   1   2
ATOM      2  C   UNL A   1      31.728  28.523  27.118  1.00  0.00     0.274 C 
BRANCH   2   3
ATOM      3  O   UNL A   1      32.110  27.317  26.423  1.00  0.00    -0.462 OA
BRANCH   3   4
ATOM      4  C   UNL A   1      31.105  26.587  25.880  1.00  0.00     0.315 C 
ATOM      5  O   UNL A   1      30.276  25.953  26.523  1.00  0.00    -0.252 OA
BRANCH   4   6
ATOM      6  C   UNL A   1      31.130  26.562  24.360  1.00  0.00     0.158 C 
BRANCH   6   7
ATOM      7  C   UNL A   1      31.910  25.392  23.741  1.00  0.00     0.274 C 
BRANCH   7   8
ATOM      8  N   UNL A   1      32.837  24.744  24.671  1.00  0.00    -0.357 N 
ATOM      9  H   UNL A   1      33.752  25.191  24.606  1.00  0.00     0.344 HD
ATOM     10  H   UNL A   1      32.925  23.756  24.432  1.00  0.00     0.344 HD
ATOM     11  H   UNL A   1      32.483  24.833  25.623  1.00  0.00     0.344 HD
ENDBRANCH   7   8
ENDBRANCH   6   7
BRANCH   6  12
ATOM     12  C   UNL A   1      29.721  26.832  23.810  1.00  0.00     0.056 C 
BRANCH  12  13
ATOM     13  C   UNL A   1      29.381  28.115  23.078  1.00  0.00    -0.047 A 
ATOM     14  C   UNL A   1      28.045  28.550  23.127  1.00  0.00     0.005 A 
ATOM     15  C   UNL A   1      30.301  28.909  22.385  1.00  0.00     0.005 A 
ATOM     16  C   UNL A   1      27.638  29.721  22.482  1.00  0.00     0.016 A 
ATOM     17  C   UNL A   1      29.900  30.080  21.734  1.00  0.00     0.016 A 
ATOM     18  C   UNL A   1      28.570  30.479  21.781  1.00  0.00     0.017 A 
ATOM     19  Br  UNL A   1      28.030  32.056  20.894  1.00  0.00    -0.051 Br
ENDBRANCH  12  13
ENDBRANCH   6  12
ENDBRANCH   4   6
ENDBRANCH   3   4
ENDBRANCH   2   3
ENDBRANCH   1   2
BRANCH   1  20
ATOM     20  O   UNL A   1      33.113  30.253  26.094  1.00  0.00    -0.458 OA
BRANCH  20  21
ATOM     21  C   UNL A   1      33.395  31.244  26.973  1.00  0.00     0.338 C 
ATOM     22  O   UNL A   1      32.669  32.162  27.310  1.00  0.00    -0.246 OA
BRANCH  21  23
ATOM     23  C   UNL A   1      34.687  30.963  27.611  1.00  0.00     0.060 A 
ATOM     24  C   UNL A   1      34.959  29.649  28.000  1.00  0.00     0.016 A 
ATOM     25  C   UNL A   1      35.587  31.990  27.887  1.00  0.00     0.016 A 
ATOM     26  C   UNL A   1      36.124  29.353  28.695  1.00  0.00     0.010 A 
ATOM     27  C   UNL A   1      36.767  31.690  28.570  1.00  0.00     0.010 A 
ATOM     28  C   UNL A   1      37.031  30.374  28.994  1.00  0.00    -0.014 A 
BRANCH  28  29
ATOM     29  C   UNL A   1      38.233  30.071  29.797  1.00  0.00     0.031 A 
ATOM     30  C   UNL A   1      39.254  29.110  29.265  1.00  0.00     0.074 A 
ATOM     31  C   UNL A   1      38.394  30.653  30.999  1.00  0.00     0.049 A 
ATOM     32  N   UNL A   1      40.317  28.630  29.851  1.00  0.00    -0.248 NA
ATOM     33  C   UNL A   1      39.045  28.619  27.893  1.00  0.00     0.031 C 
ATOM     34  C   UNL A   1      37.471  31.618  31.600  1.00  0.00     0.029 A 
ATOM     35  N   UNL A   1      39.377  30.497  31.942  1.00  0.00    -0.354 N 
ATOM     36  C   UNL A   1      40.883  27.747  28.940  1.00  0.00     0.074 A 
ATOM     37  C   UNL A   1      40.045  27.759  27.760  1.00  0.00     0.031 C 
ATOM     38  C   UNL A   1      37.917  31.946  32.823  1.00  0.00     0.029 A 
ATOM     39  C   UNL A   1      39.130  31.187  33.105  1.00  0.00     0.049 A 
ATOM     40  H   UNL A   1      40.180  29.946  31.799  1.00  0.00     0.167 HD
ATOM     41  C   UNL A   1      42.006  27.004  29.073  1.00  0.00     0.034 A 
ATOM     42  C   UNL A   1      39.792  31.176  34.279  1.00  0.00     0.034 A 
ATOM     43  C   UNL A   1      42.847  27.027  30.239  1.00  0.00     0.049 A 
ATOM     44  C   UNL A   1      41.030  30.332  34.405  1.00  0.00     0.074 A 
ATOM     45  C   UNL A   1      44.025  26.336  30.465  1.00  0.00     0.029 A 
ATOM     46  N   UNL A   1      42.599  27.779  31.378  1.00  0.00    -0.354 N 
ATOM     47  N   UNL A   1      41.601  29.566  33.506  1.00  0.00    -0.248 NA
ATOM     48  C   UNL A   1      41.731  30.369  35.696  1.00  0.00     0.031 C 
ATOM     49  C   UNL A   1      44.481  26.661  31.748  1.00  0.00     0.029 A 
ATOM     50  C   UNL A   1      43.597  27.568  32.313  1.00  0.00     0.049 A 
ATOM     51  H   UNL A   1      41.825  28.375  31.503  1.00  0.00     0.167 HD
ATOM     52  C   UNL A   1      42.741  29.051  34.111  1.00  0.00     0.074 A 
ATOM     53  C   UNL A   1      42.792  29.613  35.446  1.00  0.00     0.031 C 
ATOM     54  C   UNL A   1      43.655  28.180  33.616  1.00  0.00     0.034 A 
BRANCH  41  55
ATOM     55  C   UNL A   1      42.400  26.123  27.918  1.00  0.00     0.023 A 
ATOM     56  C   UNL A   1      43.300  26.609  26.948  1.00  0.00     0.012 A 
ATOM     57  C   UNL A   1      41.913  24.806  27.813  1.00  0.00     0.148 A 
ATOM     58  C   UNL A   1      43.686  25.807  25.874  1.00  0.00     0.002 A 
ATOM     59  C   UNL A   1      42.334  24.000  26.761  1.00  0.00     0.091 A 
ATOM     60  F   UNL A   1      41.037  24.372  28.730  1.00  0.00    -0.205 F 
ATOM     61  C   UNL A   1      43.211  24.502  25.786  1.00  0.00     0.022 A 
BRANCH  59  62
ATOM     62  S   UNL A   1      41.831  22.283  26.601  1.00  0.00     0.127 S 
ATOM     63  O   UNL A   1      42.526  21.884  25.378  1.00  0.00    -0.237 OA
ATOM     64  O   UNL A   1      42.365  21.688  27.827  1.00  0.00    -0.237 OA
ATOM     65  O   UNL A   1      40.377  22.297  26.520  1.00  0.00    -0.744 OA
ENDBRANCH  59  62
ENDBRANCH  41  55
BRANCH  42  66
ATOM     66  C   UNL A   1      39.304  32.012  35.411  1.00  0.00     0.023 A 
ATOM     67  C   UNL A   1      38.407  31.461  36.345  1.00  0.00     0.012 A 
ATOM     68  C   UNL A   1      39.757  33.335  35.591  1.00  0.00     0.148 A 
ATOM     69  C   UNL A   1      37.950  32.218  37.424  1.00  0.00     0.002 A 
ATOM     70  C   UNL A   1      39.340  34.065  36.698  1.00  0.00     0.091 A 
ATOM     71  F   UNL A   1      40.596  33.850  34.681  1.00  0.00    -0.205 F 
ATOM     72  C   UNL A   1      38.425  33.513  37.608  1.00  0.00     0.022 A 
BRANCH  70  73
ATOM     73  S   UNL A   1      40.006  35.689  37.082  1.00  0.00     0.127 S 
ATOM     74  O   UNL A   1      41.429  35.401  37.229  1.00  0.00    -0.237 OA
ATOM     75  O   UNL A   1      39.652  36.454  35.885  1.00  0.00    -0.237 OA
ATOM     76  O   UNL A   1      39.316  36.118  38.291  1.00  0.00    -0.744 OA
ENDBRANCH  70  73
ENDBRANCH  42  66
BRANCH  54  77
ATOM     77  C   UNL A   1      44.805  27.798  34.509  1.00  0.00     0.023 A 
ATOM     78  C   UNL A   1      45.982  28.572  34.499  1.00  0.00     0.012 A 
ATOM     79  C   UNL A   1      44.689  26.721  35.409  1.00  0.00     0.148 A 
ATOM     80  C   UNL A   1      47.038  28.263  35.356  1.00  0.00     0.002 A 
ATOM     81  C   UNL A   1      45.728  26.448  36.292  1.00  0.00     0.091 A 
ATOM     82  F   UNL A   1      43.569  25.984  35.388  1.00  0.00    -0.205 F 
ATOM     83  C   UNL A   1      46.907  27.211  36.259  1.00  0.00     0.022 A 
BRANCH  81  84
ATOM     84  S   UNL A   1      45.607  25.172  37.549  1.00  0.00     0.127 S 
ATOM     85  O   UNL A   1      44.532  25.688  38.397  1.00  0.00    -0.237 OA
ATOM     86  O   UNL A   1      45.249  23.990  36.764  1.00  0.00    -0.237 OA
ATOM     87  O   UNL A   1      46.921  25.102  38.175  1.00  0.00    -0.744 OA
ENDBRANCH  81  84
ENDBRANCH  54  77
ENDBRANCH  28  29
ENDBRANCH  21  23
ENDBRANCH  20  21
ENDBRANCH   1  20
TORSDOF 18
ENDMDL
MODEL 2
REMARK VINA RESULT:     -10.8      5.793     10.650
REMARK SMILES [NH3+]C[C@@H](Cc1ccc(Br)cc1)C(=O)OCCOC(=O)c1ccc(-c2c3nc(c(-c4cccc(S(=O)(=O)[O-])c4F)c4ccc([nH]4)c(-c4cccc(S(=O)(=O)[O-])c4F)c4nc(c(-c5cccc(S(=O)(=O)[O-])c5F)c5ccc2[nH]5)C=C4)C=C3)cc1
REMARK SMILES IDX 16 1 15 2 14 3 12 4 13 5 3 6 2 7 1 8 4 12 5 13 6 14 11 15
REMARK SMILES IDX 7 16 10 17 8 18 9 19 17 20 18 21 19 22 20 23 21 24 82 25
REMARK SMILES IDX 22 26 81 27 23 28 24 29 25 30 75 31 26 32 80 33 74 34 76 35
REMARK SMILES IDX 27 36 79 37 73 38 72 39 28 41 60 42 40 43 59 44 41 45 44 46
REMARK SMILES IDX 58 47 77 48 42 49 43 50 57 52 78 53 45 54 29 55 30 56 38 57
REMARK SMILES IDX 31 58 33 59 39 60 32 61 34 62 35 63 36 64 37 65 61 66 62 67
REMARK SMILES IDX 70 68 63 69 65 70 71 71 64 72 66 73 67 74 68 75 69 76 46 77
REMARK SMILES IDX 47 78 55 79 48 80 50 81 56 82 49 83 51 84 52 85 53 86 54 87
REMARK H PARENT 1 9 1 10 1 11 76 40 44 51
REMARK Flexibility Score: inf
ROOT
ATOM      1  C   UNL A   1      36.854  21.156  24.509  1.00  0.00     0.275 C 
ENDROOT
BRANCH   1   2
ATOM      2  C   UNL A   1      36.313  22.392  23.788  1.00  0.00     0.274 C 
BRANCH   2   3
ATOM      3  O   UNL A   1      34.951  22.666  24.179  1.00  0.00    -0.462 OA
BRANCH   3   4
ATOM      4  C   UNL A   1      34.062  22.873  23.177  1.00  0.00     0.315 C 
ATOM      5  O   UNL A   1      34.342  23.355  22.084  1.00  0.00    -0.252 OA
BRANCH   4   6
ATOM      6  C   UNL A   1      32.634  22.510  23.549  1.00  0.00     0.158 C 
BRANCH   6   7
ATOM      7  C   UNL A   1      31.626  23.666  23.470  1.00  0.00     0.274 C 
BRANCH   7   8
ATOM      8  N   UNL A   1      31.927  24.639  22.417  1.00  0.00    -0.357 N 
ATOM      9  H   UNL A   1      32.938  24.745  22.331  1.00  0.00     0.344 HD
ATOM     10  H   UNL A   1      31.511  25.539  22.657  1.00  0.00     0.344 HD
ATOM     11  H   UNL A   1      31.543  24.312  21.531  1.00  0.00     0.344 HD
ENDBRANCH   7   8
ENDBRANCH   6   7
BRANCH   6  12
ATOM     12  C   UNL A   1      32.237  21.188  22.873  1.00  0.00     0.056 C 
BRANCH  12  13
ATOM     13  C   UNL A   1      32.428  19.851  23.558  1.00  0.00    -0.047 A 
ATOM     14  C   UNL A   1      32.435  18.704  22.743  1.00  0.00     0.005 A 
ATOM     15  C   UNL A   1      32.625  19.676  24.933  1.00  0.00     0.005 A 
ATOM     16  C   UNL A   1      32.603  17.428  23.287  1.00  0.00     0.016 A 
ATOM     17  C   UNL A   1      32.791  18.401  25.483  1.00  0.00     0.016 A 
ATOM     18  C   UNL A   1      32.775  17.282  24.659  1.00  0.00     0.017 A 
ATOM     19  Br  UNL A   1      32.990  15.562  25.407  1.00  0.00    -0.051 Br
ENDBRANCH  12  13
ENDBRANCH   6  12
ENDBRANCH   4   6
ENDBRANCH   3   4
ENDBRANCH   2   3
ENDBRANCH   1   2
BRANCH   1  20
ATOM     20  O   UNL A   1      37.332  21.501  25.820  1.00  0.00    -0.458 OA
BRANCH  20  21
ATOM     21  C   UNL A   1      38.643  21.235  26.029  1.00  0.00     0.338 C 
ATOM     22  O   UNL A   1      39.253  20.229  25.713  1.00  0.00    -0.246 OA
BRANCH  21  23
ATOM     23  C   UNL A   1      39.292  22.434  26.572  1.00  0.00     0.060 A 
ATOM     24  C   UNL A   1      38.831  23.683  26.148  1.00  0.00     0.016 A 
ATOM     25  C   UNL A   1      40.386  22.330  27.429  1.00  0.00     0.016 A 
ATOM     26  C   UNL A   1      39.478  24.842  26.556  1.00  0.00     0.010 A 
ATOM     27  C   UNL A   1      41.026  23.496  27.853  1.00  0.00     0.010 A 
ATOM     28  C   UNL A   1      40.587  24.754  27.403  1.00  0.00    -0.014 A 
BRANCH  28  29
ATOM     29  C   UNL A   1      41.319  25.982  27.776  1.00  0.00     0.031 A 
ATOM     30  C   UNL A   1      40.616  27.053  28.556  1.00  0.00     0.074 A 
ATOM     31  C   UNL A   1      42.604  26.130  27.406  1.00  0.00     0.049 A 
ATOM     32  N   UNL A   1      41.039  28.242  28.891  1.00  0.00    -0.248 NA
ATOM     33  C   UNL A   1      39.250  26.747  29.015  1.00  0.00     0.031 C 
ATOM     34  C   UNL A   1      43.386  25.140  26.664  1.00  0.00     0.029 A 
ATOM     35  N   UNL A   1      43.467  27.180  27.579  1.00  0.00    -0.354 N 
ATOM     36  C   UNL A   1      39.982  28.845  29.560  1.00  0.00     0.074 A 
ATOM     37  C   UNL A   1      38.895  27.888  29.586  1.00  0.00     0.031 C 
ATOM     38  C   UNL A   1      44.607  25.642  26.420  1.00  0.00     0.029 A 
ATOM     39  C   UNL A   1      44.678  26.999  26.952  1.00  0.00     0.049 A 
ATOM     40  H   UNL A   1      43.243  27.984  28.102  1.00  0.00     0.167 HD
ATOM     41  C   UNL A   1      39.928  30.079  30.112  1.00  0.00     0.034 A 
ATOM     42  C   UNL A   1      45.710  27.850  26.795  1.00  0.00     0.034 A 
ATOM     43  C   UNL A   1      41.027  31.006  30.107  1.00  0.00     0.049 A 
ATOM     44  C   UNL A   1      45.620  29.220  27.407  1.00  0.00     0.074 A 
ATOM     45  C   UNL A   1      41.089  32.271  30.665  1.00  0.00     0.029 A 
ATOM     46  N   UNL A   1      42.258  30.770  29.512  1.00  0.00    -0.354 N 
ATOM     47  N   UNL A   1      44.646  29.747  28.110  1.00  0.00    -0.248 NA
ATOM     48  C   UNL A   1      46.780  30.105  27.230  1.00  0.00     0.031 C 
ATOM     49  C   UNL A   1      42.354  32.805  30.394  1.00  0.00     0.029 A 
ATOM     50  C   UNL A   1      43.086  31.865  29.684  1.00  0.00     0.049 A 
ATOM     51  H   UNL A   1      42.505  29.945  29.036  1.00  0.00     0.167 HD
ATOM     52  C   UNL A   1      45.084  31.012  28.482  1.00  0.00     0.074 A 
ATOM     53  C   UNL A   1      46.422  31.163  27.946  1.00  0.00     0.031 C 
ATOM     54  C   UNL A   1      44.434  31.972  29.187  1.00  0.00     0.034 A 
BRANCH  41  55
ATOM     55  C   UNL A   1      38.646  30.485  30.787  1.00  0.00     0.023 A 
ATOM     56  C   UNL A   1      38.445  30.169  32.147  1.00  0.00     0.012 A 
ATOM     57  C   UNL A   1      37.660  31.212  30.093  1.00  0.00     0.148 A 
ATOM     58  C   UNL A   1      37.269  30.543  32.795  1.00  0.00     0.002 A 
ATOM     59  C   UNL A   1      36.507  31.615  30.757  1.00  0.00     0.091 A 
ATOM     60  F   UNL A   1      37.858  31.478  28.794  1.00  0.00    -0.205 F 
ATOM     61  C   UNL A   1      36.305  31.273  32.104  1.00  0.00     0.022 A 
BRANCH  59  62
ATOM     62  S   UNL A   1      35.241  32.618  29.971  1.00  0.00     0.127 S 
ATOM     63  O   UNL A   1      34.767  31.723  28.916  1.00  0.00    -0.237 OA
ATOM     64  O   UNL A   1      34.291  32.829  31.063  1.00  0.00    -0.237 OA
ATOM     65  O   UNL A   1      35.914  33.825  29.513  1.00  0.00    -0.744 OA
ENDBRANCH  59  62
ENDBRANCH  41  55
BRANCH  42  66
ATOM     66  C   UNL A   1      46.922  27.412  26.047  1.00  0.00     0.023 A 
ATOM     67  C   UNL A   1      47.039  27.716  24.677  1.00  0.00     0.012 A 
ATOM     68  C   UNL A   1      47.975  26.735  26.693  1.00  0.00     0.148 A 
ATOM     69  C   UNL A   1      48.172  27.333  23.959  1.00  0.00     0.002 A 
ATOM     70  C   UNL A   1      49.125  26.405  25.984  1.00  0.00     0.091 A 
ATOM     71  F   UNL A   1      47.838  26.437  27.992  1.00  0.00    -0.205 F 
ATOM     72  C   UNL A   1      49.219  26.690  24.613  1.00  0.00     0.022 A 
BRANCH  70  73
ATOM     73  S   UNL A   1      50.573  25.697  26.779  1.00  0.00     0.127 S 
ATOM     74  O   UNL A   1      51.493  25.559  25.655  1.00  0.00    -0.237 OA
ATOM     75  O   UNL A   1      50.929  26.738  27.744  1.00  0.00    -0.237 OA
ATOM     76  O   UNL A   1      50.116  24.453  27.383  1.00  0.00    -0.744 OA
ENDBRANCH  70  73
ENDBRANCH  42  66
BRANCH  54  77
ATOM     77  C   UNL A   1      45.167  33.261  29.445  1.00  0.00     0.023 A 
ATOM     78  C   UNL A   1      45.957  33.393  30.603  1.00  0.00     0.012 A 
ATOM     79  C   UNL A   1      45.133  34.308  28.504  1.00  0.00     0.148 A 
ATOM     80  C   UNL A   1      46.684  34.560  30.834  1.00  0.00     0.002 A 
ATOM     81  C   UNL A   1      45.896  35.450  28.719  1.00  0.00     0.091 A 
ATOM     82  F   UNL A   1      44.358  34.171  27.419  1.00  0.00    -0.205 F 
ATOM     83  C   UNL A   1      46.663  35.582  29.888  1.00  0.00     0.022 A 
BRANCH  81  84
ATOM     84  S   UNL A   1      46.001  36.774  27.510  1.00  0.00     0.127 S 
ATOM     85  O   UNL A   1      44.626  37.273  27.493  1.00  0.00    -0.237 OA
ATOM     86  O   UNL A   1      46.971  37.682  28.123  1.00  0.00    -0.237 OA
ATOM     87  O   UNL A   1      46.458  36.151  26.275  1.00  0.00    -0.744 OA
ENDBRANCH  81  84
ENDBRANCH  54  77
ENDBRANCH  28  29
ENDBRANCH  21  23
ENDBRANCH  20  21
ENDBRANCH   1  20
TORSDOF 18
ENDMDL
MODEL 3
REMARK VINA RESULT:     -10.7      4.162     10.022
REMARK SMILES [NH3+]C[C@@H](Cc1ccc(Br)cc1)C(=O)OCCOC(=O)c1ccc(-c2c3nc(c(-c4cccc(S(=O)(=O)[O-])c4F)c4ccc([nH]4)c(-c4cccc(S(=O)(=O)[O-])c4F)c4nc(c(-c5cccc(S(=O)(=O)[O-])c5F)c5ccc2[nH]5)C=C4)C=C3)cc1
REMARK SMILES IDX 16 1 15 2 14 3 12 4 13 5 3 6 2 7 1 8 4 12 5 13 6 14 11 15
REMARK SMILES IDX 7 16 10 17 8 18 9 19 17 20 18 21 19 22 20 23 21 24 82 25
REMARK SMILES IDX 22 26 81 27 23 28 24 29 25 30 75 31 26 32 80 33 74 34 76 35
REMARK SMILES IDX 27 36 79 37 73 38 72 39 28 41 60 42 40 43 59 44 41 45 44 46
REMARK SMILES IDX 58 47 77 48 42 49 43 50 57 52 78 53 45 54 29 55 30 56 38 57
REMARK SMILES IDX 31 58 33 59 39 60 32 61 34 62 35 63 36 64 37 65 61 66 62 67
REMARK SMILES IDX 70 68 63 69 65 70 71 71 64 72 66 73 67 74 68 75 69 76 46 77
REMARK SMILES IDX 47 78 55 79 48 80 50 81 56 82 49 83 51 84 52 85 53 86 54 87
REMARK H PARENT 1 9 1 10 1 11 76 40 44 51
REMARK Flexibility Score: inf
ROOT
ATOM      1  C   UNL A   1      33.497  32.989  28.020  1.00  0.00     0.275 C 
ENDROOT
BRANCH   1   2
ATOM      2  C   UNL A   1      33.698  34.440  28.463  1.00  0.00     0.274 C 
BRANCH   2   3
ATOM      3  O   UNL A   1      32.894  34.746  29.621  1.00  0.00    -0.462 OA
BRANCH   3   4
ATOM      4  C   UNL A   1      33.111  35.947  30.211  1.00  0.00     0.315 C 
ATOM      5  O   UNL A   1      32.900  37.033  29.681  1.00  0.00    -0.252 OA
BRANCH   4   6
ATOM      6  C   UNL A   1      33.718  35.838  31.599  1.00  0.00     0.158 C 
BRANCH   6   7
ATOM      7  C   UNL A   1      33.402  37.010  32.542  1.00  0.00     0.274 C 
BRANCH   7   8
ATOM      8  N   UNL A   1      34.071  38.260  32.173  1.00  0.00    -0.357 N 
ATOM      9  H   UNL A   1      33.954  38.426  31.173  1.00  0.00     0.344 HD
ATOM     10  H   UNL A   1      35.065  38.191  32.392  1.00  0.00     0.344 HD
ATOM     11  H   UNL A   1      33.660  39.033  32.696  1.00  0.00     0.344 HD
ENDBRANCH   7   8
ENDBRANCH   6   7
BRANCH   6  12
ATOM     12  C   UNL A   1      33.510  34.419  32.153  1.00  0.00     0.056 C 
BRANCH  12  13
ATOM     13  C   UNL A   1      34.655  33.606  32.718  1.00  0.00    -0.047 A 
ATOM     14  C   UNL A   1      35.236  34.057  33.918  1.00  0.00     0.005 A 
ATOM     15  C   UNL A   1      35.158  32.428  32.154  1.00  0.00     0.005 A 
ATOM     16  C   UNL A   1      36.298  33.372  34.513  1.00  0.00     0.016 A 
ATOM     17  C   UNL A   1      36.223  31.741  32.742  1.00  0.00     0.016 A 
ATOM     18  C   UNL A   1      36.792  32.218  33.917  1.00  0.00     0.017 A 
ATOM     19  Br  UNL A   1      38.236  31.291  34.706  1.00  0.00    -0.051 Br
ENDBRANCH  12  13
ENDBRANCH   6  12
ENDBRANCH   4   6
ENDBRANCH   3   4
ENDBRANCH   2   3
ENDBRANCH   1   2
BRANCH   1  20
ATOM     20  O   UNL A   1      34.606  32.173  28.431  1.00  0.00    -0.458 OA
BRANCH  20  21
ATOM     21  C   UNL A   1      34.639  30.943  27.865  1.00  0.00     0.338 C 
ATOM     22  O   UNL A   1      33.837  30.467  27.082  1.00  0.00    -0.246 OA
BRANCH  21  23
ATOM     23  C   UNL A   1      35.906  30.290  28.217  1.00  0.00     0.060 A 
ATOM     24  C   UNL A   1      36.027  29.726  29.489  1.00  0.00     0.016 A 
ATOM     25  C   UNL A   1      36.984  30.298  27.334  1.00  0.00     0.016 A 
ATOM     26  C   UNL A   1      37.238  29.187  29.902  1.00  0.00     0.010 A 
ATOM     27  C   UNL A   1      38.197  29.741  27.743  1.00  0.00     0.010 A 
ATOM     28  C   UNL A   1      38.334  29.200  29.034  1.00  0.00    -0.014 A 
BRANCH  28  29
ATOM     29  C   UNL A   1      39.641  28.694  29.501  1.00  0.00     0.031 A 
ATOM     30  C   UNL A   1      40.368  29.422  30.592  1.00  0.00     0.074 A 
ATOM     31  C   UNL A   1      40.168  27.592  28.937  1.00  0.00     0.049 A 
ATOM     32  N   UNL A   1      41.564  29.209  31.070  1.00  0.00    -0.248 NA
ATOM     33  C   UNL A   1      39.656  30.545  31.225  1.00  0.00     0.031 C 
ATOM     34  C   UNL A   1      39.533  26.799  27.883  1.00  0.00     0.029 A 
ATOM     35  N   UNL A   1      41.369  26.967  29.152  1.00  0.00    -0.354 N 
ATOM     36  C   UNL A   1      41.769  30.194  32.028  1.00  0.00     0.074 A 
ATOM     37  C   UNL A   1      40.571  31.006  32.065  1.00  0.00     0.031 C 
ATOM     38  C   UNL A   1      40.364  25.808  27.523  1.00  0.00     0.029 A 
ATOM     39  C   UNL A   1      41.601  25.921  28.290  1.00  0.00     0.049 A 
ATOM     40  H   UNL A   1      42.003  27.240  29.855  1.00  0.00     0.167 HD
ATOM     41  C   UNL A   1      42.852  30.394  32.813  1.00  0.00     0.034 A 
ATOM     42  C   UNL A   1      42.702  25.166  28.116  1.00  0.00     0.034 A 
ATOM     43  C   UNL A   1      44.023  29.558  32.789  1.00  0.00     0.049 A 
ATOM     44  C   UNL A   1      43.899  25.417  28.992  1.00  0.00     0.074 A 
ATOM     45  C   UNL A   1      45.166  29.654  33.564  1.00  0.00     0.029 A 
ATOM     46  N   UNL A   1      44.203  28.474  31.943  1.00  0.00    -0.354 N 
ATOM     47  N   UNL A   1      44.047  26.299  29.952  1.00  0.00    -0.248 NA
ATOM     48  C   UNL A   1      45.069  24.554  28.783  1.00  0.00     0.031 C 
ATOM     49  C   UNL A   1      46.042  28.634  33.176  1.00  0.00     0.029 A 
ATOM     50  C   UNL A   1      45.437  27.892  32.172  1.00  0.00     0.049 A 
ATOM     51  H   UNL A   1      43.548  28.163  31.277  1.00  0.00     0.167 HD
ATOM     52  C   UNL A   1      45.315  26.080  30.479  1.00  0.00     0.074 A 
ATOM     53  C   UNL A   1      45.882  24.966  29.746  1.00  0.00     0.031 C 
ATOM     54  C   UNL A   1      45.960  26.750  31.467  1.00  0.00     0.034 A 
BRANCH  41  55
ATOM     55  C   UNL A   1      42.811  31.546  33.779  1.00  0.00     0.023 A 
ATOM     56  C   UNL A   1      43.206  32.830  33.349  1.00  0.00     0.012 A 
ATOM     57  C   UNL A   1      42.345  31.371  35.097  1.00  0.00     0.148 A 
ATOM     58  C   UNL A   1      43.168  33.914  34.224  1.00  0.00     0.002 A 
ATOM     59  C   UNL A   1      42.272  32.465  35.951  1.00  0.00     0.091 A 
ATOM     60  F   UNL A   1      41.999  30.139  35.494  1.00  0.00    -0.205 F 
ATOM     61  C   UNL A   1      42.692  33.734  35.521  1.00  0.00     0.022 A 
BRANCH  59  62
ATOM     62  S   UNL A   1      41.609  32.346  37.616  1.00  0.00     0.127 S 
ATOM     63  O   UNL A   1      42.468  31.320  38.204  1.00  0.00    -0.237 OA
ATOM     64  O   UNL A   1      41.831  33.697  38.135  1.00  0.00    -0.237 OA
ATOM     65  O   UNL A   1      40.208  31.980  37.464  1.00  0.00    -0.744 OA
ENDBRANCH  59  62
ENDBRANCH  41  55
BRANCH  42  66
ATOM     66  C   UNL A   1      42.707  24.089  27.087  1.00  0.00     0.023 A 
ATOM     67  C   UNL A   1      43.381  24.298  25.869  1.00  0.00     0.012 A 
ATOM     68  C   UNL A   1      42.085  22.848  27.325  1.00  0.00     0.148 A 
ATOM     69  C   UNL A   1      43.414  23.298  24.896  1.00  0.00     0.002 A 
ATOM     70  C   UNL A   1      42.169  21.837  26.374  1.00  0.00     0.091 A 
ATOM     71  F   UNL A   1      41.431  22.675  28.482  1.00  0.00    -0.205 F 
ATOM     72  C   UNL A   1      42.821  22.065  25.152  1.00  0.00     0.022 A 
BRANCH  70  73
ATOM     73  S   UNL A   1      41.549  20.178  26.679  1.00  0.00     0.127 S 
ATOM     74  O   UNL A   1      41.914  19.492  25.444  1.00  0.00    -0.237 OA
ATOM     75  O   UNL A   1      42.320  19.778  27.858  1.00  0.00    -0.237 OA
ATOM     76  O   UNL A   1      40.122  20.334  26.924  1.00  0.00    -0.744 OA
ENDBRANCH  70  73
ENDBRANCH  42  66
BRANCH  54  77
ATOM     77  C   UNL A   1      47.342  26.282  31.834  1.00  0.00     0.023 A 
ATOM     78  C   UNL A   1      48.456  26.780  31.131  1.00  0.00     0.012 A 
ATOM     79  C   UNL A   1      47.541  25.412  32.924  1.00  0.00     0.148 A 
ATOM     80  C   UNL A   1      49.747  26.397  31.490  1.00  0.00     0.002 A 
ATOM     81  C   UNL A   1      48.834  25.072  33.304  1.00  0.00     0.091 A 
ATOM     82  F   UNL A   1      46.466  24.933  33.567  1.00  0.00    -0.205 F 
ATOM     83  C   UNL A   1      49.938  25.554  32.582  1.00  0.00     0.022 A 
BRANCH  81  84
ATOM     84  S   UNL A   1      49.173  24.067  34.754  1.00  0.00     0.127 S 
ATOM     85  O   UNL A   1      48.523  22.805  34.402  1.00  0.00    -0.237 OA
ATOM     86  O   UNL A   1      50.635  24.017  34.766  1.00  0.00    -0.237 OA
ATOM     87  O   UNL A   1      48.587  24.782  35.880  1.00  0.00    -0.744 OA
ENDBRANCH  81  84
ENDBRANCH  54  77
ENDBRANCH  28  29
ENDBRANCH  21  23
ENDBRANCH  20  21
ENDBRANCH   1  20
TORSDOF 18
ENDMDL
