MODEL 1
REMARK VINA RESULT:     -13.5      0.000      0.000
REMARK SMILES Cc1ccc(-c2cc(C(=O)OCCOC(=O)c3ccc(-c4c5nc(c(-c6cccc(S(=O)(=O)[O-])c6F)c6ccc([nH]6)c(-c6cccc(S(=O)(=O)[O-])c6F)c6nc(c(-c7cccc(S(=O)(=O)[O-])c7F)c7ccc4[nH]7)C=C6)C=C5)cc3)c3c(-c4cccc([N+](=O)[O-])c4)[nH]nc3n2)cc1
REMARK SMILES IDX 13 1 12 2 11 3 9 4 10 5 8 6 6 7 7 8 94 9 93 10 80 11 92 12
REMARK SMILES IDX 81 13 91 14 5 16 1 17 2 18 3 19 96 20 4 21 95 22 82 23 83 24
REMARK SMILES IDX 90 25 84 26 86 27 85 28 87 29 88 30 89 31 14 32 15 33 16 34
REMARK SMILES IDX 17 35 18 36 79 37 19 38 78 39 20 40 21 41 22 42 72 43 23 44
REMARK SMILES IDX 77 45 71 46 73 47 24 48 76 49 70 50 69 51 25 53 57 54 37 55
REMARK SMILES IDX 56 56 38 57 41 58 55 59 74 60 39 61 40 62 54 64 75 65 42 66
REMARK SMILES IDX 26 67 27 68 35 69 28 70 30 71 36 72 29 73 31 74 32 75 33 76
REMARK SMILES IDX 34 77 58 78 59 79 67 80 60 81 62 82 68 83 61 84 63 85 64 86
REMARK SMILES IDX 65 87 66 88 43 89 44 90 52 91 45 92 47 93 53 94 46 95 48 96
REMARK SMILES IDX 49 97 50 98 51 99
REMARK H PARENT 91 15 73 52 41 63
REMARK Flexibility Score: inf
ROOT
ATOM      1  C   UNL A   1      38.163  21.867  25.544  1.00  0.00     0.275 C 
ENDROOT
BRANCH   1   2
ATOM      2  C   UNL A   1      37.008  21.812  24.524  1.00  0.00     0.275 C 
BRANCH   2   3
ATOM      3  O   UNL A   1      35.741  22.459  24.816  1.00  0.00    -0.458 OA
BRANCH   3   4
ATOM      4  C   UNL A   1      35.025  23.256  23.976  1.00  0.00     0.339 C 
ATOM      5  O   UNL A   1      35.225  23.408  22.787  1.00  0.00    -0.246 OA
BRANCH   4   6
ATOM      6  C   UNL A   1      33.806  23.684  24.702  1.00  0.00     0.075 A 
ATOM      7  C   UNL A   1      32.832  25.699  25.798  1.00  0.00     0.074 A 
ATOM      8  C   UNL A   1      33.732  25.090  24.905  1.00  0.00     0.045 A 
ATOM      9  N   UNL A   1      31.955  25.039  26.574  1.00  0.00    -0.226 NA
ATOM     10  C   UNL A   1      31.902  23.710  26.336  1.00  0.00     0.182 A 
ATOM     11  C   UNL A   1      32.789  22.981  25.421  1.00  0.00     0.061 A 
ATOM     12  N   UNL A   1      31.062  22.913  26.977  1.00  0.00    -0.154 NA
ATOM     13  C   UNL A   1      32.252  21.668  25.431  1.00  0.00     0.076 A 
ATOM     14  N   UNL A   1      31.139  21.806  26.256  1.00  0.00    -0.275 N 
ATOM     15  H   UNL A   1      30.442  21.113  26.301  1.00  0.00     0.190 HD
BRANCH   7  16
ATOM     16  C   UNL A   1      32.982  27.123  26.117  1.00  0.00     0.000 A 
ATOM     17  C   UNL A   1      33.411  31.133  27.658  1.00  0.00     0.044 C 
ATOM     18  C   UNL A   1      33.255  29.768  27.057  1.00  0.00    -0.051 A 
ATOM     19  C   UNL A   1      32.042  29.090  27.202  1.00  0.00     0.004 A 
ATOM     20  C   UNL A   1      34.310  29.143  26.382  1.00  0.00     0.004 A 
ATOM     21  C   UNL A   1      31.907  27.787  26.728  1.00  0.00     0.010 A 
ATOM     22  C   UNL A   1      34.177  27.829  25.914  1.00  0.00     0.010 A 
ENDBRANCH   7  16
BRANCH  13  23
ATOM     23  C   UNL A   1      32.320  20.357  24.707  1.00  0.00     0.007 A 
ATOM     24  C   UNL A   1      32.135  20.339  23.291  1.00  0.00     0.011 A 
ATOM     25  C   UNL A   1      32.555  19.124  25.301  1.00  0.00     0.096 A 
ATOM     26  C   UNL A   1      32.295  19.199  22.490  1.00  0.00     0.008 A 
ATOM     27  C   UNL A   1      32.790  17.987  24.480  1.00  0.00     0.270 A 
ATOM     28  C   UNL A   1      32.677  18.016  23.085  1.00  0.00     0.085 A 
BRANCH  27  29
ATOM     29  N   UNL A   1      33.273  16.740  25.069  1.00  0.00     0.062 N 
ATOM     30  O   UNL A   1      34.386  16.328  24.694  1.00  0.00    -0.258 OA
ATOM     31  O   UNL A   1      32.508  16.131  25.831  1.00  0.00    -0.258 OA
ENDBRANCH  27  29
ENDBRANCH  13  23
ENDBRANCH   4   6
ENDBRANCH   3   4
ENDBRANCH   2   3
ENDBRANCH   1   2
BRANCH   1  32
ATOM     32  O   UNL A   1      38.491  23.138  26.119  1.00  0.00    -0.458 OA
BRANCH  32  33
ATOM     33  C   UNL A   1      39.767  23.225  26.554  1.00  0.00     0.338 C 
ATOM     34  O   UNL A   1      40.613  22.399  26.360  1.00  0.00    -0.246 OA
BRANCH  33  35
ATOM     35  C   UNL A   1      39.967  24.556  27.139  1.00  0.00     0.060 A 
ATOM     36  C   UNL A   1      40.467  25.600  26.343  1.00  0.00     0.016 A 
ATOM     37  C   UNL A   1      39.395  24.779  28.384  1.00  0.00     0.016 A 
ATOM     38  C   UNL A   1      40.394  26.901  26.789  1.00  0.00     0.010 A 
ATOM     39  C   UNL A   1      39.245  26.062  28.793  1.00  0.00     0.010 A 
ATOM     40  C   UNL A   1      39.846  27.081  28.040  1.00  0.00    -0.014 A 
BRANCH  40  41
ATOM     41  C   UNL A   1      40.097  28.271  28.805  1.00  0.00     0.031 A 
ATOM     42  C   UNL A   1      39.143  29.374  28.665  1.00  0.00     0.074 A 
ATOM     43  C   UNL A   1      41.064  28.020  29.722  1.00  0.00     0.049 A 
ATOM     44  N   UNL A   1      39.428  30.603  28.896  1.00  0.00    -0.248 NA
ATOM     45  C   UNL A   1      37.782  29.203  28.132  1.00  0.00     0.031 C 
ATOM     46  C   UNL A   1      41.265  28.535  31.054  1.00  0.00     0.029 A 
ATOM     47  N   UNL A   1      42.126  27.104  29.582  1.00  0.00    -0.354 N 
ATOM     48  C   UNL A   1      38.208  31.227  29.054  1.00  0.00     0.074 A 
ATOM     49  C   UNL A   1      37.267  30.424  28.317  1.00  0.00     0.031 C 
ATOM     50  C   UNL A   1      42.493  28.168  31.480  1.00  0.00     0.029 A 
ATOM     51  C   UNL A   1      43.192  27.569  30.349  1.00  0.00     0.049 A 
ATOM     52  H   UNL A   1      42.117  26.284  29.039  1.00  0.00     0.167 HD
ATOM     53  C   UNL A   1      38.076  32.101  30.094  1.00  0.00     0.034 A 
ATOM     54  C   UNL A   1      44.370  28.012  29.798  1.00  0.00     0.034 A 
ATOM     55  C   UNL A   1      39.353  32.159  30.833  1.00  0.00     0.049 A 
ATOM     56  C   UNL A   1      44.499  29.513  29.992  1.00  0.00     0.074 A 
ATOM     57  C   UNL A   1      39.771  31.519  31.990  1.00  0.00     0.029 A 
ATOM     58  N   UNL A   1      40.506  32.612  30.203  1.00  0.00    -0.354 N 
ATOM     59  N   UNL A   1      43.511  30.278  30.354  1.00  0.00    -0.248 NA
ATOM     60  C   UNL A   1      45.711  30.266  29.696  1.00  0.00     0.031 C 
ATOM     61  C   UNL A   1      41.189  31.568  32.036  1.00  0.00     0.029 A 
ATOM     62  C   UNL A   1      41.640  32.218  30.902  1.00  0.00     0.049 A 
ATOM     63  H   UNL A   1      40.518  33.141  29.372  1.00  0.00     0.167 HD
ATOM     64  C   UNL A   1      43.872  31.588  30.245  1.00  0.00     0.074 A 
ATOM     65  C   UNL A   1      45.282  31.526  29.884  1.00  0.00     0.031 C 
ATOM     66  C   UNL A   1      42.964  32.597  30.415  1.00  0.00     0.034 A 
BRANCH  53  67
ATOM     67  C   UNL A   1      36.769  32.582  30.710  1.00  0.00     0.023 A 
ATOM     68  C   UNL A   1      36.421  32.011  31.958  1.00  0.00     0.012 A 
ATOM     69  C   UNL A   1      35.856  33.531  30.190  1.00  0.00     0.148 A 
ATOM     70  C   UNL A   1      35.228  32.297  32.625  1.00  0.00     0.002 A 
ATOM     71  C   UNL A   1      34.647  33.807  30.849  1.00  0.00     0.091 A 
ATOM     72  F   UNL A   1      36.165  34.217  29.086  1.00  0.00    -0.205 F 
ATOM     73  C   UNL A   1      34.332  33.186  32.063  1.00  0.00     0.022 A 
BRANCH  71  74
ATOM     74  S   UNL A   1      33.403  34.943  30.205  1.00  0.00     0.127 S 
ATOM     75  O   UNL A   1      34.212  36.105  29.829  1.00  0.00    -0.237 OA
ATOM     76  O   UNL A   1      32.853  34.198  29.073  1.00  0.00    -0.237 OA
ATOM     77  O   UNL A   1      32.471  35.193  31.298  1.00  0.00    -0.744 OA
ENDBRANCH  71  74
ENDBRANCH  53  67
BRANCH  54  78
ATOM     78  C   UNL A   1      44.732  27.377  28.479  1.00  0.00     0.023 A 
ATOM     79  C   UNL A   1      44.406  28.100  27.309  1.00  0.00     0.012 A 
ATOM     80  C   UNL A   1      45.831  26.505  28.461  1.00  0.00     0.148 A 
ATOM     81  C   UNL A   1      45.372  28.248  26.320  1.00  0.00     0.002 A 
ATOM     82  C   UNL A   1      46.801  26.675  27.501  1.00  0.00     0.091 A 
ATOM     83  F   UNL A   1      45.969  25.575  29.412  1.00  0.00    -0.205 F 
ATOM     84  C   UNL A   1      46.599  27.607  26.484  1.00  0.00     0.022 A 
BRANCH  82  85
ATOM     85  S   UNL A   1      48.377  25.846  27.722  1.00  0.00     0.127 S 
ATOM     86  O   UNL A   1      47.981  24.442  27.661  1.00  0.00    -0.237 OA
ATOM     87  O   UNL A   1      49.157  26.295  26.571  1.00  0.00    -0.237 OA
ATOM     88  O   UNL A   1      48.863  26.348  28.995  1.00  0.00    -0.744 OA
ENDBRANCH  82  85
ENDBRANCH  54  78
BRANCH  66  89
ATOM     89  C   UNL A   1      43.252  34.060  30.196  1.00  0.00     0.023 A 
ATOM     90  C   UNL A   1      43.525  34.948  31.249  1.00  0.00     0.012 A 
ATOM     91  C   UNL A   1      43.342  34.582  28.879  1.00  0.00     0.148 A 
ATOM     92  C   UNL A   1      43.733  36.310  31.025  1.00  0.00     0.002 A 
ATOM     93  C   UNL A   1      43.703  35.901  28.656  1.00  0.00     0.091 A 
ATOM     94  F   UNL A   1      43.037  33.815  27.823  1.00  0.00    -0.205 F 
ATOM     95  C   UNL A   1      43.840  36.784  29.725  1.00  0.00     0.022 A 
BRANCH  93  96
ATOM     96  S   UNL A   1      44.139  36.474  27.012  1.00  0.00     0.127 S 
ATOM     97  O   UNL A   1      42.868  37.014  26.537  1.00  0.00    -0.237 OA
ATOM     98  O   UNL A   1      45.164  37.481  27.299  1.00  0.00    -0.237 OA
ATOM     99  O   UNL A   1      44.639  35.300  26.309  1.00  0.00    -0.744 OA
ENDBRANCH  93  96
ENDBRANCH  66  89
ENDBRANCH  40  41
ENDBRANCH  33  35
ENDBRANCH  32  33
ENDBRANCH   1  32
TORSDOF 17
ENDMDL
MODEL 2
REMARK VINA RESULT:     -13.5      4.276     10.019
REMARK SMILES Cc1ccc(-c2cc(C(=O)OCCOC(=O)c3ccc(-c4c5nc(c(-c6cccc(S(=O)(=O)[O-])c6F)c6ccc([nH]6)c(-c6cccc(S(=O)(=O)[O-])c6F)c6nc(c(-c7cccc(S(=O)(=O)[O-])c7F)c7ccc4[nH]7)C=C6)C=C5)cc3)c3c(-c4cccc([N+](=O)[O-])c4)[nH]nc3n2)cc1
REMARK SMILES IDX 13 1 12 2 11 3 9 4 10 5 8 6 6 7 7 8 94 9 93 10 80 11 92 12
REMARK SMILES IDX 81 13 91 14 5 16 1 17 2 18 3 19 96 20 4 21 95 22 82 23 83 24
REMARK SMILES IDX 90 25 84 26 86 27 85 28 87 29 88 30 89 31 14 32 15 33 16 34
REMARK SMILES IDX 17 35 18 36 79 37 19 38 78 39 20 40 21 41 22 42 72 43 23 44
REMARK SMILES IDX 77 45 71 46 73 47 24 48 76 49 70 50 69 51 25 53 57 54 37 55
REMARK SMILES IDX 56 56 38 57 41 58 55 59 74 60 39 61 40 62 54 64 75 65 42 66
REMARK SMILES IDX 26 67 27 68 35 69 28 70 30 71 36 72 29 73 31 74 32 75 33 76
REMARK SMILES IDX 34 77 58 78 59 79 67 80 60 81 62 82 68 83 61 84 63 85 64 86
REMARK SMILES IDX 65 87 66 88 43 89 44 90 52 91 45 92 47 93 53 94 46 95 48 96
REMARK SMILES IDX 49 97 50 98 51 99
REMARK H PARENT 91 15 73 52 41 63
REMARK Flexibility Score: inf
ROOT
ATOM      1  C   UNL A   1      33.197  30.362  26.986  1.00  0.00     0.275 C 
ENDROOT
BRANCH   1   2
ATOM      2  C   UNL A   1      32.156  29.236  26.817  1.00  0.00     0.275 C 
BRANCH   2   3
ATOM      3  O   UNL A   1      32.586  27.882  26.516  1.00  0.00    -0.458 OA
BRANCH   3   4
ATOM      4  C   UNL A   1      31.783  26.828  26.198  1.00  0.00     0.339 C 
ATOM      5  O   UNL A   1      30.682  26.601  26.659  1.00  0.00    -0.246 OA
BRANCH   4   6
ATOM      6  C   UNL A   1      32.365  26.172  25.003  1.00  0.00     0.075 A 
ATOM      7  C   UNL A   1      34.193  24.597  24.379  1.00  0.00     0.074 A 
ATOM      8  C   UNL A   1      33.311  25.158  25.320  1.00  0.00     0.045 A 
ATOM      9  N   UNL A   1      34.264  24.956  23.085  1.00  0.00    -0.226 NA
ATOM     10  C   UNL A   1      33.309  25.832  22.703  1.00  0.00     0.182 A 
ATOM     11  C   UNL A   1      32.340  26.468  23.604  1.00  0.00     0.061 A 
ATOM     12  N   UNL A   1      33.203  26.260  21.456  1.00  0.00    -0.154 NA
ATOM     13  C   UNL A   1      31.495  27.183  22.717  1.00  0.00     0.076 A 
ATOM     14  N   UNL A   1      32.013  26.839  21.471  1.00  0.00    -0.275 N 
ATOM     15  H   UNL A   1      31.518  27.019  20.639  1.00  0.00     0.190 HD
BRANCH   7  16
ATOM     16  C   UNL A   1      35.286  23.733  24.835  1.00  0.00     0.000 A 
ATOM     17  C   UNL A   1      38.673  21.161  25.577  1.00  0.00     0.044 C 
ATOM     18  C   UNL A   1      37.478  22.045  25.388  1.00  0.00    -0.051 A 
ATOM     19  C   UNL A   1      36.354  21.547  24.725  1.00  0.00     0.004 A 
ATOM     20  C   UNL A   1      37.475  23.374  25.832  1.00  0.00     0.004 A 
ATOM     21  C   UNL A   1      35.269  22.380  24.461  1.00  0.00     0.010 A 
ATOM     22  C   UNL A   1      36.387  24.213  25.559  1.00  0.00     0.010 A 
ENDBRANCH   7  16
BRANCH  13  23
ATOM     23  C   UNL A   1      30.186  27.910  22.657  1.00  0.00     0.007 A 
ATOM     24  C   UNL A   1      29.059  27.361  23.342  1.00  0.00     0.011 A 
ATOM     25  C   UNL A   1      29.960  29.103  21.982  1.00  0.00     0.096 A 
ATOM     26  C   UNL A   1      27.820  28.006  23.461  1.00  0.00     0.008 A 
ATOM     27  C   UNL A   1      28.729  29.788  22.167  1.00  0.00     0.270 A 
ATOM     28  C   UNL A   1      27.666  29.260  22.909  1.00  0.00     0.085 A 
BRANCH  27  29
ATOM     29  N   UNL A   1      28.559  31.149  21.665  1.00  0.00     0.062 N 
ATOM     30  O   UNL A   1      27.903  31.290  20.616  1.00  0.00    -0.258 OA
ATOM     31  O   UNL A   1      29.151  32.059  22.262  1.00  0.00    -0.258 OA
ENDBRANCH  27  29
ENDBRANCH  13  23
ENDBRANCH   4   6
ENDBRANCH   3   4
ENDBRANCH   2   3
ENDBRANCH   1   2
BRANCH   1  32
ATOM     32  O   UNL A   1      34.565  29.987  27.180  1.00  0.00    -0.458 OA
BRANCH  32  33
ATOM     33  C   UNL A   1      35.232  30.787  28.042  1.00  0.00     0.338 C 
ATOM     34  O   UNL A   1      34.774  31.768  28.556  1.00  0.00    -0.246 OA
BRANCH  33  35
ATOM     35  C   UNL A   1      36.518  30.155  28.360  1.00  0.00     0.060 A 
ATOM     36  C   UNL A   1      36.667  29.441  29.560  1.00  0.00     0.016 A 
ATOM     37  C   UNL A   1      37.440  30.073  27.326  1.00  0.00     0.016 A 
ATOM     38  C   UNL A   1      37.755  28.617  29.740  1.00  0.00     0.010 A 
ATOM     39  C   UNL A   1      38.470  29.202  27.462  1.00  0.00     0.010 A 
ATOM     40  C   UNL A   1      38.664  28.582  28.706  1.00  0.00    -0.014 A 
BRANCH  40  41
ATOM     41  C   UNL A   1      40.016  28.144  28.909  1.00  0.00     0.031 A 
ATOM     42  C   UNL A   1      40.309  26.728  28.670  1.00  0.00     0.074 A 
ATOM     43  C   UNL A   1      40.824  29.225  29.043  1.00  0.00     0.049 A 
ATOM     44  N   UNL A   1      41.288  26.097  29.207  1.00  0.00    -0.248 NA
ATOM     45  C   UNL A   1      39.439  25.847  27.875  1.00  0.00     0.031 C 
ATOM     46  C   UNL A   1      42.196  29.440  28.652  1.00  0.00     0.029 A 
ATOM     47  N   UNL A   1      40.459  30.474  29.585  1.00  0.00    -0.354 N 
ATOM     48  C   UNL A   1      41.452  24.969  28.429  1.00  0.00     0.074 A 
ATOM     49  C   UNL A   1      40.165  24.724  27.832  1.00  0.00     0.031 C 
ATOM     50  C   UNL A   1      42.630  30.591  29.209  1.00  0.00     0.029 A 
ATOM     51  C   UNL A   1      41.602  31.050  30.136  1.00  0.00     0.049 A 
ATOM     52  H   UNL A   1      39.558  30.870  29.576  1.00  0.00     0.167 HD
ATOM     53  C   UNL A   1      42.725  24.624  28.079  1.00  0.00     0.034 A 
ATOM     54  C   UNL A   1      41.759  31.248  31.487  1.00  0.00     0.034 A 
ATOM     55  C   UNL A   1      43.663  25.608  28.656  1.00  0.00     0.049 A 
ATOM     56  C   UNL A   1      42.829  30.314  32.025  1.00  0.00     0.074 A 
ATOM     57  C   UNL A   1      44.275  26.723  28.102  1.00  0.00     0.029 A 
ATOM     58  N   UNL A   1      43.759  25.757  30.035  1.00  0.00    -0.354 N 
ATOM     59  N   UNL A   1      43.294  29.296  31.362  1.00  0.00    -0.248 NA
ATOM     60  C   UNL A   1      43.374  30.399  33.374  1.00  0.00     0.031 C 
ATOM     61  C   UNL A   1      44.718  27.557  29.163  1.00  0.00     0.029 A 
ATOM     62  C   UNL A   1      44.360  26.966  30.362  1.00  0.00     0.049 A 
ATOM     63  H   UNL A   1      43.443  25.095  30.691  1.00  0.00     0.167 HD
ATOM     64  C   UNL A   1      44.083  28.533  32.172  1.00  0.00     0.074 A 
ATOM     65  C   UNL A   1      44.147  29.301  33.408  1.00  0.00     0.031 C 
ATOM     66  C   UNL A   1      44.567  27.321  31.763  1.00  0.00     0.034 A 
BRANCH  53  67
ATOM     67  C   UNL A   1      43.129  23.706  26.933  1.00  0.00     0.023 A 
ATOM     68  C   UNL A   1      43.721  24.334  25.811  1.00  0.00     0.012 A 
ATOM     69  C   UNL A   1      42.989  22.300  26.849  1.00  0.00     0.148 A 
ATOM     70  C   UNL A   1      44.091  23.645  24.654  1.00  0.00     0.002 A 
ATOM     71  C   UNL A   1      43.341  21.606  25.680  1.00  0.00     0.091 A 
ATOM     72  F   UNL A   1      42.564  21.609  27.911  1.00  0.00    -0.205 F 
ATOM     73  C   UNL A   1      43.888  22.280  24.582  1.00  0.00     0.022 A 
BRANCH  71  74
ATOM     74  S   UNL A   1      43.115  19.829  25.474  1.00  0.00     0.127 S 
ATOM     75  O   UNL A   1      43.818  19.573  24.214  1.00  0.00    -0.237 OA
ATOM     76  O   UNL A   1      43.782  19.288  26.658  1.00  0.00    -0.237 OA
ATOM     77  O   UNL A   1      41.677  19.603  25.411  1.00  0.00    -0.744 OA
ENDBRANCH  71  74
ENDBRANCH  53  67
BRANCH  54  78
ATOM     78  C   UNL A   1      40.477  31.463  32.250  1.00  0.00     0.023 A 
ATOM     79  C   UNL A   1      39.945  30.347  32.938  1.00  0.00     0.012 A 
ATOM     80  C   UNL A   1      40.224  32.753  32.740  1.00  0.00     0.148 A 
ATOM     81  C   UNL A   1      39.542  30.503  34.259  1.00  0.00     0.002 A 
ATOM     82  C   UNL A   1      39.857  32.905  34.057  1.00  0.00     0.091 A 
ATOM     83  F   UNL A   1      40.417  33.820  31.959  1.00  0.00    -0.205 F 
ATOM     84  C   UNL A   1      39.600  31.773  34.830  1.00  0.00     0.022 A 
BRANCH  82  85
ATOM     85  S   UNL A   1      39.935  34.544  34.782  1.00  0.00     0.127 S 
ATOM     86  O   UNL A   1      40.091  34.232  36.200  1.00  0.00    -0.237 OA
ATOM     87  O   UNL A   1      41.124  35.128  34.166  1.00  0.00    -0.237 OA
ATOM     88  O   UNL A   1      38.691  35.170  34.370  1.00  0.00    -0.744 OA
ENDBRANCH  82  85
ENDBRANCH  54  78
BRANCH  66  89
ATOM     89  C   UNL A   1      45.343  26.367  32.634  1.00  0.00     0.023 A 
ATOM     90  C   UNL A   1      46.744  26.267  32.593  1.00  0.00     0.012 A 
ATOM     91  C   UNL A   1      44.674  25.580  33.607  1.00  0.00     0.148 A 
ATOM     92  C   UNL A   1      47.435  25.335  33.369  1.00  0.00     0.002 A 
ATOM     93  C   UNL A   1      45.380  24.771  34.482  1.00  0.00     0.091 A 
ATOM     94  F   UNL A   1      43.335  25.573  33.669  1.00  0.00    -0.205 F 
ATOM     95  C   UNL A   1      46.754  24.598  34.328  1.00  0.00     0.022 A 
BRANCH  93  96
ATOM     96  S   UNL A   1      44.581  24.039  35.913  1.00  0.00     0.127 S 
ATOM     97  O   UNL A   1      45.725  23.536  36.669  1.00  0.00    -0.237 OA
ATOM     98  O   UNL A   1      43.910  25.194  36.514  1.00  0.00    -0.237 OA
ATOM     99  O   UNL A   1      43.672  23.033  35.380  1.00  0.00    -0.744 OA
ENDBRANCH  93  96
ENDBRANCH  66  89
ENDBRANCH  40  41
ENDBRANCH  33  35
ENDBRANCH  32  33
ENDBRANCH   1  32
TORSDOF 17
ENDMDL
MODEL 3
REMARK VINA RESULT:     -13.1      4.372      9.720
REMARK SMILES Cc1ccc(-c2cc(C(=O)OCCOC(=O)c3ccc(-c4c5nc(c(-c6cccc(S(=O)(=O)[O-])c6F)c6ccc([nH]6)c(-c6cccc(S(=O)(=O)[O-])c6F)c6nc(c(-c7cccc(S(=O)(=O)[O-])c7F)c7ccc4[nH]7)C=C6)C=C5)cc3)c3c(-c4cccc([N+](=O)[O-])c4)[nH]nc3n2)cc1
REMARK SMILES IDX 13 1 12 2 11 3 9 4 10 5 8 6 6 7 7 8 94 9 93 10 80 11 92 12
REMARK SMILES IDX 81 13 91 14 5 16 1 17 2 18 3 19 96 20 4 21 95 22 82 23 83 24
REMARK SMILES IDX 90 25 84 26 86 27 85 28 87 29 88 30 89 31 14 32 15 33 16 34
REMARK SMILES IDX 17 35 18 36 79 37 19 38 78 39 20 40 21 41 22 42 72 43 23 44
REMARK SMILES IDX 77 45 71 46 73 47 24 48 76 49 70 50 69 51 25 53 57 54 37 55
REMARK SMILES IDX 56 56 38 57 41 58 55 59 74 60 39 61 40 62 54 64 75 65 42 66
REMARK SMILES IDX 26 67 27 68 35 69 28 70 30 71 36 72 29 73 31 74 32 75 33 76
REMARK SMILES IDX 34 77 58 78 59 79 67 80 60 81 62 82 68 83 61 84 63 85 64 86
REMARK SMILES IDX 65 87 66 88 43 89 44 90 52 91 45 92 47 93 53 94 46 95 48 96
REMARK SMILES IDX 49 97 50 98 51 99
REMARK H PARENT 91 15 73 52 41 63
REMARK Flexibility Score: inf
ROOT
ATOM      1  C   UNL A   1      33.577  28.643  26.907  1.00  0.00     0.275 C 
ENDROOT
BRANCH   1   2
ATOM      2  C   UNL A   1      32.219  27.984  27.222  1.00  0.00     0.275 C 
BRANCH   2   3
ATOM      3  O   UNL A   1      31.450  27.349  26.166  1.00  0.00    -0.458 OA
BRANCH   3   4
ATOM      4  C   UNL A   1      31.260  26.011  25.995  1.00  0.00     0.339 C 
ATOM      5  O   UNL A   1      30.486  25.311  26.617  1.00  0.00    -0.246 OA
BRANCH   4   6
ATOM      6  C   UNL A   1      31.954  25.621  24.745  1.00  0.00     0.075 A 
ATOM      7  C   UNL A   1      33.804  24.149  23.955  1.00  0.00     0.074 A 
ATOM      8  C   UNL A   1      32.838  24.518  24.908  1.00  0.00     0.045 A 
ATOM      9  N   UNL A   1      34.023  24.794  22.795  1.00  0.00    -0.226 NA
ATOM     10  C   UNL A   1      33.135  25.778  22.536  1.00  0.00     0.182 A 
ATOM     11  C   UNL A   1      32.087  26.233  23.459  1.00  0.00     0.061 A 
ATOM     12  N   UNL A   1      33.174  26.486  21.419  1.00  0.00    -0.154 NA
ATOM     13  C   UNL A   1      31.360  27.172  22.683  1.00  0.00     0.076 A 
ATOM     14  N   UNL A   1      32.003  27.102  21.450  1.00  0.00    -0.275 N 
ATOM     15  H   UNL A   1      31.604  27.491  20.638  1.00  0.00     0.190 HD
BRANCH   7  16
ATOM     16  C   UNL A   1      34.821  23.153  24.304  1.00  0.00     0.000 A 
ATOM     17  C   UNL A   1      37.498  19.830  24.958  1.00  0.00     0.044 C 
ATOM     18  C   UNL A   1      36.604  21.020  24.782  1.00  0.00    -0.051 A 
ATOM     19  C   UNL A   1      35.314  20.994  25.317  1.00  0.00     0.004 A 
ATOM     20  C   UNL A   1      37.022  22.146  24.061  1.00  0.00     0.004 A 
ATOM     21  C   UNL A   1      34.439  22.053  25.088  1.00  0.00     0.010 A 
ATOM     22  C   UNL A   1      36.138  23.206  23.823  1.00  0.00     0.010 A 
ENDBRANCH   7  16
BRANCH  13  23
ATOM     23  C   UNL A   1      30.082  27.953  22.664  1.00  0.00     0.007 A 
ATOM     24  C   UNL A   1      28.938  27.426  23.340  1.00  0.00     0.011 A 
ATOM     25  C   UNL A   1      29.899  29.179  22.037  1.00  0.00     0.096 A 
ATOM     26  C   UNL A   1      27.728  28.116  23.496  1.00  0.00     0.008 A 
ATOM     27  C   UNL A   1      28.698  29.906  22.260  1.00  0.00     0.270 A 
ATOM     28  C   UNL A   1      27.621  29.394  22.993  1.00  0.00     0.085 A 
BRANCH  27  29
ATOM     29  N   UNL A   1      28.580  31.291  21.811  1.00  0.00     0.062 N 
ATOM     30  O   UNL A   1      29.018  32.174  22.571  1.00  0.00    -0.258 OA
ATOM     31  O   UNL A   1      27.976  31.501  20.749  1.00  0.00    -0.258 OA
ENDBRANCH  27  29
ENDBRANCH  13  23
ENDBRANCH   4   6
ENDBRANCH   3   4
ENDBRANCH   2   3
ENDBRANCH   1   2
BRANCH   1  32
ATOM     32  O   UNL A   1      34.440  28.960  28.005  1.00  0.00    -0.458 OA
BRANCH  32  33
ATOM     33  C   UNL A   1      35.266  30.002  27.764  1.00  0.00     0.338 C 
ATOM     34  O   UNL A   1      34.905  31.128  27.569  1.00  0.00    -0.246 OA
BRANCH  33  35
ATOM     35  C   UNL A   1      36.650  29.551  27.955  1.00  0.00     0.060 A 
ATOM     36  C   UNL A   1      37.592  29.736  26.931  1.00  0.00     0.016 A 
ATOM     37  C   UNL A   1      37.016  29.205  29.249  1.00  0.00     0.016 A 
ATOM     38  C   UNL A   1      38.934  29.581  27.194  1.00  0.00     0.010 A 
ATOM     39  C   UNL A   1      38.338  29.131  29.536  1.00  0.00     0.010 A 
ATOM     40  C   UNL A   1      39.259  29.210  28.480  1.00  0.00    -0.014 A 
BRANCH  40  41
ATOM     41  C   UNL A   1      40.520  28.596  28.790  1.00  0.00     0.031 A 
ATOM     42  C   UNL A   1      40.594  27.134  28.713  1.00  0.00     0.074 A 
ATOM     43  C   UNL A   1      41.482  29.549  28.848  1.00  0.00     0.049 A 
ATOM     44  N   UNL A   1      41.446  26.424  29.357  1.00  0.00    -0.248 NA
ATOM     45  C   UNL A   1      39.620  26.314  27.974  1.00  0.00     0.031 C 
ATOM     46  C   UNL A   1      42.882  29.508  28.500  1.00  0.00     0.029 A 
ATOM     47  N   UNL A   1      41.301  30.891  29.241  1.00  0.00    -0.354 N 
ATOM     48  C   UNL A   1      41.454  25.206  28.708  1.00  0.00     0.074 A 
ATOM     49  C   UNL A   1      40.163  25.096  28.082  1.00  0.00     0.031 C 
ATOM     50  C   UNL A   1      43.474  30.634  28.955  1.00  0.00     0.029 A 
ATOM     51  C   UNL A   1      42.504  31.342  29.781  1.00  0.00     0.049 A 
ATOM     52  H   UNL A   1      40.474  31.416  29.149  1.00  0.00     0.167 HD
ATOM     53  C   UNL A   1      42.667  24.635  28.455  1.00  0.00     0.034 A 
ATOM     54  C   UNL A   1      42.650  31.661  31.110  1.00  0.00     0.034 A 
ATOM     55  C   UNL A   1      43.730  25.521  28.970  1.00  0.00     0.049 A 
ATOM     56  C   UNL A   1      43.545  30.639  31.791  1.00  0.00     0.074 A 
ATOM     57  C   UNL A   1      44.525  26.462  28.333  1.00  0.00     0.029 A 
ATOM     58  N   UNL A   1      43.807  25.804  30.329  1.00  0.00    -0.354 N 
ATOM     59  N   UNL A   1      43.864  29.496  31.259  1.00  0.00    -0.248 NA
ATOM     60  C   UNL A   1      44.055  30.788  33.147  1.00  0.00     0.031 C 
ATOM     61  C   UNL A   1      45.062  27.330  29.321  1.00  0.00     0.029 A 
ATOM     62  C   UNL A   1      44.581  26.935  30.556  1.00  0.00     0.049 A 
ATOM     63  H   UNL A   1      43.373  25.274  31.035  1.00  0.00     0.167 HD
ATOM     64  C   UNL A   1      44.499  28.715  32.179  1.00  0.00     0.074 A 
ATOM     65  C   UNL A   1      44.646  29.595  33.331  1.00  0.00     0.031 C 
ATOM     66  C   UNL A   1      44.799  27.406  31.921  1.00  0.00     0.034 A 
BRANCH  53  67
ATOM     67  C   UNL A   1      42.956  23.545  27.430  1.00  0.00     0.023 A 
ATOM     68  C   UNL A   1      43.823  23.903  26.370  1.00  0.00     0.012 A 
ATOM     69  C   UNL A   1      42.466  22.217  27.406  1.00  0.00     0.148 A 
ATOM     70  C   UNL A   1      44.140  23.042  25.317  1.00  0.00     0.002 A 
ATOM     71  C   UNL A   1      42.767  21.355  26.339  1.00  0.00     0.091 A 
ATOM     72  F   UNL A   1      41.750  21.753  28.434  1.00  0.00    -0.205 F 
ATOM     73  C   UNL A   1      43.600  21.770  25.293  1.00  0.00     0.022 A 
BRANCH  71  74
ATOM     74  S   UNL A   1      42.115  19.680  26.202  1.00  0.00     0.127 S 
ATOM     75  O   UNL A   1      40.669  19.915  26.156  1.00  0.00    -0.237 OA
ATOM     76  O   UNL A   1      42.692  19.220  24.939  1.00  0.00    -0.237 OA
ATOM     77  O   UNL A   1      42.565  18.966  27.390  1.00  0.00    -0.744 OA
ENDBRANCH  71  74
ENDBRANCH  53  67
BRANCH  54  78
ATOM     78  C   UNL A   1      41.395  32.152  31.786  1.00  0.00     0.023 A 
ATOM     79  C   UNL A   1      40.674  33.178  31.134  1.00  0.00     0.012 A 
ATOM     80  C   UNL A   1      40.706  31.246  32.606  1.00  0.00     0.148 A 
ATOM     81  C   UNL A   1      39.299  33.042  30.985  1.00  0.00     0.002 A 
ATOM     82  C   UNL A   1      39.350  31.090  32.433  1.00  0.00     0.091 A 
ATOM     83  F   UNL A   1      41.372  30.488  33.483  1.00  0.00    -0.205 F 
ATOM     84  C   UNL A   1      38.671  31.938  31.559  1.00  0.00     0.022 A 
BRANCH  82  85
ATOM     85  S   UNL A   1      38.552  29.665  33.176  1.00  0.00     0.127 S 
ATOM     86  O   UNL A   1      39.352  28.567  32.642  1.00  0.00    -0.237 OA
ATOM     87  O   UNL A   1      38.729  29.890  34.609  1.00  0.00    -0.237 OA
ATOM     88  O   UNL A   1      37.172  29.764  32.731  1.00  0.00    -0.744 OA
ENDBRANCH  82  85
ENDBRANCH  54  78
BRANCH  66  89
ATOM     89  C   UNL A   1      45.390  26.446  32.921  1.00  0.00     0.023 A 
ATOM     90  C   UNL A   1      46.775  26.278  33.087  1.00  0.00     0.012 A 
ATOM     91  C   UNL A   1      44.547  25.725  33.807  1.00  0.00     0.148 A 
ATOM     92  C   UNL A   1      47.297  25.340  33.981  1.00  0.00     0.002 A 
ATOM     93  C   UNL A   1      45.076  24.914  34.797  1.00  0.00     0.091 A 
ATOM     94  F   UNL A   1      43.214  25.785  33.672  1.00  0.00    -0.205 F 
ATOM     95  C   UNL A   1      46.447  24.670  34.849  1.00  0.00     0.022 A 
BRANCH  93  96
ATOM     96  S   UNL A   1      44.041  24.271  36.115  1.00  0.00     0.127 S 
ATOM     97  O   UNL A   1      43.170  23.351  35.388  1.00  0.00    -0.237 OA
ATOM     98  O   UNL A   1      45.023  23.624  36.988  1.00  0.00    -0.237 OA
ATOM     99  O   UNL A   1      43.394  25.434  36.706  1.00  0.00    -0.744 OA
ENDBRANCH  93  96
ENDBRANCH  66  89
ENDBRANCH  40  41
ENDBRANCH  33  35
ENDBRANCH  32  33
ENDBRANCH   1  32
TORSDOF 17
ENDMDL
