MODEL 1
REMARK VINA RESULT:     -12.6      0.000      0.000
REMARK SMILES Cc1ccnc(C(=O)c2[nH]c3ccc(C(C)(C)C)cc3c2CC(=O)OCCOC(=O)c2ccc(-c3c4nc(c(-c5cccc(S(=O)(=O)[O-])c5F)c5ccc([nH]5)c(-c5cccc(S(=O)(=O)[O-])c5F)c5nc(c(-c6cccc(S(=O)(=O)[O-])c6F)c6ccc3[nH]6)C=C5)C=C4)cc2)c1
REMARK SMILES IDX 26 1 25 2 23 3 24 4 22 5 21 6 9 7 10 8 11 9 20 11 12 12
REMARK SMILES IDX 19 13 13 14 14 15 7 16 8 17 6 18 1 19 2 20 3 21 94 22 4 23
REMARK SMILES IDX 5 24 15 25 16 26 17 27 18 28 27 29 28 30 29 31 30 32 31 33
REMARK SMILES IDX 32 34 93 35 33 36 92 37 34 38 35 39 36 40 86 41 37 42 91 43
REMARK SMILES IDX 85 44 87 45 38 46 90 47 84 48 83 49 39 51 71 52 51 53 70 54
REMARK SMILES IDX 52 55 55 56 69 57 88 58 53 59 54 60 68 62 89 63 56 64 40 65
REMARK SMILES IDX 41 66 49 67 42 68 44 69 50 70 43 71 45 72 46 73 47 74 48 75
REMARK SMILES IDX 72 76 73 77 81 78 74 79 76 80 82 81 75 82 77 83 78 84 79 85
REMARK SMILES IDX 80 86 57 87 58 88 66 89 59 90 61 91 67 92 60 93 62 94 63 95
REMARK SMILES IDX 64 96 65 97
REMARK H PARENT 10 10 87 50 55 61
REMARK Flexibility Score: inf
ROOT
ATOM      1  C   UNL A   1      36.637  20.739  25.007  1.00  0.00     0.274 C 
ENDROOT
BRANCH   1   2
ATOM      2  O   UNL A   1      36.569  22.091  25.514  1.00  0.00    -0.462 OA
BRANCH   2   3
ATOM      3  C   UNL A   1      35.834  22.970  24.787  1.00  0.00     0.310 C 
ATOM      4  O   UNL A   1      35.575  22.825  23.594  1.00  0.00    -0.252 OA
BRANCH   3   5
ATOM      5  C   UNL A   1      35.202  24.081  25.595  1.00  0.00     0.161 C 
BRANCH   5   6
ATOM      6  C   UNL A   1      33.743  24.005  25.911  1.00  0.00     0.000 A 
ATOM      7  C   UNL A   1      32.985  22.869  26.192  1.00  0.00     0.093 A 
ATOM      8  N   UNL A   1      31.689  23.284  26.374  1.00  0.00    -0.352 N 
ATOM      9  C   UNL A   1      31.548  24.605  26.053  1.00  0.00     0.046 A 
ATOM     10  H   UNL A   1      30.957  22.708  26.692  1.00  0.00     0.167 HD
ATOM     11  C   UNL A   1      32.823  25.111  25.834  1.00  0.00     0.004 A 
ATOM     12  C   UNL A   1      30.395  25.378  25.951  1.00  0.00     0.027 A 
ATOM     13  C   UNL A   1      32.949  26.492  25.552  1.00  0.00     0.015 A 
ATOM     14  C   UNL A   1      30.547  26.733  25.644  1.00  0.00     0.006 A 
ATOM     15  C   UNL A   1      31.806  27.326  25.460  1.00  0.00    -0.042 A 
BRANCH   7  16
ATOM     16  C   UNL A   1      33.295  21.455  26.349  1.00  0.00     0.227 C 
ATOM     17  O   UNL A   1      33.700  21.037  27.433  1.00  0.00    -0.285 OA
BRANCH  16  18
ATOM     18  C   UNL A   1      32.829  20.471  25.300  1.00  0.00     0.113 A 
ATOM     19  C   UNL A   1      33.076  16.767  24.482  1.00  0.00     0.044 C 
ATOM     20  C   UNL A   1      32.800  18.240  24.387  1.00  0.00    -0.047 A 
ATOM     21  C   UNL A   1      32.414  18.790  23.164  1.00  0.00     0.023 A 
ATOM     22  C   UNL A   1      32.989  19.095  25.480  1.00  0.00     0.036 A 
ATOM     23  C   UNL A   1      32.249  20.162  23.080  1.00  0.00     0.112 A 
ATOM     24  N   UNL A   1      32.457  21.008  24.108  1.00  0.00    -0.253 NA
ENDBRANCH  16  18
ENDBRANCH   7  16
BRANCH  15  25
ATOM     25  C   UNL A   1      31.966  28.831  25.182  1.00  0.00    -0.013 C 
ATOM     26  C   UNL A   1      31.976  29.597  26.522  1.00  0.00     0.016 C 
ATOM     27  C   UNL A   1      33.287  29.101  24.431  1.00  0.00     0.016 C 
ATOM     28  C   UNL A   1      30.827  29.429  24.322  1.00  0.00     0.016 C 
ENDBRANCH  15  25
ENDBRANCH   5   6
ENDBRANCH   3   5
ENDBRANCH   2   3
ENDBRANCH   1   2
BRANCH   1  29
ATOM     29  C   UNL A   1      38.030  20.131  25.221  1.00  0.00     0.275 C 
BRANCH  29  30
ATOM     30  O   UNL A   1      39.059  21.138  25.317  1.00  0.00    -0.458 OA
BRANCH  30  31
ATOM     31  C   UNL A   1      39.849  20.993  26.397  1.00  0.00     0.338 C 
ATOM     32  O   UNL A   1      40.348  19.946  26.798  1.00  0.00    -0.246 OA
BRANCH  31  33
ATOM     33  C   UNL A   1      40.190  22.259  27.040  1.00  0.00     0.060 A 
ATOM     34  C   UNL A   1      39.653  23.424  26.496  1.00  0.00     0.016 A 
ATOM     35  C   UNL A   1      41.226  22.319  27.973  1.00  0.00     0.016 A 
ATOM     36  C   UNL A   1      40.220  24.653  26.806  1.00  0.00     0.010 A 
ATOM     37  C   UNL A   1      41.734  23.566  28.354  1.00  0.00     0.010 A 
ATOM     38  C   UNL A   1      41.261  24.739  27.745  1.00  0.00    -0.014 A 
BRANCH  38  39
ATOM     39  C   UNL A   1      41.786  26.081  28.102  1.00  0.00     0.031 A 
ATOM     40  C   UNL A   1      43.189  26.497  27.764  1.00  0.00     0.074 A 
ATOM     41  C   UNL A   1      40.946  26.953  28.692  1.00  0.00     0.049 A 
ATOM     42  N   UNL A   1      43.753  27.670  27.909  1.00  0.00    -0.248 NA
ATOM     43  C   UNL A   1      44.074  25.479  27.180  1.00  0.00     0.031 C 
ATOM     44  C   UNL A   1      39.566  26.654  29.083  1.00  0.00     0.029 A 
ATOM     45  N   UNL A   1      41.120  28.261  29.059  1.00  0.00    -0.354 N 
ATOM     46  C   UNL A   1      45.052  27.533  27.435  1.00  0.00     0.074 A 
ATOM     47  C   UNL A   1      45.203  26.155  27.013  1.00  0.00     0.031 C 
ATOM     48  C   UNL A   1      39.010  27.752  29.610  1.00  0.00     0.029 A 
ATOM     49  C   UNL A   1      40.004  28.818  29.639  1.00  0.00     0.049 A 
ATOM     50  H   UNL A   1      41.960  28.755  28.922  1.00  0.00     0.167 HD
ATOM     51  C   UNL A   1      46.023  28.473  27.341  1.00  0.00     0.034 A 
ATOM     52  C   UNL A   1      39.805  30.048  30.149  1.00  0.00     0.034 A 
ATOM     53  C   UNL A   1      45.877  29.838  27.774  1.00  0.00     0.049 A 
ATOM     54  C   UNL A   1      40.917  31.051  30.080  1.00  0.00     0.074 A 
ATOM     55  C   UNL A   1      46.801  30.866  27.711  1.00  0.00     0.029 A 
ATOM     56  N   UNL A   1      44.739  30.361  28.369  1.00  0.00    -0.354 N 
ATOM     57  N   UNL A   1      42.094  30.937  29.515  1.00  0.00    -0.248 NA
ATOM     58  C   UNL A   1      40.668  32.358  30.701  1.00  0.00     0.031 C 
ATOM     59  C   UNL A   1      46.224  32.010  28.277  1.00  0.00     0.029 A 
ATOM     60  C   UNL A   1      44.941  31.693  28.691  1.00  0.00     0.049 A 
ATOM     61  H   UNL A   1      43.907  29.860  28.536  1.00  0.00     0.167 HD
ATOM     62  C   UNL A   1      42.725  32.159  29.703  1.00  0.00     0.074 A 
ATOM     63  C   UNL A   1      41.784  33.011  30.402  1.00  0.00     0.031 C 
ATOM     64  C   UNL A   1      43.980  32.535  29.356  1.00  0.00     0.034 A 
BRANCH  51  65
ATOM     65  C   UNL A   1      47.320  28.076  26.691  1.00  0.00     0.023 A 
ATOM     66  C   UNL A   1      48.416  27.742  27.511  1.00  0.00     0.012 A 
ATOM     67  C   UNL A   1      47.438  27.958  25.292  1.00  0.00     0.148 A 
ATOM     68  C   UNL A   1      49.615  27.304  26.950  1.00  0.00     0.002 A 
ATOM     69  C   UNL A   1      48.630  27.500  24.741  1.00  0.00     0.091 A 
ATOM     70  F   UNL A   1      46.389  28.302  24.532  1.00  0.00    -0.205 F 
ATOM     71  C   UNL A   1      49.719  27.175  25.568  1.00  0.00     0.022 A 
BRANCH  69  72
ATOM     72  S   UNL A   1      48.855  27.257  22.975  1.00  0.00     0.127 S 
ATOM     73  O   UNL A   1      48.226  25.952  22.777  1.00  0.00    -0.237 OA
ATOM     74  O   UNL A   1      48.111  28.384  22.411  1.00  0.00    -0.237 OA
ATOM     75  O   UNL A   1      50.291  27.300  22.745  1.00  0.00    -0.744 OA
ENDBRANCH  69  72
ENDBRANCH  51  65
BRANCH  52  76
ATOM     76  C   UNL A   1      38.479  30.391  30.731  1.00  0.00     0.023 A 
ATOM     77  C   UNL A   1      38.214  30.095  32.080  1.00  0.00     0.012 A 
ATOM     78  C   UNL A   1      37.506  31.071  29.974  1.00  0.00     0.148 A 
ATOM     79  C   UNL A   1      36.999  30.462  32.661  1.00  0.00     0.002 A 
ATOM     80  C   UNL A   1      36.324  31.487  30.576  1.00  0.00     0.091 A 
ATOM     81  F   UNL A   1      37.757  31.326  28.682  1.00  0.00    -0.205 F 
ATOM     82  C   UNL A   1      36.061  31.172  31.915  1.00  0.00     0.022 A 
BRANCH  80  83
ATOM     83  S   UNL A   1      35.174  32.543  29.688  1.00  0.00     0.127 S 
ATOM     84  O   UNL A   1      34.652  31.638  28.669  1.00  0.00    -0.237 OA
ATOM     85  O   UNL A   1      34.213  32.921  30.725  1.00  0.00    -0.237 OA
ATOM     86  O   UNL A   1      35.997  33.650  29.216  1.00  0.00    -0.744 OA
ENDBRANCH  80  83
ENDBRANCH  52  76
BRANCH  64  87
ATOM     87  C   UNL A   1      44.407  33.922  29.746  1.00  0.00     0.023 A 
ATOM     88  C   UNL A   1      45.071  34.115  30.975  1.00  0.00     0.012 A 
ATOM     89  C   UNL A   1      44.192  35.022  28.897  1.00  0.00     0.148 A 
ATOM     90  C   UNL A   1      45.484  35.387  31.365  1.00  0.00     0.002 A 
ATOM     91  C   UNL A   1      44.641  36.283  29.278  1.00  0.00     0.091 A 
ATOM     92  F   UNL A   1      43.536  34.829  27.743  1.00  0.00    -0.205 F 
ATOM     93  C   UNL A   1      45.279  36.470  30.513  1.00  0.00     0.022 A 
BRANCH  91  94
ATOM     94  S   UNL A   1      44.468  37.693  28.179  1.00  0.00     0.127 S 
ATOM     95  O   UNL A   1      45.405  37.363  27.108  1.00  0.00    -0.237 OA
ATOM     96  O   UNL A   1      43.058  37.634  27.791  1.00  0.00    -0.237 OA
ATOM     97  O   UNL A   1      44.810  38.850  28.998  1.00  0.00    -0.744 OA
ENDBRANCH  91  94
ENDBRANCH  64  87
ENDBRANCH  38  39
ENDBRANCH  31  33
ENDBRANCH  30  31
ENDBRANCH  29  30
ENDBRANCH   1  29
TORSDOF 18
ENDMDL
MODEL 2
REMARK VINA RESULT:     -12.3      1.386      7.481
REMARK SMILES Cc1ccnc(C(=O)c2[nH]c3ccc(C(C)(C)C)cc3c2CC(=O)OCCOC(=O)c2ccc(-c3c4nc(c(-c5cccc(S(=O)(=O)[O-])c5F)c5ccc([nH]5)c(-c5cccc(S(=O)(=O)[O-])c5F)c5nc(c(-c6cccc(S(=O)(=O)[O-])c6F)c6ccc3[nH]6)C=C5)C=C4)cc2)c1
REMARK SMILES IDX 26 1 25 2 23 3 24 4 22 5 21 6 9 7 10 8 11 9 20 11 12 12
REMARK SMILES IDX 19 13 13 14 14 15 7 16 8 17 6 18 1 19 2 20 3 21 94 22 4 23
REMARK SMILES IDX 5 24 15 25 16 26 17 27 18 28 27 29 28 30 29 31 30 32 31 33
REMARK SMILES IDX 32 34 93 35 33 36 92 37 34 38 35 39 36 40 86 41 37 42 91 43
REMARK SMILES IDX 85 44 87 45 38 46 90 47 84 48 83 49 39 51 71 52 51 53 70 54
REMARK SMILES IDX 52 55 55 56 69 57 88 58 53 59 54 60 68 62 89 63 56 64 40 65
REMARK SMILES IDX 41 66 49 67 42 68 44 69 50 70 43 71 45 72 46 73 47 74 48 75
REMARK SMILES IDX 72 76 73 77 81 78 74 79 76 80 82 81 75 82 77 83 78 84 79 85
REMARK SMILES IDX 80 86 57 87 58 88 66 89 59 90 61 91 67 92 60 93 62 94 63 95
REMARK SMILES IDX 64 96 65 97
REMARK H PARENT 10 10 87 50 55 61
REMARK Flexibility Score: inf
ROOT
ATOM      1  C   UNL A   1      36.500  21.144  24.526  1.00  0.00     0.274 C 
ENDROOT
BRANCH   1   2
ATOM      2  O   UNL A   1      36.859  22.454  24.032  1.00  0.00    -0.462 OA
BRANCH   2   3
ATOM      3  C   UNL A   1      35.866  23.377  23.997  1.00  0.00     0.310 C 
ATOM      4  O   UNL A   1      35.157  23.585  23.015  1.00  0.00    -0.252 OA
BRANCH   3   5
ATOM      5  C   UNL A   1      35.573  24.035  25.327  1.00  0.00     0.161 C 
BRANCH   5   6
ATOM      6  C   UNL A   1      34.159  24.087  25.811  1.00  0.00     0.000 A 
ATOM      7  C   UNL A   1      33.359  23.027  26.234  1.00  0.00     0.093 A 
ATOM      8  N   UNL A   1      32.127  23.549  26.542  1.00  0.00    -0.352 N 
ATOM      9  C   UNL A   1      32.046  24.862  26.173  1.00  0.00     0.046 A 
ATOM     10  H   UNL A   1      31.398  23.045  26.970  1.00  0.00     0.167 HD
ATOM     11  C   UNL A   1      33.320  25.257  25.784  1.00  0.00     0.004 A 
ATOM     12  C   UNL A   1      30.948  25.718  26.164  1.00  0.00     0.027 A 
ATOM     13  C   UNL A   1      33.512  26.611  25.419  1.00  0.00     0.015 A 
ATOM     14  C   UNL A   1      31.161  27.043  25.772  1.00  0.00     0.006 A 
ATOM     15  C   UNL A   1      32.430  27.527  25.416  1.00  0.00    -0.042 A 
BRANCH   7  16
ATOM     16  C   UNL A   1      33.582  21.601  26.427  1.00  0.00     0.227 C 
ATOM     17  O   UNL A   1      34.019  21.191  27.501  1.00  0.00    -0.285 OA
BRANCH  16  18
ATOM     18  C   UNL A   1      32.991  20.616  25.442  1.00  0.00     0.113 A 
ATOM     19  C   UNL A   1      32.831  16.869  24.827  1.00  0.00     0.044 C 
ATOM     20  C   UNL A   1      32.708  18.355  24.655  1.00  0.00    -0.047 A 
ATOM     21  C   UNL A   1      32.354  18.878  23.411  1.00  0.00     0.023 A 
ATOM     22  C   UNL A   1      33.011  19.243  25.696  1.00  0.00     0.036 A 
ATOM     23  C   UNL A   1      32.331  20.253  23.252  1.00  0.00     0.112 A 
ATOM     24  N   UNL A   1      32.651  21.125  24.229  1.00  0.00    -0.253 NA
ENDBRANCH  16  18
ENDBRANCH   7  16
BRANCH  15  25
ATOM     25  C   UNL A   1      32.665  29.002  25.045  1.00  0.00    -0.013 C 
ATOM     26  C   UNL A   1      33.385  29.074  23.682  1.00  0.00     0.016 C 
ATOM     27  C   UNL A   1      31.320  29.753  24.951  1.00  0.00     0.016 C 
ATOM     28  C   UNL A   1      33.540  29.769  26.065  1.00  0.00     0.016 C 
ENDBRANCH  15  25
ENDBRANCH   5   6
ENDBRANCH   3   5
ENDBRANCH   2   3
ENDBRANCH   1   2
BRANCH   1  29
ATOM     29  C   UNL A   1      37.745  20.309  24.856  1.00  0.00     0.275 C 
BRANCH  29  30
ATOM     30  O   UNL A   1      38.162  20.465  26.229  1.00  0.00    -0.458 OA
BRANCH  30  31
ATOM     31  C   UNL A   1      39.493  20.613  26.369  1.00  0.00     0.338 C 
ATOM     32  O   UNL A   1      40.356  19.820  26.007  1.00  0.00    -0.246 OA
BRANCH  31  33
ATOM     33  C   UNL A   1      39.875  21.914  26.912  1.00  0.00     0.060 A 
ATOM     34  C   UNL A   1      39.321  23.048  26.323  1.00  0.00     0.016 A 
ATOM     35  C   UNL A   1      40.958  22.021  27.786  1.00  0.00     0.016 A 
ATOM     36  C   UNL A   1      39.911  24.288  26.526  1.00  0.00     0.010 A 
ATOM     37  C   UNL A   1      41.494  23.285  28.062  1.00  0.00     0.010 A 
ATOM     38  C   UNL A   1      40.999  24.422  27.403  1.00  0.00    -0.014 A 
BRANCH  38  39
ATOM     39  C   UNL A   1      41.552  25.778  27.648  1.00  0.00     0.031 A 
ATOM     40  C   UNL A   1      40.755  26.841  28.350  1.00  0.00     0.074 A 
ATOM     41  C   UNL A   1      42.823  26.022  27.275  1.00  0.00     0.049 A 
ATOM     42  N   UNL A   1      41.139  28.032  28.735  1.00  0.00    -0.248 NA
ATOM     43  C   UNL A   1      39.354  26.534  28.673  1.00  0.00     0.031 C 
ATOM     44  C   UNL A   1      43.686  25.070  26.571  1.00  0.00     0.029 A 
ATOM     45  N   UNL A   1      43.612  27.129  27.438  1.00  0.00    -0.354 N 
ATOM     46  C   UNL A   1      40.035  28.614  29.345  1.00  0.00     0.074 A 
ATOM     47  C   UNL A   1      38.954  27.653  29.263  1.00  0.00     0.031 C 
ATOM     48  C   UNL A   1      44.891  25.623  26.386  1.00  0.00     0.029 A 
ATOM     49  C   UNL A   1      44.874  26.982  26.914  1.00  0.00     0.049 A 
ATOM     50  H   UNL A   1      43.306  27.950  27.886  1.00  0.00     0.167 HD
ATOM     51  C   UNL A   1      39.936  29.829  29.936  1.00  0.00     0.034 A 
ATOM     52  C   UNL A   1      45.903  27.849  26.852  1.00  0.00     0.034 A 
ATOM     53  C   UNL A   1      41.006  30.789  30.004  1.00  0.00     0.049 A 
ATOM     54  C   UNL A   1      45.745  29.206  27.468  1.00  0.00     0.074 A 
ATOM     55  C   UNL A   1      41.004  32.042  30.591  1.00  0.00     0.029 A 
ATOM     56  N   UNL A   1      42.265  30.611  29.450  1.00  0.00    -0.354 N 
ATOM     57  N   UNL A   1      44.733  29.689  28.149  1.00  0.00    -0.248 NA
ATOM     58  C   UNL A   1      46.875  30.133  27.325  1.00  0.00     0.031 C 
ATOM     59  C   UNL A   1      42.259  32.626  30.383  1.00  0.00     0.029 A 
ATOM     60  C   UNL A   1      43.043  31.736  29.668  1.00  0.00     0.049 A 
ATOM     61  H   UNL A   1      42.562  29.802  28.973  1.00  0.00     0.167 HD
ATOM     62  C   UNL A   1      45.107  30.972  28.523  1.00  0.00     0.074 A 
ATOM     63  C   UNL A   1      46.453  31.178  28.026  1.00  0.00     0.031 C 
ATOM     64  C   UNL A   1      44.392  31.909  29.194  1.00  0.00     0.034 A 
BRANCH  51  65
ATOM     65  C   UNL A   1      38.638  30.173  30.614  1.00  0.00     0.023 A 
ATOM     66  C   UNL A   1      38.412  29.706  31.925  1.00  0.00     0.012 A 
ATOM     67  C   UNL A   1      37.684  31.009  30.001  1.00  0.00     0.148 A 
ATOM     68  C   UNL A   1      37.253  30.058  32.614  1.00  0.00     0.002 A 
ATOM     69  C   UNL A   1      36.540  31.373  30.703  1.00  0.00     0.091 A 
ATOM     70  F   UNL A   1      37.911  31.423  28.747  1.00  0.00    -0.205 F 
ATOM     71  C   UNL A   1      36.323  30.898  32.008  1.00  0.00     0.022 A 
BRANCH  69  72
ATOM     72  S   UNL A   1      35.299  32.485  30.030  1.00  0.00     0.127 S 
ATOM     73  O   UNL A   1      34.800  31.712  28.893  1.00  0.00    -0.237 OA
ATOM     74  O   UNL A   1      34.359  32.609  31.144  1.00  0.00    -0.237 OA
ATOM     75  O   UNL A   1      36.004  33.712  29.690  1.00  0.00    -0.744 OA
ENDBRANCH  69  72
ENDBRANCH  51  65
BRANCH  52  76
ATOM     76  C   UNL A   1      47.178  27.425  26.214  1.00  0.00     0.023 A 
ATOM     77  C   UNL A   1      47.460  27.823  24.894  1.00  0.00     0.012 A 
ATOM     78  C   UNL A   1      48.142  26.690  26.929  1.00  0.00     0.148 A 
ATOM     79  C   UNL A   1      48.676  27.486  24.296  1.00  0.00     0.002 A 
ATOM     80  C   UNL A   1      49.373  26.411  26.348  1.00  0.00     0.091 A 
ATOM     81  F   UNL A   1      47.853  26.293  28.177  1.00  0.00    -0.205 F 
ATOM     82  C   UNL A   1      49.639  26.795  25.028  1.00  0.00     0.022 A 
BRANCH  80  83
ATOM     83  S   UNL A   1      50.689  25.670  27.321  1.00  0.00     0.127 S 
ATOM     84  O   UNL A   1      51.841  25.811  26.436  1.00  0.00    -0.237 OA
ATOM     85  O   UNL A   1      50.725  26.516  28.515  1.00  0.00    -0.237 OA
ATOM     86  O   UNL A   1      50.225  24.312  27.576  1.00  0.00    -0.744 OA
ENDBRANCH  80  83
ENDBRANCH  52  76
BRANCH  64  87
ATOM     87  C   UNL A   1      45.050  33.243  29.408  1.00  0.00     0.023 A 
ATOM     88  C   UNL A   1      45.789  33.460  30.588  1.00  0.00     0.012 A 
ATOM     89  C   UNL A   1      44.974  34.262  28.442  1.00  0.00     0.148 A 
ATOM     90  C   UNL A   1      46.417  34.684  30.817  1.00  0.00     0.002 A 
ATOM     91  C   UNL A   1      45.634  35.467  28.662  1.00  0.00     0.091 A 
ATOM     92  F   UNL A   1      44.246  34.052  27.336  1.00  0.00    -0.205 F 
ATOM     93  C   UNL A   1      46.348  35.684  29.850  1.00  0.00     0.022 A 
BRANCH  91  94
ATOM     94  S   UNL A   1      45.638  36.757  27.411  1.00  0.00     0.127 S 
ATOM     95  O   UNL A   1      44.217  37.074  27.296  1.00  0.00    -0.237 OA
ATOM     96  O   UNL A   1      46.446  37.809  28.030  1.00  0.00    -0.237 OA
ATOM     97  O   UNL A   1      46.257  36.144  26.242  1.00  0.00    -0.744 OA
ENDBRANCH  91  94
ENDBRANCH  64  87
ENDBRANCH  38  39
ENDBRANCH  31  33
ENDBRANCH  30  31
ENDBRANCH  29  30
ENDBRANCH   1  29
TORSDOF 18
ENDMDL
MODEL 3
REMARK VINA RESULT:     -12.3      4.881      9.941
REMARK SMILES Cc1ccnc(C(=O)c2[nH]c3ccc(C(C)(C)C)cc3c2CC(=O)OCCOC(=O)c2ccc(-c3c4nc(c(-c5cccc(S(=O)(=O)[O-])c5F)c5ccc([nH]5)c(-c5cccc(S(=O)(=O)[O-])c5F)c5nc(c(-c6cccc(S(=O)(=O)[O-])c6F)c6ccc3[nH]6)C=C5)C=C4)cc2)c1
REMARK SMILES IDX 26 1 25 2 23 3 24 4 22 5 21 6 9 7 10 8 11 9 20 11 12 12
REMARK SMILES IDX 19 13 13 14 14 15 7 16 8 17 6 18 1 19 2 20 3 21 94 22 4 23
REMARK SMILES IDX 5 24 15 25 16 26 17 27 18 28 27 29 28 30 29 31 30 32 31 33
REMARK SMILES IDX 32 34 93 35 33 36 92 37 34 38 35 39 36 40 86 41 37 42 91 43
REMARK SMILES IDX 85 44 87 45 38 46 90 47 84 48 83 49 39 51 71 52 51 53 70 54
REMARK SMILES IDX 52 55 55 56 69 57 88 58 53 59 54 60 68 62 89 63 56 64 40 65
REMARK SMILES IDX 41 66 49 67 42 68 44 69 50 70 43 71 45 72 46 73 47 74 48 75
REMARK SMILES IDX 72 76 73 77 81 78 74 79 76 80 82 81 75 82 77 83 78 84 79 85
REMARK SMILES IDX 80 86 57 87 58 88 66 89 59 90 61 91 67 92 60 93 62 94 63 95
REMARK SMILES IDX 64 96 65 97
REMARK H PARENT 10 10 87 50 55 61
REMARK Flexibility Score: inf
ROOT
ATOM      1  C   UNL A   1      32.144  30.268  26.563  1.00  0.00     0.274 C 
ENDROOT
BRANCH   1   2
ATOM      2  O   UNL A   1      33.042  29.527  25.707  1.00  0.00    -0.462 OA
BRANCH   2   3
ATOM      3  C   UNL A   1      33.499  28.346  26.194  1.00  0.00     0.310 C 
ATOM      4  O   UNL A   1      33.975  28.205  27.318  1.00  0.00    -0.252 OA
BRANCH   3   5
ATOM      5  C   UNL A   1      33.231  27.153  25.304  1.00  0.00     0.161 C 
BRANCH   5   6
ATOM      6  C   UNL A   1      31.858  26.561  25.283  1.00  0.00     0.000 A 
ATOM      7  C   UNL A   1      31.457  25.309  25.747  1.00  0.00     0.093 A 
ATOM      8  N   UNL A   1      30.117  25.189  25.476  1.00  0.00    -0.352 N 
ATOM      9  C   UNL A   1      29.677  26.230  24.707  1.00  0.00     0.046 A 
ATOM     10  H   UNL A   1      29.547  24.452  25.792  1.00  0.00     0.167 HD
ATOM     11  C   UNL A   1      30.717  27.149  24.630  1.00  0.00     0.004 A 
ATOM     12  C   UNL A   1      28.445  26.422  24.089  1.00  0.00     0.027 A 
ATOM     13  C   UNL A   1      30.481  28.360  23.937  1.00  0.00     0.015 A 
ATOM     14  C   UNL A   1      28.249  27.615  23.388  1.00  0.00     0.006 A 
ATOM     15  C   UNL A   1      29.234  28.612  23.311  1.00  0.00    -0.042 A 
BRANCH   7  16
ATOM     16  C   UNL A   1      32.132  24.219  26.437  1.00  0.00     0.227 C 
ATOM     17  O   UNL A   1      31.622  23.724  27.441  1.00  0.00    -0.285 OA
BRANCH  16  18
ATOM     18  C   UNL A   1      33.274  23.500  25.753  1.00  0.00     0.113 A 
ATOM     19  C   UNL A   1      37.055  23.707  25.431  1.00  0.00     0.044 C 
ATOM     20  C   UNL A   1      35.619  23.320  25.226  1.00  0.00    -0.047 A 
ATOM     21  C   UNL A   1      35.270  22.521  24.137  1.00  0.00     0.023 A 
ATOM     22  C   UNL A   1      34.603  23.800  26.062  1.00  0.00     0.036 A 
ATOM     23  C   UNL A   1      33.930  22.249  23.919  1.00  0.00     0.112 A 
ATOM     24  N   UNL A   1      32.933  22.726  24.689  1.00  0.00    -0.253 NA
ENDBRANCH  16  18
ENDBRANCH   7  16
BRANCH  15  25
ATOM     25  C   UNL A   1      28.987  29.948  22.587  1.00  0.00    -0.013 C 
ATOM     26  C   UNL A   1      29.029  31.098  23.616  1.00  0.00     0.016 C 
ATOM     27  C   UNL A   1      30.070  30.186  21.513  1.00  0.00     0.016 C 
ATOM     28  C   UNL A   1      27.617  30.024  21.872  1.00  0.00     0.016 C 
ENDBRANCH  15  25
ENDBRANCH   5   6
ENDBRANCH   3   5
ENDBRANCH   2   3
ENDBRANCH   1   2
BRANCH   1  29
ATOM     29  C   UNL A   1      32.510  31.758  26.602  1.00  0.00     0.275 C 
BRANCH  29  30
ATOM     30  O   UNL A   1      32.865  32.202  27.929  1.00  0.00    -0.458 OA
BRANCH  30  31
ATOM     31  C   UNL A   1      33.897  33.065  27.945  1.00  0.00     0.338 C 
ATOM     32  O   UNL A   1      33.829  34.284  27.820  1.00  0.00    -0.246 OA
BRANCH  31  33
ATOM     33  C   UNL A   1      35.176  32.432  28.255  1.00  0.00     0.060 A 
ATOM     34  C   UNL A   1      35.146  31.162  28.827  1.00  0.00     0.016 A 
ATOM     35  C   UNL A   1      36.355  33.181  28.241  1.00  0.00     0.016 A 
ATOM     36  C   UNL A   1      36.270  30.675  29.479  1.00  0.00     0.010 A 
ATOM     37  C   UNL A   1      37.512  32.647  28.818  1.00  0.00     0.010 A 
ATOM     38  C   UNL A   1      37.468  31.408  29.476  1.00  0.00    -0.014 A 
BRANCH  38  39
ATOM     39  C   UNL A   1      38.666  30.814  30.121  1.00  0.00     0.031 A 
ATOM     40  C   UNL A   1      39.087  31.196  31.512  1.00  0.00     0.074 A 
ATOM     41  C   UNL A   1      39.345  29.866  29.446  1.00  0.00     0.049 A 
ATOM     42  N   UNL A   1      40.039  30.684  32.250  1.00  0.00    -0.248 NA
ATOM     43  C   UNL A   1      38.344  32.282  32.168  1.00  0.00     0.031 C 
ATOM     44  C   UNL A   1      39.038  29.426  28.083  1.00  0.00     0.029 A 
ATOM     45  N   UNL A   1      40.421  29.099  29.809  1.00  0.00    -0.354 N 
ATOM     46  C   UNL A   1      40.010  31.378  33.452  1.00  0.00     0.074 A 
ATOM     47  C   UNL A   1      38.956  32.366  33.342  1.00  0.00     0.031 C 
ATOM     48  C   UNL A   1      39.887  28.451  27.734  1.00  0.00     0.029 A 
ATOM     49  C   UNL A   1      40.826  28.228  28.826  1.00  0.00     0.049 A 
ATOM     50  H   UNL A   1      40.860  29.165  30.687  1.00  0.00     0.167 HD
ATOM     51  C   UNL A   1      40.777  31.197  34.553  1.00  0.00     0.034 A 
ATOM     52  C   UNL A   1      41.849  27.352  28.800  1.00  0.00     0.034 A 
ATOM     53  C   UNL A   1      41.834  30.226  34.657  1.00  0.00     0.049 A 
ATOM     54  C   UNL A   1      42.715  27.213  30.016  1.00  0.00     0.074 A 
ATOM     55  C   UNL A   1      42.660  29.961  35.736  1.00  0.00     0.029 A 
ATOM     56  N   UNL A   1      42.225  29.371  33.637  1.00  0.00    -0.354 N 
ATOM     57  N   UNL A   1      42.591  27.791  31.186  1.00  0.00    -0.248 NA
ATOM     58  C   UNL A   1      43.850  26.287  29.917  1.00  0.00     0.031 C 
ATOM     59  C   UNL A   1      43.557  28.952  35.365  1.00  0.00     0.029 A 
ATOM     60  C   UNL A   1      43.289  28.588  34.055  1.00  0.00     0.049 A 
ATOM     61  H   UNL A   1      41.806  29.326  32.747  1.00  0.00     0.167 HD
ATOM     62  C   UNL A   1      43.625  27.294  31.966  1.00  0.00     0.074 A 
ATOM     63  C   UNL A   1      44.344  26.338  31.147  1.00  0.00     0.031 C 
ATOM     64  C   UNL A   1      43.970  27.619  33.237  1.00  0.00     0.034 A 
BRANCH  51  65
ATOM     65  C   UNL A   1      40.466  32.029  35.768  1.00  0.00     0.023 A 
ATOM     66  C   UNL A   1      41.327  33.094  36.099  1.00  0.00     0.012 A 
ATOM     67  C   UNL A   1      39.299  31.817  36.528  1.00  0.00     0.148 A 
ATOM     68  C   UNL A   1      41.038  33.932  37.176  1.00  0.00     0.002 A 
ATOM     69  C   UNL A   1      39.007  32.670  37.588  1.00  0.00     0.091 A 
ATOM     70  F   UNL A   1      38.507  30.784  36.207  1.00  0.00    -0.205 F 
ATOM     71  C   UNL A   1      39.875  33.725  37.913  1.00  0.00     0.022 A 
BRANCH  69  72
ATOM     72  S   UNL A   1      37.513  32.517  38.575  1.00  0.00     0.127 S 
ATOM     73  O   UNL A   1      36.488  32.934  37.620  1.00  0.00    -0.237 OA
ATOM     74  O   UNL A   1      37.502  31.090  38.899  1.00  0.00    -0.237 OA
ATOM     75  O   UNL A   1      37.698  33.399  39.718  1.00  0.00    -0.744 OA
ENDBRANCH  69  72
ENDBRANCH  51  65
BRANCH  52  76
ATOM     76  C   UNL A   1      42.068  26.522  27.586  1.00  0.00     0.023 A 
ATOM     77  C   UNL A   1      42.730  27.076  26.474  1.00  0.00     0.012 A 
ATOM     78  C   UNL A   1      41.689  25.167  27.552  1.00  0.00     0.148 A 
ATOM     79  C   UNL A   1      42.998  26.297  25.348  1.00  0.00     0.002 A 
ATOM     80  C   UNL A   1      42.014  24.382  26.452  1.00  0.00     0.091 A 
ATOM     81  F   UNL A   1      41.036  24.654  28.606  1.00  0.00    -0.205 F 
ATOM     82  C   UNL A   1      42.656  24.946  25.342  1.00  0.00     0.022 A 
BRANCH  80  83
ATOM     83  S   UNL A   1      41.734  22.608  26.487  1.00  0.00     0.127 S 
ATOM     84  O   UNL A   1      42.422  22.214  27.711  1.00  0.00    -0.237 OA
ATOM     85  O   UNL A   1      40.274  22.511  26.544  1.00  0.00    -0.237 OA
ATOM     86  O   UNL A   1      42.306  22.130  25.234  1.00  0.00    -0.744 OA
ENDBRANCH  80  83
ENDBRANCH  52  76
BRANCH  64  87
ATOM     87  C   UNL A   1      45.187  26.945  33.805  1.00  0.00     0.023 A 
ATOM     88  C   UNL A   1      46.433  27.599  33.723  1.00  0.00     0.012 A 
ATOM     89  C   UNL A   1      45.103  25.697  34.447  1.00  0.00     0.148 A 
ATOM     90  C   UNL A   1      47.581  27.006  34.244  1.00  0.00     0.002 A 
ATOM     91  C   UNL A   1      46.247  25.128  34.997  1.00  0.00     0.091 A 
ATOM     92  F   UNL A   1      43.917  25.073  34.494  1.00  0.00    -0.205 F 
ATOM     93  C   UNL A   1      47.487  25.775  34.890  1.00  0.00     0.022 A 
BRANCH  91  94
ATOM     94  S   UNL A   1      46.162  23.581  35.905  1.00  0.00     0.127 S 
ATOM     95  O   UNL A   1      45.290  23.931  37.024  1.00  0.00    -0.237 OA
ATOM     96  O   UNL A   1      45.564  22.664  34.933  1.00  0.00    -0.237 OA
ATOM     97  O   UNL A   1      47.546  23.267  36.242  1.00  0.00    -0.744 OA
ENDBRANCH  91  94
ENDBRANCH  64  87
ENDBRANCH  38  39
ENDBRANCH  31  33
ENDBRANCH  30  31
ENDBRANCH  29  30
ENDBRANCH   1  29
TORSDOF 18
ENDMDL
