MODEL 1
REMARK VINA RESULT:     -12.2      0.000      0.000
REMARK SMILES COc1ccc(C(=O)OCCOC(=O)c2ccc(-c3c4nc(c(-c5cccc(S(=O)(=O)[O-])c5F)c5ccc([nH]5)c(-c5cccc(S(=O)(=O)[O-])c5F)c5nc(c(-c6cccc(S(=O)(=O)[O-])c6F)c6ccc3[nH]6)C=C5)C=C4)cc2)cc1NC(=O)c1cc([N+](=O)[O-])ccc1Cl
REMARK SMILES IDX 10 1 9 2 7 3 8 4 6 5 3 6 4 7 79 8 5 9 78 10 2 11 1 12 80 13
REMARK SMILES IDX 81 14 82 16 83 17 84 18 91 19 85 20 90 21 92 22 89 23 86 24
REMARK SMILES IDX 87 25 88 26 11 27 12 28 13 29 14 30 15 31 16 32 77 33 17 34
REMARK SMILES IDX 76 35 18 36 19 37 20 38 70 39 21 40 75 41 69 42 71 43 22 44
REMARK SMILES IDX 74 45 68 46 67 47 23 49 55 50 35 51 54 52 36 53 39 54 53 55
REMARK SMILES IDX 72 56 37 57 38 58 52 60 73 61 40 62 24 63 25 64 33 65 26 66
REMARK SMILES IDX 28 67 34 68 27 69 29 70 30 71 31 72 32 73 56 74 57 75 65 76
REMARK SMILES IDX 58 77 60 78 66 79 59 80 61 81 62 82 63 83 64 84 41 85 42 86
REMARK SMILES IDX 50 87 43 88 45 89 51 90 44 91 46 92 47 93 48 94 49 95
REMARK H PARENT 80 15 71 48 39 59
REMARK Flexibility Score: inf
ROOT
ATOM      1  C   UNL A   1      35.193  21.151  24.767  1.00  0.00     0.275 C 
ENDROOT
BRANCH   1   2
ATOM      2  O   UNL A   1      35.288  22.405  24.058  1.00  0.00    -0.458 OA
BRANCH   2   3
ATOM      3  C   UNL A   1      34.119  22.936  23.615  1.00  0.00     0.338 C 
ATOM      4  O   UNL A   1      33.895  23.341  22.490  1.00  0.00    -0.246 OA
BRANCH   3   5
ATOM      5  C   UNL A   1      33.096  22.983  24.698  1.00  0.00     0.062 A 
ATOM      6  C   UNL A   1      30.962  23.384  26.431  1.00  0.00     0.142 A 
ATOM      7  C   UNL A   1      30.965  22.266  25.599  1.00  0.00     0.049 A 
ATOM      8  C   UNL A   1      32.029  24.297  26.414  1.00  0.00     0.084 A 
ATOM      9  C   UNL A   1      31.989  22.124  24.665  1.00  0.00     0.019 A 
ATOM     10  C   UNL A   1      33.155  23.989  25.660  1.00  0.00     0.045 A 
BRANCH   6  11
ATOM     11  O   UNL A   1      29.891  23.599  27.260  1.00  0.00    -0.495 OA
ATOM     12  C   UNL A   1      29.056  22.441  27.328  1.00  0.00     0.278 C 
ENDBRANCH   6  11
BRANCH   8  13
ATOM     13  N   UNL A   1      31.831  25.542  27.047  1.00  0.00    -0.319 N 
ATOM     14  C   UNL A   1      31.466  26.778  26.553  1.00  0.00     0.257 C 
ATOM     15  H   UNL A   1      31.983  25.528  28.019  1.00  0.00     0.170 HD
ATOM     16  O   UNL A   1      31.247  27.718  27.315  1.00  0.00    -0.269 OA
BRANCH  14  17
ATOM     17  C   UNL A   1      31.374  27.049  25.109  1.00  0.00     0.065 A 
ATOM     18  C   UNL A   1      32.502  27.653  24.534  1.00  0.00     0.101 A 
ATOM     19  C   UNL A   1      30.277  26.689  24.311  1.00  0.00     0.054 A 
ATOM     20  C   UNL A   1      32.562  27.816  23.147  1.00  0.00     0.270 A 
ATOM     21  C   UNL A   1      30.365  26.824  22.919  1.00  0.00     0.028 A 
ATOM     22  Cl  UNL A   1      28.827  26.023  24.968  1.00  0.00    -0.083 Cl
ATOM     23  C   UNL A   1      31.510  27.376  22.332  1.00  0.00     0.087 A 
BRANCH  20  24
ATOM     24  N   UNL A   1      33.743  28.443  22.543  1.00  0.00     0.062 N 
ATOM     25  O   UNL A   1      34.198  27.935  21.509  1.00  0.00    -0.258 OA
ATOM     26  O   UNL A   1      34.220  29.433  23.114  1.00  0.00    -0.258 OA
ENDBRANCH  20  24
ENDBRANCH  14  17
ENDBRANCH   8  13
ENDBRANCH   3   5
ENDBRANCH   2   3
ENDBRANCH   1   2
BRANCH   1  27
ATOM     27  C   UNL A   1      36.577  20.549  25.014  1.00  0.00     0.275 C 
BRANCH  27  28
ATOM     28  O   UNL A   1      37.553  21.588  25.192  1.00  0.00    -0.458 OA
BRANCH  28  29
ATOM     29  C   UNL A   1      38.679  21.198  25.828  1.00  0.00     0.338 C 
ATOM     30  O   UNL A   1      39.230  20.111  25.763  1.00  0.00    -0.246 OA
BRANCH  29  31
ATOM     31  C   UNL A   1      39.284  22.353  26.497  1.00  0.00     0.060 A 
ATOM     32  C   UNL A   1      38.850  23.612  26.097  1.00  0.00     0.016 A 
ATOM     33  C   UNL A   1      40.351  22.225  27.376  1.00  0.00     0.016 A 
ATOM     34  C   UNL A   1      39.531  24.755  26.478  1.00  0.00     0.010 A 
ATOM     35  C   UNL A   1      40.981  23.385  27.842  1.00  0.00     0.010 A 
ATOM     36  C   UNL A   1      40.601  24.657  27.366  1.00  0.00    -0.014 A 
BRANCH  36  37
ATOM     37  C   UNL A   1      41.350  25.881  27.742  1.00  0.00     0.031 A 
ATOM     38  C   UNL A   1      40.677  26.933  28.580  1.00  0.00     0.074 A 
ATOM     39  C   UNL A   1      42.629  26.041  27.346  1.00  0.00     0.049 A 
ATOM     40  N   UNL A   1      41.084  28.139  28.875  1.00  0.00    -0.248 NA
ATOM     41  C   UNL A   1      39.362  26.588  29.144  1.00  0.00     0.031 C 
ATOM     42  C   UNL A   1      43.409  25.066  26.579  1.00  0.00     0.029 A 
ATOM     43  N   UNL A   1      43.497  27.087  27.528  1.00  0.00    -0.354 N 
ATOM     44  C   UNL A   1      40.041  28.726  29.581  1.00  0.00     0.074 A 
ATOM     45  C   UNL A   1      38.986  27.741  29.676  1.00  0.00     0.031 C 
ATOM     46  C   UNL A   1      44.642  25.550  26.375  1.00  0.00     0.029 A 
ATOM     47  C   UNL A   1      44.710  26.904  26.909  1.00  0.00     0.049 A 
ATOM     48  H   UNL A   1      43.272  27.891  28.050  1.00  0.00     0.167 HD
ATOM     49  C   UNL A   1      39.973  29.975  30.102  1.00  0.00     0.034 A 
ATOM     50  C   UNL A   1      45.745  27.749  26.745  1.00  0.00     0.034 A 
ATOM     51  C   UNL A   1      41.054  30.922  30.042  1.00  0.00     0.049 A 
ATOM     52  C   UNL A   1      45.631  29.139  27.300  1.00  0.00     0.074 A 
ATOM     53  C   UNL A   1      41.111  32.198  30.571  1.00  0.00     0.029 A 
ATOM     54  N   UNL A   1      42.269  30.695  29.412  1.00  0.00    -0.354 N 
ATOM     55  N   UNL A   1      44.654  29.673  27.993  1.00  0.00    -0.248 NA
ATOM     56  C   UNL A   1      46.763  30.042  27.058  1.00  0.00     0.031 C 
ATOM     57  C   UNL A   1      42.348  32.757  30.228  1.00  0.00     0.029 A 
ATOM     58  C   UNL A   1      43.078  31.812  29.524  1.00  0.00     0.049 A 
ATOM     59  H   UNL A   1      42.519  29.862  28.953  1.00  0.00     0.167 HD
ATOM     60  C   UNL A   1      45.069  30.962  28.304  1.00  0.00     0.074 A 
ATOM     61  C   UNL A   1      46.393  31.121  27.735  1.00  0.00     0.031 C 
ATOM     62  C   UNL A   1      44.412  31.931  28.987  1.00  0.00     0.034 A 
BRANCH  49  63
ATOM     63  C   UNL A   1      38.679  30.385  30.760  1.00  0.00     0.023 A 
ATOM     64  C   UNL A   1      38.442  30.087  32.118  1.00  0.00     0.012 A 
ATOM     65  C   UNL A   1      37.696  31.080  30.027  1.00  0.00     0.148 A 
ATOM     66  C   UNL A   1      37.229  30.424  32.718  1.00  0.00     0.002 A 
ATOM     67  C   UNL A   1      36.511  31.460  30.648  1.00  0.00     0.091 A 
ATOM     68  F   UNL A   1      37.925  31.338  28.732  1.00  0.00    -0.205 F 
ATOM     69  C   UNL A   1      36.268  31.117  31.987  1.00  0.00     0.022 A 
BRANCH  67  70
ATOM     70  S   UNL A   1      35.250  32.428  29.811  1.00  0.00     0.127 S 
ATOM     71  O   UNL A   1      34.299  32.673  30.894  1.00  0.00    -0.237 OA
ATOM     72  O   UNL A   1      36.003  33.608  29.382  1.00  0.00    -0.237 OA
ATOM     73  O   UNL A   1      34.760  31.594  28.723  1.00  0.00    -0.744 OA
ENDBRANCH  67  70
ENDBRANCH  49  63
BRANCH  50  74
ATOM     74  C   UNL A   1      46.977  27.296  26.037  1.00  0.00     0.023 A 
ATOM     75  C   UNL A   1      47.115  27.562  24.661  1.00  0.00     0.012 A 
ATOM     76  C   UNL A   1      48.023  26.645  26.719  1.00  0.00     0.148 A 
ATOM     77  C   UNL A   1      48.261  27.166  23.972  1.00  0.00     0.002 A 
ATOM     78  C   UNL A   1      49.187  26.306  26.040  1.00  0.00     0.091 A 
ATOM     79  F   UNL A   1      47.869  26.391  28.026  1.00  0.00    -0.205 F 
ATOM     80  C   UNL A   1      49.301  26.550  24.662  1.00  0.00     0.022 A 
BRANCH  78  81
ATOM     81  S   UNL A   1      50.630  25.629  26.869  1.00  0.00     0.127 S 
ATOM     82  O   UNL A   1      50.084  24.418  27.478  1.00  0.00    -0.237 OA
ATOM     83  O   UNL A   1      51.539  25.397  25.746  1.00  0.00    -0.237 OA
ATOM     84  O   UNL A   1      51.072  26.658  27.799  1.00  0.00    -0.744 OA
ENDBRANCH  78  81
ENDBRANCH  50  74
BRANCH  62  85
ATOM     85  C   UNL A   1      45.137  33.233  29.208  1.00  0.00     0.023 A 
ATOM     86  C   UNL A   1      45.916  33.422  30.365  1.00  0.00     0.012 A 
ATOM     87  C   UNL A   1      45.090  34.245  28.230  1.00  0.00     0.148 A 
ATOM     88  C   UNL A   1      46.607  34.617  30.565  1.00  0.00     0.002 A 
ATOM     89  C   UNL A   1      45.826  35.409  28.409  1.00  0.00     0.091 A 
ATOM     90  F   UNL A   1      44.326  34.052  27.145  1.00  0.00    -0.205 F 
ATOM     91  C   UNL A   1      46.571  35.604  29.582  1.00  0.00     0.022 A 
BRANCH  89  92
ATOM     92  S   UNL A   1      45.923  36.688  27.153  1.00  0.00     0.127 S 
ATOM     93  O   UNL A   1      44.550  37.191  27.132  1.00  0.00    -0.237 OA
ATOM     94  O   UNL A   1      46.902  37.611  27.728  1.00  0.00    -0.237 OA
ATOM     95  O   UNL A   1      46.362  36.024  25.932  1.00  0.00    -0.744 OA
ENDBRANCH  89  92
ENDBRANCH  62  85
ENDBRANCH  36  37
ENDBRANCH  29  31
ENDBRANCH  28  29
ENDBRANCH  27  28
ENDBRANCH   1  27
TORSDOF 18
ENDMDL
MODEL 2
REMARK VINA RESULT:     -12.1      1.746      2.312
REMARK SMILES COc1ccc(C(=O)OCCOC(=O)c2ccc(-c3c4nc(c(-c5cccc(S(=O)(=O)[O-])c5F)c5ccc([nH]5)c(-c5cccc(S(=O)(=O)[O-])c5F)c5nc(c(-c6cccc(S(=O)(=O)[O-])c6F)c6ccc3[nH]6)C=C5)C=C4)cc2)cc1NC(=O)c1cc([N+](=O)[O-])ccc1Cl
REMARK SMILES IDX 10 1 9 2 7 3 8 4 6 5 3 6 4 7 79 8 5 9 78 10 2 11 1 12 80 13
REMARK SMILES IDX 81 14 82 16 83 17 84 18 91 19 85 20 90 21 92 22 89 23 86 24
REMARK SMILES IDX 87 25 88 26 11 27 12 28 13 29 14 30 15 31 16 32 77 33 17 34
REMARK SMILES IDX 76 35 18 36 19 37 20 38 70 39 21 40 75 41 69 42 71 43 22 44
REMARK SMILES IDX 74 45 68 46 67 47 23 49 55 50 35 51 54 52 36 53 39 54 53 55
REMARK SMILES IDX 72 56 37 57 38 58 52 60 73 61 40 62 24 63 25 64 33 65 26 66
REMARK SMILES IDX 28 67 34 68 27 69 29 70 30 71 31 72 32 73 56 74 57 75 65 76
REMARK SMILES IDX 58 77 60 78 66 79 59 80 61 81 62 82 63 83 64 84 41 85 42 86
REMARK SMILES IDX 50 87 43 88 45 89 51 90 44 91 46 92 47 93 48 94 49 95
REMARK H PARENT 80 15 71 48 39 59
REMARK Flexibility Score: inf
ROOT
ATOM      1  C   UNL A   1      36.149  20.149  25.076  1.00  0.00     0.275 C 
ENDROOT
BRANCH   1   2
ATOM      2  O   UNL A   1      35.318  21.087  25.794  1.00  0.00    -0.458 OA
BRANCH   2   3
ATOM      3  C   UNL A   1      34.051  21.246  25.331  1.00  0.00     0.338 C 
ATOM      4  O   UNL A   1      33.165  20.412  25.361  1.00  0.00    -0.246 OA
BRANCH   3   5
ATOM      5  C   UNL A   1      33.849  22.603  24.749  1.00  0.00     0.062 A 
ATOM      6  C   UNL A   1      33.890  25.240  23.876  1.00  0.00     0.142 A 
ATOM      7  C   UNL A   1      34.312  24.229  23.014  1.00  0.00     0.049 A 
ATOM      8  C   UNL A   1      33.433  24.940  25.169  1.00  0.00     0.084 A 
ATOM      9  C   UNL A   1      34.380  22.922  23.492  1.00  0.00     0.019 A 
ATOM     10  C   UNL A   1      33.268  23.607  25.522  1.00  0.00     0.045 A 
BRANCH   6  11
ATOM     11  O   UNL A   1      33.946  26.545  23.456  1.00  0.00    -0.495 OA
ATOM     12  C   UNL A   1      33.335  26.695  22.172  1.00  0.00     0.278 C 
ENDBRANCH   6  11
BRANCH   8  13
ATOM     13  N   UNL A   1      33.308  26.009  26.081  1.00  0.00    -0.319 N 
ATOM     14  C   UNL A   1      32.279  26.893  26.327  1.00  0.00     0.257 C 
ATOM     15  H   UNL A   1      34.102  26.151  26.645  1.00  0.00     0.170 HD
ATOM     16  O   UNL A   1      32.347  27.694  27.259  1.00  0.00    -0.269 OA
BRANCH  14  17
ATOM     17  C   UNL A   1      31.084  26.964  25.469  1.00  0.00     0.065 A 
ATOM     18  C   UNL A   1      30.995  28.099  24.650  1.00  0.00     0.101 A 
ATOM     19  C   UNL A   1      30.108  25.958  25.398  1.00  0.00     0.054 A 
ATOM     20  C   UNL A   1      29.973  28.182  23.699  1.00  0.00     0.270 A 
ATOM     21  C   UNL A   1      29.110  26.036  24.417  1.00  0.00     0.028 A 
ATOM     22  Cl  UNL A   1      30.112  24.582  26.437  1.00  0.00    -0.083 Cl
ATOM     23  C   UNL A   1      29.045  27.140  23.558  1.00  0.00     0.087 A 
BRANCH  20  24
ATOM     24  N   UNL A   1      29.880  29.366  22.838  1.00  0.00     0.062 N 
ATOM     25  O   UNL A   1      30.047  29.206  21.622  1.00  0.00    -0.258 OA
ATOM     26  O   UNL A   1      29.656  30.455  23.384  1.00  0.00    -0.258 OA
ENDBRANCH  20  24
ENDBRANCH  14  17
ENDBRANCH   8  13
ENDBRANCH   3   5
ENDBRANCH   2   3
ENDBRANCH   1   2
BRANCH   1  27
ATOM     27  C   UNL A   1      37.365  20.845  24.463  1.00  0.00     0.275 C 
BRANCH  27  28
ATOM     28  O   UNL A   1      37.858  21.865  25.345  1.00  0.00    -0.458 OA
BRANCH  28  29
ATOM     29  C   UNL A   1      38.980  21.531  26.019  1.00  0.00     0.338 C 
ATOM     30  O   UNL A   1      39.576  20.466  25.987  1.00  0.00    -0.246 OA
BRANCH  29  31
ATOM     31  C   UNL A   1      39.519  22.719  26.686  1.00  0.00     0.060 A 
ATOM     32  C   UNL A   1      39.103  23.955  26.206  1.00  0.00     0.016 A 
ATOM     33  C   UNL A   1      40.518  22.640  27.648  1.00  0.00     0.016 A 
ATOM     34  C   UNL A   1      39.739  25.121  26.592  1.00  0.00     0.010 A 
ATOM     35  C   UNL A   1      41.097  23.825  28.114  1.00  0.00     0.010 A 
ATOM     36  C   UNL A   1      40.741  25.072  27.561  1.00  0.00    -0.014 A 
BRANCH  36  37
ATOM     37  C   UNL A   1      41.445  26.321  27.945  1.00  0.00     0.031 A 
ATOM     38  C   UNL A   1      40.718  27.364  28.747  1.00  0.00     0.074 A 
ATOM     39  C   UNL A   1      42.730  26.510  27.588  1.00  0.00     0.049 A 
ATOM     40  N   UNL A   1      41.083  28.585  29.039  1.00  0.00    -0.248 NA
ATOM     41  C   UNL A   1      39.394  26.992  29.275  1.00  0.00     0.031 C 
ATOM     42  C   UNL A   1      43.560  25.547  26.859  1.00  0.00     0.029 A 
ATOM     43  N   UNL A   1      43.565  27.581  27.784  1.00  0.00    -0.354 N 
ATOM     44  C   UNL A   1      40.003  29.153  29.704  1.00  0.00     0.074 A 
ATOM     45  C   UNL A   1      38.972  28.141  29.779  1.00  0.00     0.031 C 
ATOM     46  C   UNL A   1      44.786  26.061  26.687  1.00  0.00     0.029 A 
ATOM     47  C   UNL A   1      44.802  27.423  27.205  1.00  0.00     0.049 A 
ATOM     48  H   UNL A   1      43.302  28.385  28.288  1.00  0.00     0.167 HD
ATOM     49  C   UNL A   1      39.886  30.405  30.206  1.00  0.00     0.034 A 
ATOM     50  C   UNL A   1      45.819  28.293  27.062  1.00  0.00     0.034 A 
ATOM     51  C   UNL A   1      40.943  31.380  30.168  1.00  0.00     0.049 A 
ATOM     52  C   UNL A   1      45.650  29.686  27.595  1.00  0.00     0.074 A 
ATOM     53  C   UNL A   1      40.949  32.664  30.682  1.00  0.00     0.029 A 
ATOM     54  N   UNL A   1      42.183  31.178  29.580  1.00  0.00    -0.354 N 
ATOM     55  N   UNL A   1      44.638  30.202  28.251  1.00  0.00    -0.248 NA
ATOM     56  C   UNL A   1      46.765  30.616  27.377  1.00  0.00     0.031 C 
ATOM     57  C   UNL A   1      42.181  33.251  30.370  1.00  0.00     0.029 A 
ATOM     58  C   UNL A   1      42.959  32.318  29.703  1.00  0.00     0.049 A 
ATOM     59  H   UNL A   1      42.470  30.346  29.140  1.00  0.00     0.167 HD
ATOM     60  C   UNL A   1      45.008  31.506  28.557  1.00  0.00     0.074 A 
ATOM     61  C   UNL A   1      46.346  31.693  28.028  1.00  0.00     0.031 C 
ATOM     62  C   UNL A   1      44.305  32.465  29.207  1.00  0.00     0.034 A 
BRANCH  49  63
ATOM     63  C   UNL A   1      38.561  30.789  30.817  1.00  0.00     0.023 A 
ATOM     64  C   UNL A   1      38.297  30.521  32.177  1.00  0.00     0.012 A 
ATOM     65  C   UNL A   1      37.576  31.430  30.039  1.00  0.00     0.148 A 
ATOM     66  C   UNL A   1      37.057  30.832  32.735  1.00  0.00     0.002 A 
ATOM     67  C   UNL A   1      36.363  31.786  30.617  1.00  0.00     0.091 A 
ATOM     68  F   UNL A   1      37.832  31.659  28.744  1.00  0.00    -0.205 F 
ATOM     69  C   UNL A   1      36.094  31.472  31.958  1.00  0.00     0.022 A 
BRANCH  67  70
ATOM     70  S   UNL A   1      35.093  32.686  29.720  1.00  0.00     0.127 S 
ATOM     71  O   UNL A   1      34.231  33.144  30.808  1.00  0.00    -0.237 OA
ATOM     72  O   UNL A   1      35.868  33.744  29.070  1.00  0.00    -0.237 OA
ATOM     73  O   UNL A   1      34.491  31.727  28.804  1.00  0.00    -0.744 OA
ENDBRANCH  67  70
ENDBRANCH  49  63
BRANCH  50  74
ATOM     74  C   UNL A   1      47.084  27.864  26.400  1.00  0.00     0.023 A 
ATOM     75  C   UNL A   1      48.097  27.269  27.175  1.00  0.00     0.012 A 
ATOM     76  C   UNL A   1      47.273  28.004  25.011  1.00  0.00     0.148 A 
ATOM     77  C   UNL A   1      49.287  26.843  26.584  1.00  0.00     0.002 A 
ATOM     78  C   UNL A   1      48.436  27.524  24.419  1.00  0.00     0.091 A 
ATOM     79  F   UNL A   1      46.302  28.584  24.291  1.00  0.00    -0.205 F 
ATOM     80  C   UNL A   1      49.452  26.958  25.206  1.00  0.00     0.022 A 
BRANCH  78  81
ATOM     81  S   UNL A   1      48.682  27.510  22.639  1.00  0.00     0.127 S 
ATOM     82  O   UNL A   1      49.973  28.182  22.511  1.00  0.00    -0.237 OA
ATOM     83  O   UNL A   1      48.702  26.075  22.352  1.00  0.00    -0.237 OA
ATOM     84  O   UNL A   1      47.543  28.221  22.077  1.00  0.00    -0.744 OA
ENDBRANCH  78  81
ENDBRANCH  50  74
BRANCH  62  85
ATOM     85  C   UNL A   1      44.988  33.788  29.433  1.00  0.00     0.023 A 
ATOM     86  C   UNL A   1      45.737  34.008  30.605  1.00  0.00     0.012 A 
ATOM     87  C   UNL A   1      44.934  34.793  28.447  1.00  0.00     0.148 A 
ATOM     88  C   UNL A   1      46.389  35.223  30.811  1.00  0.00     0.002 A 
ATOM     89  C   UNL A   1      45.633  35.978  28.632  1.00  0.00     0.091 A 
ATOM     90  F   UNL A   1      44.199  34.571  27.347  1.00  0.00    -0.205 F 
ATOM     91  C   UNL A   1      46.347  36.201  29.820  1.00  0.00     0.022 A 
BRANCH  89  92
ATOM     92  S   UNL A   1      45.720  37.251  27.370  1.00  0.00     0.127 S 
ATOM     93  O   UNL A   1      46.282  36.512  26.239  1.00  0.00    -0.237 OA
ATOM     94  O   UNL A   1      44.316  37.628  27.215  1.00  0.00    -0.237 OA
ATOM     95  O   UNL A   1      46.573  38.301  27.913  1.00  0.00    -0.744 OA
ENDBRANCH  89  92
ENDBRANCH  62  85
ENDBRANCH  36  37
ENDBRANCH  29  31
ENDBRANCH  28  29
ENDBRANCH  27  28
ENDBRANCH   1  27
TORSDOF 18
ENDMDL
MODEL 3
REMARK VINA RESULT:     -12.0      1.310      2.142
REMARK SMILES COc1ccc(C(=O)OCCOC(=O)c2ccc(-c3c4nc(c(-c5cccc(S(=O)(=O)[O-])c5F)c5ccc([nH]5)c(-c5cccc(S(=O)(=O)[O-])c5F)c5nc(c(-c6cccc(S(=O)(=O)[O-])c6F)c6ccc3[nH]6)C=C5)C=C4)cc2)cc1NC(=O)c1cc([N+](=O)[O-])ccc1Cl
REMARK SMILES IDX 10 1 9 2 7 3 8 4 6 5 3 6 4 7 79 8 5 9 78 10 2 11 1 12 80 13
REMARK SMILES IDX 81 14 82 16 83 17 84 18 91 19 85 20 90 21 92 22 89 23 86 24
REMARK SMILES IDX 87 25 88 26 11 27 12 28 13 29 14 30 15 31 16 32 77 33 17 34
REMARK SMILES IDX 76 35 18 36 19 37 20 38 70 39 21 40 75 41 69 42 71 43 22 44
REMARK SMILES IDX 74 45 68 46 67 47 23 49 55 50 35 51 54 52 36 53 39 54 53 55
REMARK SMILES IDX 72 56 37 57 38 58 52 60 73 61 40 62 24 63 25 64 33 65 26 66
REMARK SMILES IDX 28 67 34 68 27 69 29 70 30 71 31 72 32 73 56 74 57 75 65 76
REMARK SMILES IDX 58 77 60 78 66 79 59 80 61 81 62 82 63 83 64 84 41 85 42 86
REMARK SMILES IDX 50 87 43 88 45 89 51 90 44 91 46 92 47 93 48 94 49 95
REMARK H PARENT 80 15 71 48 39 59
REMARK Flexibility Score: inf
ROOT
ATOM      1  C   UNL A   1      35.011  21.142  26.083  1.00  0.00     0.275 C 
ENDROOT
BRANCH   1   2
ATOM      2  O   UNL A   1      34.895  22.573  26.234  1.00  0.00    -0.458 OA
BRANCH   2   3
ATOM      3  C   UNL A   1      33.635  23.066  26.356  1.00  0.00     0.338 C 
ATOM      4  O   UNL A   1      32.987  23.132  27.383  1.00  0.00    -0.246 OA
BRANCH   3   5
ATOM      5  C   UNL A   1      33.101  23.531  25.045  1.00  0.00     0.062 A 
ATOM      6  C   UNL A   1      32.091  24.831  22.807  1.00  0.00     0.142 A 
ATOM      7  C   UNL A   1      33.459  24.578  22.890  1.00  0.00     0.049 A 
ATOM      8  C   UNL A   1      31.221  24.424  23.831  1.00  0.00     0.084 A 
ATOM      9  C   UNL A   1      33.971  24.014  24.057  1.00  0.00     0.019 A 
ATOM     10  C   UNL A   1      31.725  23.635  24.857  1.00  0.00     0.045 A 
BRANCH   6  11
ATOM     11  O   UNL A   1      31.599  25.506  21.719  1.00  0.00    -0.495 OA
ATOM     12  C   UNL A   1      32.624  25.722  20.745  1.00  0.00     0.278 C 
ENDBRANCH   6  11
BRANCH   8  13
ATOM     13  N   UNL A   1      29.917  24.965  23.832  1.00  0.00    -0.319 N 
ATOM     14  C   UNL A   1      29.457  26.257  23.981  1.00  0.00     0.257 C 
ATOM     15  H   UNL A   1      29.205  24.298  23.703  1.00  0.00     0.170 HD
ATOM     16  O   UNL A   1      28.264  26.518  23.841  1.00  0.00    -0.269 OA
BRANCH  14  17
ATOM     17  C   UNL A   1      30.346  27.366  24.366  1.00  0.00     0.065 A 
ATOM     18  C   UNL A   1      30.886  27.289  25.658  1.00  0.00     0.101 A 
ATOM     19  C   UNL A   1      30.704  28.418  23.508  1.00  0.00     0.054 A 
ATOM     20  C   UNL A   1      31.851  28.219  26.056  1.00  0.00     0.270 A 
ATOM     21  C   UNL A   1      31.699  29.321  23.906  1.00  0.00     0.028 A 
ATOM     22  Cl  UNL A   1      30.012  28.618  21.941  1.00  0.00    -0.083 Cl
ATOM     23  C   UNL A   1      32.283  29.219  25.175  1.00  0.00     0.087 A 
BRANCH  20  24
ATOM     24  N   UNL A   1      32.420  28.137  27.406  1.00  0.00     0.062 N 
ATOM     25  O   UNL A   1      33.620  28.410  27.540  1.00  0.00    -0.258 OA
ATOM     26  O   UNL A   1      31.668  27.784  28.325  1.00  0.00    -0.258 OA
ENDBRANCH  20  24
ENDBRANCH  14  17
ENDBRANCH   8  13
ENDBRANCH   3   5
ENDBRANCH   2   3
ENDBRANCH   1   2
BRANCH   1  27
ATOM     27  C   UNL A   1      36.171  20.775  25.156  1.00  0.00     0.275 C 
BRANCH  27  28
ATOM     28  O   UNL A   1      37.191  21.785  25.203  1.00  0.00    -0.458 OA
BRANCH  28  29
ATOM     29  C   UNL A   1      38.376  21.363  25.693  1.00  0.00     0.338 C 
ATOM     30  O   UNL A   1      38.928  20.294  25.485  1.00  0.00    -0.246 OA
BRANCH  29  31
ATOM     31  C   UNL A   1      39.034  22.468  26.395  1.00  0.00     0.060 A 
ATOM     32  C   UNL A   1      38.592  23.753  26.102  1.00  0.00     0.016 A 
ATOM     33  C   UNL A   1      40.151  22.277  27.198  1.00  0.00     0.016 A 
ATOM     34  C   UNL A   1      39.307  24.864  26.512  1.00  0.00     0.010 A 
ATOM     35  C   UNL A   1      40.821  23.400  27.695  1.00  0.00     0.010 A 
ATOM     36  C   UNL A   1      40.429  24.702  27.324  1.00  0.00    -0.014 A 
BRANCH  36  37
ATOM     37  C   UNL A   1      41.213  25.895  27.730  1.00  0.00     0.031 A 
ATOM     38  C   UNL A   1      40.567  26.951  28.583  1.00  0.00     0.074 A 
ATOM     39  C   UNL A   1      42.499  26.021  27.347  1.00  0.00     0.049 A 
ATOM     40  N   UNL A   1      41.009  28.137  28.904  1.00  0.00    -0.248 NA
ATOM     41  C   UNL A   1      39.237  26.637  29.131  1.00  0.00     0.031 C 
ATOM     42  C   UNL A   1      43.254  25.036  26.567  1.00  0.00     0.029 A 
ATOM     43  N   UNL A   1      43.399  27.035  27.556  1.00  0.00    -0.354 N 
ATOM     44  C   UNL A   1      39.980  28.744  29.614  1.00  0.00     0.074 A 
ATOM     45  C   UNL A   1      38.894  27.792  29.682  1.00  0.00     0.031 C 
ATOM     46  C   UNL A   1      44.504  25.484  26.382  1.00  0.00     0.029 A 
ATOM     47  C   UNL A   1      44.611  26.825  26.942  1.00  0.00     0.049 A 
ATOM     48  H   UNL A   1      43.196  27.835  28.092  1.00  0.00     0.167 HD
ATOM     49  C   UNL A   1      39.948  29.984  30.159  1.00  0.00     0.034 A 
ATOM     50  C   UNL A   1      45.673  27.639  26.802  1.00  0.00     0.034 A 
ATOM     51  C   UNL A   1      41.059  30.897  30.126  1.00  0.00     0.049 A 
ATOM     52  C   UNL A   1      45.599  29.022  27.384  1.00  0.00     0.074 A 
ATOM     53  C   UNL A   1      41.152  32.160  30.680  1.00  0.00     0.029 A 
ATOM     54  N   UNL A   1      42.272  30.644  29.500  1.00  0.00    -0.354 N 
ATOM     55  N   UNL A   1      44.634  29.573  28.080  1.00  0.00    -0.248 NA
ATOM     56  C   UNL A   1      46.761  29.892  27.168  1.00  0.00     0.031 C 
ATOM     57  C   UNL A   1      42.409  32.686  30.357  1.00  0.00     0.029 A 
ATOM     58  C   UNL A   1      43.115  31.732  29.640  1.00  0.00     0.049 A 
ATOM     59  H   UNL A   1      42.499  29.811  29.027  1.00  0.00     0.167 HD
ATOM     60  C   UNL A   1      45.087  30.842  28.418  1.00  0.00     0.074 A 
ATOM     61  C   UNL A   1      46.420  30.969  27.863  1.00  0.00     0.031 C 
ATOM     62  C   UNL A   1      44.455  31.818  29.116  1.00  0.00     0.034 A 
BRANCH  49  63
ATOM     63  C   UNL A   1      38.662  30.423  30.815  1.00  0.00     0.023 A 
ATOM     64  C   UNL A   1      38.437  30.172  32.184  1.00  0.00     0.012 A 
ATOM     65  C   UNL A   1      37.675  31.098  30.068  1.00  0.00     0.148 A 
ATOM     66  C   UNL A   1      37.231  30.535  32.785  1.00  0.00     0.002 A 
ATOM     67  C   UNL A   1      36.499  31.504  30.687  1.00  0.00     0.091 A 
ATOM     68  F   UNL A   1      37.893  31.310  28.763  1.00  0.00    -0.205 F 
ATOM     69  C   UNL A   1      36.266  31.208  32.039  1.00  0.00     0.022 A 
BRANCH  67  70
ATOM     70  S   UNL A   1      35.234  32.450  29.830  1.00  0.00     0.127 S 
ATOM     71  O   UNL A   1      34.261  32.677  30.897  1.00  0.00    -0.237 OA
ATOM     72  O   UNL A   1      35.972  33.644  29.415  1.00  0.00    -0.237 OA
ATOM     73  O   UNL A   1      34.777  31.608  28.734  1.00  0.00    -0.744 OA
ENDBRANCH  67  70
ENDBRANCH  49  63
BRANCH  50  74
ATOM     74  C   UNL A   1      46.896  27.161  26.095  1.00  0.00     0.023 A 
ATOM     75  C   UNL A   1      47.020  27.386  24.711  1.00  0.00     0.012 A 
ATOM     76  C   UNL A   1      47.946  26.526  26.785  1.00  0.00     0.148 A 
ATOM     77  C   UNL A   1      48.158  26.965  24.021  1.00  0.00     0.002 A 
ATOM     78  C   UNL A   1      49.102  26.162  26.104  1.00  0.00     0.091 A 
ATOM     79  F   UNL A   1      47.805  26.310  28.101  1.00  0.00    -0.205 F 
ATOM     80  C   UNL A   1      49.203  26.365  24.718  1.00  0.00     0.022 A 
BRANCH  78  81
ATOM     81  S   UNL A   1      50.551  25.503  26.937  1.00  0.00     0.127 S 
ATOM     82  O   UNL A   1      51.453  25.253  25.816  1.00  0.00    -0.237 OA
ATOM     83  O   UNL A   1      50.934  26.621  27.800  1.00  0.00    -0.237 OA
ATOM     84  O   UNL A   1      50.093  24.320  27.652  1.00  0.00    -0.744 OA
ENDBRANCH  78  81
ENDBRANCH  50  74
BRANCH  62  85
ATOM     85  C   UNL A   1      45.220  33.092  29.367  1.00  0.00     0.023 A 
ATOM     86  C   UNL A   1      45.999  33.232  30.532  1.00  0.00     0.012 A 
ATOM     87  C   UNL A   1      45.209  34.126  28.412  1.00  0.00     0.148 A 
ATOM     88  C   UNL A   1      46.726  34.400  30.759  1.00  0.00     0.002 A 
ATOM     89  C   UNL A   1      45.980  35.262  28.618  1.00  0.00     0.091 A 
ATOM     90  F   UNL A   1      44.445  33.980  27.319  1.00  0.00    -0.205 F 
ATOM     91  C   UNL A   1      46.726  35.407  29.798  1.00  0.00     0.022 A 
BRANCH  89  92
ATOM     92  S   UNL A   1      46.123  36.564  27.390  1.00  0.00     0.127 S 
ATOM     93  O   UNL A   1      44.929  37.364  27.663  1.00  0.00    -0.237 OA
ATOM     94  O   UNL A   1      47.384  37.203  27.764  1.00  0.00    -0.237 OA
ATOM     95  O   UNL A   1      46.143  35.897  26.095  1.00  0.00    -0.744 OA
ENDBRANCH  89  92
ENDBRANCH  62  85
ENDBRANCH  36  37
ENDBRANCH  29  31
ENDBRANCH  28  29
ENDBRANCH  27  28
ENDBRANCH   1  27
TORSDOF 18
ENDMDL
