MODEL 1
REMARK VINA RESULT:     -12.2      0.000      0.000
REMARK SMILES O=C(N[C@@H](Cc1ccc(O)cc1)C(=O)N[C@@H](Cc1c[nH]c2ccccc12)C(=O)N[C@@H](CO)C(=O)OCCOC(=O)c1ccc(-c2c3nc(c(-c4cccc(S(=O)(=O)[O-])c4F)c4ccc([nH]4)c(-c4cccc(S(=O)(=O)[O-])c4F)c4nc(c(-c5cccc(S(=O)(=O)[O-])c5F)c5ccc2[nH]5)C=C4)C=C3)cc1)c1ccc(F)cc1
REMARK SMILES IDX 33 1 34 2 30 3 29 4 27 5 28 6 16 8 15 9 13 10 14 11 4 13
REMARK SMILES IDX 3 14 1 15 2 16 104 18 105 19 110 20 106 21 109 22 107 23
REMARK SMILES IDX 108 24 5 25 6 26 7 27 12 28 8 29 11 30 9 31 10 32 17 34
REMARK SMILES IDX 18 35 19 36 26 37 20 38 21 39 25 40 22 42 24 43 23 44 31 45
REMARK SMILES IDX 32 46 35 48 36 49 37 50 38 51 39 52 40 53 41 54 42 55 103 56
REMARK SMILES IDX 43 57 102 58 44 59 45 60 46 61 96 62 47 63 101 64 95 65
REMARK SMILES IDX 97 66 48 67 100 68 94 69 93 70 49 72 81 73 61 74 80 75 62 76
REMARK SMILES IDX 65 77 79 78 98 79 63 80 64 81 78 83 99 84 66 85 50 86 51 87
REMARK SMILES IDX 59 88 52 89 54 90 60 91 53 92 55 93 56 94 57 95 58 96 82 97
REMARK SMILES IDX 83 98 91 99 84 100 86 101 92 102 85 103 87 104 88 105 89 106
REMARK SMILES IDX 90 107 67 108 68 109 76 110 69 111 71 112 77 113 70 114
REMARK SMILES IDX 72 115 73 116 74 117 75 118
REMARK H PARENT 29 7 15 12 3 17 10 33 20 41 32 47 97 71 65 82
REMARK Flexibility Score: inf
ROOT
ATOM      1  C   UNL A   1      33.653  29.877  26.512  1.00  0.00     0.331 C 
ATOM      2  O   UNL A   1      34.615  29.150  26.737  1.00  0.00    -0.250 OA
ENDROOT
BRANCH   1   3
ATOM      3  C   UNL A   1      32.324  29.373  25.886  1.00  0.00     0.218 C 
BRANCH   3   4
ATOM      4  N   UNL A   1      32.197  29.582  24.429  1.00  0.00    -0.339 N 
ATOM      5  C   UNL A   1      32.707  28.660  23.554  1.00  0.00     0.243 C 
ATOM      6  O   UNL A   1      33.912  28.395  23.637  1.00  0.00    -0.273 OA
ATOM      7  H   UNL A   1      31.745  30.386  24.086  1.00  0.00     0.164 HD
BRANCH   5   8
ATOM      8  C   UNL A   1      31.813  28.058  22.407  1.00  0.00     0.175 C 
BRANCH   8   9
ATOM      9  N   UNL A   1      32.751  27.206  21.648  1.00  0.00    -0.342 N 
ATOM     10  C   UNL A   1      33.060  25.888  21.726  1.00  0.00     0.243 C 
ATOM     11  O   UNL A   1      33.394  25.345  20.664  1.00  0.00    -0.273 OA
ATOM     12  H   UNL A   1      33.250  27.689  20.950  1.00  0.00     0.164 HD
BRANCH  10  13
ATOM     13  C   UNL A   1      32.993  25.032  23.011  1.00  0.00     0.176 C 
BRANCH  13  14
ATOM     14  N   UNL A   1      33.409  25.713  24.235  1.00  0.00    -0.340 N 
ATOM     15  O   UNL A   1      34.340  25.844  26.280  1.00  0.00    -0.269 OA
ATOM     16  C   UNL A   1      34.253  25.238  25.218  1.00  0.00     0.251 C 
ATOM     17  H   UNL A   1      33.045  26.616  24.374  1.00  0.00     0.164 HD
BRANCH  16  18
ATOM     18  C   UNL A   1      34.990  23.959  25.033  1.00  0.00     0.040 A 
ATOM     19  C   UNL A   1      35.661  23.667  23.836  1.00  0.00     0.017 A 
ATOM     20  C   UNL A   1      34.996  23.026  26.080  1.00  0.00     0.017 A 
ATOM     21  C   UNL A   1      36.262  22.417  23.660  1.00  0.00     0.040 A 
ATOM     22  C   UNL A   1      35.608  21.781  25.902  1.00  0.00     0.040 A 
ATOM     23  C   UNL A   1      36.218  21.482  24.689  1.00  0.00     0.123 A 
ATOM     24  F   UNL A   1      36.770  20.275  24.504  1.00  0.00    -0.207 F 
ENDBRANCH  16  18
ENDBRANCH  13  14
BRANCH  13  25
ATOM     25  C   UNL A   1      31.768  24.105  23.160  1.00  0.00     0.070 C 
BRANCH  25  26
ATOM     26  C   UNL A   1      31.936  22.766  23.835  1.00  0.00    -0.045 A 
ATOM     27  C   UNL A   1      32.493  21.680  23.140  1.00  0.00     0.007 A 
ATOM     28  C   UNL A   1      31.488  22.566  25.145  1.00  0.00     0.007 A 
ATOM     29  C   UNL A   1      32.646  20.436  23.763  1.00  0.00     0.046 A 
ATOM     30  C   UNL A   1      31.681  21.340  25.783  1.00  0.00     0.046 A 
ATOM     31  C   UNL A   1      32.264  20.287  25.090  1.00  0.00     0.115 A 
BRANCH  31  32
ATOM     32  O   UNL A   1      32.436  19.110  25.755  1.00  0.00    -0.508 OA
ATOM     33  H   UNL A   1      31.753  18.468  25.756  1.00  0.00     0.293 HD
ENDBRANCH  31  32
ENDBRANCH  25  26
ENDBRANCH  13  25
ENDBRANCH  10  13
ENDBRANCH   8   9
BRANCH   8  34
ATOM     34  C   UNL A   1      30.530  27.270  22.750  1.00  0.00     0.072 C 
BRANCH  34  35
ATOM     35  C   UNL A   1      29.206  27.967  22.900  1.00  0.00    -0.020 A 
ATOM     36  C   UNL A   1      28.112  27.413  23.523  1.00  0.00     0.087 A 
ATOM     37  C   UNL A   1      28.892  29.368  22.795  1.00  0.00     0.003 A 
ATOM     38  N   UNL A   1      27.109  28.327  23.640  1.00  0.00    -0.361 N 
ATOM     39  C   UNL A   1      27.595  29.556  23.294  1.00  0.00     0.046 A 
ATOM     40  C   UNL A   1      29.626  30.517  22.443  1.00  0.00     0.010 A 
ATOM     41  H   UNL A   1      26.187  28.132  23.926  1.00  0.00     0.166 HD
ATOM     42  C   UNL A   1      27.000  30.810  23.459  1.00  0.00     0.026 A 
ATOM     43  C   UNL A   1      29.053  31.784  22.626  1.00  0.00     0.001 A 
ATOM     44  C   UNL A   1      27.764  31.928  23.131  1.00  0.00     0.002 A 
ENDBRANCH  34  35
ENDBRANCH   8  34
ENDBRANCH   5   8
ENDBRANCH   3   4
BRANCH   3  45
ATOM     45  C   UNL A   1      31.984  27.967  26.374  1.00  0.00     0.193 C 
BRANCH  45  46
ATOM     46  O   UNL A   1      31.346  27.996  27.646  1.00  0.00    -0.394 OA
ATOM     47  H   UNL A   1      30.590  27.390  27.642  1.00  0.00     0.210 HD
ENDBRANCH  45  46
ENDBRANCH   3  45
ENDBRANCH   1   3
BRANCH   1  48
ATOM     48  O   UNL A   1      33.581  31.187  26.927  1.00  0.00    -0.460 OA
BRANCH  48  49
ATOM     49  C   UNL A   1      32.267  31.618  27.365  1.00  0.00     0.274 C 
BRANCH  49  50
ATOM     50  C   UNL A   1      31.963  33.060  26.907  1.00  0.00     0.275 C 
BRANCH  50  51
ATOM     51  O   UNL A   1      33.123  33.910  27.054  1.00  0.00    -0.458 OA
BRANCH  51  52
ATOM     52  C   UNL A   1      33.282  34.505  28.282  1.00  0.00     0.338 C 
ATOM     53  O   UNL A   1      32.599  35.419  28.706  1.00  0.00    -0.246 OA
BRANCH  52  54
ATOM     54  C   UNL A   1      34.365  33.835  29.079  1.00  0.00     0.060 A 
ATOM     55  C   UNL A   1      35.682  33.910  28.659  1.00  0.00     0.016 A 
ATOM     56  C   UNL A   1      34.100  33.066  30.213  1.00  0.00     0.016 A 
ATOM     57  C   UNL A   1      36.697  33.143  29.227  1.00  0.00     0.010 A 
ATOM     58  C   UNL A   1      35.148  32.380  30.874  1.00  0.00     0.010 A 
ATOM     59  C   UNL A   1      36.463  32.380  30.366  1.00  0.00    -0.014 A 
BRANCH  59  60
ATOM     60  C   UNL A   1      37.576  31.566  30.954  1.00  0.00     0.031 A 
ATOM     61  C   UNL A   1      37.898  31.684  32.422  1.00  0.00     0.074 A 
ATOM     62  C   UNL A   1      38.267  30.660  30.223  1.00  0.00     0.049 A 
ATOM     63  N   UNL A   1      38.953  31.268  33.074  1.00  0.00    -0.248 NA
ATOM     64  C   UNL A   1      36.905  32.370  33.263  1.00  0.00     0.031 C 
ATOM     65  C   UNL A   1      38.022  30.334  28.817  1.00  0.00     0.029 A 
ATOM     66  N   UNL A   1      39.310  29.827  30.568  1.00  0.00    -0.354 N 
ATOM     67  C   UNL A   1      38.802  31.738  34.374  1.00  0.00     0.074 A 
ATOM     68  C   UNL A   1      37.531  32.427  34.429  1.00  0.00     0.031 C 
ATOM     69  C   UNL A   1      38.836  29.336  28.442  1.00  0.00     0.029 A 
ATOM     70  C   UNL A   1      39.754  29.033  29.532  1.00  0.00     0.049 A 
ATOM     71  H   UNL A   1      39.702  29.802  31.470  1.00  0.00     0.167 HD
ATOM     72  C   UNL A   1      39.654  31.623  35.420  1.00  0.00     0.034 A 
ATOM     73  C   UNL A   1      40.811  28.198  29.441  1.00  0.00     0.034 A 
ATOM     74  C   UNL A   1      40.870  30.856  35.391  1.00  0.00     0.049 A 
ATOM     75  C   UNL A   1      41.747  28.080  30.614  1.00  0.00     0.074 A 
ATOM     76  C   UNL A   1      41.831  30.723  36.377  1.00  0.00     0.029 A 
ATOM     77  N   UNL A   1      41.273  30.063  34.329  1.00  0.00    -0.354 N 
ATOM     78  N   UNL A   1      41.643  28.605  31.811  1.00  0.00    -0.248 NA
ATOM     79  C   UNL A   1      42.962  27.272  30.419  1.00  0.00     0.031 C 
ATOM     80  C   UNL A   1      42.824  29.858  35.904  1.00  0.00     0.029 A 
ATOM     81  C   UNL A   1      42.470  29.437  34.632  1.00  0.00     0.049 A 
ATOM     82  H   UNL A   1      40.781  29.958  33.482  1.00  0.00     0.167 HD
ATOM     83  C   UNL A   1      42.776  28.200  32.507  1.00  0.00     0.074 A 
ATOM     84  C   UNL A   1      43.529  27.342  31.616  1.00  0.00     0.031 C 
ATOM     85  C   UNL A   1      43.180  28.543  33.754  1.00  0.00     0.034 A 
BRANCH  72  86
ATOM     86  C   UNL A   1      39.324  32.394  36.668  1.00  0.00     0.023 A 
ATOM     87  C   UNL A   1      39.943  33.630  36.934  1.00  0.00     0.012 A 
ATOM     88  C   UNL A   1      38.375  31.883  37.578  1.00  0.00     0.148 A 
ATOM     89  C   UNL A   1      39.644  34.333  38.102  1.00  0.00     0.002 A 
ATOM     90  C   UNL A   1      38.056  32.605  38.720  1.00  0.00     0.091 A 
ATOM     91  F   UNL A   1      37.816  30.693  37.317  1.00  0.00    -0.205 F 
ATOM     92  C   UNL A   1      38.696  33.826  38.990  1.00  0.00     0.022 A 
BRANCH  90  93
ATOM     93  S   UNL A   1      36.811  32.055  39.893  1.00  0.00     0.127 S 
ATOM     94  O   UNL A   1      37.335  30.747  40.288  1.00  0.00    -0.237 OA
ATOM     95  O   UNL A   1      36.891  33.081  40.933  1.00  0.00    -0.237 OA
ATOM     96  O   UNL A   1      35.552  32.031  39.162  1.00  0.00    -0.744 OA
ENDBRANCH  90  93
ENDBRANCH  72  86
BRANCH  73  97
ATOM     97  C   UNL A   1      41.061  27.427  28.184  1.00  0.00     0.023 A 
ATOM     98  C   UNL A   1      41.692  28.060  27.094  1.00  0.00     0.012 A 
ATOM     99  C   UNL A   1      40.710  26.067  28.067  1.00  0.00     0.148 A 
ATOM    100  C   UNL A   1      41.955  27.358  25.915  1.00  0.00     0.002 A 
ATOM    101  C   UNL A   1      41.049  25.354  26.922  1.00  0.00     0.091 A 
ATOM    102  F   UNL A   1      40.061  25.484  29.085  1.00  0.00    -0.205 F 
ATOM    103  C   UNL A   1      41.654  26.001  25.836  1.00  0.00     0.022 A 
BRANCH 101 104
ATOM    104  S   UNL A   1      40.864  23.569  26.835  1.00  0.00     0.127 S 
ATOM    105  O   UNL A   1      39.441  23.424  26.546  1.00  0.00    -0.237 OA
ATOM    106  O   UNL A   1      41.758  23.219  25.728  1.00  0.00    -0.237 OA
ATOM    107  O   UNL A   1      41.312  23.075  28.131  1.00  0.00    -0.744 OA
ENDBRANCH 101 104
ENDBRANCH  73  97
BRANCH  85 108
ATOM    108  C   UNL A   1      44.492  27.990  34.241  1.00  0.00     0.023 A 
ATOM    109  C   UNL A   1      45.666  28.750  34.069  1.00  0.00     0.012 A 
ATOM    110  C   UNL A   1      44.552  26.770  34.940  1.00  0.00     0.148 A 
ATOM    111  C   UNL A   1      46.885  28.294  34.569  1.00  0.00     0.002 A 
ATOM    112  C   UNL A   1      45.763  26.342  35.473  1.00  0.00     0.091 A 
ATOM    113  F   UNL A   1      43.427  26.053  35.073  1.00  0.00    -0.205 F 
ATOM    114  C   UNL A   1      46.931  27.098  35.280  1.00  0.00     0.022 A 
BRANCH 112 115
ATOM    115  S   UNL A   1      45.897  24.860  36.479  1.00  0.00     0.127 S 
ATOM    116  O   UNL A   1      44.953  25.147  37.559  1.00  0.00    -0.237 OA
ATOM    117  O   UNL A   1      45.465  23.813  35.553  1.00  0.00    -0.237 OA
ATOM    118  O   UNL A   1      47.297  24.772  36.876  1.00  0.00    -0.744 OA
ENDBRANCH 112 115
ENDBRANCH  85 108
ENDBRANCH  59  60
ENDBRANCH  52  54
ENDBRANCH  51  52
ENDBRANCH  50  51
ENDBRANCH  49  50
ENDBRANCH  48  49
ENDBRANCH   1  48
TORSDOF 27
ENDMDL
MODEL 2
REMARK VINA RESULT:     -11.4      1.936      7.231
REMARK SMILES O=C(N[C@@H](Cc1ccc(O)cc1)C(=O)N[C@@H](Cc1c[nH]c2ccccc12)C(=O)N[C@@H](CO)C(=O)OCCOC(=O)c1ccc(-c2c3nc(c(-c4cccc(S(=O)(=O)[O-])c4F)c4ccc([nH]4)c(-c4cccc(S(=O)(=O)[O-])c4F)c4nc(c(-c5cccc(S(=O)(=O)[O-])c5F)c5ccc2[nH]5)C=C4)C=C3)cc1)c1ccc(F)cc1
REMARK SMILES IDX 33 1 34 2 30 3 29 4 27 5 28 6 16 8 15 9 13 10 14 11 4 13
REMARK SMILES IDX 3 14 1 15 2 16 104 18 105 19 110 20 106 21 109 22 107 23
REMARK SMILES IDX 108 24 5 25 6 26 7 27 12 28 8 29 11 30 9 31 10 32 17 34
REMARK SMILES IDX 18 35 19 36 26 37 20 38 21 39 25 40 22 42 24 43 23 44 31 45
REMARK SMILES IDX 32 46 35 48 36 49 37 50 38 51 39 52 40 53 41 54 42 55 103 56
REMARK SMILES IDX 43 57 102 58 44 59 45 60 46 61 96 62 47 63 101 64 95 65
REMARK SMILES IDX 97 66 48 67 100 68 94 69 93 70 49 72 81 73 61 74 80 75 62 76
REMARK SMILES IDX 65 77 79 78 98 79 63 80 64 81 78 83 99 84 66 85 50 86 51 87
REMARK SMILES IDX 59 88 52 89 54 90 60 91 53 92 55 93 56 94 57 95 58 96 82 97
REMARK SMILES IDX 83 98 91 99 84 100 86 101 92 102 85 103 87 104 88 105 89 106
REMARK SMILES IDX 90 107 67 108 68 109 76 110 69 111 71 112 77 113 70 114
REMARK SMILES IDX 72 115 73 116 74 117 75 118
REMARK H PARENT 29 7 15 12 3 17 10 33 20 41 32 47 97 71 65 82
REMARK Flexibility Score: inf
ROOT
ATOM      1  C   UNL A   1      33.120  29.570  26.559  1.00  0.00     0.331 C 
ATOM      2  O   UNL A   1      33.363  29.262  27.722  1.00  0.00    -0.250 OA
ENDROOT
BRANCH   1   3
ATOM      3  C   UNL A   1      33.500  28.688  25.340  1.00  0.00     0.218 C 
BRANCH   3   4
ATOM      4  N   UNL A   1      33.214  27.247  25.494  1.00  0.00    -0.339 N 
ATOM      5  C   UNL A   1      31.944  26.771  25.302  1.00  0.00     0.243 C 
ATOM      6  O   UNL A   1      31.040  27.253  25.996  1.00  0.00    -0.273 OA
ATOM      7  H   UNL A   1      33.939  26.626  25.735  1.00  0.00     0.164 HD
BRANCH   5   8
ATOM      8  C   UNL A   1      31.674  25.569  24.323  1.00  0.00     0.175 C 
BRANCH   8   9
ATOM      9  N   UNL A   1      31.091  24.533  25.201  1.00  0.00    -0.342 N 
ATOM     10  C   UNL A   1      31.441  23.248  25.460  1.00  0.00     0.243 C 
ATOM     11  O   UNL A   1      31.177  22.833  26.596  1.00  0.00    -0.273 OA
ATOM     12  H   UNL A   1      30.293  24.832  25.692  1.00  0.00     0.164 HD
BRANCH  10  13
ATOM     13  C   UNL A   1      32.160  22.304  24.470  1.00  0.00     0.176 C 
BRANCH  13  14
ATOM     14  N   UNL A   1      32.467  22.887  23.166  1.00  0.00    -0.340 N 
ATOM     15  O   UNL A   1      33.684  24.094  21.707  1.00  0.00    -0.269 OA
ATOM     16  C   UNL A   1      33.652  23.468  22.760  1.00  0.00     0.251 C 
ATOM     17  H   UNL A   1      31.745  22.862  22.498  1.00  0.00     0.164 HD
BRANCH  16  18
ATOM     18  C   UNL A   1      34.860  23.411  23.626  1.00  0.00     0.040 A 
ATOM     19  C   UNL A   1      35.945  22.579  23.315  1.00  0.00     0.017 A 
ATOM     20  C   UNL A   1      34.897  24.201  24.784  1.00  0.00     0.017 A 
ATOM     21  C   UNL A   1      37.022  22.477  24.201  1.00  0.00     0.040 A 
ATOM     22  C   UNL A   1      35.983  24.104  25.661  1.00  0.00     0.040 A 
ATOM     23  C   UNL A   1      37.025  23.230  25.370  1.00  0.00     0.123 A 
ATOM     24  F   UNL A   1      38.046  23.107  26.230  1.00  0.00    -0.207 F 
ENDBRANCH  16  18
ENDBRANCH  13  14
BRANCH  13  25
ATOM     25  C   UNL A   1      33.259  21.395  25.058  1.00  0.00     0.070 C 
BRANCH  25  26
ATOM     26  C   UNL A   1      33.445  20.007  24.495  1.00  0.00    -0.045 A 
ATOM     27  C   UNL A   1      32.453  19.422  23.691  1.00  0.00     0.007 A 
ATOM     28  C   UNL A   1      34.583  19.256  24.809  1.00  0.00     0.007 A 
ATOM     29  C   UNL A   1      32.621  18.134  23.172  1.00  0.00     0.046 A 
ATOM     30  C   UNL A   1      34.774  17.990  24.254  1.00  0.00     0.046 A 
ATOM     31  C   UNL A   1      33.796  17.442  23.435  1.00  0.00     0.115 A 
BRANCH  31  32
ATOM     32  O   UNL A   1      34.028  16.204  22.913  1.00  0.00    -0.508 OA
ATOM     33  H   UNL A   1      33.911  15.442  23.445  1.00  0.00     0.293 HD
ENDBRANCH  31  32
ENDBRANCH  25  26
ENDBRANCH  13  25
ENDBRANCH  10  13
ENDBRANCH   8   9
BRANCH   8  34
ATOM     34  C   UNL A   1      30.795  25.766  23.068  1.00  0.00     0.072 C 
BRANCH  34  35
ATOM     35  C   UNL A   1      29.523  26.565  23.129  1.00  0.00    -0.020 A 
ATOM     36  C   UNL A   1      28.437  26.222  23.901  1.00  0.00     0.087 A 
ATOM     37  C   UNL A   1      29.281  27.933  22.752  1.00  0.00     0.003 A 
ATOM     38  N   UNL A   1      27.494  27.204  23.871  1.00  0.00    -0.361 N 
ATOM     39  C   UNL A   1      28.027  28.303  23.257  1.00  0.00     0.046 A 
ATOM     40  C   UNL A   1      30.056  28.935  22.138  1.00  0.00     0.010 A 
ATOM     41  H   UNL A   1      26.581  27.133  24.232  1.00  0.00     0.166 HD
ATOM     42  C   UNL A   1      27.512  29.601  23.187  1.00  0.00     0.026 A 
ATOM     43  C   UNL A   1      29.566  30.248  22.080  1.00  0.00     0.001 A 
ATOM     44  C   UNL A   1      28.317  30.576  22.602  1.00  0.00     0.002 A 
ENDBRANCH  34  35
ENDBRANCH   8  34
ENDBRANCH   5   8
ENDBRANCH   3   4
BRANCH   3  45
ATOM     45  C   UNL A   1      33.012  29.311  24.034  1.00  0.00     0.193 C 
BRANCH  45  46
ATOM     46  O   UNL A   1      34.074  29.464  23.100  1.00  0.00    -0.394 OA
ATOM     47  H   UNL A   1      34.114  30.387  22.805  1.00  0.00     0.210 HD
ENDBRANCH  45  46
ENDBRANCH   3  45
ENDBRANCH   1   3
BRANCH   1  48
ATOM     48  O   UNL A   1      32.350  30.655  26.210  1.00  0.00    -0.460 OA
BRANCH  48  49
ATOM     49  C   UNL A   1      32.184  31.649  27.254  1.00  0.00     0.274 C 
BRANCH  49  50
ATOM     50  C   UNL A   1      33.530  32.308  27.626  1.00  0.00     0.275 C 
BRANCH  50  51
ATOM     51  O   UNL A   1      33.401  33.745  27.715  1.00  0.00    -0.458 OA
BRANCH  51  52
ATOM     52  C   UNL A   1      33.415  34.273  28.983  1.00  0.00     0.338 C 
ATOM     53  O   UNL A   1      32.529  34.956  29.463  1.00  0.00    -0.246 OA
BRANCH  52  54
ATOM     54  C   UNL A   1      34.637  33.840  29.743  1.00  0.00     0.060 A 
ATOM     55  C   UNL A   1      35.891  34.273  29.344  1.00  0.00     0.016 A 
ATOM     56  C   UNL A   1      34.581  32.950  30.816  1.00  0.00     0.016 A 
ATOM     57  C   UNL A   1      37.069  33.747  29.868  1.00  0.00     0.010 A 
ATOM     58  C   UNL A   1      35.772  32.503  31.438  1.00  0.00     0.010 A 
ATOM     59  C   UNL A   1      37.041  32.869  30.947  1.00  0.00    -0.014 A 
BRANCH  59  60
ATOM     60  C   UNL A   1      38.327  32.320  31.489  1.00  0.00     0.031 A 
ATOM     61  C   UNL A   1      39.046  31.222  30.748  1.00  0.00     0.074 A 
ATOM     62  C   UNL A   1      38.915  32.830  32.596  1.00  0.00     0.049 A 
ATOM     63  N   UNL A   1      40.020  30.449  31.154  1.00  0.00    -0.248 NA
ATOM     64  C   UNL A   1      38.602  30.954  29.371  1.00  0.00     0.031 C 
ATOM     65  C   UNL A   1      38.421  33.963  33.380  1.00  0.00     0.029 A 
ATOM     66  N   UNL A   1      40.076  32.473  33.247  1.00  0.00    -0.354 N 
ATOM     67  C   UNL A   1      40.228  29.534  30.128  1.00  0.00     0.074 A 
ATOM     68  C   UNL A   1      39.313  29.880  29.061  1.00  0.00     0.031 C 
ATOM     69  C   UNL A   1      39.295  34.247  34.356  1.00  0.00     0.029 A 
ATOM     70  C   UNL A   1      40.350  33.243  34.358  1.00  0.00     0.049 A 
ATOM     71  H   UNL A   1      40.656  31.736  32.948  1.00  0.00     0.167 HD
ATOM     72  C   UNL A   1      41.088  28.489  30.086  1.00  0.00     0.034 A 
ATOM     73  C   UNL A   1      41.304  33.127  35.307  1.00  0.00     0.034 A 
ATOM     74  C   UNL A   1      42.063  28.205  31.104  1.00  0.00     0.049 A 
ATOM     75  C   UNL A   1      42.255  31.961  35.245  1.00  0.00     0.074 A 
ATOM     76  C   UNL A   1      42.942  27.139  31.186  1.00  0.00     0.029 A 
ATOM     77  N   UNL A   1      42.312  29.014  32.202  1.00  0.00    -0.354 N 
ATOM     78  N   UNL A   1      42.380  31.047  34.315  1.00  0.00    -0.248 NA
ATOM     79  C   UNL A   1      43.181  31.796  36.377  1.00  0.00     0.031 C 
ATOM     80  C   UNL A   1      43.713  27.298  32.343  1.00  0.00     0.029 A 
ATOM     81  C   UNL A   1      43.328  28.472  32.969  1.00  0.00     0.049 A 
ATOM     82  H   UNL A   1      41.836  29.852  32.406  1.00  0.00     0.167 HD
ATOM     83  C   UNL A   1      43.390  30.196  34.749  1.00  0.00     0.074 A 
ATOM     84  C   UNL A   1      43.880  30.733  36.001  1.00  0.00     0.031 C 
ATOM     85  C   UNL A   1      43.841  29.049  34.185  1.00  0.00     0.034 A 
BRANCH  72  86
ATOM     86  C   UNL A   1      40.971  27.543  28.924  1.00  0.00     0.023 A 
ATOM     87  C   UNL A   1      39.957  26.568  28.891  1.00  0.00     0.012 A 
ATOM     88  C   UNL A   1      41.876  27.639  27.847  1.00  0.00     0.148 A 
ATOM     89  C   UNL A   1      39.863  25.682  27.816  1.00  0.00     0.002 A 
ATOM     90  C   UNL A   1      41.755  26.778  26.764  1.00  0.00     0.091 A 
ATOM     91  F   UNL A   1      42.849  28.560  27.910  1.00  0.00    -0.205 F 
ATOM     92  C   UNL A   1      40.755  25.792  26.751  1.00  0.00     0.022 A 
BRANCH  90  93
ATOM     93  S   UNL A   1      42.826  26.880  25.326  1.00  0.00     0.127 S 
ATOM     94  O   UNL A   1      42.278  28.046  24.632  1.00  0.00    -0.237 OA
ATOM     95  O   UNL A   1      44.141  27.096  25.932  1.00  0.00    -0.237 OA
ATOM     96  O   UNL A   1      42.683  25.611  24.626  1.00  0.00    -0.744 OA
ENDBRANCH  90  93
ENDBRANCH  72  86
BRANCH  73  97
ATOM     97  C   UNL A   1      41.393  34.127  36.416  1.00  0.00     0.023 A 
ATOM     98  C   UNL A   1      42.082  35.339  36.205  1.00  0.00     0.012 A 
ATOM     99  C   UNL A   1      40.776  33.908  37.664  1.00  0.00     0.148 A 
ATOM    100  C   UNL A   1      42.164  36.300  37.217  1.00  0.00     0.002 A 
ATOM    101  C   UNL A   1      40.791  34.902  38.636  1.00  0.00     0.091 A 
ATOM    102  F   UNL A   1      40.168  32.732  37.878  1.00  0.00    -0.205 F 
ATOM    103  C   UNL A   1      41.502  36.091  38.423  1.00  0.00     0.022 A 
BRANCH 101 104
ATOM    104  S   UNL A   1      39.800  34.776  40.129  1.00  0.00     0.127 S 
ATOM    105  O   UNL A   1      40.456  33.682  40.838  1.00  0.00    -0.237 OA
ATOM    106  O   UNL A   1      39.978  36.099  40.732  1.00  0.00    -0.237 OA
ATOM    107  O   UNL A   1      38.442  34.519  39.665  1.00  0.00    -0.744 OA
ENDBRANCH 101 104
ENDBRANCH  73  97
BRANCH  85 108
ATOM    108  C   UNL A   1      44.922  28.292  34.909  1.00  0.00     0.023 A 
ATOM    109  C   UNL A   1      46.257  28.736  34.813  1.00  0.00     0.012 A 
ATOM    110  C   UNL A   1      44.612  27.205  35.748  1.00  0.00     0.148 A 
ATOM    111  C   UNL A   1      47.269  28.096  35.526  1.00  0.00     0.002 A 
ATOM    112  C   UNL A   1      45.620  26.599  36.488  1.00  0.00     0.091 A 
ATOM    113  F   UNL A   1      43.340  26.786  35.807  1.00  0.00    -0.205 F 
ATOM    114  C   UNL A   1      46.949  27.037  36.372  1.00  0.00     0.022 A 
BRANCH 112 115
ATOM    115  S   UNL A   1      45.285  25.287  37.669  1.00  0.00     0.127 S 
ATOM    116  O   UNL A   1      46.636  24.906  38.081  1.00  0.00    -0.237 OA
ATOM    117  O   UNL A   1      44.508  25.982  38.697  1.00  0.00    -0.237 OA
ATOM    118  O   UNL A   1      44.541  24.270  36.938  1.00  0.00    -0.744 OA
ENDBRANCH 112 115
ENDBRANCH  85 108
ENDBRANCH  59  60
ENDBRANCH  52  54
ENDBRANCH  51  52
ENDBRANCH  50  51
ENDBRANCH  49  50
ENDBRANCH  48  49
ENDBRANCH   1  48
TORSDOF 27
ENDMDL
MODEL 3
REMARK VINA RESULT:     -11.1      6.244     11.167
REMARK SMILES O=C(N[C@@H](Cc1ccc(O)cc1)C(=O)N[C@@H](Cc1c[nH]c2ccccc12)C(=O)N[C@@H](CO)C(=O)OCCOC(=O)c1ccc(-c2c3nc(c(-c4cccc(S(=O)(=O)[O-])c4F)c4ccc([nH]4)c(-c4cccc(S(=O)(=O)[O-])c4F)c4nc(c(-c5cccc(S(=O)(=O)[O-])c5F)c5ccc2[nH]5)C=C4)C=C3)cc1)c1ccc(F)cc1
REMARK SMILES IDX 33 1 34 2 30 3 29 4 27 5 28 6 16 8 15 9 13 10 14 11 4 13
REMARK SMILES IDX 3 14 1 15 2 16 104 18 105 19 110 20 106 21 109 22 107 23
REMARK SMILES IDX 108 24 5 25 6 26 7 27 12 28 8 29 11 30 9 31 10 32 17 34
REMARK SMILES IDX 18 35 19 36 26 37 20 38 21 39 25 40 22 42 24 43 23 44 31 45
REMARK SMILES IDX 32 46 35 48 36 49 37 50 38 51 39 52 40 53 41 54 42 55 103 56
REMARK SMILES IDX 43 57 102 58 44 59 45 60 46 61 96 62 47 63 101 64 95 65
REMARK SMILES IDX 97 66 48 67 100 68 94 69 93 70 49 72 81 73 61 74 80 75 62 76
REMARK SMILES IDX 65 77 79 78 98 79 63 80 64 81 78 83 99 84 66 85 50 86 51 87
REMARK SMILES IDX 59 88 52 89 54 90 60 91 53 92 55 93 56 94 57 95 58 96 82 97
REMARK SMILES IDX 83 98 91 99 84 100 86 101 92 102 85 103 87 104 88 105 89 106
REMARK SMILES IDX 90 107 67 108 68 109 76 110 69 111 71 112 77 113 70 114
REMARK SMILES IDX 72 115 73 116 74 117 75 118
REMARK H PARENT 29 7 15 12 3 17 10 33 20 41 32 47 97 71 65 82
REMARK Flexibility Score: inf
ROOT
ATOM      1  C   UNL A   1      39.724  21.303  26.093  1.00  0.00     0.331 C 
ATOM      2  O   UNL A   1      40.352  22.347  26.241  1.00  0.00    -0.250 OA
ENDROOT
BRANCH   1   3
ATOM      3  C   UNL A   1      38.176  21.241  25.990  1.00  0.00     0.218 C 
BRANCH   3   4
ATOM      4  N   UNL A   1      37.492  22.550  26.013  1.00  0.00    -0.339 N 
ATOM      5  C   UNL A   1      36.680  22.922  24.975  1.00  0.00     0.243 C 
ATOM      6  O   UNL A   1      37.174  22.950  23.841  1.00  0.00    -0.273 OA
ATOM      7  H   UNL A   1      37.619  23.157  26.778  1.00  0.00     0.164 HD
BRANCH   5   8
ATOM      8  C   UNL A   1      35.208  23.416  25.240  1.00  0.00     0.175 C 
BRANCH   8   9
ATOM      9  N   UNL A   1      34.661  22.393  26.154  1.00  0.00    -0.342 N 
ATOM     10  C   UNL A   1      33.875  21.306  25.948  1.00  0.00     0.243 C 
ATOM     11  O   UNL A   1      34.053  20.354  26.719  1.00  0.00    -0.273 OA
ATOM     12  H   UNL A   1      34.913  22.525  27.096  1.00  0.00     0.164 HD
BRANCH  10  13
ATOM     13  C   UNL A   1      32.824  21.168  24.824  1.00  0.00     0.176 C 
BRANCH  13  14
ATOM     14  N   UNL A   1      33.209  21.742  23.537  1.00  0.00    -0.340 N 
ATOM     15  O   UNL A   1      32.956  23.071  21.738  1.00  0.00    -0.269 OA
ATOM     16  C   UNL A   1      32.662  22.841  22.906  1.00  0.00     0.251 C 
ATOM     17  H   UNL A   1      33.946  21.292  23.064  1.00  0.00     0.164 HD
BRANCH  16  18
ATOM     18  C   UNL A   1      31.661  23.694  23.601  1.00  0.00     0.040 A 
ATOM     19  C   UNL A   1      30.863  24.607  22.898  1.00  0.00     0.017 A 
ATOM     20  C   UNL A   1      31.533  23.584  24.993  1.00  0.00     0.017 A 
ATOM     21  C   UNL A   1      30.002  25.461  23.593  1.00  0.00     0.040 A 
ATOM     22  C   UNL A   1      30.662  24.433  25.683  1.00  0.00     0.040 A 
ATOM     23  C   UNL A   1      29.919  25.375  24.979  1.00  0.00     0.123 A 
ATOM     24  F   UNL A   1      29.114  26.216  25.644  1.00  0.00    -0.207 F 
ENDBRANCH  16  18
ENDBRANCH  13  14
BRANCH  13  25
ATOM     25  C   UNL A   1      32.072  19.823  24.744  1.00  0.00     0.070 C 
BRANCH  25  26
ATOM     26  C   UNL A   1      32.857  18.536  24.819  1.00  0.00    -0.045 A 
ATOM     27  C   UNL A   1      33.851  18.248  23.870  1.00  0.00     0.007 A 
ATOM     28  C   UNL A   1      32.569  17.581  25.801  1.00  0.00     0.007 A 
ATOM     29  C   UNL A   1      34.576  17.053  23.935  1.00  0.00     0.046 A 
ATOM     30  C   UNL A   1      33.323  16.410  25.895  1.00  0.00     0.046 A 
ATOM     31  C   UNL A   1      34.324  16.158  24.967  1.00  0.00     0.115 A 
BRANCH  31  32
ATOM     32  O   UNL A   1      35.036  15.004  25.101  1.00  0.00    -0.508 OA
ATOM     33  H   UNL A   1      34.615  14.176  24.977  1.00  0.00     0.293 HD
ENDBRANCH  31  32
ENDBRANCH  25  26
ENDBRANCH  13  25
ENDBRANCH  10  13
ENDBRANCH   8   9
BRANCH   8  34
ATOM     34  C   UNL A   1      34.950  24.831  25.801  1.00  0.00     0.072 C 
BRANCH  34  35
ATOM     35  C   UNL A   1      34.356  25.912  24.940  1.00  0.00    -0.020 A 
ATOM     36  C   UNL A   1      34.336  25.874  23.565  1.00  0.00     0.087 A 
ATOM     37  C   UNL A   1      33.420  26.949  25.287  1.00  0.00     0.003 A 
ATOM     38  N   UNL A   1      33.606  26.908  23.064  1.00  0.00    -0.361 N 
ATOM     39  C   UNL A   1      32.953  27.523  24.096  1.00  0.00     0.046 A 
ATOM     40  C   UNL A   1      32.828  27.376  26.490  1.00  0.00     0.010 A 
ATOM     41  H   UNL A   1      33.558  27.170  22.116  1.00  0.00     0.166 HD
ATOM     42  C   UNL A   1      31.940  28.484  24.041  1.00  0.00     0.026 A 
ATOM     43  C   UNL A   1      31.792  28.322  26.452  1.00  0.00     0.001 A 
ATOM     44  C   UNL A   1      31.352  28.861  25.246  1.00  0.00     0.002 A 
ENDBRANCH  34  35
ENDBRANCH   8  34
ENDBRANCH   5   8
ENDBRANCH   3   4
BRANCH   3  45
ATOM     45  C   UNL A   1      37.736  20.297  24.873  1.00  0.00     0.193 C 
BRANCH  45  46
ATOM     46  O   UNL A   1      36.630  19.495  25.273  1.00  0.00    -0.394 OA
ATOM     47  H   UNL A   1      36.775  19.174  26.176  1.00  0.00     0.210 HD
ENDBRANCH  45  46
ENDBRANCH   3  45
ENDBRANCH   1   3
BRANCH   1  48
ATOM     48  O   UNL A   1      40.321  20.089  25.848  1.00  0.00    -0.460 OA
BRANCH  48  49
ATOM     49  C   UNL A   1      41.679  19.964  26.346  1.00  0.00     0.274 C 
BRANCH  49  50
ATOM     50  C   UNL A   1      42.438  18.822  25.637  1.00  0.00     0.275 C 
BRANCH  50  51
ATOM     51  O   UNL A   1      43.869  18.985  25.769  1.00  0.00    -0.458 OA
BRANCH  51  52
ATOM     52  C   UNL A   1      44.519  19.502  24.675  1.00  0.00     0.338 C 
ATOM     53  O   UNL A   1      44.760  18.885  23.652  1.00  0.00    -0.246 OA
BRANCH  52  54
ATOM     54  C   UNL A   1      44.835  20.958  24.862  1.00  0.00     0.060 A 
ATOM     55  C   UNL A   1      45.444  21.391  26.029  1.00  0.00     0.016 A 
ATOM     56  C   UNL A   1      44.481  21.933  23.929  1.00  0.00     0.016 A 
ATOM     57  C   UNL A   1      45.572  22.739  26.355  1.00  0.00     0.010 A 
ATOM     58  C   UNL A   1      44.721  23.303  24.198  1.00  0.00     0.010 A 
ATOM     59  C   UNL A   1      45.239  23.730  25.437  1.00  0.00    -0.014 A 
BRANCH  59  60
ATOM     60  C   UNL A   1      45.389  25.173  25.818  1.00  0.00     0.031 A 
ATOM     61  C   UNL A   1      46.697  25.881  25.577  1.00  0.00     0.074 A 
ATOM     62  C   UNL A   1      44.357  25.895  26.310  1.00  0.00     0.049 A 
ATOM     63  N   UNL A   1      47.116  27.029  26.044  1.00  0.00    -0.248 NA
ATOM     64  C   UNL A   1      47.665  25.200  24.702  1.00  0.00     0.031 C 
ATOM     65  C   UNL A   1      42.991  25.407  26.509  1.00  0.00     0.029 A 
ATOM     66  N   UNL A   1      44.287  27.211  26.717  1.00  0.00    -0.354 N 
ATOM     67  C   UNL A   1      48.431  27.155  25.611  1.00  0.00     0.074 A 
ATOM     68  C   UNL A   1      48.724  25.990  24.804  1.00  0.00     0.031 C 
ATOM     69  C   UNL A   1      42.213  26.413  26.933  1.00  0.00     0.029 A 
ATOM     70  C   UNL A   1      43.040  27.591  27.164  1.00  0.00     0.049 A 
ATOM     71  H   UNL A   1      45.058  27.822  26.692  1.00  0.00     0.167 HD
ATOM     72  C   UNL A   1      49.319  28.141  25.879  1.00  0.00     0.034 A 
ATOM     73  C   UNL A   1      42.613  28.731  27.747  1.00  0.00     0.034 A 
ATOM     74  C   UNL A   1      48.998  29.344  26.599  1.00  0.00     0.049 A 
ATOM     75  C   UNL A   1      43.613  29.819  28.036  1.00  0.00     0.074 A 
ATOM     76  C   UNL A   1      49.839  30.378  26.973  1.00  0.00     0.029 A 
ATOM     77  N   UNL A   1      47.725  29.690  27.022  1.00  0.00    -0.354 N 
ATOM     78  N   UNL A   1      44.879  29.886  27.704  1.00  0.00    -0.248 NA
ATOM     79  C   UNL A   1      43.132  30.981  28.801  1.00  0.00     0.031 C 
ATOM     80  C   UNL A   1      49.074  31.344  27.636  1.00  0.00     0.029 A 
ATOM     81  C   UNL A   1      47.754  30.921  27.656  1.00  0.00     0.049 A 
ATOM     82  H   UNL A   1      46.917  29.143  26.890  1.00  0.00     0.167 HD
ATOM     83  C   UNL A   1      45.348  31.087  28.223  1.00  0.00     0.074 A 
ATOM     84  C   UNL A   1      44.217  31.742  28.847  1.00  0.00     0.031 C 
ATOM     85  C   UNL A   1      46.609  31.583  28.224  1.00  0.00     0.034 A 
BRANCH  72  86
ATOM     86  C   UNL A   1      50.741  27.929  25.438  1.00  0.00     0.023 A 
ATOM     87  C   UNL A   1      51.178  28.383  24.179  1.00  0.00     0.012 A 
ATOM     88  C   UNL A   1      51.653  27.282  26.297  1.00  0.00     0.148 A 
ATOM     89  C   UNL A   1      52.495  28.168  23.769  1.00  0.00     0.002 A 
ATOM     90  C   UNL A   1      52.971  27.104  25.897  1.00  0.00     0.091 A 
ATOM     91  F   UNL A   1      51.209  26.836  27.481  1.00  0.00    -0.205 F 
ATOM     92  C   UNL A   1      53.392  27.538  24.629  1.00  0.00     0.022 A 
BRANCH  90  93
ATOM     93  S   UNL A   1      54.208  26.349  26.958  1.00  0.00     0.127 S 
ATOM     94  O   UNL A   1      53.877  24.929  26.832  1.00  0.00    -0.237 OA
ATOM     95  O   UNL A   1      55.458  26.742  26.306  1.00  0.00    -0.237 OA
ATOM     96  O   UNL A   1      54.008  26.923  28.281  1.00  0.00    -0.744 OA
ENDBRANCH  90  93
ENDBRANCH  72  86
BRANCH  73  97
ATOM     97  C   UNL A   1      41.175  28.896  28.125  1.00  0.00     0.023 A 
ATOM     98  C   UNL A   1      40.235  29.260  27.140  1.00  0.00     0.012 A 
ATOM     99  C   UNL A   1      40.722  28.664  29.440  1.00  0.00     0.148 A 
ATOM    100  C   UNL A   1      38.882  29.402  27.460  1.00  0.00     0.002 A 
ATOM    101  C   UNL A   1      39.364  28.726  29.732  1.00  0.00     0.091 A 
ATOM    102  F   UNL A   1      41.627  28.370  30.384  1.00  0.00    -0.205 F 
ATOM    103  C   UNL A   1      38.444  29.114  28.749  1.00  0.00     0.022 A 
BRANCH 101 104
ATOM    104  S   UNL A   1      38.717  28.181  31.317  1.00  0.00     0.127 S 
ATOM    105  O   UNL A   1      39.767  28.606  32.237  1.00  0.00    -0.237 OA
ATOM    106  O   UNL A   1      37.465  28.937  31.416  1.00  0.00    -0.237 OA
ATOM    107  O   UNL A   1      38.526  26.743  31.178  1.00  0.00    -0.744 OA
ENDBRANCH 101 104
ENDBRANCH  73  97
BRANCH  85 108
ATOM    108  C   UNL A   1      46.842  32.900  28.913  1.00  0.00     0.023 A 
ATOM    109  C   UNL A   1      47.223  32.910  30.271  1.00  0.00     0.012 A 
ATOM    110  C   UNL A   1      46.771  34.115  28.205  1.00  0.00     0.148 A 
ATOM    111  C   UNL A   1      47.511  34.111  30.917  1.00  0.00     0.002 A 
ATOM    112  C   UNL A   1      47.101  35.304  28.844  1.00  0.00     0.091 A 
ATOM    113  F   UNL A   1      46.385  34.084  26.921  1.00  0.00    -0.205 F 
ATOM    114  C   UNL A   1      47.462  35.305  30.202  1.00  0.00     0.022 A 
BRANCH 112 115
ATOM    115  S   UNL A   1      47.151  36.877  27.978  1.00  0.00     0.127 S 
ATOM    116  O   UNL A   1      45.734  37.111  27.704  1.00  0.00    -0.237 OA
ATOM    117  O   UNL A   1      47.733  37.769  28.982  1.00  0.00    -0.237 OA
ATOM    118  O   UNL A   1      47.990  36.661  26.806  1.00  0.00    -0.744 OA
ENDBRANCH 112 115
ENDBRANCH  85 108
ENDBRANCH  59  60
ENDBRANCH  52  54
ENDBRANCH  51  52
ENDBRANCH  50  51
ENDBRANCH  49  50
ENDBRANCH  48  49
ENDBRANCH   1  48
TORSDOF 27
ENDMDL
