MODEL 1
REMARK VINA RESULT:      -9.8      0.000      0.000
REMARK SMILES O=C(/C=C/c1cccs1)NCC(=O)OCCOC(=O)c1ccc(-c2c3nc(c(-c4cccc(S(=O)(=O)[O-])c4F)c4ccc([nH]4)c(-c4cccc(S(=O)(=O)[O-])c4F)c4nc(c(-c5cccc(S(=O)(=O)[O-])c5F)c5ccc2[nH]5)C=C4)C=C3)cc1
REMARK SMILES IDX 15 1 14 2 12 3 13 4 11 5 10 6 1 7 2 8 3 10 4 11 5 12 6 13
REMARK SMILES IDX 9 14 7 15 8 16 16 17 17 18 18 19 19 20 20 21 21 22 82 23
REMARK SMILES IDX 22 24 81 25 23 26 24 27 25 28 75 29 26 30 80 31 74 32 76 33
REMARK SMILES IDX 27 34 79 35 73 36 72 37 28 39 60 40 40 41 59 42 41 43 44 44
REMARK SMILES IDX 58 45 77 46 42 47 43 48 57 50 78 51 45 52 29 53 30 54 38 55
REMARK SMILES IDX 31 56 33 57 39 58 32 59 34 60 35 61 36 62 37 63 61 64 62 65
REMARK SMILES IDX 70 66 63 67 65 68 71 69 64 70 66 71 67 72 68 73 69 74 46 75
REMARK SMILES IDX 47 76 55 77 48 78 50 79 56 80 49 81 51 82 52 83 53 84 54 85
REMARK H PARENT 10 9 76 38 44 49
REMARK Flexibility Score: inf
ROOT
ATOM      1  C   UNL A   1      41.907  18.977  26.198  1.00  0.00     0.274 C 
ENDROOT
BRANCH   1   2
ATOM      2  O   UNL A   1      42.687  19.023  24.991  1.00  0.00    -0.461 OA
BRANCH   2   3
ATOM      3  C   UNL A   1      44.039  19.078  25.136  1.00  0.00     0.325 C 
ATOM      4  O   UNL A   1      44.753  18.120  25.410  1.00  0.00    -0.250 OA
BRANCH   3   5
ATOM      5  C   UNL A   1      44.584  20.487  24.945  1.00  0.00     0.239 C 
BRANCH   5   6
ATOM      6  N   UNL A   1      44.444  21.375  26.091  1.00  0.00    -0.342 N 
ATOM      7  O   UNL A   1      46.406  22.470  25.689  1.00  0.00    -0.270 OA
ATOM      8  C   UNL A   1      45.375  22.338  26.343  1.00  0.00     0.244 C 
ATOM      9  H   UNL A   1      43.670  21.278  26.690  1.00  0.00     0.164 HD
BRANCH   8  10
ATOM     10  C   UNL A   1      45.123  23.289  27.450  1.00  0.00     0.072 C 
ATOM     11  C   UNL A   1      45.974  24.143  28.036  1.00  0.00     0.024 C 
BRANCH  11  12
ATOM     12  C   UNL A   1      45.522  24.960  29.118  1.00  0.00     0.027 A 
ATOM     13  C   UNL A   1      45.843  26.271  29.438  1.00  0.00     0.020 A 
ATOM     14  S   UNL A   1      44.404  24.327  30.265  1.00  0.00    -0.144 S 
ATOM     15  C   UNL A   1      45.219  26.730  30.632  1.00  0.00     0.012 A 
ATOM     16  C   UNL A   1      44.418  25.763  31.192  1.00  0.00     0.065 A 
ENDBRANCH  11  12
ENDBRANCH   8  10
ENDBRANCH   5   6
ENDBRANCH   3   5
ENDBRANCH   2   3
ENDBRANCH   1   2
BRANCH   1  17
ATOM     17  C   UNL A   1      40.427  19.186  25.865  1.00  0.00     0.275 C 
BRANCH  17  18
ATOM     18  O   UNL A   1      39.818  20.159  26.735  1.00  0.00    -0.458 OA
BRANCH  18  19
ATOM     19  C   UNL A   1      39.100  21.134  26.126  1.00  0.00     0.338 C 
ATOM     20  O   UNL A   1      38.054  21.015  25.508  1.00  0.00    -0.246 OA
BRANCH  19  21
ATOM     21  C   UNL A   1      39.694  22.438  26.461  1.00  0.00     0.060 A 
ATOM     22  C   UNL A   1      38.944  23.585  26.189  1.00  0.00     0.016 A 
ATOM     23  C   UNL A   1      40.978  22.539  26.998  1.00  0.00     0.016 A 
ATOM     24  C   UNL A   1      39.478  24.844  26.448  1.00  0.00     0.010 A 
ATOM     25  C   UNL A   1      41.509  23.805  27.266  1.00  0.00     0.010 A 
ATOM     26  C   UNL A   1      40.764  24.965  26.987  1.00  0.00    -0.014 A 
BRANCH  26  27
ATOM     27  C   UNL A   1      41.326  26.307  27.268  1.00  0.00     0.031 A 
ATOM     28  C   UNL A   1      42.676  26.689  26.735  1.00  0.00     0.074 A 
ATOM     29  C   UNL A   1      40.621  27.175  28.020  1.00  0.00     0.049 A 
ATOM     30  N   UNL A   1      43.361  27.783  26.936  1.00  0.00    -0.248 NA
ATOM     31  C   UNL A   1      43.344  25.710  25.863  1.00  0.00     0.031 C 
ATOM     32  C   UNL A   1      39.295  26.916  28.583  1.00  0.00     0.029 A 
ATOM     33  N   UNL A   1      40.930  28.437  28.457  1.00  0.00    -0.354 N 
ATOM     34  C   UNL A   1      44.555  27.616  26.246  1.00  0.00     0.074 A 
ATOM     35  C   UNL A   1      44.502  26.310  25.623  1.00  0.00     0.031 C 
ATOM     36  C   UNL A   1      38.911  27.980  29.305  1.00  0.00     0.029 A 
ATOM     37  C   UNL A   1      39.978  28.976  29.291  1.00  0.00     0.049 A 
ATOM     38  H   UNL A   1      41.753  28.912  28.199  1.00  0.00     0.167 HD
ATOM     39  C   UNL A   1      45.593  28.478  26.133  1.00  0.00     0.034 A 
ATOM     40  C   UNL A   1      39.980  30.127  29.992  1.00  0.00     0.034 A 
ATOM     41  C   UNL A   1      45.625  29.787  26.730  1.00  0.00     0.049 A 
ATOM     42  C   UNL A   1      41.166  31.045  29.882  1.00  0.00     0.074 A 
ATOM     43  C   UNL A   1      46.607  30.756  26.624  1.00  0.00     0.029 A 
ATOM     44  N   UNL A   1      44.639  30.304  27.555  1.00  0.00    -0.354 N 
ATOM     45  N   UNL A   1      42.239  30.922  29.139  1.00  0.00    -0.248 NA
ATOM     46  C   UNL A   1      41.135  32.270  30.695  1.00  0.00     0.031 C 
ATOM     47  C   UNL A   1      46.223  31.853  27.406  1.00  0.00     0.029 A 
ATOM     48  C   UNL A   1      44.996  31.570  27.985  1.00  0.00     0.049 A 
ATOM     49  H   UNL A   1      43.806  29.840  27.800  1.00  0.00     0.167 HD
ATOM     50  C   UNL A   1      43.004  32.057  29.381  1.00  0.00     0.074 A 
ATOM     51  C   UNL A   1      42.257  32.871  30.319  1.00  0.00     0.031 C 
ATOM     52  C   UNL A   1      44.224  32.386  28.889  1.00  0.00     0.034 A 
BRANCH  39  53
ATOM     53  C   UNL A   1      46.772  28.045  25.302  1.00  0.00     0.023 A 
ATOM     54  C   UNL A   1      46.732  28.204  23.903  1.00  0.00     0.012 A 
ATOM     55  C   UNL A   1      47.934  27.528  25.908  1.00  0.00     0.148 A 
ATOM     56  C   UNL A   1      47.821  27.830  23.115  1.00  0.00     0.002 A 
ATOM     57  C   UNL A   1      49.028  27.191  25.120  1.00  0.00     0.091 A 
ATOM     58  F   UNL A   1      47.943  27.359  27.238  1.00  0.00    -0.205 F 
ATOM     59  C   UNL A   1      48.970  27.333  23.724  1.00  0.00     0.022 A 
BRANCH  57  60
ATOM     60  S   UNL A   1      50.576  26.603  25.819  1.00  0.00     0.127 S 
ATOM     61  O   UNL A   1      51.400  26.449  24.621  1.00  0.00    -0.237 OA
ATOM     62  O   UNL A   1      50.966  27.713  26.688  1.00  0.00    -0.237 OA
ATOM     63  O   UNL A   1      50.252  25.370  26.522  1.00  0.00    -0.744 OA
ENDBRANCH  57  60
ENDBRANCH  39  53
BRANCH  40  64
ATOM     64  C   UNL A   1      38.809  30.477  30.842  1.00  0.00     0.023 A 
ATOM     65  C   UNL A   1      38.823  30.141  32.209  1.00  0.00     0.012 A 
ATOM     66  C   UNL A   1      37.704  31.177  30.316  1.00  0.00     0.148 A 
ATOM     67  C   UNL A   1      37.751  30.484  33.035  1.00  0.00     0.002 A 
ATOM     68  C   UNL A   1      36.666  31.563  31.156  1.00  0.00     0.091 A 
ATOM     69  F   UNL A   1      37.701  31.467  29.007  1.00  0.00    -0.205 F 
ATOM     70  C   UNL A   1      36.680  31.205  32.512  1.00  0.00     0.022 A 
BRANCH  68  71
ATOM     71  S   UNL A   1      35.315  32.605  30.593  1.00  0.00     0.127 S 
ATOM     72  O   UNL A   1      34.811  31.850  29.450  1.00  0.00    -0.237 OA
ATOM     73  O   UNL A   1      34.434  32.618  31.762  1.00  0.00    -0.237 OA
ATOM     74  O   UNL A   1      35.919  33.895  30.285  1.00  0.00    -0.744 OA
ENDBRANCH  68  71
ENDBRANCH  40  64
BRANCH  52  75
ATOM     75  C   UNL A   1      44.834  33.682  29.351  1.00  0.00     0.023 A 
ATOM     76  C   UNL A   1      45.727  33.675  30.441  1.00  0.00     0.012 A 
ATOM     77  C   UNL A   1      44.592  34.886  28.662  1.00  0.00     0.148 A 
ATOM     78  C   UNL A   1      46.352  34.850  30.854  1.00  0.00     0.002 A 
ATOM     79  C   UNL A   1      45.252  36.046  29.051  1.00  0.00     0.091 A 
ATOM     80  F   UNL A   1      43.725  34.873  27.638  1.00  0.00    -0.205 F 
ATOM     81  C   UNL A   1      46.124  36.032  30.152  1.00  0.00     0.022 A 
BRANCH  79  82
ATOM     82  S   UNL A   1      45.091  37.596  28.156  1.00  0.00     0.127 S 
ATOM     83  O   UNL A   1      45.618  37.237  26.841  1.00  0.00    -0.237 OA
ATOM     84  O   UNL A   1      43.645  37.826  28.193  1.00  0.00    -0.237 OA
ATOM     85  O   UNL A   1      45.878  38.572  28.898  1.00  0.00    -0.744 OA
ENDBRANCH  79  82
ENDBRANCH  52  75
ENDBRANCH  26  27
ENDBRANCH  19  21
ENDBRANCH  18  19
ENDBRANCH  17  18
ENDBRANCH   1  17
TORSDOF 17
ENDMDL
MODEL 2
REMARK VINA RESULT:      -9.4      5.553      9.517
REMARK SMILES O=C(/C=C/c1cccs1)NCC(=O)OCCOC(=O)c1ccc(-c2c3nc(c(-c4cccc(S(=O)(=O)[O-])c4F)c4ccc([nH]4)c(-c4cccc(S(=O)(=O)[O-])c4F)c4nc(c(-c5cccc(S(=O)(=O)[O-])c5F)c5ccc2[nH]5)C=C4)C=C3)cc1
REMARK SMILES IDX 15 1 14 2 12 3 13 4 11 5 10 6 1 7 2 8 3 10 4 11 5 12 6 13
REMARK SMILES IDX 9 14 7 15 8 16 16 17 17 18 18 19 19 20 20 21 21 22 82 23
REMARK SMILES IDX 22 24 81 25 23 26 24 27 25 28 75 29 26 30 80 31 74 32 76 33
REMARK SMILES IDX 27 34 79 35 73 36 72 37 28 39 60 40 40 41 59 42 41 43 44 44
REMARK SMILES IDX 58 45 77 46 42 47 43 48 57 50 78 51 45 52 29 53 30 54 38 55
REMARK SMILES IDX 31 56 33 57 39 58 32 59 34 60 35 61 36 62 37 63 61 64 62 65
REMARK SMILES IDX 70 66 63 67 65 68 71 69 64 70 66 71 67 72 68 73 69 74 46 75
REMARK SMILES IDX 47 76 55 77 48 78 50 79 56 80 49 81 51 82 52 83 53 84 54 85
REMARK H PARENT 10 9 76 38 44 49
REMARK Flexibility Score: inf
ROOT
ATOM      1  C   UNL A   1      31.297  29.215  25.185  1.00  0.00     0.274 C 
ENDROOT
BRANCH   1   2
ATOM      2  O   UNL A   1      31.576  29.233  23.774  1.00  0.00    -0.461 OA
BRANCH   2   3
ATOM      3  C   UNL A   1      30.774  28.473  22.981  1.00  0.00     0.325 C 
ATOM      4  O   UNL A   1      30.220  28.868  21.961  1.00  0.00    -0.250 OA
BRANCH   3   5
ATOM      5  C   UNL A   1      30.610  27.056  23.515  1.00  0.00     0.239 C 
BRANCH   5   6
ATOM      6  N   UNL A   1      31.817  26.240  23.511  1.00  0.00    -0.342 N 
ATOM      7  O   UNL A   1      31.625  25.654  25.709  1.00  0.00    -0.270 OA
ATOM      8  C   UNL A   1      32.203  25.564  24.629  1.00  0.00     0.244 C 
ATOM      9  H   UNL A   1      32.359  26.177  22.692  1.00  0.00     0.164 HD
BRANCH   8  10
ATOM     10  C   UNL A   1      33.369  24.655  24.535  1.00  0.00     0.072 C 
ATOM     11  C   UNL A   1      34.652  24.896  24.842  1.00  0.00     0.024 C 
BRANCH  11  12
ATOM     12  C   UNL A   1      35.630  23.873  24.648  1.00  0.00     0.027 A 
ATOM     13  C   UNL A   1      35.962  23.166  23.501  1.00  0.00     0.020 A 
ATOM     14  S   UNL A   1      36.608  23.357  25.967  1.00  0.00    -0.144 S 
ATOM     15  C   UNL A   1      36.969  22.183  23.716  1.00  0.00     0.012 A 
ATOM     16  C   UNL A   1      37.399  22.172  25.022  1.00  0.00     0.065 A 
ENDBRANCH  11  12
ENDBRANCH   8  10
ENDBRANCH   5   6
ENDBRANCH   3   5
ENDBRANCH   2   3
ENDBRANCH   1   2
BRANCH   1  17
ATOM     17  C   UNL A   1      31.659  30.569  25.801  1.00  0.00     0.275 C 
BRANCH  17  18
ATOM     18  O   UNL A   1      33.018  30.592  26.277  1.00  0.00    -0.458 OA
BRANCH  18  19
ATOM     19  C   UNL A   1      33.356  31.645  27.060  1.00  0.00     0.338 C 
ATOM     20  O   UNL A   1      32.685  32.634  27.311  1.00  0.00    -0.246 OA
BRANCH  19  21
ATOM     21  C   UNL A   1      34.635  31.349  27.725  1.00  0.00     0.060 A 
ATOM     22  C   UNL A   1      34.827  30.059  28.226  1.00  0.00     0.016 A 
ATOM     23  C   UNL A   1      35.616  32.329  27.889  1.00  0.00     0.016 A 
ATOM     24  C   UNL A   1      36.001  29.741  28.901  1.00  0.00     0.010 A 
ATOM     25  C   UNL A   1      36.800  32.004  28.559  1.00  0.00     0.010 A 
ATOM     26  C   UNL A   1      36.997  30.711  29.074  1.00  0.00    -0.014 A 
BRANCH  26  27
ATOM     27  C   UNL A   1      38.250  30.366  29.787  1.00  0.00     0.031 A 
ATOM     28  C   UNL A   1      39.240  29.425  29.164  1.00  0.00     0.074 A 
ATOM     29  C   UNL A   1      38.483  30.891  31.005  1.00  0.00     0.049 A 
ATOM     30  N   UNL A   1      40.350  28.949  29.664  1.00  0.00    -0.248 NA
ATOM     31  C   UNL A   1      38.942  28.957  27.801  1.00  0.00     0.031 C 
ATOM     32  C   UNL A   1      37.596  31.822  31.704  1.00  0.00     0.029 A 
ATOM     33  N   UNL A   1      39.523  30.698  31.879  1.00  0.00    -0.354 N 
ATOM     34  C   UNL A   1      40.868  28.100  28.695  1.00  0.00     0.074 A 
ATOM     35  C   UNL A   1      39.947  28.123  27.577  1.00  0.00     0.031 C 
ATOM     36  C   UNL A   1      38.121  32.108  32.906  1.00  0.00     0.029 A 
ATOM     37  C   UNL A   1      39.356  31.348  33.080  1.00  0.00     0.049 A 
ATOM     38  H   UNL A   1      40.311  30.148  31.668  1.00  0.00     0.167 HD
ATOM     39  C   UNL A   1      42.013  27.378  28.730  1.00  0.00     0.034 A 
ATOM     40  C   UNL A   1      40.097  31.311  34.204  1.00  0.00     0.034 A 
ATOM     41  C   UNL A   1      42.939  27.383  29.832  1.00  0.00     0.049 A 
ATOM     42  C   UNL A   1      41.340  30.465  34.231  1.00  0.00     0.074 A 
ATOM     43  C   UNL A   1      44.155  26.731  29.937  1.00  0.00     0.029 A 
ATOM     44  N   UNL A   1      42.745  28.065  31.024  1.00  0.00    -0.354 N 
ATOM     45  N   UNL A   1      41.875  29.754  33.268  1.00  0.00    -0.248 NA
ATOM     46  C   UNL A   1      42.092  30.429  35.494  1.00  0.00     0.031 C 
ATOM     47  C   UNL A   1      44.685  27.001  31.204  1.00  0.00     0.029 A 
ATOM     48  C   UNL A   1      43.807  27.832  31.881  1.00  0.00     0.049 A 
ATOM     49  H   UNL A   1      41.967  28.631  31.231  1.00  0.00     0.167 HD
ATOM     50  C   UNL A   1      43.032  29.198  33.800  1.00  0.00     0.074 A 
ATOM     51  C   UNL A   1      43.136  29.680  35.163  1.00  0.00     0.031 C 
ATOM     52  C   UNL A   1      43.917  28.349  33.221  1.00  0.00     0.034 A 
BRANCH  39  53
ATOM     53  C   UNL A   1      42.348  26.542  27.523  1.00  0.00     0.023 A 
ATOM     54  C   UNL A   1      43.042  27.125  26.444  1.00  0.00     0.012 A 
ATOM     55  C   UNL A   1      42.021  25.172  27.477  1.00  0.00     0.148 A 
ATOM     56  C   UNL A   1      43.381  26.365  25.325  1.00  0.00     0.002 A 
ATOM     57  C   UNL A   1      42.395  24.413  26.374  1.00  0.00     0.091 A 
ATOM     58  F   UNL A   1      41.338  24.641  28.502  1.00  0.00    -0.205 F 
ATOM     59  C   UNL A   1      43.067  25.009  25.295  1.00  0.00     0.022 A 
BRANCH  57  60
ATOM     60  S   UNL A   1      42.090  22.645  26.273  1.00  0.00     0.127 S 
ATOM     61  O   UNL A   1      42.699  22.315  24.985  1.00  0.00    -0.237 OA
ATOM     62  O   UNL A   1      42.815  22.137  27.438  1.00  0.00    -0.237 OA
ATOM     63  O   UNL A   1      40.645  22.486  26.344  1.00  0.00    -0.744 OA
ENDBRANCH  57  60
ENDBRANCH  39  53
BRANCH  40  64
ATOM     64  C   UNL A   1      39.685  32.116  35.388  1.00  0.00     0.023 A 
ATOM     65  C   UNL A   1      40.068  33.467  35.471  1.00  0.00     0.012 A 
ATOM     66  C   UNL A   1      38.882  31.564  36.406  1.00  0.00     0.148 A 
ATOM     67  C   UNL A   1      39.671  34.252  36.555  1.00  0.00     0.002 A 
ATOM     68  C   UNL A   1      38.445  32.365  37.454  1.00  0.00     0.091 A 
ATOM     69  F   UNL A   1      38.547  30.269  36.319  1.00  0.00    -0.205 F 
ATOM     70  C   UNL A   1      38.849  33.706  37.539  1.00  0.00     0.022 A 
BRANCH  68  71
ATOM     71  S   UNL A   1      37.280  31.778  38.689  1.00  0.00     0.127 S 
ATOM     72  O   UNL A   1      38.018  32.005  39.928  1.00  0.00    -0.237 OA
ATOM     73  O   UNL A   1      36.138  32.669  38.478  1.00  0.00    -0.237 OA
ATOM     74  O   UNL A   1      37.021  30.385  38.351  1.00  0.00    -0.744 OA
ENDBRANCH  68  71
ENDBRANCH  40  64
BRANCH  52  75
ATOM     75  C   UNL A   1      45.080  27.882  34.056  1.00  0.00     0.023 A 
ATOM     76  C   UNL A   1      46.259  28.653  34.089  1.00  0.00     0.012 A 
ATOM     77  C   UNL A   1      44.978  26.736  34.866  1.00  0.00     0.148 A 
ATOM     78  C   UNL A   1      47.329  28.276  34.898  1.00  0.00     0.002 A 
ATOM     79  C   UNL A   1      46.032  26.390  35.704  1.00  0.00     0.091 A 
ATOM     80  F   UNL A   1      43.853  26.008  34.806  1.00  0.00    -0.205 F 
ATOM     81  C   UNL A   1      47.212  27.152  35.714  1.00  0.00     0.022 A 
BRANCH  79  82
ATOM     82  S   UNL A   1      45.941  25.012  36.854  1.00  0.00     0.127 S 
ATOM     83  O   UNL A   1      44.813  25.402  37.698  1.00  0.00    -0.237 OA
ATOM     84  O   UNL A   1      45.675  23.882  35.963  1.00  0.00    -0.237 OA
ATOM     85  O   UNL A   1      47.233  24.963  37.525  1.00  0.00    -0.744 OA
ENDBRANCH  79  82
ENDBRANCH  52  75
ENDBRANCH  26  27
ENDBRANCH  19  21
ENDBRANCH  18  19
ENDBRANCH  17  18
ENDBRANCH   1  17
TORSDOF 17
ENDMDL
MODEL 3
REMARK VINA RESULT:      -9.4      4.261     11.690
REMARK SMILES O=C(/C=C/c1cccs1)NCC(=O)OCCOC(=O)c1ccc(-c2c3nc(c(-c4cccc(S(=O)(=O)[O-])c4F)c4ccc([nH]4)c(-c4cccc(S(=O)(=O)[O-])c4F)c4nc(c(-c5cccc(S(=O)(=O)[O-])c5F)c5ccc2[nH]5)C=C4)C=C3)cc1
REMARK SMILES IDX 15 1 14 2 12 3 13 4 11 5 10 6 1 7 2 8 3 10 4 11 5 12 6 13
REMARK SMILES IDX 9 14 7 15 8 16 16 17 17 18 18 19 19 20 20 21 21 22 82 23
REMARK SMILES IDX 22 24 81 25 23 26 24 27 25 28 75 29 26 30 80 31 74 32 76 33
REMARK SMILES IDX 27 34 79 35 73 36 72 37 28 39 60 40 40 41 59 42 41 43 44 44
REMARK SMILES IDX 58 45 77 46 42 47 43 48 57 50 78 51 45 52 29 53 30 54 38 55
REMARK SMILES IDX 31 56 33 57 39 58 32 59 34 60 35 61 36 62 37 63 61 64 62 65
REMARK SMILES IDX 70 66 63 67 65 68 71 69 64 70 66 71 67 72 68 73 69 74 46 75
REMARK SMILES IDX 47 76 55 77 48 78 50 79 56 80 49 81 51 82 52 83 53 84 54 85
REMARK H PARENT 10 9 76 38 44 49
REMARK Flexibility Score: inf
ROOT
ATOM      1  C   UNL A   1      34.043  34.255  28.620  1.00  0.00     0.274 C 
ENDROOT
BRANCH   1   2
ATOM      2  O   UNL A   1      32.808  34.899  28.980  1.00  0.00    -0.461 OA
BRANCH   2   3
ATOM      3  C   UNL A   1      32.880  36.214  29.320  1.00  0.00     0.325 C 
ATOM      4  O   UNL A   1      33.053  37.134  28.528  1.00  0.00    -0.250 OA
BRANCH   3   5
ATOM      5  C   UNL A   1      32.746  36.430  30.821  1.00  0.00     0.239 C 
BRANCH   5   6
ATOM      6  N   UNL A   1      33.967  36.248  31.594  1.00  0.00    -0.342 N 
ATOM      7  O   UNL A   1      33.194  34.400  32.688  1.00  0.00    -0.270 OA
ATOM      8  C   UNL A   1      34.097  35.198  32.451  1.00  0.00     0.244 C 
ATOM      9  H   UNL A   1      34.706  36.891  31.495  1.00  0.00     0.164 HD
BRANCH   8  10
ATOM     10  C   UNL A   1      35.403  34.993  33.121  1.00  0.00     0.072 C 
ATOM     11  C   UNL A   1      36.550  34.527  32.606  1.00  0.00     0.024 C 
BRANCH  11  12
ATOM     12  C   UNL A   1      37.695  34.383  33.448  1.00  0.00     0.027 A 
ATOM     13  C   UNL A   1      37.773  34.179  34.818  1.00  0.00     0.020 A 
ATOM     14  S   UNL A   1      39.276  34.453  32.769  1.00  0.00    -0.144 S 
ATOM     15  C   UNL A   1      39.110  34.132  35.307  1.00  0.00     0.012 A 
ATOM     16  C   UNL A   1      40.027  34.283  34.294  1.00  0.00     0.065 A 
ENDBRANCH  11  12
ENDBRANCH   8  10
ENDBRANCH   5   6
ENDBRANCH   3   5
ENDBRANCH   2   3
ENDBRANCH   1   2
BRANCH   1  17
ATOM     17  C   UNL A   1      33.751  32.877  28.019  1.00  0.00     0.275 C 
BRANCH  17  18
ATOM     18  O   UNL A   1      34.408  31.825  28.753  1.00  0.00    -0.458 OA
BRANCH  18  19
ATOM     19  C   UNL A   1      34.746  30.725  28.039  1.00  0.00     0.338 C 
ATOM     20  O   UNL A   1      34.165  30.253  27.074  1.00  0.00    -0.246 OA
BRANCH  19  21
ATOM     21  C   UNL A   1      36.056  30.243  28.505  1.00  0.00     0.060 A 
ATOM     22  C   UNL A   1      37.160  30.444  27.672  1.00  0.00     0.016 A 
ATOM     23  C   UNL A   1      36.196  29.572  29.722  1.00  0.00     0.016 A 
ATOM     24  C   UNL A   1      38.412  29.969  28.049  1.00  0.00     0.010 A 
ATOM     25  C   UNL A   1      37.458  29.104  30.102  1.00  0.00     0.010 A 
ATOM     26  C   UNL A   1      38.572  29.295  29.266  1.00  0.00    -0.014 A 
BRANCH  26  27
ATOM     27  C   UNL A   1      39.910  28.797  29.666  1.00  0.00     0.031 A 
ATOM     28  C   UNL A   1      40.684  29.495  30.746  1.00  0.00     0.074 A 
ATOM     29  C   UNL A   1      40.430  27.724  29.039  1.00  0.00     0.049 A 
ATOM     30  N   UNL A   1      41.893  29.253  31.179  1.00  0.00    -0.248 NA
ATOM     31  C   UNL A   1      40.011  30.611  31.428  1.00  0.00     0.031 C 
ATOM     32  C   UNL A   1      39.765  26.962  27.982  1.00  0.00     0.029 A 
ATOM     33  N   UNL A   1      41.645  27.105  29.185  1.00  0.00    -0.354 N 
ATOM     34  C   UNL A   1      42.143  30.205  32.159  1.00  0.00     0.074 A 
ATOM     35  C   UNL A   1      40.958  31.033  32.254  1.00  0.00     0.031 C 
ATOM     36  C   UNL A   1      40.586  25.987  27.562  1.00  0.00     0.029 A 
ATOM     37  C   UNL A   1      41.848  26.081  28.289  1.00  0.00     0.049 A 
ATOM     38  H   UNL A   1      42.307  27.367  29.865  1.00  0.00     0.167 HD
ATOM     39  C   UNL A   1      43.252  30.365  32.918  1.00  0.00     0.034 A 
ATOM     40  C   UNL A   1      42.940  25.327  28.057  1.00  0.00     0.034 A 
ATOM     41  C   UNL A   1      44.414  29.520  32.838  1.00  0.00     0.049 A 
ATOM     42  C   UNL A   1      44.175  25.556  28.885  1.00  0.00     0.074 A 
ATOM     43  C   UNL A   1      45.565  29.566  33.606  1.00  0.00     0.029 A 
ATOM     44  N   UNL A   1      44.579  28.486  31.931  1.00  0.00    -0.354 N 
ATOM     45  N   UNL A   1      44.357  26.388  29.882  1.00  0.00    -0.248 NA
ATOM     46  C   UNL A   1      45.350  24.732  28.567  1.00  0.00     0.031 C 
ATOM     47  C   UNL A   1      46.436  28.572  33.145  1.00  0.00     0.029 A 
ATOM     48  C   UNL A   1      45.821  27.898  32.101  1.00  0.00     0.049 A 
ATOM     49  H   UNL A   1      43.912  28.209  31.263  1.00  0.00     0.167 HD
ATOM     50  C   UNL A   1      45.659  26.179  30.321  1.00  0.00     0.074 A 
ATOM     51  C   UNL A   1      46.211  25.120  29.500  1.00  0.00     0.031 C 
ATOM     52  C   UNL A   1      46.343  26.819  31.301  1.00  0.00     0.034 A 
BRANCH  39  53
ATOM     53  C   UNL A   1      43.252  31.482  33.927  1.00  0.00     0.023 A 
ATOM     54  C   UNL A   1      43.726  32.756  33.555  1.00  0.00     0.012 A 
ATOM     55  C   UNL A   1      42.739  31.287  35.225  1.00  0.00     0.148 A 
ATOM     56  C   UNL A   1      43.716  33.812  34.467  1.00  0.00     0.002 A 
ATOM     57  C   UNL A   1      42.698  32.352  36.116  1.00  0.00     0.091 A 
ATOM     58  F   UNL A   1      42.316  30.061  35.569  1.00  0.00    -0.205 F 
ATOM     59  C   UNL A   1      43.193  33.612  35.742  1.00  0.00     0.022 A 
BRANCH  57  60
ATOM     60  S   UNL A   1      41.985  32.209  37.759  1.00  0.00     0.127 S 
ATOM     61  O   UNL A   1      42.182  33.559  38.285  1.00  0.00    -0.237 OA
ATOM     62  O   UNL A   1      40.593  31.867  37.466  1.00  0.00    -0.237 OA
ATOM     63  O   UNL A   1      42.737  31.158  38.429  1.00  0.00    -0.744 OA
ENDBRANCH  57  60
ENDBRANCH  39  53
BRANCH  40  64
ATOM     64  C   UNL A   1      42.901  24.273  27.005  1.00  0.00     0.023 A 
ATOM     65  C   UNL A   1      43.567  24.490  25.785  1.00  0.00     0.012 A 
ATOM     66  C   UNL A   1      42.248  23.043  27.224  1.00  0.00     0.148 A 
ATOM     67  C   UNL A   1      43.571  23.507  24.793  1.00  0.00     0.002 A 
ATOM     68  C   UNL A   1      42.302  22.048  26.255  1.00  0.00     0.091 A 
ATOM     69  F   UNL A   1      41.600  22.865  28.384  1.00  0.00    -0.205 F 
ATOM     70  C   UNL A   1      42.950  22.283  25.033  1.00  0.00     0.022 A 
BRANCH  68  71
ATOM     71  S   UNL A   1      41.644  20.400  26.534  1.00  0.00     0.127 S 
ATOM     72  O   UNL A   1      40.205  20.642  26.497  1.00  0.00    -0.237 OA
ATOM     73  O   UNL A   1      42.176  19.662  25.387  1.00  0.00    -0.237 OA
ATOM     74  O   UNL A   1      42.184  19.977  27.819  1.00  0.00    -0.744 OA
ENDBRANCH  68  71
ENDBRANCH  40  64
BRANCH  52  75
ATOM     75  C   UNL A   1      47.767  26.396  31.545  1.00  0.00     0.023 A 
ATOM     76  C   UNL A   1      48.042  25.442  32.544  1.00  0.00     0.012 A 
ATOM     77  C   UNL A   1      48.816  26.876  30.737  1.00  0.00     0.148 A 
ATOM     78  C   UNL A   1      49.344  24.988  32.752  1.00  0.00     0.002 A 
ATOM     79  C   UNL A   1      50.104  26.387  30.920  1.00  0.00     0.091 A 
ATOM     80  F   UNL A   1      48.533  27.797  29.803  1.00  0.00    -0.205 F 
ATOM     81  C   UNL A   1      50.372  25.451  31.933  1.00  0.00     0.022 A 
BRANCH  79  82
ATOM     82  S   UNL A   1      51.476  26.857  29.859  1.00  0.00     0.127 S 
ATOM     83  O   UNL A   1      51.590  28.288  30.135  1.00  0.00    -0.237 OA
ATOM     84  O   UNL A   1      52.571  26.044  30.390  1.00  0.00    -0.237 OA
ATOM     85  O   UNL A   1      51.071  26.514  28.503  1.00  0.00    -0.744 OA
ENDBRANCH  79  82
ENDBRANCH  52  75
ENDBRANCH  26  27
ENDBRANCH  19  21
ENDBRANCH  18  19
ENDBRANCH  17  18
ENDBRANCH   1  17
TORSDOF 17
ENDMDL
