MODEL 1
REMARK VINA RESULT:     -13.5      0.000      0.000
REMARK SMILES C[C@@H](CCC(=O)OCCOC(=O)c1ccc(-c2c3nc(c(-c4cccc(S(=O)(=O)[O-])c4F)c4ccc([nH]4)c(-c4cccc(S(=O)(=O)[O-])c4F)c4nc(c(-c5cccc(S(=O)(=O)[O-])c5F)c5ccc2[nH]5)C=C4)C=C3)cc1)[C@@H]1CC[C@H]2[C@@H]3CC[C@H]4CC(=O)CC[C@@]4(C)[C@H]3CC(=O)[C@@]21C
REMARK SMILES IDX 8 1 7 2 5 3 6 4 4 5 3 6 2 7 1 8 76 9 77 10 95 11 78 12 79 13
REMARK SMILES IDX 93 14 96 15 80 16 92 17 94 18 81 19 91 20 82 21 89 22 83 23
REMARK SMILES IDX 88 24 90 25 84 26 87 27 85 28 86 29 9 30 10 31 11 32 12 33
REMARK SMILES IDX 13 34 14 35 75 36 15 37 74 38 16 39 17 40 18 41 68 42 19 43
REMARK SMILES IDX 73 44 67 45 69 46 20 47 72 48 66 49 65 50 21 52 53 53 33 54
REMARK SMILES IDX 52 55 34 56 37 57 51 58 70 59 35 60 36 61 50 63 71 64 38 65
REMARK SMILES IDX 22 66 23 67 31 68 24 69 26 70 32 71 25 72 27 73 28 74 29 75
REMARK SMILES IDX 30 76 54 77 55 78 63 79 56 80 58 81 64 82 57 83 59 84 60 85
REMARK SMILES IDX 61 86 62 87 39 88 40 89 48 90 41 91 43 92 49 93 42 94 44 95
REMARK SMILES IDX 45 96 46 97 47 98
REMARK H PARENT 69 51 37 62
REMARK Flexibility Score: inf
ROOT
ATOM      1  C   UNL A   1      38.426  19.734  24.995  1.00  0.00     0.274 C 
ENDROOT
BRANCH   1   2
ATOM      2  O   UNL A   1      38.177  21.162  25.129  1.00  0.00    -0.462 OA
BRANCH   2   3
ATOM      3  C   UNL A   1      36.981  21.609  24.655  1.00  0.00     0.305 C 
ATOM      4  O   UNL A   1      36.896  22.312  23.651  1.00  0.00    -0.252 OA
BRANCH   3   5
ATOM      5  C   UNL A   1      35.714  21.058  25.346  1.00  0.00     0.123 C 
BRANCH   5   6
ATOM      6  C   UNL A   1      34.645  20.015  24.870  1.00  0.00     0.015 C 
BRANCH   6   7
ATOM      7  C   UNL A   1      33.194  19.866  25.489  1.00  0.00    -0.010 C 
ATOM      8  C   UNL A   1      32.733  18.440  25.221  1.00  0.00     0.008 C 
BRANCH   7   9
ATOM      9  C   UNL A   1      32.289  20.994  24.971  1.00  0.00     0.005 C 
ATOM     10  C   UNL A   1      32.531  21.051  23.442  1.00  0.00     0.005 C 
ATOM     11  C   UNL A   1      31.998  22.519  25.405  1.00  0.00     0.032 C 
ATOM     12  C   UNL A   1      31.790  22.249  23.005  1.00  0.00     0.005 C 
ATOM     13  C   UNL A   1      32.241  23.230  24.030  1.00  0.00     0.006 C 
ATOM     14  C   UNL A   1      32.771  23.516  26.281  1.00  0.00     0.139 C 
ATOM     15  C   UNL A   1      30.567  22.567  26.029  1.00  0.00     0.020 C 
ATOM     16  C   UNL A   1      31.700  24.620  23.745  1.00  0.00    -0.003 C 
ATOM     17  C   UNL A   1      32.214  25.006  26.217  1.00  0.00     0.080 C 
ATOM     18  O   UNL A   1      33.703  23.189  27.010  1.00  0.00    -0.299 OA
ATOM     19  C   UNL A   1      32.195  25.035  22.341  1.00  0.00     0.004 C 
ATOM     20  C   UNL A   1      32.249  25.602  24.781  1.00  0.00     0.006 C 
ATOM     21  C   UNL A   1      31.908  26.465  21.972  1.00  0.00     0.005 C 
ATOM     22  C   UNL A   1      31.699  27.070  24.481  1.00  0.00    -0.025 C 
ATOM     23  C   UNL A   1      32.278  27.469  23.081  1.00  0.00     0.002 C 
ATOM     24  C   UNL A   1      30.140  27.256  24.469  1.00  0.00     0.015 C 
ATOM     25  C   UNL A   1      32.262  27.995  25.586  1.00  0.00     0.012 C 
ATOM     26  C   UNL A   1      31.845  28.863  22.637  1.00  0.00     0.079 C 
ATOM     27  C   UNL A   1      29.482  28.014  23.290  1.00  0.00     0.076 C 
ATOM     28  C   UNL A   1      30.360  28.894  22.420  1.00  0.00     0.133 C 
ATOM     29  O   UNL A   1      29.868  29.619  21.553  1.00  0.00    -0.300 OA
ENDBRANCH   7   9
ENDBRANCH   6   7
ENDBRANCH   5   6
ENDBRANCH   3   5
ENDBRANCH   2   3
ENDBRANCH   1   2
BRANCH   1  30
ATOM     30  C   UNL A   1      39.700  19.295  25.738  1.00  0.00     0.275 C 
BRANCH  30  31
ATOM     31  O   UNL A   1      39.914  20.176  26.853  1.00  0.00    -0.458 OA
BRANCH  31  32
ATOM     32  C   UNL A   1      41.186  20.593  27.061  1.00  0.00     0.338 C 
ATOM     33  O   UNL A   1      42.203  19.930  26.871  1.00  0.00    -0.246 OA
BRANCH  32  34
ATOM     34  C   UNL A   1      41.185  22.035  27.423  1.00  0.00     0.060 A 
ATOM     35  C   UNL A   1      41.932  22.518  28.512  1.00  0.00     0.016 A 
ATOM     36  C   UNL A   1      40.382  22.919  26.697  1.00  0.00     0.016 A 
ATOM     37  C   UNL A   1      41.963  23.883  28.800  1.00  0.00     0.010 A 
ATOM     38  C   UNL A   1      40.457  24.290  26.948  1.00  0.00     0.010 A 
ATOM     39  C   UNL A   1      41.306  24.785  27.951  1.00  0.00    -0.014 A 
BRANCH  39  40
ATOM     40  C   UNL A   1      41.725  26.212  27.877  1.00  0.00     0.031 A 
ATOM     41  C   UNL A   1      43.105  26.610  27.450  1.00  0.00     0.074 A 
ATOM     42  C   UNL A   1      40.885  27.114  28.428  1.00  0.00     0.049 A 
ATOM     43  N   UNL A   1      43.708  27.763  27.589  1.00  0.00    -0.248 NA
ATOM     44  C   UNL A   1      43.923  25.577  26.800  1.00  0.00     0.031 C 
ATOM     45  C   UNL A   1      39.538  26.813  28.931  1.00  0.00     0.029 A 
ATOM     46  N   UNL A   1      41.054  28.442  28.730  1.00  0.00    -0.354 N 
ATOM     47  C   UNL A   1      44.996  27.586  27.094  1.00  0.00     0.074 A 
ATOM     48  C   UNL A   1      45.079  26.213  26.637  1.00  0.00     0.031 C 
ATOM     49  C   UNL A   1      39.026  27.901  29.518  1.00  0.00     0.029 A 
ATOM     50  C   UNL A   1      40.024  28.957  29.488  1.00  0.00     0.049 A 
ATOM     51  H   UNL A   1      41.830  28.972  28.437  1.00  0.00     0.167 HD
ATOM     52  C   UNL A   1      46.008  28.487  27.038  1.00  0.00     0.034 A 
ATOM     53  C   UNL A   1      39.908  30.127  30.143  1.00  0.00     0.034 A 
ATOM     54  C   UNL A   1      45.894  29.846  27.507  1.00  0.00     0.049 A 
ATOM     55  C   UNL A   1      41.037  31.108  30.052  1.00  0.00     0.074 A 
ATOM     56  C   UNL A   1      46.826  30.867  27.432  1.00  0.00     0.029 A 
ATOM     57  N   UNL A   1      44.788  30.368  28.166  1.00  0.00    -0.354 N 
ATOM     58  N   UNL A   1      42.199  30.969  29.464  1.00  0.00    -0.248 NA
ATOM     59  C   UNL A   1      40.829  32.417  30.683  1.00  0.00     0.031 C 
ATOM     60  C   UNL A   1      46.301  31.989  28.081  1.00  0.00     0.029 A 
ATOM     61  C   UNL A   1      45.021  31.688  28.516  1.00  0.00     0.049 A 
ATOM     62  H   UNL A   1      43.960  29.873  28.355  1.00  0.00     0.167 HD
ATOM     63  C   UNL A   1      42.850  32.184  29.619  1.00  0.00     0.074 A 
ATOM     64  C   UNL A   1      41.943  33.051  30.345  1.00  0.00     0.031 C 
ATOM     65  C   UNL A   1      44.089  32.546  29.206  1.00  0.00     0.034 A 
BRANCH  52  66
ATOM     66  C   UNL A   1      47.327  28.042  26.448  1.00  0.00     0.023 A 
ATOM     67  C   UNL A   1      48.387  27.668  27.300  1.00  0.00     0.012 A 
ATOM     68  C   UNL A   1      47.501  27.934  25.052  1.00  0.00     0.148 A 
ATOM     69  C   UNL A   1      49.609  27.242  26.776  1.00  0.00     0.002 A 
ATOM     70  C   UNL A   1      48.706  27.466  24.538  1.00  0.00     0.091 A 
ATOM     71  F   UNL A   1      46.489  28.298  24.252  1.00  0.00    -0.205 F 
ATOM     72  C   UNL A   1      49.766  27.135  25.397  1.00  0.00     0.022 A 
BRANCH  70  73
ATOM     73  S   UNL A   1      48.985  27.214  22.780  1.00  0.00     0.127 S 
ATOM     74  O   UNL A   1      50.447  27.186  22.715  1.00  0.00    -0.237 OA
ATOM     75  O   UNL A   1      48.341  25.920  22.550  1.00  0.00    -0.237 OA
ATOM     76  O   UNL A   1      48.353  28.339  22.105  1.00  0.00    -0.744 OA
ENDBRANCH  70  73
ENDBRANCH  52  66
BRANCH  53  77
ATOM     77  C   UNL A   1      38.663  30.427  30.906  1.00  0.00     0.023 A 
ATOM     78  C   UNL A   1      38.565  30.023  32.250  1.00  0.00     0.012 A 
ATOM     79  C   UNL A   1      37.610  31.171  30.333  1.00  0.00     0.148 A 
ATOM     80  C   UNL A   1      37.431  30.326  33.004  1.00  0.00     0.002 A 
ATOM     81  C   UNL A   1      36.509  31.519  31.107  1.00  0.00     0.091 A 
ATOM     82  F   UNL A   1      37.723  31.550  29.053  1.00  0.00    -0.205 F 
ATOM     83  C   UNL A   1      36.410  31.083  32.438  1.00  0.00     0.022 A 
BRANCH  81  84
ATOM     84  S   UNL A   1      35.211  32.609  30.510  1.00  0.00     0.127 S 
ATOM     85  O   UNL A   1      34.304  32.649  31.653  1.00  0.00    -0.237 OA
ATOM     86  O   UNL A   1      35.949  33.849  30.264  1.00  0.00    -0.237 OA
ATOM     87  O   UNL A   1      34.686  31.976  29.307  1.00  0.00    -0.744 OA
ENDBRANCH  81  84
ENDBRANCH  53  77
BRANCH  65  88
ATOM     88  C   UNL A   1      44.517  33.962  29.481  1.00  0.00     0.023 A 
ATOM     89  C   UNL A   1      45.132  34.294  30.705  1.00  0.00     0.012 A 
ATOM     90  C   UNL A   1      44.361  34.954  28.493  1.00  0.00     0.148 A 
ATOM     91  C   UNL A   1      45.557  35.599  30.952  1.00  0.00     0.002 A 
ATOM     92  C   UNL A   1      44.837  36.237  28.724  1.00  0.00     0.091 A 
ATOM     93  F   UNL A   1      43.751  34.621  27.346  1.00  0.00    -0.205 F 
ATOM     94  C   UNL A   1      45.422  36.565  29.957  1.00  0.00     0.022 A 
BRANCH  92  95
ATOM     95  S   UNL A   1      44.800  37.518  27.466  1.00  0.00     0.127 S 
ATOM     96  O   UNL A   1      43.394  37.500  27.066  1.00  0.00    -0.237 OA
ATOM     97  O   UNL A   1      45.204  38.703  28.223  1.00  0.00    -0.237 OA
ATOM     98  O   UNL A   1      45.745  37.103  26.438  1.00  0.00    -0.744 OA
ENDBRANCH  92  95
ENDBRANCH  65  88
ENDBRANCH  39  40
ENDBRANCH  32  34
ENDBRANCH  31  32
ENDBRANCH  30  31
ENDBRANCH   1  30
TORSDOF 17
ENDMDL
MODEL 2
REMARK VINA RESULT:     -13.4      4.922     10.716
REMARK SMILES C[C@@H](CCC(=O)OCCOC(=O)c1ccc(-c2c3nc(c(-c4cccc(S(=O)(=O)[O-])c4F)c4ccc([nH]4)c(-c4cccc(S(=O)(=O)[O-])c4F)c4nc(c(-c5cccc(S(=O)(=O)[O-])c5F)c5ccc2[nH]5)C=C4)C=C3)cc1)[C@@H]1CC[C@H]2[C@@H]3CC[C@H]4CC(=O)CC[C@@]4(C)[C@H]3CC(=O)[C@@]21C
REMARK SMILES IDX 8 1 7 2 5 3 6 4 4 5 3 6 2 7 1 8 76 9 77 10 95 11 78 12 79 13
REMARK SMILES IDX 93 14 96 15 80 16 92 17 94 18 81 19 91 20 82 21 89 22 83 23
REMARK SMILES IDX 88 24 90 25 84 26 87 27 85 28 86 29 9 30 10 31 11 32 12 33
REMARK SMILES IDX 13 34 14 35 75 36 15 37 74 38 16 39 17 40 18 41 68 42 19 43
REMARK SMILES IDX 73 44 67 45 69 46 20 47 72 48 66 49 65 50 21 52 53 53 33 54
REMARK SMILES IDX 52 55 34 56 37 57 51 58 70 59 35 60 36 61 50 63 71 64 38 65
REMARK SMILES IDX 22 66 23 67 31 68 24 69 26 70 32 71 25 72 27 73 28 74 29 75
REMARK SMILES IDX 30 76 54 77 55 78 63 79 56 80 58 81 64 82 57 83 59 84 60 85
REMARK SMILES IDX 61 86 62 87 39 88 40 89 48 90 41 91 43 92 49 93 42 94 44 95
REMARK SMILES IDX 45 96 46 97 47 98
REMARK H PARENT 69 51 37 62
REMARK Flexibility Score: inf
ROOT
ATOM      1  C   UNL A   1      31.304  31.250  26.290  1.00  0.00     0.274 C 
ENDROOT
BRANCH   1   2
ATOM      2  O   UNL A   1      32.172  30.135  26.640  1.00  0.00    -0.462 OA
BRANCH   2   3
ATOM      3  C   UNL A   1      32.674  29.416  25.598  1.00  0.00     0.305 C 
ATOM      4  O   UNL A   1      32.372  29.655  24.431  1.00  0.00    -0.252 OA
BRANCH   3   5
ATOM      5  C   UNL A   1      33.770  28.381  25.937  1.00  0.00     0.123 C 
BRANCH   5   6
ATOM      6  C   UNL A   1      33.712  26.822  26.082  1.00  0.00     0.015 C 
BRANCH   6   7
ATOM      7  C   UNL A   1      34.079  25.795  24.933  1.00  0.00    -0.010 C 
ATOM      8  C   UNL A   1      33.272  26.188  23.702  1.00  0.00     0.008 C 
BRANCH   7   9
ATOM      9  C   UNL A   1      33.903  24.357  25.445  1.00  0.00     0.005 C 
ATOM     10  C   UNL A   1      35.329  23.864  25.795  1.00  0.00     0.005 C 
ATOM     11  C   UNL A   1      33.122  23.046  24.927  1.00  0.00     0.032 C 
ATOM     12  C   UNL A   1      35.148  22.435  26.112  1.00  0.00     0.005 C 
ATOM     13  C   UNL A   1      34.301  22.013  24.962  1.00  0.00     0.006 C 
ATOM     14  C   UNL A   1      32.553  22.647  23.558  1.00  0.00     0.139 C 
ATOM     15  C   UNL A   1      31.902  22.818  25.875  1.00  0.00     0.020 C 
ATOM     16  C   UNL A   1      34.049  20.516  24.979  1.00  0.00    -0.003 C 
ATOM     17  C   UNL A   1      32.084  21.128  23.465  1.00  0.00     0.080 C 
ATOM     18  O   UNL A   1      32.418  23.438  22.630  1.00  0.00    -0.299 OA
ATOM     19  C   UNL A   1      35.423  19.810  24.929  1.00  0.00     0.004 C 
ATOM     20  C   UNL A   1      33.237  20.123  23.743  1.00  0.00     0.006 C 
ATOM     21  C   UNL A   1      35.355  18.318  24.748  1.00  0.00     0.005 C 
ATOM     22  C   UNL A   1      32.980  18.548  23.742  1.00  0.00    -0.025 C 
ATOM     23  C   UNL A   1      34.393  17.881  23.626  1.00  0.00     0.002 C 
ATOM     24  C   UNL A   1      32.226  17.950  24.982  1.00  0.00     0.015 C 
ATOM     25  C   UNL A   1      32.127  18.233  22.491  1.00  0.00     0.012 C 
ATOM     26  C   UNL A   1      34.329  16.357  23.610  1.00  0.00     0.079 C 
ATOM     27  C   UNL A   1      32.803  16.695  25.681  1.00  0.00     0.076 C 
ATOM     28  C   UNL A   1      33.813  15.851  24.926  1.00  0.00     0.133 C 
ATOM     29  O   UNL A   1      34.204  14.774  25.382  1.00  0.00    -0.300 OA
ENDBRANCH   7   9
ENDBRANCH   6   7
ENDBRANCH   5   6
ENDBRANCH   3   5
ENDBRANCH   2   3
ENDBRANCH   1   2
BRANCH   1  30
ATOM     30  C   UNL A   1      31.769  32.571  26.927  1.00  0.00     0.275 C 
BRANCH  30  31
ATOM     31  O   UNL A   1      32.853  32.295  27.828  1.00  0.00    -0.458 OA
BRANCH  31  32
ATOM     32  C   UNL A   1      33.960  33.066  27.699  1.00  0.00     0.338 C 
ATOM     33  O   UNL A   1      33.979  34.256  27.396  1.00  0.00    -0.246 OA
BRANCH  32  34
ATOM     34  C   UNL A   1      35.158  32.292  28.120  1.00  0.00     0.060 A 
ATOM     35  C   UNL A   1      36.382  32.929  28.392  1.00  0.00     0.016 A 
ATOM     36  C   UNL A   1      35.078  30.899  28.194  1.00  0.00     0.016 A 
ATOM     37  C   UNL A   1      37.480  32.192  28.840  1.00  0.00     0.010 A 
ATOM     38  C   UNL A   1      36.156  30.168  28.696  1.00  0.00     0.010 A 
ATOM     39  C   UNL A   1      37.335  30.820  29.094  1.00  0.00    -0.014 A 
BRANCH  39  40
ATOM     40  C   UNL A   1      38.243  30.116  30.041  1.00  0.00     0.031 A 
ATOM     41  C   UNL A   1      38.457  30.602  31.442  1.00  0.00     0.074 A 
ATOM     42  C   UNL A   1      39.036  29.159  29.513  1.00  0.00     0.049 A 
ATOM     43  N   UNL A   1      39.397  30.277  32.290  1.00  0.00    -0.248 NA
ATOM     44  C   UNL A   1      37.503  31.598  31.952  1.00  0.00     0.031 C 
ATOM     45  C   UNL A   1      38.948  28.656  28.136  1.00  0.00     0.029 A 
ATOM     46  N   UNL A   1      40.117  28.491  30.033  1.00  0.00    -0.354 N 
ATOM     47  C   UNL A   1      39.187  31.063  33.419  1.00  0.00     0.074 A 
ATOM     48  C   UNL A   1      38.014  31.872  33.147  1.00  0.00     0.031 C 
ATOM     49  C   UNL A   1      39.952  27.803  27.905  1.00  0.00     0.029 A 
ATOM     50  C   UNL A   1      40.789  27.741  29.091  1.00  0.00     0.049 A 
ATOM     51  H   UNL A   1      40.384  28.542  30.979  1.00  0.00     0.167 HD
ATOM     52  C   UNL A   1      39.912  31.105  34.564  1.00  0.00     0.034 A 
ATOM     53  C   UNL A   1      41.981  27.116  29.146  1.00  0.00     0.034 A 
ATOM     54  C   UNL A   1      41.079  30.290  34.801  1.00  0.00     0.049 A 
ATOM     55  C   UNL A   1      42.754  27.169  30.428  1.00  0.00     0.074 A 
ATOM     56  C   UNL A   1      41.846  30.193  35.948  1.00  0.00     0.029 A 
ATOM     57  N   UNL A   1      41.664  29.451  33.861  1.00  0.00    -0.354 N 
ATOM     58  N   UNL A   1      42.469  27.814  31.532  1.00  0.00    -0.248 NA
ATOM     59  C   UNL A   1      43.992  26.383  30.488  1.00  0.00     0.031 C 
ATOM     60  C   UNL A   1      42.916  29.330  35.689  1.00  0.00     0.029 A 
ATOM     61  C   UNL A   1      42.790  28.846  34.397  1.00  0.00     0.049 A 
ATOM     62  H   UNL A   1      41.328  29.305  32.948  1.00  0.00     0.167 HD
ATOM     63  C   UNL A   1      43.470  27.485  32.433  1.00  0.00     0.074 A 
ATOM     64  C   UNL A   1      44.360  26.569  31.747  1.00  0.00     0.031 C 
ATOM     65  C   UNL A   1      43.642  27.908  33.709  1.00  0.00     0.034 A 
BRANCH  52  66
ATOM     66  C   UNL A   1      39.472  32.057  35.653  1.00  0.00     0.023 A 
ATOM     67  C   UNL A   1      38.597  31.611  36.665  1.00  0.00     0.012 A 
ATOM     68  C   UNL A   1      39.970  33.375  35.712  1.00  0.00     0.148 A 
ATOM     69  C   UNL A   1      38.188  32.470  37.686  1.00  0.00     0.002 A 
ATOM     70  C   UNL A   1      39.594  34.213  36.758  1.00  0.00     0.091 A 
ATOM     71  F   UNL A   1      40.797  33.791  34.742  1.00  0.00    -0.205 F 
ATOM     72  C   UNL A   1      38.691  33.767  37.736  1.00  0.00     0.022 A 
BRANCH  70  73
ATOM     73  S   UNL A   1      40.247  35.875  36.961  1.00  0.00     0.127 S 
ATOM     74  O   UNL A   1      39.687  36.556  35.793  1.00  0.00    -0.237 OA
ATOM     75  O   UNL A   1      39.660  36.281  38.240  1.00  0.00    -0.237 OA
ATOM     76  O   UNL A   1      41.696  35.742  36.969  1.00  0.00    -0.744 OA
ENDBRANCH  70  73
ENDBRANCH  52  66
BRANCH  53  77
ATOM     77  C   UNL A   1      42.480  26.371  27.955  1.00  0.00     0.023 A 
ATOM     78  C   UNL A   1      43.451  26.966  27.128  1.00  0.00     0.012 A 
ATOM     79  C   UNL A   1      42.055  25.055  27.680  1.00  0.00     0.148 A 
ATOM     80  C   UNL A   1      43.970  26.278  26.031  1.00  0.00     0.002 A 
ATOM     81  C   UNL A   1      42.619  24.354  26.619  1.00  0.00     0.091 A 
ATOM     82  F   UNL A   1      41.132  24.504  28.480  1.00  0.00    -0.205 F 
ATOM     83  C   UNL A   1      43.563  24.970  25.784  1.00  0.00     0.022 A 
BRANCH  81  84
ATOM     84  S   UNL A   1      42.264  22.620  26.307  1.00  0.00     0.127 S 
ATOM     85  O   UNL A   1      42.957  22.397  25.041  1.00  0.00    -0.237 OA
ATOM     86  O   UNL A   1      42.878  21.974  27.468  1.00  0.00    -0.237 OA
ATOM     87  O   UNL A   1      40.812  22.516  26.261  1.00  0.00    -0.744 OA
ENDBRANCH  81  84
ENDBRANCH  53  77
BRANCH  65  88
ATOM     88  C   UNL A   1      44.811  27.341  34.468  1.00  0.00     0.023 A 
ATOM     89  C   UNL A   1      46.057  27.997  34.448  1.00  0.00     0.012 A 
ATOM     90  C   UNL A   1      44.650  26.183  35.254  1.00  0.00     0.148 A 
ATOM     91  C   UNL A   1      47.135  27.491  35.173  1.00  0.00     0.002 A 
ATOM     92  C   UNL A   1      45.711  25.718  36.018  1.00  0.00     0.091 A 
ATOM     93  F   UNL A   1      43.462  25.562  35.239  1.00  0.00    -0.205 F 
ATOM     94  C   UNL A   1      46.957  26.361  35.968  1.00  0.00     0.022 A 
BRANCH  92  95
ATOM     95  S   UNL A   1      45.547  24.332  37.149  1.00  0.00     0.127 S 
ATOM     96  O   UNL A   1      44.450  24.777  38.007  1.00  0.00    -0.237 OA
ATOM     97  O   UNL A   1      45.205  23.235  36.242  1.00  0.00    -0.237 OA
ATOM     98  O   UNL A   1      46.838  24.193  37.809  1.00  0.00    -0.744 OA
ENDBRANCH  92  95
ENDBRANCH  65  88
ENDBRANCH  39  40
ENDBRANCH  32  34
ENDBRANCH  31  32
ENDBRANCH  30  31
ENDBRANCH   1  30
TORSDOF 17
ENDMDL
MODEL 3
REMARK VINA RESULT:     -13.3      4.806     10.710
REMARK SMILES C[C@@H](CCC(=O)OCCOC(=O)c1ccc(-c2c3nc(c(-c4cccc(S(=O)(=O)[O-])c4F)c4ccc([nH]4)c(-c4cccc(S(=O)(=O)[O-])c4F)c4nc(c(-c5cccc(S(=O)(=O)[O-])c5F)c5ccc2[nH]5)C=C4)C=C3)cc1)[C@@H]1CC[C@H]2[C@@H]3CC[C@H]4CC(=O)CC[C@@]4(C)[C@H]3CC(=O)[C@@]21C
REMARK SMILES IDX 8 1 7 2 5 3 6 4 4 5 3 6 2 7 1 8 76 9 77 10 95 11 78 12 79 13
REMARK SMILES IDX 93 14 96 15 80 16 92 17 94 18 81 19 91 20 82 21 89 22 83 23
REMARK SMILES IDX 88 24 90 25 84 26 87 27 85 28 86 29 9 30 10 31 11 32 12 33
REMARK SMILES IDX 13 34 14 35 75 36 15 37 74 38 16 39 17 40 18 41 68 42 19 43
REMARK SMILES IDX 73 44 67 45 69 46 20 47 72 48 66 49 65 50 21 52 53 53 33 54
REMARK SMILES IDX 52 55 34 56 37 57 51 58 70 59 35 60 36 61 50 63 71 64 38 65
REMARK SMILES IDX 22 66 23 67 31 68 24 69 26 70 32 71 25 72 27 73 28 74 29 75
REMARK SMILES IDX 30 76 54 77 55 78 63 79 56 80 58 81 64 82 57 83 59 84 60 85
REMARK SMILES IDX 61 86 62 87 39 88 40 89 48 90 41 91 43 92 49 93 42 94 44 95
REMARK SMILES IDX 45 96 46 97 47 98
REMARK H PARENT 69 51 37 62
REMARK Flexibility Score: inf
ROOT
ATOM      1  C   UNL A   1      31.466  32.026  26.956  1.00  0.00     0.274 C 
ENDROOT
BRANCH   1   2
ATOM      2  O   UNL A   1      32.413  30.938  27.155  1.00  0.00    -0.462 OA
BRANCH   2   3
ATOM      3  C   UNL A   1      32.020  29.712  26.711  1.00  0.00     0.305 C 
ATOM      4  O   UNL A   1      31.669  28.819  27.478  1.00  0.00    -0.252 OA
BRANCH   3   5
ATOM      5  C   UNL A   1      31.883  29.542  25.182  1.00  0.00     0.123 C 
BRANCH   5   6
ATOM      6  C   UNL A   1      30.634  29.621  24.239  1.00  0.00     0.015 C 
BRANCH   6   7
ATOM      7  C   UNL A   1      30.624  29.182  22.717  1.00  0.00    -0.010 C 
ATOM      8  C   UNL A   1      29.481  29.925  22.039  1.00  0.00     0.008 C 
BRANCH   7   9
ATOM      9  C   UNL A   1      30.607  27.649  22.618  1.00  0.00     0.005 C 
ATOM     10  C   UNL A   1      29.532  27.179  23.630  1.00  0.00     0.005 C 
ATOM     11  C   UNL A   1      31.726  26.489  22.628  1.00  0.00     0.032 C 
ATOM     12  C   UNL A   1      29.664  25.710  23.640  1.00  0.00     0.005 C 
ATOM     13  C   UNL A   1      31.142  25.578  23.762  1.00  0.00     0.006 C 
ATOM     14  C   UNL A   1      33.191  26.461  23.089  1.00  0.00     0.139 C 
ATOM     15  C   UNL A   1      31.820  25.911  21.180  1.00  0.00     0.020 C 
ATOM     16  C   UNL A   1      31.558  24.124  23.909  1.00  0.00    -0.003 C 
ATOM     17  C   UNL A   1      33.830  25.004  23.138  1.00  0.00     0.080 C 
ATOM     18  O   UNL A   1      33.834  27.475  23.345  1.00  0.00    -0.299 OA
ATOM     19  C   UNL A   1      30.857  23.563  25.167  1.00  0.00     0.004 C 
ATOM     20  C   UNL A   1      33.074  24.046  24.103  1.00  0.00     0.006 C 
ATOM     21  C   UNL A   1      31.305  22.186  25.573  1.00  0.00     0.005 C 
ATOM     22  C   UNL A   1      33.520  22.524  24.276  1.00  0.00    -0.025 C 
ATOM     23  C   UNL A   1      32.837  22.022  25.594  1.00  0.00     0.002 C 
ATOM     24  C   UNL A   1      33.167  21.543  23.103  1.00  0.00     0.015 C 
ATOM     25  C   UNL A   1      35.060  22.522  24.428  1.00  0.00     0.012 C 
ATOM     26  C   UNL A   1      33.165  20.566  25.912  1.00  0.00     0.079 C 
ATOM     27  C   UNL A   1      32.502  20.184  23.433  1.00  0.00     0.076 C 
ATOM     28  C   UNL A   1      32.587  19.667  24.857  1.00  0.00     0.133 C 
ATOM     29  O   UNL A   1      32.190  18.536  25.145  1.00  0.00    -0.300 OA
ENDBRANCH   7   9
ENDBRANCH   6   7
ENDBRANCH   5   6
ENDBRANCH   3   5
ENDBRANCH   2   3
ENDBRANCH   1   2
BRANCH   1  30
ATOM     30  C   UNL A   1      32.164  33.394  26.867  1.00  0.00     0.275 C 
BRANCH  30  31
ATOM     31  O   UNL A   1      32.695  33.729  28.159  1.00  0.00    -0.458 OA
BRANCH  31  32
ATOM     32  C   UNL A   1      33.921  34.304  28.180  1.00  0.00     0.338 C 
ATOM     33  O   UNL A   1      34.157  35.505  28.071  1.00  0.00    -0.246 OA
BRANCH  32  34
ATOM     34  C   UNL A   1      34.948  33.278  28.500  1.00  0.00     0.060 A 
ATOM     35  C   UNL A   1      36.321  33.550  28.371  1.00  0.00     0.016 A 
ATOM     36  C   UNL A   1      34.536  31.998  28.883  1.00  0.00     0.016 A 
ATOM     37  C   UNL A   1      37.271  32.592  28.730  1.00  0.00     0.010 A 
ATOM     38  C   UNL A   1      35.483  31.060  29.296  1.00  0.00     0.010 A 
ATOM     39  C   UNL A   1      36.851  31.379  29.294  1.00  0.00    -0.014 A 
BRANCH  39  40
ATOM     40  C   UNL A   1      37.760  30.581  30.161  1.00  0.00     0.031 A 
ATOM     41  C   UNL A   1      38.020  30.952  31.590  1.00  0.00     0.074 A 
ATOM     42  C   UNL A   1      38.515  29.648  29.542  1.00  0.00     0.049 A 
ATOM     43  N   UNL A   1      38.970  30.539  32.387  1.00  0.00    -0.248 NA
ATOM     44  C   UNL A   1      37.105  31.929  32.198  1.00  0.00     0.031 C 
ATOM     45  C   UNL A   1      38.382  29.256  28.133  1.00  0.00     0.029 A 
ATOM     46  N   UNL A   1      39.589  28.915  29.982  1.00  0.00    -0.354 N 
ATOM     47  C   UNL A   1      38.807  31.240  33.577  1.00  0.00     0.074 A 
ATOM     48  C   UNL A   1      37.651  32.097  33.398  1.00  0.00     0.031 C 
ATOM     49  C   UNL A   1      39.356  28.398  27.813  1.00  0.00     0.029 A 
ATOM     50  C   UNL A   1      40.219  28.223  28.969  1.00  0.00     0.049 A 
ATOM     51  H   UNL A   1      39.879  28.886  30.922  1.00  0.00     0.167 HD
ATOM     52  C   UNL A   1      39.559  31.175  34.704  1.00  0.00     0.034 A 
ATOM     53  C   UNL A   1      41.394  27.566  28.946  1.00  0.00     0.034 A 
ATOM     54  C   UNL A   1      40.709  30.315  34.848  1.00  0.00     0.049 A 
ATOM     55  C   UNL A   1      42.198  27.500  30.208  1.00  0.00     0.074 A 
ATOM     56  C   UNL A   1      41.499  30.110  35.965  1.00  0.00     0.029 A 
ATOM     57  N   UNL A   1      41.249  29.537  33.833  1.00  0.00    -0.354 N 
ATOM     58  N   UNL A   1      41.955  28.065  31.365  1.00  0.00    -0.248 NA
ATOM     59  C   UNL A   1      43.415  26.681  30.177  1.00  0.00     0.031 C 
ATOM     60  C   UNL A   1      42.539  29.243  35.614  1.00  0.00     0.029 A 
ATOM     61  C   UNL A   1      42.370  28.864  34.292  1.00  0.00     0.049 A 
ATOM     62  H   UNL A   1      40.888  29.471  32.920  1.00  0.00     0.167 HD
ATOM     63  C   UNL A   1      42.968  27.642  32.213  1.00  0.00     0.074 A 
ATOM     64  C   UNL A   1      43.817  26.760  31.437  1.00  0.00     0.031 C 
ATOM     65  C   UNL A   1      43.181  27.961  33.513  1.00  0.00     0.034 A 
BRANCH  52  66
ATOM     66  C   UNL A   1      39.170  32.051  35.873  1.00  0.00     0.023 A 
ATOM     67  C   UNL A   1      38.255  31.574  36.834  1.00  0.00     0.012 A 
ATOM     68  C   UNL A   1      39.755  33.322  36.057  1.00  0.00     0.148 A 
ATOM     69  C   UNL A   1      37.891  32.362  37.928  1.00  0.00     0.002 A 
ATOM     70  C   UNL A   1      39.422  34.083  37.174  1.00  0.00     0.091 A 
ATOM     71  F   UNL A   1      40.619  33.767  35.134  1.00  0.00    -0.205 F 
ATOM     72  C   UNL A   1      38.479  33.611  38.101  1.00  0.00     0.022 A 
BRANCH  70  73
ATOM     73  S   UNL A   1      40.182  35.672  37.533  1.00  0.00     0.127 S 
ATOM     74  O   UNL A   1      41.605  35.349  37.423  1.00  0.00    -0.237 OA
ATOM     75  O   UNL A   1      39.663  36.511  36.452  1.00  0.00    -0.237 OA
ATOM     76  O   UNL A   1      39.729  36.045  38.865  1.00  0.00    -0.744 OA
ENDBRANCH  70  73
ENDBRANCH  52  66
BRANCH  53  77
ATOM     77  C   UNL A   1      41.845  26.903  27.689  1.00  0.00     0.023 A 
ATOM     78  C   UNL A   1      42.459  27.676  26.686  1.00  0.00     0.012 A 
ATOM     79  C   UNL A   1      41.737  25.508  27.514  1.00  0.00     0.148 A 
ATOM     80  C   UNL A   1      42.931  27.078  25.517  1.00  0.00     0.002 A 
ATOM     81  C   UNL A   1      42.261  24.912  26.372  1.00  0.00     0.091 A 
ATOM     82  F   UNL A   1      41.152  24.789  28.482  1.00  0.00    -0.205 F 
ATOM     83  C   UNL A   1      42.844  25.697  25.365  1.00  0.00     0.022 A 
BRANCH  81  84
ATOM     84  S   UNL A   1      42.322  23.130  26.152  1.00  0.00     0.127 S 
ATOM     85  O   UNL A   1      43.023  23.011  24.876  1.00  0.00    -0.237 OA
ATOM     86  O   UNL A   1      43.095  22.708  27.321  1.00  0.00    -0.237 OA
ATOM     87  O   UNL A   1      40.936  22.683  26.156  1.00  0.00    -0.744 OA
ENDBRANCH  81  84
ENDBRANCH  53  77
BRANCH  65  88
ATOM     88  C   UNL A   1      44.351  27.308  34.197  1.00  0.00     0.023 A 
ATOM     89  C   UNL A   1      45.632  27.889  34.123  1.00  0.00     0.012 A 
ATOM     90  C   UNL A   1      44.161  26.143  34.967  1.00  0.00     0.148 A 
ATOM     91  C   UNL A   1      46.714  27.302  34.780  1.00  0.00     0.002 A 
ATOM     92  C   UNL A   1      45.230  25.598  35.664  1.00  0.00     0.091 A 
ATOM     93  F   UNL A   1      42.938  25.595  35.004  1.00  0.00    -0.205 F 
ATOM     94  C   UNL A   1      46.509  26.166  35.560  1.00  0.00     0.022 A 
BRANCH  92  95
ATOM     95  S   UNL A   1      45.041  24.198  36.774  1.00  0.00     0.127 S 
ATOM     96  O   UNL A   1      46.417  23.981  37.216  1.00  0.00    -0.237 OA
ATOM     97  O   UNL A   1      44.148  24.739  37.799  1.00  0.00    -0.237 OA
ATOM     98  O   UNL A   1      44.467  23.124  35.975  1.00  0.00    -0.744 OA
ENDBRANCH  92  95
ENDBRANCH  65  88
ENDBRANCH  39  40
ENDBRANCH  32  34
ENDBRANCH  31  32
ENDBRANCH  30  31
ENDBRANCH   1  30
TORSDOF 17
ENDMDL
