MODEL 1
REMARK VINA RESULT:     -12.4      0.000      0.000
REMARK SMILES Cc1ccc2c(c1)OCCN2c1sc(C(=O)OCCOC(=O)c2ccc(-c3c4nc(c(-c5cccc(S(=O)(=O)[O-])c5F)c5ccc([nH]5)c(-c5cccc(S(=O)(=O)[O-])c5F)c5nc(c(-c6cccc(S(=O)(=O)[O-])c6F)c6ccc3[nH]6)C=C5)C=C4)cc2)cc1C
REMARK SMILES IDX 19 1 18 2 17 3 15 4 16 5 14 6 12 7 13 8 87 9 86 10 88 11
REMARK SMILES IDX 11 12 1 13 2 14 3 15 7 16 4 17 6 18 5 19 8 20 9 21 10 22
REMARK SMILES IDX 20 23 21 24 22 25 23 26 24 27 85 28 25 29 84 30 26 31 27 32
REMARK SMILES IDX 28 33 78 34 29 35 83 36 77 37 79 38 30 39 82 40 76 41 75 42
REMARK SMILES IDX 31 44 63 45 43 46 62 47 44 48 47 49 61 50 80 51 45 52 46 53
REMARK SMILES IDX 60 55 81 56 48 57 32 58 33 59 41 60 34 61 36 62 42 63 35 64
REMARK SMILES IDX 37 65 38 66 39 67 40 68 64 69 65 70 73 71 66 72 68 73 74 74
REMARK SMILES IDX 67 75 69 76 70 77 71 78 72 79 49 80 50 81 58 82 51 83 53 84
REMARK SMILES IDX 59 85 52 86 54 87 55 88 56 89 57 90
REMARK H PARENT 79 43 47 54
REMARK Flexibility Score: inf
ROOT
ATOM      1  C   UNL A   1      31.451  30.171  25.575  1.00  0.00     0.275 C 
ENDROOT
BRANCH   1   2
ATOM      2  C   UNL A   1      31.280  29.285  24.339  1.00  0.00     0.275 C 
BRANCH   2   3
ATOM      3  O   UNL A   1      31.929  28.010  24.509  1.00  0.00    -0.458 OA
BRANCH   3   4
ATOM      4  C   UNL A   1      31.484  27.017  23.686  1.00  0.00     0.348 C 
ATOM      5  O   UNL A   1      31.068  27.208  22.548  1.00  0.00    -0.245 OA
BRANCH   4   6
ATOM      6  C   UNL A   1      31.635  25.700  24.274  1.00  0.00     0.114 A 
ATOM      7  C   UNL A   1      32.481  23.546  25.157  1.00  0.00     0.099 A 
ATOM      8  S   UNL A   1      32.813  24.569  23.794  1.00  0.00    -0.110 S 
ATOM      9  C   UNL A   1      31.245  23.867  25.702  1.00  0.00    -0.015 A 
ATOM     10  C   UNL A   1      30.874  25.186  25.304  1.00  0.00     0.033 A 
ATOM     11  C   UNL A   1      30.435  23.097  26.691  1.00  0.00     0.047 C 
BRANCH   7  12
ATOM     12  N   UNL A   1      33.364  22.599  25.589  1.00  0.00    -0.327 N 
ATOM     13  C   UNL A   1      33.660  17.273  23.386  1.00  0.00     0.044 C 
ATOM     14  C   UNL A   1      33.573  18.643  23.986  1.00  0.00    -0.047 A 
ATOM     15  C   UNL A   1      32.420  19.409  23.830  1.00  0.00     0.006 A 
ATOM     16  C   UNL A   1      34.667  19.203  24.653  1.00  0.00     0.052 A 
ATOM     17  C   UNL A   1      32.354  20.704  24.352  1.00  0.00     0.030 A 
ATOM     18  C   UNL A   1      34.597  20.503  25.171  1.00  0.00     0.143 A 
ATOM     19  C   UNL A   1      33.427  21.281  25.054  1.00  0.00     0.085 A 
ATOM     20  O   UNL A   1      35.751  20.959  25.771  1.00  0.00    -0.490 OA
ATOM     21  C   UNL A   1      35.793  22.391  25.797  1.00  0.00     0.251 C 
ATOM     22  C   UNL A   1      34.519  22.963  26.411  1.00  0.00     0.165 C 
ENDBRANCH   7  12
ENDBRANCH   4   6
ENDBRANCH   3   4
ENDBRANCH   2   3
ENDBRANCH   1   2
BRANCH   1  23
ATOM     23  O   UNL A   1      32.837  30.295  25.944  1.00  0.00    -0.458 OA
BRANCH  23  24
ATOM     24  C   UNL A   1      33.120  31.274  26.836  1.00  0.00     0.338 C 
ATOM     25  O   UNL A   1      32.412  32.214  27.152  1.00  0.00    -0.246 OA
BRANCH  24  26
ATOM     26  C   UNL A   1      34.415  30.987  27.472  1.00  0.00     0.060 A 
ATOM     27  C   UNL A   1      35.315  31.997  27.790  1.00  0.00     0.016 A 
ATOM     28  C   UNL A   1      34.682  29.674  27.844  1.00  0.00     0.016 A 
ATOM     29  C   UNL A   1      36.504  31.665  28.455  1.00  0.00     0.010 A 
ATOM     30  C   UNL A   1      35.825  29.351  28.567  1.00  0.00     0.010 A 
ATOM     31  C   UNL A   1      36.768  30.339  28.859  1.00  0.00    -0.014 A 
BRANCH  31  32
ATOM     32  C   UNL A   1      38.006  29.984  29.605  1.00  0.00     0.031 A 
ATOM     33  C   UNL A   1      38.251  30.499  31.003  1.00  0.00     0.074 A 
ATOM     34  C   UNL A   1      38.954  29.242  28.997  1.00  0.00     0.049 A 
ATOM     35  N   UNL A   1      39.262  30.261  31.800  1.00  0.00    -0.248 NA
ATOM     36  C   UNL A   1      37.254  31.422  31.574  1.00  0.00     0.031 C 
ATOM     37  C   UNL A   1      38.905  28.786  27.606  1.00  0.00     0.029 A 
ATOM     38  N   UNL A   1      40.142  28.741  29.468  1.00  0.00    -0.354 N 
ATOM     39  C   UNL A   1      39.043  31.026  32.940  1.00  0.00     0.074 A 
ATOM     40  C   UNL A   1      37.819  31.765  32.723  1.00  0.00     0.031 C 
ATOM     41  C   UNL A   1      39.987  28.034  27.351  1.00  0.00     0.029 A 
ATOM     42  C   UNL A   1      40.817  27.969  28.551  1.00  0.00     0.049 A 
ATOM     43  H   UNL A   1      40.479  28.917  30.376  1.00  0.00     0.167 HD
ATOM     44  C   UNL A   1      39.767  31.076  34.083  1.00  0.00     0.034 A 
ATOM     45  C   UNL A   1      41.962  27.269  28.665  1.00  0.00     0.034 A 
ATOM     46  C   UNL A   1      40.934  30.276  34.334  1.00  0.00     0.049 A 
ATOM     47  C   UNL A   1      42.691  27.254  29.977  1.00  0.00     0.074 A 
ATOM     48  C   UNL A   1      41.664  30.170  35.506  1.00  0.00     0.029 A 
ATOM     49  N   UNL A   1      41.535  29.441  33.408  1.00  0.00    -0.354 N 
ATOM     50  N   UNL A   1      42.377  27.861  31.097  1.00  0.00    -0.248 NA
ATOM     51  C   UNL A   1      43.911  26.437  30.058  1.00  0.00     0.031 C 
ATOM     52  C   UNL A   1      42.708  29.267  35.287  1.00  0.00     0.029 A 
ATOM     53  C   UNL A   1      42.625  28.812  33.982  1.00  0.00     0.049 A 
ATOM     54  H   UNL A   1      41.232  29.314  32.480  1.00  0.00     0.167 HD
ATOM     55  C   UNL A   1      43.350  27.491  32.016  1.00  0.00     0.074 A 
ATOM     56  C   UNL A   1      44.253  26.589  31.331  1.00  0.00     0.031 C 
ATOM     57  C   UNL A   1      43.489  27.880  33.306  1.00  0.00     0.034 A 
BRANCH  44  58
ATOM     58  C   UNL A   1      39.269  31.950  35.202  1.00  0.00     0.023 A 
ATOM     59  C   UNL A   1      38.375  31.406  36.146  1.00  0.00     0.012 A 
ATOM     60  C   UNL A   1      39.763  33.256  35.387  1.00  0.00     0.148 A 
ATOM     61  C   UNL A   1      37.966  32.152  37.250  1.00  0.00     0.002 A 
ATOM     62  C   UNL A   1      39.375  33.984  36.507  1.00  0.00     0.091 A 
ATOM     63  F   UNL A   1      40.608  33.754  34.473  1.00  0.00    -0.205 F 
ATOM     64  C   UNL A   1      38.474  33.435  37.435  1.00  0.00     0.022 A 
BRANCH  62  65
ATOM     65  S   UNL A   1      40.013  35.622  36.878  1.00  0.00     0.127 S 
ATOM     66  O   UNL A   1      39.326  35.928  38.133  1.00  0.00    -0.237 OA
ATOM     67  O   UNL A   1      41.447  35.369  37.014  1.00  0.00    -0.237 OA
ATOM     68  O   UNL A   1      39.643  36.466  35.751  1.00  0.00    -0.744 OA
ENDBRANCH  62  65
ENDBRANCH  44  58
BRANCH  45  69
ATOM     69  C   UNL A   1      42.421  26.441  27.517  1.00  0.00     0.023 A 
ATOM     70  C   UNL A   1      43.329  26.996  26.595  1.00  0.00     0.012 A 
ATOM     71  C   UNL A   1      42.036  25.094  27.385  1.00  0.00     0.148 A 
ATOM     72  C   UNL A   1      43.843  26.223  25.553  1.00  0.00     0.002 A 
ATOM     73  C   UNL A   1      42.582  24.319  26.368  1.00  0.00     0.091 A 
ATOM     74  F   UNL A   1      41.169  24.594  28.276  1.00  0.00    -0.205 F 
ATOM     75  C   UNL A   1      43.478  24.883  25.447  1.00  0.00     0.022 A 
BRANCH  73  76
ATOM     76  S   UNL A   1      42.260  22.559  26.212  1.00  0.00     0.127 S 
ATOM     77  O   UNL A   1      42.951  22.238  24.965  1.00  0.00    -0.237 OA
ATOM     78  O   UNL A   1      42.893  22.031  27.421  1.00  0.00    -0.237 OA
ATOM     79  O   UNL A   1      40.811  22.421  26.178  1.00  0.00    -0.744 OA
ENDBRANCH  73  76
ENDBRANCH  45  69
BRANCH  57  80
ATOM     80  C   UNL A   1      44.658  27.347  34.085  1.00  0.00     0.023 A 
ATOM     81  C   UNL A   1      45.862  28.077  34.101  1.00  0.00     0.012 A 
ATOM     82  C   UNL A   1      44.521  26.206  34.899  1.00  0.00     0.148 A 
ATOM     83  C   UNL A   1      46.918  27.674  34.917  1.00  0.00     0.002 A 
ATOM     84  C   UNL A   1      45.566  25.830  35.734  1.00  0.00     0.091 A 
ATOM     85  F   UNL A   1      43.366  25.526  34.857  1.00  0.00    -0.205 F 
ATOM     86  C   UNL A   1      46.766  26.561  35.741  1.00  0.00     0.022 A 
BRANCH  84  87
ATOM     87  S   UNL A   1      45.440  24.459  36.887  1.00  0.00     0.127 S 
ATOM     88  O   UNL A   1      45.174  23.338  35.987  1.00  0.00    -0.237 OA
ATOM     89  O   UNL A   1      46.769  24.447  37.501  1.00  0.00    -0.237 OA
ATOM     90  O   UNL A   1      44.354  24.794  37.797  1.00  0.00    -0.744 OA
ENDBRANCH  84  87
ENDBRANCH  57  80
ENDBRANCH  31  32
ENDBRANCH  24  26
ENDBRANCH  23  24
ENDBRANCH   1  23
TORSDOF 15
ENDMDL
MODEL 2
REMARK VINA RESULT:     -12.3      4.704     10.110
REMARK SMILES Cc1ccc2c(c1)OCCN2c1sc(C(=O)OCCOC(=O)c2ccc(-c3c4nc(c(-c5cccc(S(=O)(=O)[O-])c5F)c5ccc([nH]5)c(-c5cccc(S(=O)(=O)[O-])c5F)c5nc(c(-c6cccc(S(=O)(=O)[O-])c6F)c6ccc3[nH]6)C=C5)C=C4)cc2)cc1C
REMARK SMILES IDX 19 1 18 2 17 3 15 4 16 5 14 6 12 7 13 8 87 9 86 10 88 11
REMARK SMILES IDX 11 12 1 13 2 14 3 15 7 16 4 17 6 18 5 19 8 20 9 21 10 22
REMARK SMILES IDX 20 23 21 24 22 25 23 26 24 27 85 28 25 29 84 30 26 31 27 32
REMARK SMILES IDX 28 33 78 34 29 35 83 36 77 37 79 38 30 39 82 40 76 41 75 42
REMARK SMILES IDX 31 44 63 45 43 46 62 47 44 48 47 49 61 50 80 51 45 52 46 53
REMARK SMILES IDX 60 55 81 56 48 57 32 58 33 59 41 60 34 61 36 62 42 63 35 64
REMARK SMILES IDX 37 65 38 66 39 67 40 68 64 69 65 70 73 71 66 72 68 73 74 74
REMARK SMILES IDX 67 75 69 76 70 77 71 78 72 79 49 80 50 81 58 82 51 83 53 84
REMARK SMILES IDX 59 85 52 86 54 87 55 88 56 89 57 90
REMARK H PARENT 79 43 47 54
REMARK Flexibility Score: inf
ROOT
ATOM      1  C   UNL A   1      36.037  20.687  24.989  1.00  0.00     0.275 C 
ENDROOT
BRANCH   1   2
ATOM      2  C   UNL A   1      34.610  20.590  25.534  1.00  0.00     0.275 C 
BRANCH   2   3
ATOM      3  O   UNL A   1      33.634  20.825  24.501  1.00  0.00    -0.458 OA
BRANCH   3   4
ATOM      4  C   UNL A   1      32.546  21.555  24.884  1.00  0.00     0.348 C 
ATOM      5  O   UNL A   1      31.554  21.073  25.419  1.00  0.00    -0.245 OA
BRANCH   4   6
ATOM      6  C   UNL A   1      32.728  22.976  24.663  1.00  0.00     0.114 A 
ATOM      7  C   UNL A   1      32.675  25.300  23.808  1.00  0.00     0.099 A 
ATOM      8  S   UNL A   1      32.761  23.707  23.125  1.00  0.00    -0.110 S 
ATOM      9  C   UNL A   1      33.026  25.262  25.151  1.00  0.00    -0.015 A 
ATOM     10  C   UNL A   1      32.878  23.932  25.647  1.00  0.00     0.033 A 
ATOM     11  C   UNL A   1      33.354  26.398  26.061  1.00  0.00     0.047 C 
BRANCH   7  12
ATOM     12  N   UNL A   1      32.287  26.386  23.077  1.00  0.00    -0.327 N 
ATOM     13  C   UNL A   1      27.005  28.694  23.347  1.00  0.00     0.044 C 
ATOM     14  C   UNL A   1      28.370  28.086  23.246  1.00  0.00    -0.047 A 
ATOM     15  C   UNL A   1      28.589  26.773  23.657  1.00  0.00     0.006 A 
ATOM     16  C   UNL A   1      29.459  28.842  22.802  1.00  0.00     0.052 A 
ATOM     17  C   UNL A   1      29.872  26.220  23.605  1.00  0.00     0.030 A 
ATOM     18  C   UNL A   1      30.744  28.284  22.755  1.00  0.00     0.143 A 
ATOM     19  C   UNL A   1      30.980  26.946  23.134  1.00  0.00     0.085 A 
ATOM     20  O   UNL A   1      31.741  29.139  22.339  1.00  0.00    -0.490 OA
ATOM     21  C   UNL A   1      33.026  28.702  22.799  1.00  0.00     0.251 C 
ATOM     22  C   UNL A   1      33.274  27.245  22.421  1.00  0.00     0.165 C 
ENDBRANCH   7  12
ENDBRANCH   4   6
ENDBRANCH   3   4
ENDBRANCH   2   3
ENDBRANCH   1   2
BRANCH   1  23
ATOM     23  O   UNL A   1      36.832  21.607  25.760  1.00  0.00    -0.458 OA
BRANCH  23  24
ATOM     24  C   UNL A   1      38.155  21.327  25.824  1.00  0.00     0.338 C 
ATOM     25  O   UNL A   1      38.717  20.320  25.432  1.00  0.00    -0.246 OA
BRANCH  24  26
ATOM     26  C   UNL A   1      38.869  22.492  26.369  1.00  0.00     0.060 A 
ATOM     27  C   UNL A   1      40.061  22.358  27.072  1.00  0.00     0.016 A 
ATOM     28  C   UNL A   1      38.370  23.757  26.079  1.00  0.00     0.016 A 
ATOM     29  C   UNL A   1      40.727  23.512  27.509  1.00  0.00     0.010 A 
ATOM     30  C   UNL A   1      39.064  24.904  26.447  1.00  0.00     0.010 A 
ATOM     31  C   UNL A   1      40.241  24.799  27.194  1.00  0.00    -0.014 A 
BRANCH  31  32
ATOM     32  C   UNL A   1      40.964  26.029  27.615  1.00  0.00     0.031 A 
ATOM     33  C   UNL A   1      42.396  26.274  27.203  1.00  0.00     0.074 A 
ATOM     34  C   UNL A   1      40.349  26.911  28.430  1.00  0.00     0.049 A 
ATOM     35  N   UNL A   1      43.159  27.305  27.460  1.00  0.00    -0.248 NA
ATOM     36  C   UNL A   1      43.072  25.217  26.430  1.00  0.00     0.031 C 
ATOM     37  C   UNL A   1      39.014  26.737  29.008  1.00  0.00     0.029 A 
ATOM     38  N   UNL A   1      40.764  28.125  28.915  1.00  0.00    -0.354 N 
ATOM     39  C   UNL A   1      44.404  27.009  26.917  1.00  0.00     0.074 A 
ATOM     40  C   UNL A   1      44.310  25.686  26.343  1.00  0.00     0.031 C 
ATOM     41  C   UNL A   1      38.702  27.825  29.728  1.00  0.00     0.029 A 
ATOM     42  C   UNL A   1      39.819  28.765  29.682  1.00  0.00     0.049 A 
ATOM     43  H   UNL A   1      41.655  28.503  28.732  1.00  0.00     0.167 HD
ATOM     44  C   UNL A   1      45.513  27.783  26.860  1.00  0.00     0.034 A 
ATOM     45  C   UNL A   1      39.834  29.979  30.266  1.00  0.00     0.034 A 
ATOM     46  C   UNL A   1      45.582  29.132  27.352  1.00  0.00     0.049 A 
ATOM     47  C   UNL A   1      41.036  30.864  30.096  1.00  0.00     0.074 A 
ATOM     48  C   UNL A   1      46.623  30.036  27.231  1.00  0.00     0.029 A 
ATOM     49  N   UNL A   1      44.571  29.774  28.046  1.00  0.00    -0.354 N 
ATOM     50  N   UNL A   1      42.145  30.624  29.441  1.00  0.00    -0.248 NA
ATOM     51  C   UNL A   1      40.980  32.196  30.717  1.00  0.00     0.031 C 
ATOM     52  C   UNL A   1      46.240  31.227  27.852  1.00  0.00     0.029 A 
ATOM     53  C   UNL A   1      44.960  31.064  28.357  1.00  0.00     0.049 A 
ATOM     54  H   UNL A   1      43.703  29.371  28.282  1.00  0.00     0.167 HD
ATOM     55  C   UNL A   1      42.914  31.774  29.558  1.00  0.00     0.074 A 
ATOM     56  C   UNL A   1      42.135  32.722  30.329  1.00  0.00     0.031 C 
ATOM     57  C   UNL A   1      44.160  32.014  29.084  1.00  0.00     0.034 A 
BRANCH  44  58
ATOM     58  C   UNL A   1      46.724  27.240  26.151  1.00  0.00     0.023 A 
ATOM     59  C   UNL A   1      46.853  27.448  24.763  1.00  0.00     0.012 A 
ATOM     60  C   UNL A   1      47.776  26.629  26.862  1.00  0.00     0.148 A 
ATOM     61  C   UNL A   1      48.004  27.045  24.088  1.00  0.00     0.002 A 
ATOM     62  C   UNL A   1      48.934  26.256  26.187  1.00  0.00     0.091 A 
ATOM     63  F   UNL A   1      47.627  26.435  28.180  1.00  0.00    -0.205 F 
ATOM     64  C   UNL A   1      49.046  26.459  24.801  1.00  0.00     0.022 A 
BRANCH  62  65
ATOM     65  S   UNL A   1      50.363  25.549  27.014  1.00  0.00     0.127 S 
ATOM     66  O   UNL A   1      49.803  24.318  27.570  1.00  0.00    -0.237 OA
ATOM     67  O   UNL A   1      51.292  25.348  25.902  1.00  0.00    -0.237 OA
ATOM     68  O   UNL A   1      50.790  26.532  27.999  1.00  0.00    -0.744 OA
ENDBRANCH  62  65
ENDBRANCH  44  58
BRANCH  45  69
ATOM     69  C   UNL A   1      38.617  30.457  30.976  1.00  0.00     0.023 A 
ATOM     70  C   UNL A   1      38.528  30.284  32.370  1.00  0.00     0.012 A 
ATOM     71  C   UNL A   1      37.599  31.152  30.297  1.00  0.00     0.148 A 
ATOM     72  C   UNL A   1      37.439  30.791  33.079  1.00  0.00     0.002 A 
ATOM     73  C   UNL A   1      36.537  31.689  31.015  1.00  0.00     0.091 A 
ATOM     74  F   UNL A   1      37.709  31.299  28.970  1.00  0.00    -0.205 F 
ATOM     75  C   UNL A   1      36.450  31.502  32.404  1.00  0.00     0.022 A 
BRANCH  73  76
ATOM     76  S   UNL A   1      35.272  32.712  30.255  1.00  0.00     0.127 S 
ATOM     77  O   UNL A   1      36.056  33.843  29.765  1.00  0.00    -0.237 OA
ATOM     78  O   UNL A   1      34.755  31.823  29.214  1.00  0.00    -0.237 OA
ATOM     79  O   UNL A   1      34.321  33.022  31.314  1.00  0.00    -0.744 OA
ENDBRANCH  73  76
ENDBRANCH  45  69
BRANCH  57  80
ATOM     80  C   UNL A   1      44.784  33.349  29.374  1.00  0.00     0.023 A 
ATOM     81  C   UNL A   1      45.561  33.505  30.537  1.00  0.00     0.012 A 
ATOM     82  C   UNL A   1      44.712  34.398  28.436  1.00  0.00     0.148 A 
ATOM     83  C   UNL A   1      46.257  34.691  30.767  1.00  0.00     0.002 A 
ATOM     84  C   UNL A   1      45.434  35.564  28.656  1.00  0.00     0.091 A 
ATOM     85  F   UNL A   1      43.958  34.225  27.341  1.00  0.00    -0.205 F 
ATOM     86  C   UNL A   1      46.205  35.713  29.822  1.00  0.00     0.022 A 
BRANCH  84  87
ATOM     87  S   UNL A   1      45.493  36.907  27.463  1.00  0.00     0.127 S 
ATOM     88  O   UNL A   1      44.088  37.309  27.401  1.00  0.00    -0.237 OA
ATOM     89  O   UNL A   1      46.375  37.869  28.124  1.00  0.00    -0.237 OA
ATOM     90  O   UNL A   1      46.028  36.334  26.236  1.00  0.00    -0.744 OA
ENDBRANCH  84  87
ENDBRANCH  57  80
ENDBRANCH  31  32
ENDBRANCH  24  26
ENDBRANCH  23  24
ENDBRANCH   1  23
TORSDOF 15
ENDMDL
MODEL 3
REMARK VINA RESULT:     -12.3      5.114     10.279
REMARK SMILES Cc1ccc2c(c1)OCCN2c1sc(C(=O)OCCOC(=O)c2ccc(-c3c4nc(c(-c5cccc(S(=O)(=O)[O-])c5F)c5ccc([nH]5)c(-c5cccc(S(=O)(=O)[O-])c5F)c5nc(c(-c6cccc(S(=O)(=O)[O-])c6F)c6ccc3[nH]6)C=C5)C=C4)cc2)cc1C
REMARK SMILES IDX 19 1 18 2 17 3 15 4 16 5 14 6 12 7 13 8 87 9 86 10 88 11
REMARK SMILES IDX 11 12 1 13 2 14 3 15 7 16 4 17 6 18 5 19 8 20 9 21 10 22
REMARK SMILES IDX 20 23 21 24 22 25 23 26 24 27 85 28 25 29 84 30 26 31 27 32
REMARK SMILES IDX 28 33 78 34 29 35 83 36 77 37 79 38 30 39 82 40 76 41 75 42
REMARK SMILES IDX 31 44 63 45 43 46 62 47 44 48 47 49 61 50 80 51 45 52 46 53
REMARK SMILES IDX 60 55 81 56 48 57 32 58 33 59 41 60 34 61 36 62 42 63 35 64
REMARK SMILES IDX 37 65 38 66 39 67 40 68 64 69 65 70 73 71 66 72 68 73 74 74
REMARK SMILES IDX 67 75 69 76 70 77 71 78 72 79 49 80 50 81 58 82 51 83 53 84
REMARK SMILES IDX 59 85 52 86 54 87 55 88 56 89 57 90
REMARK H PARENT 79 43 47 54
REMARK Flexibility Score: inf
ROOT
ATOM      1  C   UNL A   1      36.694  20.632  24.715  1.00  0.00     0.275 C 
ENDROOT
BRANCH   1   2
ATOM      2  C   UNL A   1      35.181  20.560  24.935  1.00  0.00     0.275 C 
BRANCH   2   3
ATOM      3  O   UNL A   1      34.739  21.545  25.889  1.00  0.00    -0.458 OA
BRANCH   3   4
ATOM      4  C   UNL A   1      33.486  22.042  25.674  1.00  0.00     0.348 C 
ATOM      5  O   UNL A   1      32.457  21.405  25.869  1.00  0.00    -0.245 OA
BRANCH   4   6
ATOM      6  C   UNL A   1      33.504  23.434  25.270  1.00  0.00     0.114 A 
ATOM      7  C   UNL A   1      33.162  25.613  24.143  1.00  0.00     0.099 A 
ATOM      8  S   UNL A   1      33.384  23.962  23.656  1.00  0.00    -0.110 S 
ATOM      9  C   UNL A   1      33.581  25.781  25.456  1.00  0.00    -0.015 A 
ATOM     10  C   UNL A   1      33.600  24.518  26.119  1.00  0.00     0.033 A 
ATOM     11  C   UNL A   1      33.830  27.052  26.198  1.00  0.00     0.047 C 
BRANCH   7  12
ATOM     12  N   UNL A   1      32.626  26.552  23.310  1.00  0.00    -0.327 N 
ATOM     13  C   UNL A   1      27.100  28.203  23.501  1.00  0.00     0.044 C 
ATOM     14  C   UNL A   1      28.528  27.761  23.422  1.00  0.00    -0.047 A 
ATOM     15  C   UNL A   1      28.921  26.541  23.968  1.00  0.00     0.006 A 
ATOM     16  C   UNL A   1      29.504  28.591  22.862  1.00  0.00     0.052 A 
ATOM     17  C   UNL A   1      30.262  26.148  23.934  1.00  0.00     0.030 A 
ATOM     18  C   UNL A   1      30.848  28.195  22.833  1.00  0.00     0.143 A 
ATOM     19  C   UNL A   1      31.259  26.949  23.348  1.00  0.00     0.085 A 
ATOM     20  O   UNL A   1      31.720  29.115  22.292  1.00  0.00    -0.490 OA
ATOM     21  C   UNL A   1      33.059  28.895  22.754  1.00  0.00     0.251 C 
ATOM     22  C   UNL A   1      33.483  27.446  22.530  1.00  0.00     0.165 C 
ENDBRANCH   7  12
ENDBRANCH   4   6
ENDBRANCH   3   4
ENDBRANCH   2   3
ENDBRANCH   1   2
BRANCH   1  23
ATOM     23  O   UNL A   1      37.322  21.509  25.668  1.00  0.00    -0.458 OA
BRANCH  23  24
ATOM     24  C   UNL A   1      38.605  21.210  25.982  1.00  0.00     0.338 C 
ATOM     25  O   UNL A   1      39.183  20.152  25.804  1.00  0.00    -0.246 OA
BRANCH  24  26
ATOM     26  C   UNL A   1      39.267  22.415  26.504  1.00  0.00     0.060 A 
ATOM     27  C   UNL A   1      40.425  22.342  27.269  1.00  0.00     0.016 A 
ATOM     28  C   UNL A   1      38.758  23.654  26.127  1.00  0.00     0.016 A 
ATOM     29  C   UNL A   1      41.045  23.531  27.681  1.00  0.00     0.010 A 
ATOM     30  C   UNL A   1      39.410  24.833  26.473  1.00  0.00     0.010 A 
ATOM     31  C   UNL A   1      40.550  24.790  27.280  1.00  0.00    -0.014 A 
BRANCH  31  32
ATOM     32  C   UNL A   1      41.226  26.055  27.675  1.00  0.00     0.031 A 
ATOM     33  C   UNL A   1      42.644  26.349  27.249  1.00  0.00     0.074 A 
ATOM     34  C   UNL A   1      40.582  26.925  28.480  1.00  0.00     0.049 A 
ATOM     35  N   UNL A   1      43.367  27.414  27.484  1.00  0.00    -0.248 NA
ATOM     36  C   UNL A   1      43.357  25.306  26.490  1.00  0.00     0.031 C 
ATOM     37  C   UNL A   1      39.258  26.709  29.069  1.00  0.00     0.029 A 
ATOM     38  N   UNL A   1      40.951  28.163  28.942  1.00  0.00    -0.354 N 
ATOM     39  C   UNL A   1      44.620  27.158  26.938  1.00  0.00     0.074 A 
ATOM     40  C   UNL A   1      44.575  25.822  26.387  1.00  0.00     0.031 C 
ATOM     41  C   UNL A   1      38.908  27.796  29.774  1.00  0.00     0.029 A 
ATOM     42  C   UNL A   1      39.986  28.778  29.704  1.00  0.00     0.049 A 
ATOM     43  H   UNL A   1      41.825  28.573  28.746  1.00  0.00     0.167 HD
ATOM     44  C   UNL A   1      45.697  27.975  26.860  1.00  0.00     0.034 A 
ATOM     45  C   UNL A   1      39.957  30.001  30.267  1.00  0.00     0.034 A 
ATOM     46  C   UNL A   1      45.715  29.333  27.328  1.00  0.00     0.049 A 
ATOM     47  C   UNL A   1      41.121  30.930  30.074  1.00  0.00     0.074 A 
ATOM     48  C   UNL A   1      46.719  30.275  27.184  1.00  0.00     0.029 A 
ATOM     49  N   UNL A   1      44.683  29.946  28.018  1.00  0.00    -0.354 N 
ATOM     50  N   UNL A   1      42.235  30.723  29.415  1.00  0.00    -0.248 NA
ATOM     51  C   UNL A   1      41.017  32.270  30.673  1.00  0.00     0.031 C 
ATOM     52  C   UNL A   1      46.292  31.461  27.788  1.00  0.00     0.029 A 
ATOM     53  C   UNL A   1      45.023  31.256  28.305  1.00  0.00     0.049 A 
ATOM     54  H   UNL A   1      43.834  29.514  28.267  1.00  0.00     0.167 HD
ATOM     55  C   UNL A   1      42.958  31.905  29.508  1.00  0.00     0.074 A 
ATOM     56  C   UNL A   1      42.147  32.835  30.268  1.00  0.00     0.031 C 
ATOM     57  C   UNL A   1      44.190  32.186  29.021  1.00  0.00     0.034 A 
BRANCH  44  58
ATOM     58  C   UNL A   1      46.924  27.467  26.152  1.00  0.00     0.023 A 
ATOM     59  C   UNL A   1      47.781  26.574  26.826  1.00  0.00     0.012 A 
ATOM     60  C   UNL A   1      47.171  27.778  24.800  1.00  0.00     0.148 A 
ATOM     61  C   UNL A   1      48.873  26.007  26.172  1.00  0.00     0.002 A 
ATOM     62  C   UNL A   1      48.245  27.185  24.145  1.00  0.00     0.091 A 
ATOM     63  F   UNL A   1      46.346  28.635  24.182  1.00  0.00    -0.205 F 
ATOM     64  C   UNL A   1      49.098  26.305  24.831  1.00  0.00     0.022 A 
BRANCH  62  65
ATOM     65  S   UNL A   1      48.594  27.449  22.403  1.00  0.00     0.127 S 
ATOM     66  O   UNL A   1      47.454  28.268  21.994  1.00  0.00    -0.237 OA
ATOM     67  O   UNL A   1      49.870  28.162  22.451  1.00  0.00    -0.237 OA
ATOM     68  O   UNL A   1      48.653  26.127  21.796  1.00  0.00    -0.744 OA
ENDBRANCH  62  65
ENDBRANCH  44  58
BRANCH  45  69
ATOM     69  C   UNL A   1      38.726  30.443  30.977  1.00  0.00     0.023 A 
ATOM     70  C   UNL A   1      38.645  30.274  32.373  1.00  0.00     0.012 A 
ATOM     71  C   UNL A   1      37.684  31.101  30.298  1.00  0.00     0.148 A 
ATOM     72  C   UNL A   1      37.542  30.749  33.082  1.00  0.00     0.002 A 
ATOM     73  C   UNL A   1      36.607  31.607  31.015  1.00  0.00     0.091 A 
ATOM     74  F   UNL A   1      37.787  31.245  28.969  1.00  0.00    -0.205 F 
ATOM     75  C   UNL A   1      36.529  31.424  32.405  1.00  0.00     0.022 A 
BRANCH  73  76
ATOM     76  S   UNL A   1      35.307  32.584  30.252  1.00  0.00     0.127 S 
ATOM     77  O   UNL A   1      34.825  31.679  29.211  1.00  0.00    -0.237 OA
ATOM     78  O   UNL A   1      34.386  32.782  31.371  1.00  0.00    -0.237 OA
ATOM     79  O   UNL A   1      35.952  33.800  29.775  1.00  0.00    -0.744 OA
ENDBRANCH  73  76
ENDBRANCH  45  69
BRANCH  57  80
ATOM     80  C   UNL A   1      44.763  33.549  29.284  1.00  0.00     0.023 A 
ATOM     81  C   UNL A   1      45.463  33.780  30.483  1.00  0.00     0.012 A 
ATOM     82  C   UNL A   1      44.723  34.551  28.294  1.00  0.00     0.148 A 
ATOM     83  C   UNL A   1      46.114  34.994  30.697  1.00  0.00     0.002 A 
ATOM     84  C   UNL A   1      45.402  35.746  28.501  1.00  0.00     0.091 A 
ATOM     85  F   UNL A   1      44.042  34.307  27.166  1.00  0.00    -0.205 F 
ATOM     86  C   UNL A   1      46.095  35.970  29.703  1.00  0.00     0.022 A 
BRANCH  84  87
ATOM     87  S   UNL A   1      45.500  37.033  27.252  1.00  0.00     0.127 S 
ATOM     88  O   UNL A   1      46.360  38.017  27.908  1.00  0.00    -0.237 OA
ATOM     89  O   UNL A   1      46.123  36.329  26.131  1.00  0.00    -0.237 OA
ATOM     90  O   UNL A   1      44.132  37.468  27.012  1.00  0.00    -0.744 OA
ENDBRANCH  84  87
ENDBRANCH  57  80
ENDBRANCH  31  32
ENDBRANCH  24  26
ENDBRANCH  23  24
ENDBRANCH   1  23
TORSDOF 15
ENDMDL
