MODEL 1
REMARK VINA RESULT:     -12.4      0.000      0.000
REMARK SMILES C[C@H](NS(=O)(=O)c1ccc(-c2cc(-c3ccccc3)c3cc([N+](=O)[O-])ccc3n2)cc1)C(=O)OCCOC(=O)c1ccc(-c2c3nc(c(-c4cccc(S(=O)(=O)[O-])c4F)c4ccc([nH]4)c(-c4cccc(S(=O)(=O)[O-])c4F)c4nc(c(-c5cccc(S(=O)(=O)[O-])c5F)c5ccc2[nH]5)C=C4)C=C3)cc1
REMARK SMILES IDX 35 1 34 2 32 3 33 4 2 5 1 6 3 7 4 9 5 10 6 11 7 12 8 13
REMARK SMILES IDX 31 14 9 15 30 16 10 17 11 18 12 19 29 20 13 21 28 22 20 23
REMARK SMILES IDX 27 24 21 25 26 26 22 27 14 28 15 29 19 30 16 31 18 32 17 33
REMARK SMILES IDX 23 34 24 35 25 36 36 37 37 38 38 39 39 40 40 41 41 42 102 43
REMARK SMILES IDX 42 44 101 45 43 46 44 47 45 48 95 49 46 50 100 51 94 52
REMARK SMILES IDX 96 53 47 54 99 55 93 56 92 57 48 59 80 60 60 61 79 62 61 63
REMARK SMILES IDX 64 64 78 65 97 66 62 67 63 68 77 70 98 71 65 72 49 73 50 74
REMARK SMILES IDX 58 75 51 76 53 77 59 78 52 79 54 80 55 81 56 82 57 83 81 84
REMARK SMILES IDX 82 85 90 86 83 87 85 88 91 89 84 90 86 91 87 92 88 93 89 94
REMARK SMILES IDX 66 95 67 96 75 97 68 98 70 99 76 100 69 101 71 102 72 103
REMARK SMILES IDX 73 104 74 105
REMARK H PARENT 3 8 96 58 64 69
REMARK Flexibility Score: inf
ROOT
ATOM      1  C   UNL A   1      31.039  30.904  26.206  1.00  0.00     0.274 C 
ENDROOT
BRANCH   1   2
ATOM      2  O   UNL A   1      31.400  30.399  24.902  1.00  0.00    -0.461 OA
BRANCH   2   3
ATOM      3  C   UNL A   1      32.377  29.468  24.888  1.00  0.00     0.324 C 
ATOM      4  O   UNL A   1      32.991  29.126  25.899  1.00  0.00    -0.250 OA
BRANCH   3   5
ATOM      5  C   UNL A   1      32.712  28.864  23.542  1.00  0.00     0.176 C 
ATOM      6  C   UNL A   1      31.399  28.594  22.815  1.00  0.00     0.038 C 
BRANCH   5   7
ATOM      7  N   UNL A   1      33.755  27.871  23.204  1.00  0.00    -0.197 NA
ATOM      8  H   UNL A   1      34.592  28.212  23.678  1.00  0.00     0.142 HD
BRANCH   7   9
ATOM      9  S   UNL A   1      33.771  26.224  23.473  1.00  0.00     0.241 S 
ATOM     10  O   UNL A   1      33.851  25.622  22.159  1.00  0.00    -0.207 OA
ATOM     11  O   UNL A   1      34.738  25.913  24.499  1.00  0.00    -0.207 OA
BRANCH   9  12
ATOM     12  C   UNL A   1      32.174  25.739  24.108  1.00  0.00     0.082 A 
ATOM     13  C   UNL A   1      31.778  26.057  25.402  1.00  0.00     0.022 A 
ATOM     14  C   UNL A   1      31.505  24.739  23.402  1.00  0.00     0.022 A 
ATOM     15  C   UNL A   1      31.059  25.101  26.129  1.00  0.00     0.012 A 
ATOM     16  C   UNL A   1      30.673  23.867  24.096  1.00  0.00     0.012 A 
ATOM     17  C   UNL A   1      30.693  23.894  25.510  1.00  0.00     0.000 A 
BRANCH  17  18
ATOM     18  C   UNL A   1      31.091  22.592  26.160  1.00  0.00     0.072 A 
ATOM     19  C   UNL A   1      31.138  21.424  25.415  1.00  0.00     0.038 A 
ATOM     20  N   UNL A   1      32.107  22.863  27.017  1.00  0.00    -0.248 NA
ATOM     21  C   UNL A   1      32.397  20.853  25.161  1.00  0.00    -0.007 A 
ATOM     22  C   UNL A   1      33.328  22.556  26.589  1.00  0.00     0.072 A 
ATOM     23  C   UNL A   1      33.531  21.611  25.570  1.00  0.00     0.015 A 
ATOM     24  C   UNL A   1      34.387  23.333  27.033  1.00  0.00     0.036 A 
ATOM     25  C   UNL A   1      34.793  21.576  24.926  1.00  0.00     0.096 A 
ATOM     26  C   UNL A   1      35.614  23.337  26.369  1.00  0.00     0.088 A 
ATOM     27  C   UNL A   1      35.796  22.482  25.286  1.00  0.00     0.270 A 
BRANCH  21  28
ATOM     28  C   UNL A   1      32.539  19.576  24.426  1.00  0.00    -0.018 A 
ATOM     29  C   UNL A   1      32.919  18.406  25.117  1.00  0.00     0.009 A 
ATOM     30  C   UNL A   1      32.282  19.457  23.052  1.00  0.00     0.009 A 
ATOM     31  C   UNL A   1      33.086  17.186  24.462  1.00  0.00     0.001 A 
ATOM     32  C   UNL A   1      32.426  18.228  22.396  1.00  0.00     0.001 A 
ATOM     33  C   UNL A   1      32.838  17.098  23.098  1.00  0.00     0.000 A 
ENDBRANCH  21  28
BRANCH  27  34
ATOM     34  N   UNL A   1      36.996  22.610  24.456  1.00  0.00     0.062 N 
ATOM     35  O   UNL A   1      38.008  21.989  24.815  1.00  0.00    -0.258 OA
ATOM     36  O   UNL A   1      36.926  23.321  23.444  1.00  0.00    -0.258 OA
ENDBRANCH  27  34
ENDBRANCH  17  18
ENDBRANCH   9  12
ENDBRANCH   7   9
ENDBRANCH   5   7
ENDBRANCH   3   5
ENDBRANCH   2   3
ENDBRANCH   1   2
BRANCH   1  37
ATOM     37  C   UNL A   1      31.775  32.201  26.547  1.00  0.00     0.275 C 
BRANCH  37  38
ATOM     38  O   UNL A   1      32.713  32.028  27.623  1.00  0.00    -0.458 OA
BRANCH  38  39
ATOM     39  C   UNL A   1      33.648  32.999  27.721  1.00  0.00     0.338 C 
ATOM     40  O   UNL A   1      33.477  34.203  27.600  1.00  0.00    -0.246 OA
BRANCH  39  41
ATOM     41  C   UNL A   1      34.935  32.435  28.156  1.00  0.00     0.060 A 
ATOM     42  C   UNL A   1      34.940  31.091  28.549  1.00  0.00     0.016 A 
ATOM     43  C   UNL A   1      36.095  33.207  28.250  1.00  0.00     0.016 A 
ATOM     44  C   UNL A   1      36.099  30.515  29.050  1.00  0.00     0.010 A 
ATOM     45  C   UNL A   1      37.258  32.632  28.769  1.00  0.00     0.010 A 
ATOM     46  C   UNL A   1      37.256  31.291  29.187  1.00  0.00    -0.014 A 
BRANCH  46  47
ATOM     47  C   UNL A   1      38.434  30.697  29.851  1.00  0.00     0.031 A 
ATOM     48  C   UNL A   1      38.743  31.070  31.271  1.00  0.00     0.074 A 
ATOM     49  C   UNL A   1      39.182  29.793  29.195  1.00  0.00     0.049 A 
ATOM     50  N   UNL A   1      39.716  30.655  32.036  1.00  0.00    -0.248 NA
ATOM     51  C   UNL A   1      37.832  32.030  31.916  1.00  0.00     0.031 C 
ATOM     52  C   UNL A   1      38.946  29.341  27.825  1.00  0.00     0.029 A 
ATOM     53  N   UNL A   1      40.291  29.094  29.597  1.00  0.00    -0.354 N 
ATOM     54  C   UNL A   1      39.552  31.318  33.245  1.00  0.00     0.074 A 
ATOM     55  C   UNL A   1      38.385  32.163  33.114  1.00  0.00     0.031 C 
ATOM     56  C   UNL A   1      39.887  28.441  27.495  1.00  0.00     0.029 A 
ATOM     57  C   UNL A   1      40.802  28.273  28.621  1.00  0.00     0.049 A 
ATOM     58  H   UNL A   1      40.683  29.173  30.496  1.00  0.00     0.167 HD
ATOM     59  C   UNL A   1      40.299  31.217  34.369  1.00  0.00     0.034 A 
ATOM     60  C   UNL A   1      41.891  27.480  28.637  1.00  0.00     0.034 A 
ATOM     61  C   UNL A   1      41.440  30.354  34.502  1.00  0.00     0.049 A 
ATOM     62  C   UNL A   1      42.716  27.403  29.894  1.00  0.00     0.074 A 
ATOM     63  C   UNL A   1      42.261  30.175  35.600  1.00  0.00     0.029 A 
ATOM     64  N   UNL A   1      41.921  29.524  33.500  1.00  0.00    -0.354 N 
ATOM     65  N   UNL A   1      42.505  27.978  31.053  1.00  0.00    -0.248 NA
ATOM     66  C   UNL A   1      43.916  26.556  29.851  1.00  0.00     0.031 C 
ATOM     67  C   UNL A   1      43.240  29.232  35.262  1.00  0.00     0.029 A 
ATOM     68  C   UNL A   1      43.028  28.829  33.952  1.00  0.00     0.049 A 
ATOM     69  H   UNL A   1      41.531  29.441  32.600  1.00  0.00     0.167 HD
ATOM     70  C   UNL A   1      43.534  27.552  31.883  1.00  0.00     0.074 A 
ATOM     71  C   UNL A   1      44.355  26.649  31.101  1.00  0.00     0.031 C 
ATOM     72  C   UNL A   1      43.795  27.896  33.169  1.00  0.00     0.034 A 
BRANCH  59  73
ATOM     73  C   UNL A   1      39.874  32.032  35.556  1.00  0.00     0.023 A 
ATOM     74  C   UNL A   1      40.426  33.316  35.741  1.00  0.00     0.012 A 
ATOM     75  C   UNL A   1      38.913  31.551  36.465  1.00  0.00     0.148 A 
ATOM     76  C   UNL A   1      40.038  34.103  36.825  1.00  0.00     0.002 A 
ATOM     77  C   UNL A   1      38.512  32.354  37.528  1.00  0.00     0.091 A 
ATOM     78  F   UNL A   1      38.428  30.313  36.292  1.00  0.00    -0.205 F 
ATOM     79  C   UNL A   1      39.075  33.627  37.711  1.00  0.00     0.022 A 
BRANCH  77  80
ATOM     80  S   UNL A   1      37.242  31.831  38.686  1.00  0.00     0.127 S 
ATOM     81  O   UNL A   1      37.105  30.414  38.357  1.00  0.00    -0.237 OA
ATOM     82  O   UNL A   1      37.866  32.099  39.982  1.00  0.00    -0.237 OA
ATOM     83  O   UNL A   1      36.083  32.665  38.396  1.00  0.00    -0.744 OA
ENDBRANCH  77  80
ENDBRANCH  59  73
BRANCH  60  84
ATOM     84  C   UNL A   1      42.225  26.660  27.440  1.00  0.00     0.023 A 
ATOM     85  C   UNL A   1      42.881  27.265  26.351  1.00  0.00     0.012 A 
ATOM     86  C   UNL A   1      41.950  25.280  27.396  1.00  0.00     0.148 A 
ATOM     87  C   UNL A   1      43.248  26.511  25.235  1.00  0.00     0.002 A 
ATOM     88  C   UNL A   1      42.365  24.525  26.303  1.00  0.00     0.091 A 
ATOM     89  F   UNL A   1      41.297  24.724  28.426  1.00  0.00    -0.205 F 
ATOM     90  C   UNL A   1      43.003  25.140  25.217  1.00  0.00     0.022 A 
BRANCH  88  91
ATOM     91  S   UNL A   1      42.202  22.735  26.288  1.00  0.00     0.127 S 
ATOM     92  O   UNL A   1      43.032  22.347  27.424  1.00  0.00    -0.237 OA
ATOM     93  O   UNL A   1      40.764  22.547  26.484  1.00  0.00    -0.237 OA
ATOM     94  O   UNL A   1      42.677  22.329  24.971  1.00  0.00    -0.744 OA
ENDBRANCH  88  91
ENDBRANCH  60  84
BRANCH  72  95
ATOM     95  C   UNL A   1      45.017  27.299  33.810  1.00  0.00     0.023 A 
ATOM     96  C   UNL A   1      46.221  28.030  33.799  1.00  0.00     0.012 A 
ATOM     97  C   UNL A   1      44.955  26.070  34.492  1.00  0.00     0.148 A 
ATOM     98  C   UNL A   1      47.353  27.536  34.444  1.00  0.00     0.002 A 
ATOM     99  C   UNL A   1      46.080  25.600  35.161  1.00  0.00     0.091 A 
ATOM    100  F   UNL A   1      43.807  25.378  34.470  1.00  0.00    -0.205 F 
ATOM    101  C   UNL A   1      47.281  26.328  35.135  1.00  0.00     0.022 A 
BRANCH  99 102
ATOM    102  S   UNL A   1      46.032  24.092  36.137  1.00  0.00     0.127 S 
ATOM    103  O   UNL A   1      45.839  23.073  35.106  1.00  0.00    -0.237 OA
ATOM    104  O   UNL A   1      47.352  24.075  36.769  1.00  0.00    -0.237 OA
ATOM    105  O   UNL A   1      44.926  24.270  37.069  1.00  0.00    -0.744 OA
ENDBRANCH  99 102
ENDBRANCH  72  95
ENDBRANCH  46  47
ENDBRANCH  39  41
ENDBRANCH  38  39
ENDBRANCH  37  38
ENDBRANCH   1  37
TORSDOF 20
ENDMDL
MODEL 2
REMARK VINA RESULT:     -12.1      5.345     12.125
REMARK SMILES C[C@H](NS(=O)(=O)c1ccc(-c2cc(-c3ccccc3)c3cc([N+](=O)[O-])ccc3n2)cc1)C(=O)OCCOC(=O)c1ccc(-c2c3nc(c(-c4cccc(S(=O)(=O)[O-])c4F)c4ccc([nH]4)c(-c4cccc(S(=O)(=O)[O-])c4F)c4nc(c(-c5cccc(S(=O)(=O)[O-])c5F)c5ccc2[nH]5)C=C4)C=C3)cc1
REMARK SMILES IDX 35 1 34 2 32 3 33 4 2 5 1 6 3 7 4 9 5 10 6 11 7 12 8 13
REMARK SMILES IDX 31 14 9 15 30 16 10 17 11 18 12 19 29 20 13 21 28 22 20 23
REMARK SMILES IDX 27 24 21 25 26 26 22 27 14 28 15 29 19 30 16 31 18 32 17 33
REMARK SMILES IDX 23 34 24 35 25 36 36 37 37 38 38 39 39 40 40 41 41 42 102 43
REMARK SMILES IDX 42 44 101 45 43 46 44 47 45 48 95 49 46 50 100 51 94 52
REMARK SMILES IDX 96 53 47 54 99 55 93 56 92 57 48 59 80 60 60 61 79 62 61 63
REMARK SMILES IDX 64 64 78 65 97 66 62 67 63 68 77 70 98 71 65 72 49 73 50 74
REMARK SMILES IDX 58 75 51 76 53 77 59 78 52 79 54 80 55 81 56 82 57 83 81 84
REMARK SMILES IDX 82 85 90 86 83 87 85 88 91 89 84 90 86 91 87 92 88 93 89 94
REMARK SMILES IDX 66 95 67 96 75 97 68 98 70 99 76 100 69 101 71 102 72 103
REMARK SMILES IDX 73 104 74 105
REMARK H PARENT 3 8 96 58 64 69
REMARK Flexibility Score: inf
ROOT
ATOM      1  C   UNL A   1      42.017  20.330  26.387  1.00  0.00     0.274 C 
ENDROOT
BRANCH   1   2
ATOM      2  O   UNL A   1      42.520  19.673  25.203  1.00  0.00    -0.461 OA
BRANCH   2   3
ATOM      3  C   UNL A   1      43.798  19.246  25.272  1.00  0.00     0.324 C 
ATOM      4  O   UNL A   1      44.101  18.071  25.479  1.00  0.00    -0.250 OA
BRANCH   3   5
ATOM      5  C   UNL A   1      44.870  20.301  25.107  1.00  0.00     0.176 C 
ATOM      6  C   UNL A   1      45.984  19.700  24.257  1.00  0.00     0.038 C 
BRANCH   5   7
ATOM      7  N   UNL A   1      45.383  21.266  26.104  1.00  0.00    -0.197 NA
ATOM      8  H   UNL A   1      46.397  21.229  25.992  1.00  0.00     0.142 HD
BRANCH   7   9
ATOM      9  S   UNL A   1      45.045  22.891  26.272  1.00  0.00     0.241 S 
ATOM     10  O   UNL A   1      46.316  23.520  26.563  1.00  0.00    -0.207 OA
ATOM     11  O   UNL A   1      44.228  23.330  25.165  1.00  0.00    -0.207 OA
BRANCH   9  12
ATOM     12  C   UNL A   1      44.068  23.114  27.751  1.00  0.00     0.082 A 
ATOM     13  C   UNL A   1      43.140  24.143  27.862  1.00  0.00     0.022 A 
ATOM     14  C   UNL A   1      44.522  22.461  28.896  1.00  0.00     0.022 A 
ATOM     15  C   UNL A   1      43.028  24.805  29.090  1.00  0.00     0.012 A 
ATOM     16  C   UNL A   1      44.291  23.042  30.139  1.00  0.00     0.012 A 
ATOM     17  C   UNL A   1      43.789  24.363  30.186  1.00  0.00     0.000 A 
BRANCH  17  18
ATOM     18  C   UNL A   1      44.679  25.351  30.899  1.00  0.00     0.072 A 
ATOM     19  C   UNL A   1      44.344  26.695  30.935  1.00  0.00     0.038 A 
ATOM     20  N   UNL A   1      45.114  24.753  32.036  1.00  0.00    -0.248 NA
ATOM     21  C   UNL A   1      43.958  27.246  32.171  1.00  0.00    -0.007 A 
ATOM     22  C   UNL A   1      44.497  25.115  33.157  1.00  0.00     0.072 A 
ATOM     23  C   UNL A   1      43.802  26.332  33.251  1.00  0.00     0.015 A 
ATOM     24  C   UNL A   1      44.388  24.176  34.172  1.00  0.00     0.036 A 
ATOM     25  C   UNL A   1      42.893  26.507  34.324  1.00  0.00     0.096 A 
ATOM     26  C   UNL A   1      43.458  24.324  35.201  1.00  0.00     0.088 A 
ATOM     27  C   UNL A   1      42.682  25.478  35.248  1.00  0.00     0.270 A 
BRANCH  21  28
ATOM     28  C   UNL A   1      43.641  28.684  32.316  1.00  0.00    -0.018 A 
ATOM     29  C   UNL A   1      42.321  29.137  32.109  1.00  0.00     0.009 A 
ATOM     30  C   UNL A   1      44.600  29.640  32.683  1.00  0.00     0.009 A 
ATOM     31  C   UNL A   1      41.982  30.486  32.213  1.00  0.00     0.001 A 
ATOM     32  C   UNL A   1      44.256  30.992  32.812  1.00  0.00     0.001 A 
ATOM     33  C   UNL A   1      42.952  31.415  32.566  1.00  0.00     0.000 A 
ENDBRANCH  21  28
BRANCH  27  34
ATOM     34  N   UNL A   1      41.569  25.565  36.196  1.00  0.00     0.062 N 
ATOM     35  O   UNL A   1      41.171  26.698  36.507  1.00  0.00    -0.258 OA
ATOM     36  O   UNL A   1      41.088  24.507  36.621  1.00  0.00    -0.258 OA
ENDBRANCH  27  34
ENDBRANCH  17  18
ENDBRANCH   9  12
ENDBRANCH   7   9
ENDBRANCH   5   7
ENDBRANCH   3   5
ENDBRANCH   2   3
ENDBRANCH   1   2
BRANCH   1  37
ATOM     37  C   UNL A   1      40.600  20.872  26.189  1.00  0.00     0.275 C 
BRANCH  37  38
ATOM     38  O   UNL A   1      40.341  22.028  27.003  1.00  0.00    -0.458 OA
BRANCH  38  39
ATOM     39  C   UNL A   1      39.369  22.844  26.534  1.00  0.00     0.338 C 
ATOM     40  O   UNL A   1      38.381  22.521  25.892  1.00  0.00    -0.246 OA
BRANCH  39  41
ATOM     41  C   UNL A   1      39.563  24.216  27.031  1.00  0.00     0.060 A 
ATOM     42  C   UNL A   1      40.103  25.147  26.135  1.00  0.00     0.016 A 
ATOM     43  C   UNL A   1      39.296  24.574  28.354  1.00  0.00     0.016 A 
ATOM     44  C   UNL A   1      40.391  26.436  26.560  1.00  0.00     0.010 A 
ATOM     45  C   UNL A   1      39.600  25.868  28.785  1.00  0.00     0.010 A 
ATOM     46  C   UNL A   1      40.164  26.795  27.893  1.00  0.00    -0.014 A 
BRANCH  46  47
ATOM     47  C   UNL A   1      40.607  28.126  28.355  1.00  0.00     0.031 A 
ATOM     48  C   UNL A   1      42.061  28.488  28.267  1.00  0.00     0.074 A 
ATOM     49  C   UNL A   1      39.700  29.012  28.798  1.00  0.00     0.049 A 
ATOM     50  N   UNL A   1      42.652  29.603  28.605  1.00  0.00    -0.248 NA
ATOM     51  C   UNL A   1      42.966  27.464  27.719  1.00  0.00     0.031 C 
ATOM     52  C   UNL A   1      38.261  28.767  28.892  1.00  0.00     0.029 A 
ATOM     53  N   UNL A   1      39.855  30.297  29.250  1.00  0.00    -0.354 N 
ATOM     54  C   UNL A   1      43.999  29.410  28.335  1.00  0.00     0.074 A 
ATOM     55  C   UNL A   1      44.142  28.072  27.803  1.00  0.00     0.031 C 
ATOM     56  C   UNL A   1      37.663  29.867  29.378  1.00  0.00     0.029 A 
ATOM     57  C   UNL A   1      38.678  30.882  29.650  1.00  0.00     0.049 A 
ATOM     58  H   UNL A   1      40.725  30.755  29.285  1.00  0.00     0.167 HD
ATOM     59  C   UNL A   1      45.024  30.279  28.500  1.00  0.00     0.034 A 
ATOM     60  C   UNL A   1      38.450  32.098  30.182  1.00  0.00     0.034 A 
ATOM     61  C   UNL A   1      44.871  31.616  29.001  1.00  0.00     0.049 A 
ATOM     62  C   UNL A   1      39.611  33.036  30.374  1.00  0.00     0.074 A 
ATOM     63  C   UNL A   1      45.846  32.578  29.201  1.00  0.00     0.029 A 
ATOM     64  N   UNL A   1      43.664  32.182  29.382  1.00  0.00    -0.354 N 
ATOM     65  N   UNL A   1      40.869  32.868  30.043  1.00  0.00    -0.248 NA
ATOM     66  C   UNL A   1      39.320  34.337  30.994  1.00  0.00     0.031 C 
ATOM     67  C   UNL A   1      45.225  33.728  29.702  1.00  0.00     0.029 A 
ATOM     68  C   UNL A   1      43.865  33.479  29.816  1.00  0.00     0.049 A 
ATOM     69  H   UNL A   1      42.791  31.728  29.348  1.00  0.00     0.167 HD
ATOM     70  C   UNL A   1      41.518  34.044  30.400  1.00  0.00     0.074 A 
ATOM     71  C   UNL A   1      40.508  34.928  30.947  1.00  0.00     0.031 C 
ATOM     72  C   UNL A   1      42.834  34.357  30.308  1.00  0.00     0.034 A 
BRANCH  59  73
ATOM     73  C   UNL A   1      46.393  29.817  28.092  1.00  0.00     0.023 A 
ATOM     74  C   UNL A   1      46.842  30.070  26.781  1.00  0.00     0.012 A 
ATOM     75  C   UNL A   1      47.244  29.165  29.004  1.00  0.00     0.148 A 
ATOM     76  C   UNL A   1      48.115  29.668  26.378  1.00  0.00     0.002 A 
ATOM     77  C   UNL A   1      48.522  28.791  28.603  1.00  0.00     0.091 A 
ATOM     78  F   UNL A   1      46.784  28.899  30.235  1.00  0.00    -0.205 F 
ATOM     79  C   UNL A   1      48.958  29.038  27.291  1.00  0.00     0.022 A 
BRANCH  77  80
ATOM     80  S   UNL A   1      49.685  28.018  29.733  1.00  0.00     0.127 S 
ATOM     81  O   UNL A   1      50.015  29.128  30.625  1.00  0.00    -0.237 OA
ATOM     82  O   UNL A   1      48.877  26.964  30.347  1.00  0.00    -0.237 OA
ATOM     83  O   UNL A   1      50.774  27.530  28.899  1.00  0.00    -0.744 OA
ENDBRANCH  77  80
ENDBRANCH  59  73
BRANCH  60  84
ATOM     84  C   UNL A   1      37.059  32.509  30.517  1.00  0.00     0.023 A 
ATOM     85  C   UNL A   1      36.612  32.411  31.847  1.00  0.00     0.012 A 
ATOM     86  C   UNL A   1      36.197  33.047  29.541  1.00  0.00     0.148 A 
ATOM     87  C   UNL A   1      35.329  32.831  32.200  1.00  0.00     0.002 A 
ATOM     88  C   UNL A   1      34.939  33.512  29.909  1.00  0.00     0.091 A 
ATOM     89  F   UNL A   1      36.625  33.105  28.272  1.00  0.00    -0.205 F 
ATOM     90  C   UNL A   1      34.497  33.395  31.234  1.00  0.00     0.022 A 
BRANCH  88  91
ATOM     91  S   UNL A   1      33.883  34.374  28.737  1.00  0.00     0.127 S 
ATOM     92  O   UNL A   1      33.519  33.303  27.814  1.00  0.00    -0.237 OA
ATOM     93  O   UNL A   1      32.791  34.850  29.588  1.00  0.00    -0.237 OA
ATOM     94  O   UNL A   1      34.717  35.439  28.195  1.00  0.00    -0.744 OA
ENDBRANCH  88  91
ENDBRANCH  60  84
BRANCH  72  95
ATOM     95  C   UNL A   1      43.261  35.707  30.813  1.00  0.00     0.023 A 
ATOM     96  C   UNL A   1      43.431  36.759  29.892  1.00  0.00     0.012 A 
ATOM     97  C   UNL A   1      43.408  35.957  32.190  1.00  0.00     0.148 A 
ATOM     98  C   UNL A   1      43.759  38.039  30.335  1.00  0.00     0.002 A 
ATOM     99  C   UNL A   1      43.702  37.244  32.626  1.00  0.00     0.091 A 
ATOM    100  F   UNL A   1      43.266  34.936  33.048  1.00  0.00    -0.205 F 
ATOM    101  C   UNL A   1      43.882  38.285  31.700  1.00  0.00     0.022 A 
BRANCH  99 102
ATOM    102  S   UNL A   1      43.796  37.646  34.374  1.00  0.00     0.127 S 
ATOM    103  O   UNL A   1      44.805  36.700  34.846  1.00  0.00    -0.237 OA
ATOM    104  O   UNL A   1      44.232  39.043  34.360  1.00  0.00    -0.237 OA
ATOM    105  O   UNL A   1      42.448  37.447  34.889  1.00  0.00    -0.744 OA
ENDBRANCH  99 102
ENDBRANCH  72  95
ENDBRANCH  46  47
ENDBRANCH  39  41
ENDBRANCH  38  39
ENDBRANCH  37  38
ENDBRANCH   1  37
TORSDOF 20
ENDMDL
MODEL 3
REMARK VINA RESULT:     -12.0      0.651      7.040
REMARK SMILES C[C@H](NS(=O)(=O)c1ccc(-c2cc(-c3ccccc3)c3cc([N+](=O)[O-])ccc3n2)cc1)C(=O)OCCOC(=O)c1ccc(-c2c3nc(c(-c4cccc(S(=O)(=O)[O-])c4F)c4ccc([nH]4)c(-c4cccc(S(=O)(=O)[O-])c4F)c4nc(c(-c5cccc(S(=O)(=O)[O-])c5F)c5ccc2[nH]5)C=C4)C=C3)cc1
REMARK SMILES IDX 35 1 34 2 32 3 33 4 2 5 1 6 3 7 4 9 5 10 6 11 7 12 8 13
REMARK SMILES IDX 31 14 9 15 30 16 10 17 11 18 12 19 29 20 13 21 28 22 20 23
REMARK SMILES IDX 27 24 21 25 26 26 22 27 14 28 15 29 19 30 16 31 18 32 17 33
REMARK SMILES IDX 23 34 24 35 25 36 36 37 37 38 38 39 39 40 40 41 41 42 102 43
REMARK SMILES IDX 42 44 101 45 43 46 44 47 45 48 95 49 46 50 100 51 94 52
REMARK SMILES IDX 96 53 47 54 99 55 93 56 92 57 48 59 80 60 60 61 79 62 61 63
REMARK SMILES IDX 64 64 78 65 97 66 62 67 63 68 77 70 98 71 65 72 49 73 50 74
REMARK SMILES IDX 58 75 51 76 53 77 59 78 52 79 54 80 55 81 56 82 57 83 81 84
REMARK SMILES IDX 82 85 90 86 83 87 85 88 91 89 84 90 86 91 87 92 88 93 89 94
REMARK SMILES IDX 66 95 67 96 75 97 68 98 70 99 76 100 69 101 71 102 72 103
REMARK SMILES IDX 73 104 74 105
REMARK H PARENT 3 8 96 58 64 69
REMARK Flexibility Score: inf
ROOT
ATOM      1  C   UNL A   1      31.553  29.984  25.929  1.00  0.00     0.274 C 
ENDROOT
BRANCH   1   2
ATOM      2  O   UNL A   1      32.197  29.785  24.652  1.00  0.00    -0.461 OA
BRANCH   2   3
ATOM      3  C   UNL A   1      33.324  29.043  24.677  1.00  0.00     0.324 C 
ATOM      4  O   UNL A   1      34.007  28.897  25.691  1.00  0.00    -0.250 OA
BRANCH   3   5
ATOM      5  C   UNL A   1      33.739  28.404  23.370  1.00  0.00     0.176 C 
ATOM      6  C   UNL A   1      32.657  28.711  22.340  1.00  0.00     0.038 C 
BRANCH   5   7
ATOM      7  N   UNL A   1      34.374  27.088  23.141  1.00  0.00    -0.197 NA
ATOM      8  H   UNL A   1      34.800  26.854  24.038  1.00  0.00     0.142 HD
BRANCH   7   9
ATOM      9  S   UNL A   1      33.685  25.658  22.626  1.00  0.00     0.241 S 
ATOM     10  O   UNL A   1      33.286  25.896  21.255  1.00  0.00    -0.207 OA
ATOM     11  O   UNL A   1      34.548  24.555  22.974  1.00  0.00    -0.207 OA
BRANCH   9  12
ATOM     12  C   UNL A   1      32.156  25.415  23.518  1.00  0.00     0.082 A 
ATOM     13  C   UNL A   1      31.970  25.927  24.796  1.00  0.00     0.022 A 
ATOM     14  C   UNL A   1      31.318  24.405  23.044  1.00  0.00     0.022 A 
ATOM     15  C   UNL A   1      31.284  25.143  25.731  1.00  0.00     0.012 A 
ATOM     16  C   UNL A   1      30.522  23.711  23.949  1.00  0.00     0.012 A 
ATOM     17  C   UNL A   1      30.739  23.911  25.333  1.00  0.00     0.000 A 
BRANCH  17  18
ATOM     18  C   UNL A   1      31.117  22.666  26.097  1.00  0.00     0.072 A 
ATOM     19  C   UNL A   1      31.172  21.440  25.454  1.00  0.00     0.038 A 
ATOM     20  N   UNL A   1      32.117  23.004  26.950  1.00  0.00    -0.248 NA
ATOM     21  C   UNL A   1      32.434  20.845  25.275  1.00  0.00    -0.007 A 
ATOM     22  C   UNL A   1      33.345  22.658  26.574  1.00  0.00     0.072 A 
ATOM     23  C   UNL A   1      33.563  21.630  25.642  1.00  0.00     0.015 A 
ATOM     24  C   UNL A   1      34.399  23.466  26.973  1.00  0.00     0.036 A 
ATOM     25  C   UNL A   1      34.838  21.537  25.030  1.00  0.00     0.096 A 
ATOM     26  C   UNL A   1      35.639  23.409  26.337  1.00  0.00     0.088 A 
ATOM     27  C   UNL A   1      35.838  22.466  25.334  1.00  0.00     0.270 A 
BRANCH  21  28
ATOM     28  C   UNL A   1      32.583  19.510  24.653  1.00  0.00    -0.018 A 
ATOM     29  C   UNL A   1      32.835  18.382  25.462  1.00  0.00     0.009 A 
ATOM     30  C   UNL A   1      32.456  19.297  23.272  1.00  0.00     0.009 A 
ATOM     31  C   UNL A   1      33.005  17.109  24.916  1.00  0.00     0.001 A 
ATOM     32  C   UNL A   1      32.602  18.016  22.725  1.00  0.00     0.001 A 
ATOM     33  C   UNL A   1      32.887  16.927  23.544  1.00  0.00     0.000 A 
ENDBRANCH  21  28
BRANCH  27  34
ATOM     34  N   UNL A   1      37.056  22.519  24.521  1.00  0.00     0.062 N 
ATOM     35  O   UNL A   1      37.485  21.449  24.064  1.00  0.00    -0.258 OA
ATOM     36  O   UNL A   1      37.576  23.627  24.331  1.00  0.00    -0.258 OA
ENDBRANCH  27  34
ENDBRANCH  17  18
ENDBRANCH   9  12
ENDBRANCH   7   9
ENDBRANCH   5   7
ENDBRANCH   3   5
ENDBRANCH   2   3
ENDBRANCH   1   2
BRANCH   1  37
ATOM     37  C   UNL A   1      31.812  31.381  26.495  1.00  0.00     0.275 C 
BRANCH  37  38
ATOM     38  O   UNL A   1      32.772  31.366  27.565  1.00  0.00    -0.458 OA
BRANCH  38  39
ATOM     39  C   UNL A   1      33.675  32.372  27.531  1.00  0.00     0.338 C 
ATOM     40  O   UNL A   1      33.466  33.539  27.235  1.00  0.00    -0.246 OA
BRANCH  39  41
ATOM     41  C   UNL A   1      34.972  31.921  28.058  1.00  0.00     0.060 A 
ATOM     42  C   UNL A   1      35.038  30.612  28.550  1.00  0.00     0.016 A 
ATOM     43  C   UNL A   1      36.079  32.768  28.141  1.00  0.00     0.016 A 
ATOM     44  C   UNL A   1      36.206  30.146  29.139  1.00  0.00     0.010 A 
ATOM     45  C   UNL A   1      37.250  32.304  28.747  1.00  0.00     0.010 A 
ATOM     46  C   UNL A   1      37.308  30.999  29.262  1.00  0.00    -0.014 A 
BRANCH  46  47
ATOM     47  C   UNL A   1      38.488  30.529  30.015  1.00  0.00     0.031 A 
ATOM     48  C   UNL A   1      39.407  29.522  29.388  1.00  0.00     0.074 A 
ATOM     49  C   UNL A   1      38.754  31.046  31.227  1.00  0.00     0.049 A 
ATOM     50  N   UNL A   1      40.498  28.991  29.871  1.00  0.00    -0.248 NA
ATOM     51  C   UNL A   1      39.055  29.056  28.036  1.00  0.00     0.031 C 
ATOM     52  C   UNL A   1      37.940  32.052  31.908  1.00  0.00     0.029 A 
ATOM     53  N   UNL A   1      39.783  30.795  32.097  1.00  0.00    -0.354 N 
ATOM     54  C   UNL A   1      40.952  28.113  28.897  1.00  0.00     0.074 A 
ATOM     55  C   UNL A   1      40.020  28.181  27.792  1.00  0.00     0.031 C 
ATOM     56  C   UNL A   1      38.500  32.332  33.097  1.00  0.00     0.029 A 
ATOM     57  C   UNL A   1      39.694  31.508  33.269  1.00  0.00     0.049 A 
ATOM     58  H   UNL A   1      40.514  30.166  31.902  1.00  0.00     0.167 HD
ATOM     59  C   UNL A   1      42.058  27.333  28.916  1.00  0.00     0.034 A 
ATOM     60  C   UNL A   1      40.487  31.490  34.357  1.00  0.00     0.034 A 
ATOM     61  C   UNL A   1      42.995  27.292  30.004  1.00  0.00     0.049 A 
ATOM     62  C   UNL A   1      41.699  30.597  34.359  1.00  0.00     0.074 A 
ATOM     63  C   UNL A   1      44.149  26.539  30.119  1.00  0.00     0.029 A 
ATOM     64  N   UNL A   1      42.884  28.038  31.168  1.00  0.00    -0.354 N 
ATOM     65  N   UNL A   1      42.157  29.829  33.400  1.00  0.00    -0.248 NA
ATOM     66  C   UNL A   1      42.511  30.582  35.584  1.00  0.00     0.031 C 
ATOM     67  C   UNL A   1      44.739  26.833  31.355  1.00  0.00     0.029 A 
ATOM     68  C   UNL A   1      43.947  27.766  32.009  1.00  0.00     0.049 A 
ATOM     69  H   UNL A   1      42.155  28.670  31.367  1.00  0.00     0.167 HD
ATOM     70  C   UNL A   1      43.318  29.250  33.897  1.00  0.00     0.074 A 
ATOM     71  C   UNL A   1      43.509  29.778  35.234  1.00  0.00     0.031 C 
ATOM     72  C   UNL A   1      44.141  28.345  33.313  1.00  0.00     0.034 A 
BRANCH  59  73
ATOM     73  C   UNL A   1      42.331  26.494  27.702  1.00  0.00     0.023 A 
ATOM     74  C   UNL A   1      42.980  27.077  26.595  1.00  0.00     0.012 A 
ATOM     75  C   UNL A   1      41.981  25.131  27.663  1.00  0.00     0.148 A 
ATOM     76  C   UNL A   1      43.262  26.318  25.460  1.00  0.00     0.002 A 
ATOM     77  C   UNL A   1      42.290  24.374  26.538  1.00  0.00     0.091 A 
ATOM     78  F   UNL A   1      41.330  24.605  28.711  1.00  0.00    -0.205 F 
ATOM     79  C   UNL A   1      42.927  24.966  25.435  1.00  0.00     0.022 A 
BRANCH  77  80
ATOM     80  S   UNL A   1      41.933  22.616  26.448  1.00  0.00     0.127 S 
ATOM     81  O   UNL A   1      42.303  22.309  25.067  1.00  0.00    -0.237 OA
ATOM     82  O   UNL A   1      42.832  22.058  27.458  1.00  0.00    -0.237 OA
ATOM     83  O   UNL A   1      40.518  22.489  26.768  1.00  0.00    -0.744 OA
ENDBRANCH  77  80
ENDBRANCH  59  73
BRANCH  60  84
ATOM     84  C   UNL A   1      40.183  32.387  35.506  1.00  0.00     0.023 A 
ATOM     85  C   UNL A   1      40.829  33.633  35.598  1.00  0.00     0.012 A 
ATOM     86  C   UNL A   1      39.220  32.039  36.474  1.00  0.00     0.148 A 
ATOM     87  C   UNL A   1      40.530  34.514  36.639  1.00  0.00     0.002 A 
ATOM     88  C   UNL A   1      38.890  32.942  37.478  1.00  0.00     0.091 A 
ATOM     89  F   UNL A   1      38.636  30.835  36.391  1.00  0.00    -0.205 F 
ATOM     90  C   UNL A   1      39.550  34.175  37.570  1.00  0.00     0.022 A 
BRANCH  88  91
ATOM     91  S   UNL A   1      37.539  32.618  38.619  1.00  0.00     0.127 S 
ATOM     92  O   UNL A   1      37.760  33.632  39.645  1.00  0.00    -0.237 OA
ATOM     93  O   UNL A   1      36.359  32.836  37.782  1.00  0.00    -0.237 OA
ATOM     94  O   UNL A   1      37.724  31.231  39.031  1.00  0.00    -0.744 OA
ENDBRANCH  88  91
ENDBRANCH  60  84
BRANCH  72  95
ATOM     95  C   UNL A   1      45.318  27.862  34.114  1.00  0.00     0.023 A 
ATOM     96  C   UNL A   1      46.455  28.685  34.223  1.00  0.00     0.012 A 
ATOM     97  C   UNL A   1      45.268  26.647  34.822  1.00  0.00     0.148 A 
ATOM     98  C   UNL A   1      47.535  28.298  35.014  1.00  0.00     0.002 A 
ATOM     99  C   UNL A   1      46.336  26.283  35.635  1.00  0.00     0.091 A 
ATOM    100  F   UNL A   1      44.187  25.865  34.685  1.00  0.00    -0.205 F 
ATOM    101  C   UNL A   1      47.471  27.104  35.729  1.00  0.00     0.022 A 
BRANCH  99 102
ATOM    102  S   UNL A   1      46.285  24.798  36.645  1.00  0.00     0.127 S 
ATOM    103  O   UNL A   1      47.465  24.969  37.491  1.00  0.00    -0.237 OA
ATOM    104  O   UNL A   1      45.008  24.930  37.349  1.00  0.00    -0.237 OA
ATOM    105  O   UNL A   1      46.335  23.688  35.703  1.00  0.00    -0.744 OA
ENDBRANCH  99 102
ENDBRANCH  72  95
ENDBRANCH  46  47
ENDBRANCH  39  41
ENDBRANCH  38  39
ENDBRANCH  37  38
ENDBRANCH   1  37
TORSDOF 20
ENDMDL
