MODEL 1
REMARK VINA RESULT:     -11.6      0.000      0.000
REMARK SMILES C[C@]12C[C@@H](O)[C@@H]3[C@@H](CCC4=CC(=O)CC[C@]43C)[C@H]1CC[C@]2(O)C(=O)COC(=O)CCC(=O)OCCOC(=O)c1ccc(-c2c3nc(c(-c4cccc(S(=O)(=O)[O-])c4F)c4ccc([nH]4)c(-c4cccc(S(=O)(=O)[O-])c4F)c4nc(c(-c5cccc(S(=O)(=O)[O-])c5F)c5ccc2[nH]5)C=C4)C=C3)cc1
REMARK SMILES IDX 31 1 32 2 30 3 29 4 27 5 28 6 26 7 25 8 23 9 24 10 21 11
REMARK SMILES IDX 17 12 16 13 15 14 10 15 6 16 14 17 11 18 9 19 7 20 4 21
REMARK SMILES IDX 12 22 8 23 18 24 3 25 13 26 2 27 19 28 1 29 20 30 5 31 22 33
REMARK SMILES IDX 33 35 34 36 35 37 36 38 37 39 38 40 39 41 40 42 101 43 41 44
REMARK SMILES IDX 100 45 42 46 43 47 44 48 94 49 45 50 99 51 93 52 95 53 46 54
REMARK SMILES IDX 98 55 92 56 91 57 47 59 79 60 59 61 78 62 60 63 63 64 77 65
REMARK SMILES IDX 96 66 61 67 62 68 76 70 97 71 64 72 48 73 49 74 57 75 50 76
REMARK SMILES IDX 52 77 58 78 51 79 53 80 54 81 55 82 56 83 80 84 81 85 89 86
REMARK SMILES IDX 82 87 84 88 90 89 83 90 85 91 86 92 87 93 88 94 65 95 66 96
REMARK SMILES IDX 74 97 67 98 69 99 75 100 68 101 70 102 71 103 72 104 73 105
REMARK H PARENT 5 32 22 34 95 58 63 69
REMARK Flexibility Score: inf
ROOT
ATOM      1  C   UNL A   1      41.926  21.436  27.377  1.00  0.00     0.306 C 
ATOM      2  O   UNL A   1      42.217  22.148  28.328  1.00  0.00    -0.252 OA
ENDROOT
BRANCH   1   3
ATOM      3  C   UNL A   1      41.142  21.961  26.176  1.00  0.00     0.134 C 
BRANCH   3   4
ATOM      4  C   UNL A   1      39.818  22.657  26.477  1.00  0.00     0.134 C 
BRANCH   4   5
ATOM      5  C   UNL A   1      38.691  21.862  25.877  1.00  0.00     0.306 C 
ATOM      6  O   UNL A   1      38.837  20.725  25.457  1.00  0.00    -0.252 OA
BRANCH   5   7
ATOM      7  O   UNL A   1      37.603  22.648  25.712  1.00  0.00    -0.458 OA
BRANCH   7   8
ATOM      8  C   UNL A   1      36.678  22.391  24.664  1.00  0.00     0.311 C 
BRANCH   8   9
ATOM      9  C   UNL A   1      35.480  21.456  24.801  1.00  0.00     0.202 C 
ATOM     10  O   UNL A   1      35.679  20.243  24.988  1.00  0.00    -0.293 OA
BRANCH   9  11
ATOM     11  C   UNL A   1      34.018  21.981  24.848  1.00  0.00     0.132 C 
ATOM     12  C   UNL A   1      31.357  28.161  25.310  1.00  0.00     0.016 C 
ATOM     13  C   UNL A   1      31.134  26.799  24.574  1.00  0.00    -0.005 C 
ATOM     14  C   UNL A   1      29.594  26.732  24.363  1.00  0.00     0.020 C 
ATOM     15  C   UNL A   1      31.641  26.676  23.141  1.00  0.00    -0.060 C 
ATOM     16  C   UNL A   1      31.763  25.645  25.450  1.00  0.00     0.031 C 
ATOM     17  C   UNL A   1      29.124  27.650  23.199  1.00  0.00     0.081 C 
ATOM     18  C   UNL A   1      31.536  27.700  22.278  1.00  0.00     0.047 C 
ATOM     19  C   UNL A   1      31.587  25.303  22.505  1.00  0.00     0.032 C 
ATOM     20  C   UNL A   1      31.464  24.239  24.874  1.00  0.00    -0.000 C 
ATOM     21  C   UNL A   1      33.297  25.753  25.851  1.00  0.00     0.119 C 
ATOM     22  C   UNL A   1      30.241  28.414  22.469  1.00  0.00     0.155 C 
ATOM     23  C   UNL A   1      31.936  24.160  23.424  1.00  0.00     0.009 C 
ATOM     24  C   UNL A   1      32.093  23.192  25.824  1.00  0.00     0.002 C 
ATOM     25  C   UNL A   1      34.228  24.558  25.509  1.00  0.00     0.042 C 
ATOM     26  O   UNL A   1      30.049  29.486  21.901  1.00  0.00    -0.295 OA
ATOM     27  C   UNL A   1      33.641  23.170  25.825  1.00  0.00     0.009 C 
ATOM     28  C   UNL A   1      31.687  21.728  25.634  1.00  0.00     0.008 C 
ATOM     29  C   UNL A   1      34.043  22.846  27.261  1.00  0.00     0.015 C 
ATOM     30  C   UNL A   1      32.859  20.982  24.981  1.00  0.00     0.044 C 
BRANCH  21  31
ATOM     31  O   UNL A   1      33.933  26.898  25.296  1.00  0.00    -0.393 OA
ATOM     32  H   UNL A   1      33.702  26.974  24.358  1.00  0.00     0.210 HD
ENDBRANCH  21  31
BRANCH  11  33
ATOM     33  O   UNL A   1      33.935  22.366  23.451  1.00  0.00    -0.381 OA
ATOM     34  H   UNL A   1      34.641  22.999  23.247  1.00  0.00     0.212 HD
ENDBRANCH  11  33
ENDBRANCH   9  11
ENDBRANCH   8   9
ENDBRANCH   7   8
ENDBRANCH   5   7
ENDBRANCH   4   5
ENDBRANCH   3   4
ENDBRANCH   1   3
BRANCH   1  35
ATOM     35  O   UNL A   1      42.169  20.102  27.324  1.00  0.00    -0.462 OA
BRANCH  35  36
ATOM     36  C   UNL A   1      41.956  19.395  26.080  1.00  0.00     0.274 C 
BRANCH  36  37
ATOM     37  C   UNL A   1      43.265  18.788  25.577  1.00  0.00     0.275 C 
BRANCH  37  38
ATOM     38  O   UNL A   1      43.689  19.478  24.396  1.00  0.00    -0.458 OA
BRANCH  38  39
ATOM     39  C   UNL A   1      44.965  19.917  24.433  1.00  0.00     0.338 C 
ATOM     40  O   UNL A   1      45.945  19.406  23.902  1.00  0.00    -0.246 OA
BRANCH  39  41
ATOM     41  C   UNL A   1      44.959  21.274  24.978  1.00  0.00     0.060 A 
ATOM     42  C   UNL A   1      44.541  22.304  24.130  1.00  0.00     0.016 A 
ATOM     43  C   UNL A   1      45.350  21.540  26.287  1.00  0.00     0.016 A 
ATOM     44  C   UNL A   1      44.481  23.607  24.579  1.00  0.00     0.010 A 
ATOM     45  C   UNL A   1      45.337  22.859  26.731  1.00  0.00     0.010 A 
ATOM     46  C   UNL A   1      44.916  23.890  25.871  1.00  0.00    -0.014 A 
BRANCH  46  47
ATOM     47  C   UNL A   1      45.096  25.300  26.246  1.00  0.00     0.031 A 
ATOM     48  C   UNL A   1      46.477  25.872  26.171  1.00  0.00     0.074 A 
ATOM     49  C   UNL A   1      44.033  26.040  26.594  1.00  0.00     0.049 A 
ATOM     50  N   UNL A   1      46.904  27.046  26.539  1.00  0.00    -0.248 NA
ATOM     51  C   UNL A   1      47.522  24.997  25.607  1.00  0.00     0.031 C 
ATOM     52  C   UNL A   1      42.647  25.568  26.623  1.00  0.00     0.029 A 
ATOM     53  N   UNL A   1      43.957  27.341  27.009  1.00  0.00    -0.354 N 
ATOM     54  C   UNL A   1      48.274  27.032  26.311  1.00  0.00     0.074 A 
ATOM     55  C   UNL A   1      48.607  25.738  25.761  1.00  0.00     0.031 C 
ATOM     56  C   UNL A   1      41.859  26.560  27.068  1.00  0.00     0.029 A 
ATOM     57  C   UNL A   1      42.691  27.713  27.395  1.00  0.00     0.049 A 
ATOM     58  H   UNL A   1      44.730  27.950  27.030  1.00  0.00     0.167 HD
ATOM     59  C   UNL A   1      49.166  28.020  26.544  1.00  0.00     0.034 A 
ATOM     60  C   UNL A   1      42.273  28.848  27.985  1.00  0.00     0.034 A 
ATOM     61  C   UNL A   1      48.794  29.304  27.068  1.00  0.00     0.049 A 
ATOM     62  C   UNL A   1      43.290  29.925  28.249  1.00  0.00     0.074 A 
ATOM     63  C   UNL A   1      49.600  30.395  27.331  1.00  0.00     0.029 A 
ATOM     64  N   UNL A   1      47.498  29.667  27.410  1.00  0.00    -0.354 N 
ATOM     65  N   UNL A   1      44.577  29.925  27.988  1.00  0.00    -0.248 NA
ATOM     66  C   UNL A   1      42.800  31.166  28.862  1.00  0.00     0.031 C 
ATOM     67  C   UNL A   1      48.794  31.408  27.860  1.00  0.00     0.029 A 
ATOM     68  C   UNL A   1      47.480  30.962  27.888  1.00  0.00     0.049 A 
ATOM     69  H   UNL A   1      46.709  29.085  27.326  1.00  0.00     0.167 HD
ATOM     70  C   UNL A   1      45.045  31.177  28.368  1.00  0.00     0.074 A 
ATOM     71  C   UNL A   1      43.895  31.912  28.863  1.00  0.00     0.031 C 
ATOM     72  C   UNL A   1      46.305  31.675  28.323  1.00  0.00     0.034 A 
BRANCH  59  73
ATOM     73  C   UNL A   1      50.613  27.736  26.249  1.00  0.00     0.023 A 
ATOM     74  C   UNL A   1      51.484  27.335  27.284  1.00  0.00     0.012 A 
ATOM     75  C   UNL A   1      51.110  27.853  24.936  1.00  0.00     0.148 A 
ATOM     76  C   UNL A   1      52.832  27.088  27.021  1.00  0.00     0.002 A 
ATOM     77  C   UNL A   1      52.442  27.559  24.674  1.00  0.00     0.091 A 
ATOM     78  F   UNL A   1      50.275  28.268  23.972  1.00  0.00    -0.205 F 
ATOM     79  C   UNL A   1      53.307  27.190  25.717  1.00  0.00     0.022 A 
BRANCH  77  80
ATOM     80  S   UNL A   1      53.132  27.590  23.017  1.00  0.00     0.127 S 
ATOM     81  O   UNL A   1      52.739  28.922  22.558  1.00  0.00    -0.237 OA
ATOM     82  O   UNL A   1      54.562  27.431  23.278  1.00  0.00    -0.237 OA
ATOM     83  O   UNL A   1      52.517  26.478  22.304  1.00  0.00    -0.744 OA
ENDBRANCH  77  80
ENDBRANCH  59  73
BRANCH  60  84
ATOM     84  C   UNL A   1      40.837  29.017  28.340  1.00  0.00     0.023 A 
ATOM     85  C   UNL A   1      39.901  29.320  27.333  1.00  0.00     0.012 A 
ATOM     86  C   UNL A   1      40.387  28.840  29.664  1.00  0.00     0.148 A 
ATOM     87  C   UNL A   1      38.548  29.468  27.641  1.00  0.00     0.002 A 
ATOM     88  C   UNL A   1      39.032  28.932  29.955  1.00  0.00     0.091 A 
ATOM     89  F   UNL A   1      41.295  28.567  30.611  1.00  0.00    -0.205 F 
ATOM     90  C   UNL A   1      38.112  29.263  28.947  1.00  0.00     0.022 A 
BRANCH  88  91
ATOM     91  S   UNL A   1      38.367  28.553  31.580  1.00  0.00     0.127 S 
ATOM     92  O   UNL A   1      38.677  27.132  31.707  1.00  0.00    -0.237 OA
ATOM     93  O   UNL A   1      39.154  29.436  32.441  1.00  0.00    -0.237 OA
ATOM     94  O   UNL A   1      36.951  28.889  31.514  1.00  0.00    -0.744 OA
ENDBRANCH  88  91
ENDBRANCH  60  84
BRANCH  72  95
ATOM     95  C   UNL A   1      46.497  33.098  28.770  1.00  0.00     0.023 A 
ATOM     96  C   UNL A   1      46.839  33.379  30.107  1.00  0.00     0.012 A 
ATOM     97  C   UNL A   1      46.416  34.150  27.836  1.00  0.00     0.148 A 
ATOM     98  C   UNL A   1      47.061  34.692  30.517  1.00  0.00     0.002 A 
ATOM     99  C   UNL A   1      46.693  35.449  28.240  1.00  0.00     0.091 A 
ATOM    100  F   UNL A   1      46.071  33.860  26.574  1.00  0.00    -0.205 F 
ATOM    101  C   UNL A   1      47.002  35.724  29.582  1.00  0.00     0.022 A 
BRANCH  99 102
ATOM    102  S   UNL A   1      46.744  36.819  27.082  1.00  0.00     0.127 S 
ATOM    103  O   UNL A   1      45.351  36.892  26.646  1.00  0.00    -0.237 OA
ATOM    104  O   UNL A   1      47.176  37.928  27.933  1.00  0.00    -0.237 OA
ATOM    105  O   UNL A   1      47.704  36.440  26.053  1.00  0.00    -0.744 OA
ENDBRANCH  99 102
ENDBRANCH  72  95
ENDBRANCH  46  47
ENDBRANCH  39  41
ENDBRANCH  38  39
ENDBRANCH  37  38
ENDBRANCH  36  37
ENDBRANCH  35  36
ENDBRANCH   1  35
TORSDOF 22
ENDMDL
MODEL 2
REMARK VINA RESULT:     -11.6      6.828     12.813
REMARK SMILES C[C@]12C[C@@H](O)[C@@H]3[C@@H](CCC4=CC(=O)CC[C@]43C)[C@H]1CC[C@]2(O)C(=O)COC(=O)CCC(=O)OCCOC(=O)c1ccc(-c2c3nc(c(-c4cccc(S(=O)(=O)[O-])c4F)c4ccc([nH]4)c(-c4cccc(S(=O)(=O)[O-])c4F)c4nc(c(-c5cccc(S(=O)(=O)[O-])c5F)c5ccc2[nH]5)C=C4)C=C3)cc1
REMARK SMILES IDX 31 1 32 2 30 3 29 4 27 5 28 6 26 7 25 8 23 9 24 10 21 11
REMARK SMILES IDX 17 12 16 13 15 14 10 15 6 16 14 17 11 18 9 19 7 20 4 21
REMARK SMILES IDX 12 22 8 23 18 24 3 25 13 26 2 27 19 28 1 29 20 30 5 31 22 33
REMARK SMILES IDX 33 35 34 36 35 37 36 38 37 39 38 40 39 41 40 42 101 43 41 44
REMARK SMILES IDX 100 45 42 46 43 47 44 48 94 49 45 50 99 51 93 52 95 53 46 54
REMARK SMILES IDX 98 55 92 56 91 57 47 59 79 60 59 61 78 62 60 63 63 64 77 65
REMARK SMILES IDX 96 66 61 67 62 68 76 70 97 71 64 72 48 73 49 74 57 75 50 76
REMARK SMILES IDX 52 77 58 78 51 79 53 80 54 81 55 82 56 83 80 84 81 85 89 86
REMARK SMILES IDX 82 87 84 88 90 89 83 90 85 91 86 92 87 93 88 94 65 95 66 96
REMARK SMILES IDX 74 97 67 98 69 99 75 100 68 101 70 102 71 103 72 104 73 105
REMARK H PARENT 5 32 22 34 95 58 63 69
REMARK Flexibility Score: inf
ROOT
ATOM      1  C   UNL A   1      35.535  33.750  29.178  1.00  0.00     0.306 C 
ATOM      2  O   UNL A   1      36.694  33.853  29.557  1.00  0.00    -0.252 OA
ENDROOT
BRANCH   1   3
ATOM      3  C   UNL A   1      34.866  32.394  28.961  1.00  0.00     0.134 C 
BRANCH   3   4
ATOM      4  C   UNL A   1      35.236  31.648  27.683  1.00  0.00     0.134 C 
BRANCH   4   5
ATOM      5  C   UNL A   1      34.417  30.390  27.588  1.00  0.00     0.306 C 
ATOM      6  O   UNL A   1      34.758  29.340  28.109  1.00  0.00    -0.252 OA
BRANCH   5   7
ATOM      7  O   UNL A   1      33.400  30.561  26.713  1.00  0.00    -0.458 OA
BRANCH   7   8
ATOM      8  C   UNL A   1      32.105  30.052  27.002  1.00  0.00     0.311 C 
BRANCH   8   9
ATOM      9  C   UNL A   1      31.774  28.563  27.061  1.00  0.00     0.202 C 
ATOM     10  O   UNL A   1      31.486  28.052  28.158  1.00  0.00    -0.293 OA
BRANCH   9  11
ATOM     11  C   UNL A   1      31.653  27.688  25.784  1.00  0.00     0.132 C 
ATOM     12  C   UNL A   1      34.709  22.019  23.780  1.00  0.00     0.016 C 
ATOM     13  C   UNL A   1      33.302  22.701  23.777  1.00  0.00    -0.005 C 
ATOM     14  C   UNL A   1      32.621  22.158  22.487  1.00  0.00     0.020 C 
ATOM     15  C   UNL A   1      32.304  22.273  24.848  1.00  0.00    -0.060 C 
ATOM     16  C   UNL A   1      33.502  24.267  23.847  1.00  0.00     0.031 C 
ATOM     17  C   UNL A   1      32.119  20.697  22.665  1.00  0.00     0.081 C 
ATOM     18  C   UNL A   1      32.204  20.989  25.229  1.00  0.00     0.047 C 
ATOM     19  C   UNL A   1      31.019  23.068  24.951  1.00  0.00     0.032 C 
ATOM     20  C   UNL A   1      32.167  25.037  23.701  1.00  0.00    -0.000 C 
ATOM     21  C   UNL A   1      34.347  24.866  25.051  1.00  0.00     0.119 C 
ATOM     22  C   UNL A   1      32.352  20.082  24.055  1.00  0.00     0.155 C 
ATOM     23  C   UNL A   1      31.170  24.554  24.752  1.00  0.00     0.009 C 
ATOM     24  C   UNL A   1      32.484  26.551  23.748  1.00  0.00     0.002 C 
ATOM     25  C   UNL A   1      33.695  25.975  25.921  1.00  0.00     0.042 C 
ATOM     26  O   UNL A   1      32.475  18.873  24.233  1.00  0.00    -0.295 OA
ATOM     27  C   UNL A   1      32.956  27.069  25.129  1.00  0.00     0.009 C 
ATOM     28  C   UNL A   1      31.374  27.521  23.332  1.00  0.00     0.008 C 
ATOM     29  C   UNL A   1      33.985  28.155  24.827  1.00  0.00     0.015 C 
ATOM     30  C   UNL A   1      30.819  28.191  24.596  1.00  0.00     0.044 C 
BRANCH  21  31
ATOM     31  O   UNL A   1      34.781  23.871  25.970  1.00  0.00    -0.393 OA
ATOM     32  H   UNL A   1      34.119  23.165  26.019  1.00  0.00     0.210 HD
ENDBRANCH  21  31
BRANCH  11  33
ATOM     33  O   UNL A   1      30.789  26.674  26.359  1.00  0.00    -0.381 OA
ATOM     34  H   UNL A   1      30.630  26.876  27.294  1.00  0.00     0.212 HD
ENDBRANCH  11  33
ENDBRANCH   9  11
ENDBRANCH   8   9
ENDBRANCH   7   8
ENDBRANCH   5   7
ENDBRANCH   4   5
ENDBRANCH   3   4
ENDBRANCH   1   3
BRANCH   1  35
ATOM     35  O   UNL A   1      34.759  34.802  28.814  1.00  0.00    -0.462 OA
BRANCH  35  36
ATOM     36  C   UNL A   1      33.327  34.719  29.004  1.00  0.00     0.274 C 
BRANCH  36  37
ATOM     37  C   UNL A   1      32.783  36.037  29.555  1.00  0.00     0.275 C 
BRANCH  37  38
ATOM     38  O   UNL A   1      33.436  36.344  30.792  1.00  0.00    -0.458 OA
BRANCH  38  39
ATOM     39  C   UNL A   1      32.931  35.701  31.866  1.00  0.00     0.338 C 
ATOM     40  O   UNL A   1      31.749  35.565  32.163  1.00  0.00    -0.246 OA
BRANCH  39  41
ATOM     41  C   UNL A   1      34.012  34.935  32.485  1.00  0.00     0.060 A 
ATOM     42  C   UNL A   1      35.307  35.448  32.371  1.00  0.00     0.016 A 
ATOM     43  C   UNL A   1      33.770  33.745  33.164  1.00  0.00     0.016 A 
ATOM     44  C   UNL A   1      36.376  34.798  32.953  1.00  0.00     0.010 A 
ATOM     45  C   UNL A   1      34.851  33.060  33.712  1.00  0.00     0.010 A 
ATOM     46  C   UNL A   1      36.152  33.582  33.593  1.00  0.00    -0.014 A 
BRANCH  46  47
ATOM     47  C   UNL A   1      37.321  32.776  33.973  1.00  0.00     0.031 A 
ATOM     48  C   UNL A   1      38.035  33.134  35.239  1.00  0.00     0.074 A 
ATOM     49  C   UNL A   1      37.687  31.730  33.216  1.00  0.00     0.049 A 
ATOM     50  N   UNL A   1      39.137  32.645  35.730  1.00  0.00    -0.248 NA
ATOM     51  C   UNL A   1      37.424  34.195  36.061  1.00  0.00     0.031 C 
ATOM     52  C   UNL A   1      36.997  31.280  32.006  1.00  0.00     0.029 A 
ATOM     53  N   UNL A   1      38.743  30.870  33.345  1.00  0.00    -0.354 N 
ATOM     54  C   UNL A   1      39.387  33.375  36.884  1.00  0.00     0.074 A 
ATOM     55  C   UNL A   1      38.316  34.334  37.029  1.00  0.00     0.031 C 
ATOM     56  C   UNL A   1      37.669  30.243  31.482  1.00  0.00     0.029 A 
ATOM     57  C   UNL A   1      38.854  29.990  32.295  1.00  0.00     0.049 A 
ATOM     58  H   UNL A   1      39.359  30.879  34.112  1.00  0.00     0.167 HD
ATOM     59  C   UNL A   1      40.423  33.248  37.742  1.00  0.00     0.034 A 
ATOM     60  C   UNL A   1      39.835  29.113  32.012  1.00  0.00     0.034 A 
ATOM     61  C   UNL A   1      41.457  32.264  37.581  1.00  0.00     0.049 A 
ATOM     62  C   UNL A   1      40.986  29.003  32.975  1.00  0.00     0.074 A 
ATOM     63  C   UNL A   1      42.551  32.020  38.390  1.00  0.00     0.029 A 
ATOM     64  N   UNL A   1      41.522  31.359  36.530  1.00  0.00    -0.354 N 
ATOM     65  N   UNL A   1      41.194  29.663  34.090  1.00  0.00    -0.248 NA
ATOM     66  C   UNL A   1      42.023  28.012  32.659  1.00  0.00     0.031 C 
ATOM     67  C   UNL A   1      43.292  30.985  37.812  1.00  0.00     0.029 A 
ATOM     68  C   UNL A   1      42.639  30.557  36.664  1.00  0.00     0.049 A 
ATOM     69  H   UNL A   1      40.868  31.298  35.796  1.00  0.00     0.167 HD
ATOM     70  C   UNL A   1      42.363  29.144  34.631  1.00  0.00     0.074 A 
ATOM     71  C   UNL A   1      42.808  28.102  33.724  1.00  0.00     0.031 C 
ATOM     72  C   UNL A   1      43.018  29.496  35.764  1.00  0.00     0.034 A 
BRANCH  59  73
ATOM     73  C   UNL A   1      40.488  34.199  38.905  1.00  0.00     0.023 A 
ATOM     74  C   UNL A   1      41.406  35.270  38.897  1.00  0.00     0.012 A 
ATOM     75  C   UNL A   1      39.622  34.041  40.005  1.00  0.00     0.148 A 
ATOM     76  C   UNL A   1      41.484  36.146  39.980  1.00  0.00     0.002 A 
ATOM     77  C   UNL A   1      39.673  34.945  41.058  1.00  0.00     0.091 A 
ATOM     78  F   UNL A   1      38.780  32.997  40.009  1.00  0.00    -0.205 F 
ATOM     79  C   UNL A   1      40.612  35.989  41.054  1.00  0.00     0.022 A 
BRANCH  77  80
ATOM     80  S   UNL A   1      38.543  34.871  42.452  1.00  0.00     0.127 S 
ATOM     81  O   UNL A   1      38.993  33.659  43.133  1.00  0.00    -0.237 OA
ATOM     82  O   UNL A   1      38.847  36.116  43.157  1.00  0.00    -0.237 OA
ATOM     83  O   UNL A   1      37.205  34.806  41.882  1.00  0.00    -0.744 OA
ENDBRANCH  77  80
ENDBRANCH  59  73
BRANCH  60  84
ATOM     84  C   UNL A   1      39.751  28.272  30.786  1.00  0.00     0.023 A 
ATOM     85  C   UNL A   1      38.975  27.098  30.797  1.00  0.00     0.012 A 
ATOM     86  C   UNL A   1      40.403  28.652  29.596  1.00  0.00     0.148 A 
ATOM     87  C   UNL A   1      38.871  26.303  29.655  1.00  0.00     0.002 A 
ATOM     88  C   UNL A   1      40.249  27.888  28.445  1.00  0.00     0.091 A 
ATOM     89  F   UNL A   1      41.148  29.766  29.607  1.00  0.00    -0.205 F 
ATOM     90  C   UNL A   1      39.496  26.704  28.477  1.00  0.00     0.022 A 
BRANCH  88  91
ATOM     91  S   UNL A   1      40.908  28.398  26.854  1.00  0.00     0.127 S 
ATOM     92  O   UNL A   1      39.915  29.376  26.418  1.00  0.00    -0.237 OA
ATOM     93  O   UNL A   1      42.204  28.962  27.231  1.00  0.00    -0.237 OA
ATOM     94  O   UNL A   1      40.993  27.183  26.056  1.00  0.00    -0.744 OA
ENDBRANCH  88  91
ENDBRANCH  60  84
BRANCH  72  95
ATOM     95  C   UNL A   1      44.253  28.713  36.116  1.00  0.00     0.023 A 
ATOM     96  C   UNL A   1      45.523  29.187  35.733  1.00  0.00     0.012 A 
ATOM     97  C   UNL A   1      44.152  27.546  36.899  1.00  0.00     0.148 A 
ATOM     98  C   UNL A   1      46.673  28.488  36.094  1.00  0.00     0.002 A 
ATOM     99  C   UNL A   1      45.305  26.887  37.300  1.00  0.00     0.091 A 
ATOM    100  F   UNL A   1      42.931  27.104  37.235  1.00  0.00    -0.205 F 
ATOM    101  C   UNL A   1      46.566  27.347  36.888  1.00  0.00     0.022 A 
BRANCH  99 102
ATOM    102  S   UNL A   1      45.263  25.475  38.409  1.00  0.00     0.127 S 
ATOM    103  O   UNL A   1      46.681  25.135  38.510  1.00  0.00    -0.237 OA
ATOM    104  O   UNL A   1      44.685  26.052  39.623  1.00  0.00    -0.237 OA
ATOM    105  O   UNL A   1      44.424  24.478  37.758  1.00  0.00    -0.744 OA
ENDBRANCH  99 102
ENDBRANCH  72  95
ENDBRANCH  46  47
ENDBRANCH  39  41
ENDBRANCH  38  39
ENDBRANCH  37  38
ENDBRANCH  36  37
ENDBRANCH  35  36
ENDBRANCH   1  35
TORSDOF 22
ENDMDL
MODEL 3
REMARK VINA RESULT:     -11.5      5.409      9.171
REMARK SMILES C[C@]12C[C@@H](O)[C@@H]3[C@@H](CCC4=CC(=O)CC[C@]43C)[C@H]1CC[C@]2(O)C(=O)COC(=O)CCC(=O)OCCOC(=O)c1ccc(-c2c3nc(c(-c4cccc(S(=O)(=O)[O-])c4F)c4ccc([nH]4)c(-c4cccc(S(=O)(=O)[O-])c4F)c4nc(c(-c5cccc(S(=O)(=O)[O-])c5F)c5ccc2[nH]5)C=C4)C=C3)cc1
REMARK SMILES IDX 31 1 32 2 30 3 29 4 27 5 28 6 26 7 25 8 23 9 24 10 21 11
REMARK SMILES IDX 17 12 16 13 15 14 10 15 6 16 14 17 11 18 9 19 7 20 4 21
REMARK SMILES IDX 12 22 8 23 18 24 3 25 13 26 2 27 19 28 1 29 20 30 5 31 22 33
REMARK SMILES IDX 33 35 34 36 35 37 36 38 37 39 38 40 39 41 40 42 101 43 41 44
REMARK SMILES IDX 100 45 42 46 43 47 44 48 94 49 45 50 99 51 93 52 95 53 46 54
REMARK SMILES IDX 98 55 92 56 91 57 47 59 79 60 59 61 78 62 60 63 63 64 77 65
REMARK SMILES IDX 96 66 61 67 62 68 76 70 97 71 64 72 48 73 49 74 57 75 50 76
REMARK SMILES IDX 52 77 58 78 51 79 53 80 54 81 55 82 56 83 80 84 81 85 89 86
REMARK SMILES IDX 82 87 84 88 90 89 83 90 85 91 86 92 87 93 88 94 65 95 66 96
REMARK SMILES IDX 74 97 67 98 69 99 75 100 68 101 70 102 71 103 72 104 73 105
REMARK H PARENT 5 32 22 34 95 58 63 69
REMARK Flexibility Score: inf
ROOT
ATOM      1  C   UNL A   1      42.429  19.192  25.929  1.00  0.00     0.306 C 
ATOM      2  O   UNL A   1      42.533  17.978  25.824  1.00  0.00    -0.252 OA
ENDROOT
BRANCH   1   3
ATOM      3  C   UNL A   1      41.316  19.848  26.743  1.00  0.00     0.134 C 
BRANCH   3   4
ATOM      4  C   UNL A   1      39.900  19.722  26.189  1.00  0.00     0.134 C 
BRANCH   4   5
ATOM      5  C   UNL A   1      39.338  21.094  25.946  1.00  0.00     0.306 C 
ATOM      6  O   UNL A   1      39.464  22.010  26.744  1.00  0.00    -0.252 OA
BRANCH   5   7
ATOM      7  O   UNL A   1      38.546  21.087  24.849  1.00  0.00    -0.458 OA
BRANCH   7   8
ATOM      8  C   UNL A   1      37.139  21.234  24.972  1.00  0.00     0.311 C 
BRANCH   8   9
ATOM      9  C   UNL A   1      36.310  22.199  24.129  1.00  0.00     0.202 C 
ATOM     10  O   UNL A   1      36.829  22.724  23.128  1.00  0.00    -0.293 OA
BRANCH   9  11
ATOM     11  C   UNL A   1      34.801  22.450  24.396  1.00  0.00     0.132 C 
ATOM     12  C   UNL A   1      31.165  28.048  25.367  1.00  0.00     0.016 C 
ATOM     13  C   UNL A   1      31.087  26.665  24.641  1.00  0.00    -0.005 C 
ATOM     14  C   UNL A   1      29.570  26.318  24.650  1.00  0.00     0.020 C 
ATOM     15  C   UNL A   1      31.396  26.629  23.147  1.00  0.00    -0.060 C 
ATOM     16  C   UNL A   1      32.034  25.648  25.392  1.00  0.00     0.031 C 
ATOM     17  C   UNL A   1      28.780  27.131  23.585  1.00  0.00     0.081 C 
ATOM     18  C   UNL A   1      30.985  27.613  22.331  1.00  0.00     0.047 C 
ATOM     19  C   UNL A   1      31.499  25.266  22.496  1.00  0.00     0.032 C 
ATOM     20  C   UNL A   1      31.912  24.209  24.835  1.00  0.00    -0.000 C 
ATOM     21  C   UNL A   1      33.564  26.034  25.572  1.00  0.00     0.119 C 
ATOM     22  C   UNL A   1      29.624  28.082  22.720  1.00  0.00     0.155 C 
ATOM     23  C   UNL A   1      32.176  24.209  23.331  1.00  0.00     0.009 C 
ATOM     24  C   UNL A   1      32.850  23.297  25.662  1.00  0.00     0.002 C 
ATOM     25  C   UNL A   1      34.636  25.026  25.076  1.00  0.00     0.042 C 
ATOM     26  O   UNL A   1      29.162  29.099  22.209  1.00  0.00    -0.295 OA
ATOM     27  C   UNL A   1      34.361  23.555  25.441  1.00  0.00     0.009 C 
ATOM     28  C   UNL A   1      32.691  21.782  25.501  1.00  0.00     0.008 C 
ATOM     29  C   UNL A   1      35.017  23.317  26.798  1.00  0.00     0.015 C 
ATOM     30  C   UNL A   1      33.871  21.258  24.671  1.00  0.00     0.044 C 
BRANCH  21  31
ATOM     31  O   UNL A   1      33.897  27.272  24.958  1.00  0.00    -0.393 OA
ATOM     32  H   UNL A   1      34.709  27.168  24.438  1.00  0.00     0.210 HD
ENDBRANCH  21  31
BRANCH  11  33
ATOM     33  O   UNL A   1      34.449  22.807  23.034  1.00  0.00    -0.381 OA
ATOM     34  H   UNL A   1      33.540  22.526  22.850  1.00  0.00     0.212 HD
ENDBRANCH  11  33
ENDBRANCH   9  11
ENDBRANCH   8   9
ENDBRANCH   7   8
ENDBRANCH   5   7
ENDBRANCH   4   5
ENDBRANCH   3   4
ENDBRANCH   1   3
BRANCH   1  35
ATOM     35  O   UNL A   1      43.212  20.081  25.266  1.00  0.00    -0.462 OA
BRANCH  35  36
ATOM     36  C   UNL A   1      43.332  21.430  25.775  1.00  0.00     0.274 C 
BRANCH  36  37
ATOM     37  C   UNL A   1      43.810  22.376  24.674  1.00  0.00     0.275 C 
BRANCH  37  38
ATOM     38  O   UNL A   1      43.137  23.634  24.799  1.00  0.00    -0.458 OA
BRANCH  38  39
ATOM     39  C   UNL A   1      43.930  24.656  25.185  1.00  0.00     0.338 C 
ATOM     40  O   UNL A   1      44.932  25.076  24.617  1.00  0.00    -0.246 OA
BRANCH  39  41
ATOM     41  C   UNL A   1      43.243  25.383  26.252  1.00  0.00     0.060 A 
ATOM     42  C   UNL A   1      43.562  26.734  26.414  1.00  0.00     0.016 A 
ATOM     43  C   UNL A   1      42.308  24.764  27.076  1.00  0.00     0.016 A 
ATOM     44  C   UNL A   1      42.936  27.495  27.381  1.00  0.00     0.010 A 
ATOM     45  C   UNL A   1      41.708  25.514  28.083  1.00  0.00     0.010 A 
ATOM     46  C   UNL A   1      42.034  26.873  28.241  1.00  0.00    -0.014 A 
BRANCH  46  47
ATOM     47  C   UNL A   1      41.579  27.622  29.421  1.00  0.00     0.031 A 
ATOM     48  C   UNL A   1      40.245  28.298  29.348  1.00  0.00     0.074 A 
ATOM     49  C   UNL A   1      42.332  27.645  30.531  1.00  0.00     0.049 A 
ATOM     50  N   UNL A   1      39.675  29.090  30.210  1.00  0.00    -0.248 NA
ATOM     51  C   UNL A   1      39.447  28.048  28.134  1.00  0.00     0.031 C 
ATOM     52  C   UNL A   1      43.612  26.952  30.698  1.00  0.00     0.029 A 
ATOM     53  N   UNL A   1      42.139  28.291  31.721  1.00  0.00    -0.354 N 
ATOM     54  C   UNL A   1      38.481  29.485  29.620  1.00  0.00     0.074 A 
ATOM     55  C   UNL A   1      38.401  28.834  28.332  1.00  0.00     0.031 C 
ATOM     56  C   UNL A   1      44.107  27.239  31.912  1.00  0.00     0.029 A 
ATOM     57  C   UNL A   1      43.202  28.167  32.583  1.00  0.00     0.049 A 
ATOM     58  H   UNL A   1      41.322  28.794  31.938  1.00  0.00     0.167 HD
ATOM     59  C   UNL A   1      37.541  30.317  30.119  1.00  0.00     0.034 A 
ATOM     60  C   UNL A   1      43.425  28.776  33.762  1.00  0.00     0.034 A 
ATOM     61  C   UNL A   1      37.641  30.924  31.416  1.00  0.00     0.049 A 
ATOM     62  C   UNL A   1      42.370  29.711  34.287  1.00  0.00     0.074 A 
ATOM     63  C   UNL A   1      36.748  31.771  32.045  1.00  0.00     0.029 A 
ATOM     64  N   UNL A   1      38.710  30.747  32.285  1.00  0.00    -0.354 N 
ATOM     65  N   UNL A   1      41.221  30.044  33.747  1.00  0.00    -0.248 NA
ATOM     66  C   UNL A   1      42.625  30.333  35.592  1.00  0.00     0.031 C 
ATOM     67  C   UNL A   1      37.291  32.128  33.283  1.00  0.00     0.029 A 
ATOM     68  C   UNL A   1      38.504  31.472  33.443  1.00  0.00     0.049 A 
ATOM     69  H   UNL A   1      39.500  30.188  32.102  1.00  0.00     0.167 HD
ATOM     70  C   UNL A   1      40.597  30.883  34.660  1.00  0.00     0.074 A 
ATOM     71  C   UNL A   1      41.493  30.994  35.796  1.00  0.00     0.031 C 
ATOM     72  C   UNL A   1      39.400  31.514  34.572  1.00  0.00     0.034 A 
BRANCH  59  73
ATOM     73  C   UNL A   1      36.348  30.620  29.255  1.00  0.00     0.023 A 
ATOM     74  C   UNL A   1      35.680  29.580  28.577  1.00  0.00     0.012 A 
ATOM     75  C   UNL A   1      35.877  31.941  29.127  1.00  0.00     0.148 A 
ATOM     76  C   UNL A   1      34.583  29.856  27.758  1.00  0.00     0.002 A 
ATOM     77  C   UNL A   1      34.757  32.202  28.348  1.00  0.00     0.091 A 
ATOM     78  F   UNL A   1      36.547  32.921  29.753  1.00  0.00    -0.205 F 
ATOM     79  C   UNL A   1      34.117  31.163  27.653  1.00  0.00     0.022 A 
BRANCH  77  80
ATOM     80  S   UNL A   1      34.035  33.840  28.209  1.00  0.00     0.127 S 
ATOM     81  O   UNL A   1      34.984  34.505  27.316  1.00  0.00    -0.237 OA
ATOM     82  O   UNL A   1      32.733  33.551  27.608  1.00  0.00    -0.237 OA
ATOM     83  O   UNL A   1      33.976  34.371  29.563  1.00  0.00    -0.744 OA
ENDBRANCH  77  80
ENDBRANCH  59  73
BRANCH  60  84
ATOM     84  C   UNL A   1      44.680  28.501  34.516  1.00  0.00     0.023 A 
ATOM     85  C   UNL A   1      45.821  29.291  34.282  1.00  0.00     0.012 A 
ATOM     86  C   UNL A   1      44.735  27.488  35.495  1.00  0.00     0.148 A 
ATOM     87  C   UNL A   1      47.002  29.061  34.989  1.00  0.00     0.002 A 
ATOM     88  C   UNL A   1      45.895  27.301  36.236  1.00  0.00     0.091 A 
ATOM     89  F   UNL A   1      43.643  26.738  35.694  1.00  0.00    -0.205 F 
ATOM     90  C   UNL A   1      47.036  28.076  35.972  1.00  0.00     0.022 A 
BRANCH  88  91
ATOM     91  S   UNL A   1      45.986  26.148  37.610  1.00  0.00     0.127 S 
ATOM     92  O   UNL A   1      45.654  24.883  36.962  1.00  0.00    -0.237 OA
ATOM     93  O   UNL A   1      47.383  26.281  38.024  1.00  0.00    -0.237 OA
ATOM     94  O   UNL A   1      45.022  26.629  38.591  1.00  0.00    -0.744 OA
ENDBRANCH  88  91
ENDBRANCH  60  84
BRANCH  72  95
ATOM     95  C   UNL A   1      38.966  32.335  35.756  1.00  0.00     0.023 A 
ATOM     96  C   UNL A   1      38.093  31.785  36.714  1.00  0.00     0.012 A 
ATOM     97  C   UNL A   1      39.495  33.626  35.953  1.00  0.00     0.148 A 
ATOM     98  C   UNL A   1      37.723  32.524  37.835  1.00  0.00     0.002 A 
ATOM     99  C   UNL A   1      39.164  34.334  37.100  1.00  0.00     0.091 A 
ATOM    100  F   UNL A   1      40.309  34.134  35.018  1.00  0.00    -0.205 F 
ATOM    101  C   UNL A   1      38.268  33.792  38.035  1.00  0.00     0.022 A 
BRANCH  99 102
ATOM    102  S   UNL A   1      39.902  35.923  37.488  1.00  0.00     0.127 S 
ATOM    103  O   UNL A   1      39.592  36.696  36.286  1.00  0.00    -0.237 OA
ATOM    104  O   UNL A   1      39.159  36.327  38.682  1.00  0.00    -0.237 OA
ATOM    105  O   UNL A   1      41.317  35.664  37.718  1.00  0.00    -0.744 OA
ENDBRANCH  99 102
ENDBRANCH  72  95
ENDBRANCH  46  47
ENDBRANCH  39  41
ENDBRANCH  38  39
ENDBRANCH  37  38
ENDBRANCH  36  37
ENDBRANCH  35  36
ENDBRANCH   1  35
TORSDOF 22
ENDMDL
