MODEL 1
REMARK VINA RESULT:      -9.4      0.000      0.000
REMARK SMILES O=C(OCCOC(=O)c1ccc(S(=O)(=O)[O-])cc1N1C(=O)/C(=C\C=C\c2ccccc2)[NH+]=C1c1ccccc1)c1ccc(-c2c3nc(c(-c4cccc(S(=O)(=O)[O-])c4F)c4ccc([nH]4)c(-c4cccc(S(=O)(=O)[O-])c4F)c4nc(c(-c5cccc(S(=O)(=O)[O-])c5F)c5ccc2[nH]5)C=C4)C=C3)cc1
REMARK SMILES IDX 4 1 3 2 2 3 1 4 40 5 41 6 102 7 42 8 101 9 43 10 44 11 45 12
REMARK SMILES IDX 95 13 46 14 100 15 94 16 96 17 47 18 99 19 93 20 92 21 48 23
REMARK SMILES IDX 80 24 60 25 79 26 61 27 64 28 78 29 97 30 62 31 63 32 77 34
REMARK SMILES IDX 98 35 65 36 49 37 50 38 58 39 51 40 53 41 59 42 52 43 54 44
REMARK SMILES IDX 55 45 56 46 57 47 81 48 82 49 90 50 83 51 85 52 91 53 84 54
REMARK SMILES IDX 86 55 87 56 88 57 89 58 66 59 67 60 75 61 68 62 70 63 76 64
REMARK SMILES IDX 69 65 71 66 72 67 73 68 74 69 5 70 6 71 7 72 8 73 9 74 10 75
REMARK SMILES IDX 18 76 11 77 17 78 12 79 19 80 20 81 33 82 21 83 22 84 32 85
REMARK SMILES IDX 23 86 34 88 35 89 39 90 36 91 38 92 37 93 24 94 25 95 26 96
REMARK SMILES IDX 27 97 31 98 28 99 30 100 29 101 13 102 14 103 15 104 16 105
REMARK H PARENT 96 22 64 33 32 87
REMARK Flexibility Score: inf
ROOT
ATOM      1  C   UNL A   1      44.276  22.807  34.295  1.00  0.00     0.275 C 
ENDROOT
BRANCH   1   2
ATOM      2  O   UNL A   1      43.051  23.396  34.780  1.00  0.00    -0.458 OA
BRANCH   2   3
ATOM      3  C   UNL A   1      42.815  24.517  35.505  1.00  0.00     0.338 C 
ATOM      4  O   UNL A   1      42.514  24.385  36.692  1.00  0.00    -0.246 OA
BRANCH   3   5
ATOM      5  C   UNL A   1      42.793  25.913  34.944  1.00  0.00     0.060 A 
ATOM      6  C   UNL A   1      42.766  26.236  33.597  1.00  0.00     0.016 A 
ATOM      7  C   UNL A   1      42.690  26.988  35.856  1.00  0.00     0.016 A 
ATOM      8  C   UNL A   1      42.518  27.537  33.176  1.00  0.00     0.010 A 
ATOM      9  C   UNL A   1      42.465  28.315  35.432  1.00  0.00     0.010 A 
ATOM     10  C   UNL A   1      42.360  28.600  34.075  1.00  0.00    -0.014 A 
BRANCH  10  11
ATOM     11  C   UNL A   1      42.504  29.960  33.470  1.00  0.00     0.031 A 
ATOM     12  C   UNL A   1      43.954  30.070  32.878  1.00  0.00     0.074 A 
ATOM     13  C   UNL A   1      41.296  30.645  33.142  1.00  0.00     0.049 A 
ATOM     14  N   UNL A   1      44.272  30.500  31.701  1.00  0.00    -0.248 NA
ATOM     15  C   UNL A   1      45.180  29.591  33.541  1.00  0.00     0.031 C 
ATOM     16  C   UNL A   1      39.620  30.200  34.095  1.00  0.00     0.029 A 
ATOM     17  N   UNL A   1      40.507  31.764  31.671  1.00  0.00    -0.354 N 
ATOM     18  C   UNL A   1      45.557  30.833  31.636  1.00  0.00     0.074 A 
ATOM     19  C   UNL A   1      46.137  30.008  32.691  1.00  0.00     0.031 C 
ATOM     20  C   UNL A   1      38.235  30.825  33.251  1.00  0.00     0.029 A 
ATOM     21  C   UNL A   1      38.743  31.891  31.718  1.00  0.00     0.049 A 
ATOM     22  H   UNL A   1      41.055  32.205  30.982  1.00  0.00     0.167 HD
ATOM     23  C   UNL A   1      46.075  31.849  30.890  1.00  0.00     0.034 A 
ATOM     24  C   UNL A   1      38.316  32.926  30.938  1.00  0.00     0.034 A 
ATOM     25  C   UNL A   1      45.417  32.993  30.162  1.00  0.00     0.049 A 
ATOM     26  C   UNL A   1      39.414  33.883  30.226  1.00  0.00     0.074 A 
ATOM     27  C   UNL A   1      46.089  34.095  29.636  1.00  0.00     0.029 A 
ATOM     28  N   UNL A   1      44.074  33.321  29.868  1.00  0.00    -0.354 N 
ATOM     29  N   UNL A   1      40.729  33.737  30.052  1.00  0.00    -0.248 NA
ATOM     30  C   UNL A   1      38.960  35.193  29.748  1.00  0.00     0.031 C 
ATOM     31  C   UNL A   1      45.166  35.114  29.301  1.00  0.00     0.029 A 
ATOM     32  C   UNL A   1      43.870  34.643  29.479  1.00  0.00     0.049 A 
ATOM     33  H   UNL A   1      43.342  32.668  29.933  1.00  0.00     0.167 HD
ATOM     34  C   UNL A   1      41.268  34.913  29.498  1.00  0.00     0.074 A 
ATOM     35  C   UNL A   1      40.086  35.753  29.299  1.00  0.00     0.031 C 
ATOM     36  C   UNL A   1      42.565  35.313  29.215  1.00  0.00     0.034 A 
BRANCH  23  37
ATOM     37  C   UNL A   1      47.562  31.831  31.001  1.00  0.00     0.023 A 
ATOM     38  C   UNL A   1      48.165  32.643  31.984  1.00  0.00     0.012 A 
ATOM     39  C   UNL A   1      48.353  31.085  30.115  1.00  0.00     0.148 A 
ATOM     40  C   UNL A   1      49.547  32.737  32.064  1.00  0.00     0.002 A 
ATOM     41  C   UNL A   1      49.730  31.135  30.244  1.00  0.00     0.091 A 
ATOM     42  F   UNL A   1      47.747  30.369  29.158  1.00  0.00    -0.205 F 
ATOM     43  C   UNL A   1      50.328  31.972  31.203  1.00  0.00     0.022 A 
BRANCH  41  44
ATOM     44  S   UNL A   1      50.828  30.129  29.249  1.00  0.00     0.127 S 
ATOM     45  O   UNL A   1      50.455  30.536  27.896  1.00  0.00    -0.237 OA
ATOM     46  O   UNL A   1      52.141  30.598  29.691  1.00  0.00    -0.237 OA
ATOM     47  O   UNL A   1      50.526  28.746  29.588  1.00  0.00    -0.744 OA
ENDBRANCH  41  44
ENDBRANCH  23  37
BRANCH  24  48
ATOM     48  C   UNL A   1      36.924  33.352  31.047  1.00  0.00     0.023 A 
ATOM     49  C   UNL A   1      36.404  33.867  32.244  1.00  0.00     0.012 A 
ATOM     50  C   UNL A   1      36.117  33.256  29.911  1.00  0.00     0.148 A 
ATOM     51  C   UNL A   1      35.090  34.331  32.280  1.00  0.00     0.002 A 
ATOM     52  C   UNL A   1      34.854  33.801  29.923  1.00  0.00     0.091 A 
ATOM     53  F   UNL A   1      36.604  32.620  28.835  1.00  0.00    -0.205 F 
ATOM     54  C   UNL A   1      34.326  34.332  31.109  1.00  0.00     0.022 A 
BRANCH  52  55
ATOM     55  S   UNL A   1      33.928  33.976  28.403  1.00  0.00     0.127 S 
ATOM     56  O   UNL A   1      34.805  34.837  27.617  1.00  0.00    -0.237 OA
ATOM     57  O   UNL A   1      33.839  32.588  27.954  1.00  0.00    -0.237 OA
ATOM     58  O   UNL A   1      32.647  34.565  28.786  1.00  0.00    -0.744 OA
ENDBRANCH  52  55
ENDBRANCH  24  48
BRANCH  36  59
ATOM     59  C   UNL A   1      42.698  36.632  28.450  1.00  0.00     0.023 A 
ATOM     60  C   UNL A   1      42.387  36.766  27.081  1.00  0.00     0.012 A 
ATOM     61  C   UNL A   1      43.124  37.776  29.161  1.00  0.00     0.148 A 
ATOM     62  C   UNL A   1      42.583  37.987  26.422  1.00  0.00     0.002 A 
ATOM     63  C   UNL A   1      43.260  38.998  28.515  1.00  0.00     0.091 A 
ATOM     64  F   UNL A   1      43.399  37.642  30.467  1.00  0.00    -0.205 F 
ATOM     65  C   UNL A   1      43.016  39.101  27.138  1.00  0.00     0.022 A 
BRANCH  63  66
ATOM     66  S   UNL A   1      43.728  40.495  29.390  1.00  0.00     0.127 S 
ATOM     67  O   UNL A   1      43.846  41.454  28.291  1.00  0.00    -0.237 OA
ATOM     68  O   UNL A   1      42.581  40.712  30.270  1.00  0.00    -0.237 OA
ATOM     69  O   UNL A   1      44.973  40.186  30.081  1.00  0.00    -0.744 OA
ENDBRANCH  63  66
ENDBRANCH  36  59
ENDBRANCH  10  11
ENDBRANCH   3   5
ENDBRANCH   2   3
ENDBRANCH   1   2
BRANCH   1  70
ATOM     70  C   UNL A   1      44.910  23.533  33.097  1.00  0.00     0.275 C 
BRANCH  70  71
ATOM     71  O   UNL A   1      44.088  23.530  31.915  1.00  0.00    -0.458 OA
BRANCH  71  72
ATOM     72  C   UNL A   1      44.533  24.311  30.903  1.00  0.00     0.342 C 
ATOM     73  O   UNL A   1      45.412  25.157  31.010  1.00  0.00    -0.246 OA
BRANCH  72  74
ATOM     74  C   UNL A   1      43.975  23.936  29.569  1.00  0.00     0.107 A 
ATOM     75  C   UNL A   1      43.286  22.691  29.607  1.00  0.00     0.021 A 
ATOM     76  C   UNL A   1      44.125  24.624  28.335  1.00  0.00     0.152 A 
ATOM     77  C   UNL A   1      42.810  22.100  28.449  1.00  0.00     0.020 A 
ATOM     78  C   UNL A   1      44.073  23.772  27.216  1.00  0.00     0.072 A 
ATOM     79  C   UNL A   1      43.266  22.613  27.246  1.00  0.00     0.059 A 
BRANCH  76  80
ATOM     80  N   UNL A   1      44.499  26.037  28.207  1.00  0.00    -0.153 N 
ATOM     81  C   UNL A   1      43.522  26.873  28.665  1.00  0.00     0.385 C 
ATOM     82  C   UNL A   1      45.627  26.881  27.780  1.00  0.00     0.295 C 
ATOM     83  O   UNL A   1      42.530  26.567  29.310  1.00  0.00    -0.236 OA
ATOM     84  C   UNL A   1      43.988  28.224  28.288  1.00  0.00     0.215 C 
ATOM     85  N   UNL A   1      45.283  28.159  27.775  1.00  0.00    -0.233 N 
ATOM     86  C   UNL A   1      43.216  29.312  28.489  1.00  0.00     0.060 C 
ATOM     87  H   UNL A   1      45.832  28.917  27.469  1.00  0.00     0.312 HD
BRANCH  82  88
ATOM     88  C   UNL A   1      47.320  26.518  27.263  1.00  0.00     0.065 A 
ATOM     89  C   UNL A   1      48.824  27.658  26.316  1.00  0.00     0.017 A 
ATOM     90  C   UNL A   1      47.881  25.081  28.097  1.00  0.00     0.017 A 
ATOM     91  C   UNL A   1      50.469  27.304  26.458  1.00  0.00     0.001 A 
ATOM     92  C   UNL A   1      49.590  24.833  28.042  1.00  0.00     0.001 A 
ATOM     93  C   UNL A   1      50.829  25.957  27.350  1.00  0.00     0.000 A 
ENDBRANCH  82  88
BRANCH  86  94
ATOM     94  C   UNL A   1      41.830  29.291  28.970  1.00  0.00     0.005 C 
ATOM     95  C   UNL A   1      40.713  29.210  28.230  1.00  0.00     0.008 C 
BRANCH  95  96
ATOM     96  C   UNL A   1      39.360  29.188  28.834  1.00  0.00    -0.026 A 
ATOM     97  C   UNL A   1      38.289  29.750  28.125  1.00  0.00     0.008 A 
ATOM     98  C   UNL A   1      39.104  28.655  30.108  1.00  0.00     0.008 A 
ATOM     99  C   UNL A   1      36.996  29.763  28.664  1.00  0.00     0.001 A 
ATOM    100  C   UNL A   1      37.811  28.670  30.649  1.00  0.00     0.001 A 
ATOM    101  C   UNL A   1      36.756  29.224  29.926  1.00  0.00     0.000 A 
ENDBRANCH  95  96
ENDBRANCH  86  94
ENDBRANCH  76  80
BRANCH  79 102
ATOM    102  S   UNL A   1      42.499  22.018  25.743  1.00  0.00     0.124 S 
ATOM    103  O   UNL A   1      43.005  20.690  25.485  1.00  0.00    -0.237 OA
ATOM    104  O   UNL A   1      41.080  22.278  25.874  1.00  0.00    -0.237 OA
ATOM    105  O   UNL A   1      43.049  22.993  24.586  1.00  0.00    -0.744 OA
ENDBRANCH  79 102
ENDBRANCH  72  74
ENDBRANCH  71  72
ENDBRANCH  70  71
ENDBRANCH   1  70
TORSDOF 19
ENDMDL
MODEL 2
REMARK VINA RESULT:      -8.9      4.374      8.095
REMARK SMILES O=C(OCCOC(=O)c1ccc(S(=O)(=O)[O-])cc1N1C(=O)/C(=C\C=C\c2ccccc2)[NH+]=C1c1ccccc1)c1ccc(-c2c3nc(c(-c4cccc(S(=O)(=O)[O-])c4F)c4ccc([nH]4)c(-c4cccc(S(=O)(=O)[O-])c4F)c4nc(c(-c5cccc(S(=O)(=O)[O-])c5F)c5ccc2[nH]5)C=C4)C=C3)cc1
REMARK SMILES IDX 4 1 3 2 2 3 1 4 40 5 41 6 102 7 42 8 101 9 43 10 44 11 45 12
REMARK SMILES IDX 95 13 46 14 100 15 94 16 96 17 47 18 99 19 93 20 92 21 48 23
REMARK SMILES IDX 80 24 60 25 79 26 61 27 64 28 78 29 97 30 62 31 63 32 77 34
REMARK SMILES IDX 98 35 65 36 49 37 50 38 58 39 51 40 53 41 59 42 52 43 54 44
REMARK SMILES IDX 55 45 56 46 57 47 81 48 82 49 90 50 83 51 85 52 91 53 84 54
REMARK SMILES IDX 86 55 87 56 88 57 89 58 66 59 67 60 75 61 68 62 70 63 76 64
REMARK SMILES IDX 69 65 71 66 72 67 73 68 74 69 5 70 6 71 7 72 8 73 9 74 10 75
REMARK SMILES IDX 18 76 11 77 17 78 12 79 19 80 20 81 33 82 21 83 22 84 32 85
REMARK SMILES IDX 23 86 34 88 35 89 39 90 36 91 38 92 37 93 24 94 25 95 26 96
REMARK SMILES IDX 27 97 31 98 28 99 30 100 29 101 13 102 14 103 15 104 16 105
REMARK H PARENT 96 22 64 33 32 87
REMARK Flexibility Score: inf
ROOT
ATOM      1  C   UNL A   1      45.849  28.361  26.253  1.00  0.00     0.275 C 
ENDROOT
BRANCH   1   2
ATOM      2  O   UNL A   1      44.508  28.628  25.792  1.00  0.00    -0.458 OA
BRANCH   2   3
ATOM      3  C   UNL A   1      43.385  29.002  26.454  1.00  0.00     0.338 C 
ATOM      4  O   UNL A   1      42.356  28.352  26.262  1.00  0.00    -0.246 OA
BRANCH   3   5
ATOM      5  C   UNL A   1      43.272  30.219  27.331  1.00  0.00     0.060 A 
ATOM      6  C   UNL A   1      42.370  30.378  28.371  1.00  0.00     0.016 A 
ATOM      7  C   UNL A   1      44.223  31.250  27.153  1.00  0.00     0.016 A 
ATOM      8  C   UNL A   1      42.488  31.434  29.267  1.00  0.00     0.010 A 
ATOM      9  C   UNL A   1      44.329  32.338  28.046  1.00  0.00     0.010 A 
ATOM     10  C   UNL A   1      43.464  32.430  29.130  1.00  0.00    -0.014 A 
BRANCH  10  11
ATOM     11  C   UNL A   1      43.203  33.676  29.916  1.00  0.00     0.031 A 
ATOM     12  C   UNL A   1      43.686  33.425  31.389  1.00  0.00     0.074 A 
ATOM     13  C   UNL A   1      43.041  34.881  29.168  1.00  0.00     0.049 A 
ATOM     14  N   UNL A   1      44.428  34.211  32.097  1.00  0.00    -0.248 NA
ATOM     15  C   UNL A   1      43.456  32.189  32.157  1.00  0.00     0.031 C 
ATOM     16  C   UNL A   1      42.440  34.799  27.285  1.00  0.00     0.029 A 
ATOM     17  N   UNL A   1      43.595  36.812  29.214  1.00  0.00    -0.354 N 
ATOM     18  C   UNL A   1      44.344  33.921  33.392  1.00  0.00     0.074 A 
ATOM     19  C   UNL A   1      43.960  32.514  33.363  1.00  0.00     0.031 C 
ATOM     20  C   UNL A   1      42.731  36.306  26.469  1.00  0.00     0.029 A 
ATOM     21  C   UNL A   1      43.416  37.658  27.671  1.00  0.00     0.049 A 
ATOM     22  H   UNL A   1      43.937  37.251  30.027  1.00  0.00     0.167 HD
ATOM     23  C   UNL A   1      44.407  34.824  34.411  1.00  0.00     0.034 A 
ATOM     24  C   UNL A   1      43.461  39.010  27.858  1.00  0.00     0.034 A 
ATOM     25  C   UNL A   1      44.338  36.329  34.421  1.00  0.00     0.049 A 
ATOM     26  C   UNL A   1      43.552  39.595  29.367  1.00  0.00     0.074 A 
ATOM     27  C   UNL A   1      44.178  37.113  35.563  1.00  0.00     0.029 A 
ATOM     28  N   UNL A   1      44.344  37.315  33.408  1.00  0.00    -0.354 N 
ATOM     29  N   UNL A   1      43.829  38.999  30.528  1.00  0.00    -0.248 NA
ATOM     30  C   UNL A   1      43.191  41.003  29.569  1.00  0.00     0.031 C 
ATOM     31  C   UNL A   1      43.844  38.439  35.200  1.00  0.00     0.029 A 
ATOM     32  C   UNL A   1      43.912  38.573  33.819  1.00  0.00     0.049 A 
ATOM     33  H   UNL A   1      44.630  37.125  32.486  1.00  0.00     0.167 HD
ATOM     34  C   UNL A   1      43.644  39.909  31.585  1.00  0.00     0.074 A 
ATOM     35  C   UNL A   1      43.290  41.149  30.892  1.00  0.00     0.031 C 
ATOM     36  C   UNL A   1      43.702  39.777  32.965  1.00  0.00     0.034 A 
BRANCH  23  37
ATOM     37  C   UNL A   1      44.383  34.096  35.713  1.00  0.00     0.023 A 
ATOM     38  C   UNL A   1      45.616  33.720  36.286  1.00  0.00     0.012 A 
ATOM     39  C   UNL A   1      43.175  33.731  36.325  1.00  0.00     0.148 A 
ATOM     40  C   UNL A   1      45.645  32.957  37.445  1.00  0.00     0.002 A 
ATOM     41  C   UNL A   1      43.216  33.025  37.515  1.00  0.00     0.091 A 
ATOM     42  F   UNL A   1      42.023  34.057  35.723  1.00  0.00    -0.205 F 
ATOM     43  C   UNL A   1      44.446  32.622  38.065  1.00  0.00     0.022 A 
BRANCH  41  44
ATOM     44  S   UNL A   1      41.740  32.616  38.444  1.00  0.00     0.127 S 
ATOM     45  O   UNL A   1      42.293  31.815  39.534  1.00  0.00    -0.237 OA
ATOM     46  O   UNL A   1      41.261  33.941  38.838  1.00  0.00    -0.237 OA
ATOM     47  O   UNL A   1      40.870  31.899  37.523  1.00  0.00    -0.744 OA
ENDBRANCH  41  44
ENDBRANCH  23  37
BRANCH  24  48
ATOM     48  C   UNL A   1      43.077  39.879  26.750  1.00  0.00     0.023 A 
ATOM     49  C   UNL A   1      41.733  40.065  26.393  1.00  0.00     0.012 A 
ATOM     50  C   UNL A   1      44.090  40.548  26.059  1.00  0.00     0.148 A 
ATOM     51  C   UNL A   1      41.409  40.963  25.376  1.00  0.00     0.002 A 
ATOM     52  C   UNL A   1      43.762  41.502  25.123  1.00  0.00     0.091 A 
ATOM     53  F   UNL A   1      45.364  40.228  26.328  1.00  0.00    -0.205 F 
ATOM     54  C   UNL A   1      42.421  41.709  24.766  1.00  0.00     0.022 A 
BRANCH  52  55
ATOM     55  S   UNL A   1      45.017  42.590  24.460  1.00  0.00     0.127 S 
ATOM     56  O   UNL A   1      45.751  41.694  23.573  1.00  0.00    -0.237 OA
ATOM     57  O   UNL A   1      44.202  43.605  23.796  1.00  0.00    -0.237 OA
ATOM     58  O   UNL A   1      45.764  43.082  25.615  1.00  0.00    -0.744 OA
ENDBRANCH  52  55
ENDBRANCH  24  48
BRANCH  36  59
ATOM     59  C   UNL A   1      43.597  41.081  33.759  1.00  0.00     0.023 A 
ATOM     60  C   UNL A   1      42.367  41.671  34.118  1.00  0.00     0.012 A 
ATOM     61  C   UNL A   1      44.793  41.704  34.178  1.00  0.00     0.148 A 
ATOM     62  C   UNL A   1      42.335  42.895  34.797  1.00  0.00     0.002 A 
ATOM     63  C   UNL A   1      44.754  42.888  34.904  1.00  0.00     0.091 A 
ATOM     64  F   UNL A   1      45.957  41.125  33.849  1.00  0.00    -0.205 F 
ATOM     65  C   UNL A   1      43.527  43.502  35.192  1.00  0.00     0.022 A 
BRANCH  63  66
ATOM     66  S   UNL A   1      46.243  43.680  35.521  1.00  0.00     0.127 S 
ATOM     67  O   UNL A   1      45.989  43.706  36.962  1.00  0.00    -0.237 OA
ATOM     68  O   UNL A   1      47.288  42.747  35.102  1.00  0.00    -0.237 OA
ATOM     69  O   UNL A   1      46.302  44.986  34.878  1.00  0.00    -0.744 OA
ENDBRANCH  63  66
ENDBRANCH  36  59
ENDBRANCH  10  11
ENDBRANCH   3   5
ENDBRANCH   2   3
ENDBRANCH   1   2
BRANCH   1  70
ATOM     70  C   UNL A   1      46.255  26.877  26.227  1.00  0.00     0.275 C 
BRANCH  70  71
ATOM     71  O   UNL A   1      45.340  26.013  26.926  1.00  0.00    -0.458 OA
BRANCH  71  72
ATOM     72  C   UNL A   1      45.919  25.111  27.753  1.00  0.00     0.342 C 
ATOM     73  O   UNL A   1      46.859  24.388  27.448  1.00  0.00    -0.246 OA
BRANCH  72  74
ATOM     74  C   UNL A   1      45.422  25.186  29.160  1.00  0.00     0.107 A 
ATOM     75  C   UNL A   1      46.428  25.632  30.061  1.00  0.00     0.021 A 
ATOM     76  C   UNL A   1      44.145  24.805  29.656  1.00  0.00     0.152 A 
ATOM     77  C   UNL A   1      46.211  25.644  31.429  1.00  0.00     0.020 A 
ATOM     78  C   UNL A   1      44.177  24.384  30.998  1.00  0.00     0.072 A 
ATOM     79  C   UNL A   1      45.105  24.954  31.897  1.00  0.00     0.059 A 
BRANCH  76  80
ATOM     80  N   UNL A   1      42.940  24.659  28.833  1.00  0.00    -0.153 N 
ATOM     81  C   UNL A   1      42.207  25.808  28.781  1.00  0.00     0.385 C 
ATOM     82  C   UNL A   1      42.258  23.671  27.981  1.00  0.00     0.295 C 
ATOM     83  O   UNL A   1      42.548  26.919  29.160  1.00  0.00    -0.236 OA
ATOM     84  C   UNL A   1      40.965  25.421  28.081  1.00  0.00     0.215 C 
ATOM     85  N   UNL A   1      41.071  24.116  27.603  1.00  0.00    -0.233 N 
ATOM     86  C   UNL A   1      39.942  26.289  27.938  1.00  0.00     0.060 C 
ATOM     87  H   UNL A   1      40.393  23.623  27.085  1.00  0.00     0.312 HD
BRANCH  82  88
ATOM     88  C   UNL A   1      42.706  22.023  27.391  1.00  0.00     0.065 A 
ATOM     89  C   UNL A   1      41.730  20.151  27.431  1.00  0.00     0.017 A 
ATOM     90  C   UNL A   1      44.012  22.163  26.229  1.00  0.00     0.017 A 
ATOM     91  C   UNL A   1      42.073  18.914  26.334  1.00  0.00     0.001 A 
ATOM     92  C   UNL A   1      44.281  20.752  25.269  1.00  0.00     0.001 A 
ATOM     93  C   UNL A   1      43.280  19.243  25.250  1.00  0.00     0.000 A 
ENDBRANCH  82  88
BRANCH  86  94
ATOM     94  C   UNL A   1      39.877  27.628  28.535  1.00  0.00     0.005 C 
ATOM     95  C   UNL A   1      39.317  27.971  29.705  1.00  0.00     0.008 C 
BRANCH  95  96
ATOM     96  C   UNL A   1      39.321  29.364  30.210  1.00  0.00    -0.026 A 
ATOM     97  C   UNL A   1      39.941  29.642  31.437  1.00  0.00     0.008 A 
ATOM     98  C   UNL A   1      38.701  30.424  29.527  1.00  0.00     0.008 A 
ATOM     99  C   UNL A   1      39.957  30.943  31.958  1.00  0.00     0.001 A 
ATOM    100  C   UNL A   1      38.714  31.724  30.049  1.00  0.00     0.001 A 
ATOM    101  C   UNL A   1      39.343  31.984  31.265  1.00  0.00     0.000 A 
ENDBRANCH  95  96
ENDBRANCH  86  94
ENDBRANCH  76  80
BRANCH  79 102
ATOM    102  S   UNL A   1      44.680  25.138  33.625  1.00  0.00     0.124 S 
ATOM    103  O   UNL A   1      45.900  25.051  34.393  1.00  0.00    -0.237 OA
ATOM    104  O   UNL A   1      43.808  26.292  33.714  1.00  0.00    -0.237 OA
ATOM    105  O   UNL A   1      43.783  23.846  33.969  1.00  0.00    -0.744 OA
ENDBRANCH  79 102
ENDBRANCH  72  74
ENDBRANCH  71  72
ENDBRANCH  70  71
ENDBRANCH   1  70
TORSDOF 19
ENDMDL
MODEL 3
REMARK VINA RESULT:      -8.8      4.956      9.744
REMARK SMILES O=C(OCCOC(=O)c1ccc(S(=O)(=O)[O-])cc1N1C(=O)/C(=C\C=C\c2ccccc2)[NH+]=C1c1ccccc1)c1ccc(-c2c3nc(c(-c4cccc(S(=O)(=O)[O-])c4F)c4ccc([nH]4)c(-c4cccc(S(=O)(=O)[O-])c4F)c4nc(c(-c5cccc(S(=O)(=O)[O-])c5F)c5ccc2[nH]5)C=C4)C=C3)cc1
REMARK SMILES IDX 4 1 3 2 2 3 1 4 40 5 41 6 102 7 42 8 101 9 43 10 44 11 45 12
REMARK SMILES IDX 95 13 46 14 100 15 94 16 96 17 47 18 99 19 93 20 92 21 48 23
REMARK SMILES IDX 80 24 60 25 79 26 61 27 64 28 78 29 97 30 62 31 63 32 77 34
REMARK SMILES IDX 98 35 65 36 49 37 50 38 58 39 51 40 53 41 59 42 52 43 54 44
REMARK SMILES IDX 55 45 56 46 57 47 81 48 82 49 90 50 83 51 85 52 91 53 84 54
REMARK SMILES IDX 86 55 87 56 88 57 89 58 66 59 67 60 75 61 68 62 70 63 76 64
REMARK SMILES IDX 69 65 71 66 72 67 73 68 74 69 5 70 6 71 7 72 8 73 9 74 10 75
REMARK SMILES IDX 18 76 11 77 17 78 12 79 19 80 20 81 33 82 21 83 22 84 32 85
REMARK SMILES IDX 23 86 34 88 35 89 39 90 36 91 38 92 37 93 24 94 25 95 26 96
REMARK SMILES IDX 27 97 31 98 28 99 30 100 29 101 13 102 14 103 15 104 16 105
REMARK H PARENT 96 22 64 33 32 87
REMARK Flexibility Score: inf
ROOT
ATOM      1  C   UNL A   1      44.898  26.822  26.499  1.00  0.00     0.275 C 
ENDROOT
BRANCH   1   2
ATOM      2  O   UNL A   1      46.028  27.649  26.150  1.00  0.00    -0.458 OA
BRANCH   2   3
ATOM      3  C   UNL A   1      46.112  28.954  25.790  1.00  0.00     0.338 C 
ATOM      4  O   UNL A   1      46.621  29.222  24.701  1.00  0.00    -0.246 OA
BRANCH   3   5
ATOM      5  C   UNL A   1      45.723  30.113  26.668  1.00  0.00     0.060 A 
ATOM      6  C   UNL A   1      44.807  31.098  26.337  1.00  0.00     0.016 A 
ATOM      7  C   UNL A   1      46.256  30.155  27.977  1.00  0.00     0.016 A 
ATOM      8  C   UNL A   1      44.343  31.996  27.292  1.00  0.00     0.010 A 
ATOM      9  C   UNL A   1      45.807  31.082  28.942  1.00  0.00     0.010 A 
ATOM     10  C   UNL A   1      44.825  32.008  28.608  1.00  0.00    -0.014 A 
BRANCH  10  11
ATOM     11  C   UNL A   1      44.532  33.261  29.371  1.00  0.00     0.031 A 
ATOM     12  C   UNL A   1      43.534  32.896  30.526  1.00  0.00     0.074 A 
ATOM     13  C   UNL A   1      45.473  34.326  29.237  1.00  0.00     0.049 A 
ATOM     14  N   UNL A   1      43.642  33.237  31.769  1.00  0.00    -0.248 NA
ATOM     15  C   UNL A   1      42.367  32.008  30.390  1.00  0.00     0.031 C 
ATOM     16  C   UNL A   1      46.612  34.438  27.623  1.00  0.00     0.029 A 
ATOM     17  N   UNL A   1      46.421  35.699  30.358  1.00  0.00    -0.354 N 
ATOM     18  C   UNL A   1      42.481  33.118  32.407  1.00  0.00     0.074 A 
ATOM     19  C   UNL A   1      41.798  32.108  31.606  1.00  0.00     0.031 C 
ATOM     20  C   UNL A   1      47.945  35.525  27.871  1.00  0.00     0.029 A 
ATOM     21  C   UNL A   1      47.844  36.412  29.588  1.00  0.00     0.049 A 
ATOM     22  H   UNL A   1      46.118  35.953  31.260  1.00  0.00     0.167 HD
ATOM     23  C   UNL A   1      42.045  33.926  33.414  1.00  0.00     0.034 A 
ATOM     24  C   UNL A   1      48.213  37.558  30.230  1.00  0.00     0.034 A 
ATOM     25  C   UNL A   1      42.550  35.250  33.925  1.00  0.00     0.049 A 
ATOM     26  C   UNL A   1      47.292  38.113  31.444  1.00  0.00     0.074 A 
ATOM     27  C   UNL A   1      41.862  36.080  34.809  1.00  0.00     0.029 A 
ATOM     28  N   UNL A   1      43.704  36.024  33.662  1.00  0.00    -0.354 N 
ATOM     29  N   UNL A   1      46.307  37.538  32.138  1.00  0.00    -0.248 NA
ATOM     30  C   UNL A   1      47.464  39.517  31.835  1.00  0.00     0.031 C 
ATOM     31  C   UNL A   1      42.459  37.362  34.839  1.00  0.00     0.029 A 
ATOM     32  C   UNL A   1      43.622  37.350  34.079  1.00  0.00     0.049 A 
ATOM     33  H   UNL A   1      44.501  35.654  33.219  1.00  0.00     0.167 HD
ATOM     34  C   UNL A   1      45.719  38.483  32.998  1.00  0.00     0.074 A 
ATOM     35  C   UNL A   1      46.532  39.680  32.778  1.00  0.00     0.031 C 
ATOM     36  C   UNL A   1      44.621  38.431  33.845  1.00  0.00     0.034 A 
BRANCH  23  37
ATOM     37  C   UNL A   1      40.750  33.402  33.937  1.00  0.00     0.023 A 
ATOM     38  C   UNL A   1      40.790  32.479  35.003  1.00  0.00     0.012 A 
ATOM     39  C   UNL A   1      39.527  33.756  33.351  1.00  0.00     0.148 A 
ATOM     40  C   UNL A   1      39.621  31.888  35.461  1.00  0.00     0.002 A 
ATOM     41  C   UNL A   1      38.360  33.210  33.857  1.00  0.00     0.091 A 
ATOM     42  F   UNL A   1      39.532  34.592  32.303  1.00  0.00    -0.205 F 
ATOM     43  C   UNL A   1      38.406  32.264  34.897  1.00  0.00     0.022 A 
BRANCH  41  44
ATOM     44  S   UNL A   1      36.738  33.686  33.267  1.00  0.00     0.127 S 
ATOM     45  O   UNL A   1      36.744  35.125  33.517  1.00  0.00    -0.237 OA
ATOM     46  O   UNL A   1      36.813  33.307  31.856  1.00  0.00    -0.237 OA
ATOM     47  O   UNL A   1      35.782  32.921  34.056  1.00  0.00    -0.744 OA
ENDBRANCH  41  44
ENDBRANCH  23  37
BRANCH  24  48
ATOM     48  C   UNL A   1      49.200  38.426  29.596  1.00  0.00     0.023 A 
ATOM     49  C   UNL A   1      48.865  39.257  28.517  1.00  0.00     0.012 A 
ATOM     50  C   UNL A   1      50.500  38.426  30.110  1.00  0.00     0.148 A 
ATOM     51  C   UNL A   1      49.823  40.123  27.992  1.00  0.00     0.002 A 
ATOM     52  C   UNL A   1      51.414  39.347  29.652  1.00  0.00     0.091 A 
ATOM     53  F   UNL A   1      50.819  37.510  31.036  1.00  0.00    -0.205 F 
ATOM     54  C   UNL A   1      51.087  40.195  28.584  1.00  0.00     0.022 A 
BRANCH  52  55
ATOM     55  S   UNL A   1      52.968  39.581  30.505  1.00  0.00     0.127 S 
ATOM     56  O   UNL A   1      52.524  40.057  31.811  1.00  0.00    -0.237 OA
ATOM     57  O   UNL A   1      53.520  38.228  30.483  1.00  0.00    -0.237 OA
ATOM     58  O   UNL A   1      53.717  40.547  29.705  1.00  0.00    -0.744 OA
ENDBRANCH  52  55
ENDBRANCH  24  48
BRANCH  36  59
ATOM     59  C   UNL A   1      44.421  39.654  34.743  1.00  0.00     0.023 A 
ATOM     60  C   UNL A   1      44.921  39.738  36.059  1.00  0.00     0.012 A 
ATOM     61  C   UNL A   1      43.728  40.765  34.212  1.00  0.00     0.148 A 
ATOM     62  C   UNL A   1      44.657  40.862  36.852  1.00  0.00     0.002 A 
ATOM     63  C   UNL A   1      43.521  41.901  34.983  1.00  0.00     0.091 A 
ATOM     64  F   UNL A   1      43.274  40.683  32.953  1.00  0.00    -0.205 F 
ATOM     65  C   UNL A   1      43.961  41.944  36.314  1.00  0.00     0.022 A 
BRANCH  63  66
ATOM     66  S   UNL A   1      42.710  43.365  34.331  1.00  0.00     0.127 S 
ATOM     67  O   UNL A   1      42.306  42.911  33.000  1.00  0.00    -0.237 OA
ATOM     68  O   UNL A   1      41.607  43.554  35.272  1.00  0.00    -0.237 OA
ATOM     69  O   UNL A   1      43.711  44.423  34.349  1.00  0.00    -0.744 OA
ENDBRANCH  63  66
ENDBRANCH  36  59
ENDBRANCH  10  11
ENDBRANCH   3   5
ENDBRANCH   2   3
ENDBRANCH   1   2
BRANCH   1  70
ATOM     70  C   UNL A   1      44.205  26.143  25.305  1.00  0.00     0.275 C 
BRANCH  70  71
ATOM     71  O   UNL A   1      42.769  26.118  25.406  1.00  0.00    -0.458 OA
BRANCH  71  72
ATOM     72  C   UNL A   1      42.179  27.332  25.510  1.00  0.00     0.342 C 
ATOM     73  O   UNL A   1      42.299  28.237  24.694  1.00  0.00    -0.246 OA
BRANCH  72  74
ATOM     74  C   UNL A   1      41.207  27.428  26.640  1.00  0.00     0.107 A 
ATOM     75  C   UNL A   1      40.577  28.703  26.698  1.00  0.00     0.021 A 
ATOM     76  C   UNL A   1      40.930  26.456  27.639  1.00  0.00     0.152 A 
ATOM     77  C   UNL A   1      39.742  29.042  27.749  1.00  0.00     0.020 A 
ATOM     78  C   UNL A   1      40.510  27.020  28.858  1.00  0.00     0.072 A 
ATOM     79  C   UNL A   1      39.766  28.220  28.863  1.00  0.00     0.059 A 
BRANCH  76  80
ATOM     80  N   UNL A   1      41.233  25.026  27.518  1.00  0.00    -0.153 N 
ATOM     81  C   UNL A   1      40.237  24.339  26.888  1.00  0.00     0.385 C 
ATOM     82  C   UNL A   1      42.304  24.061  27.817  1.00  0.00     0.295 C 
ATOM     83  O   UNL A   1      39.286  24.808  26.281  1.00  0.00    -0.236 OA
ATOM     84  C   UNL A   1      40.625  22.920  27.027  1.00  0.00     0.215 C 
ATOM     85  N   UNL A   1      41.901  22.823  27.580  1.00  0.00    -0.233 N 
ATOM     86  C   UNL A   1      39.812  21.928  26.609  1.00  0.00     0.060 C 
ATOM     87  H   UNL A   1      42.403  21.995  27.759  1.00  0.00     0.312 HD
BRANCH  82  88
ATOM     88  C   UNL A   1      43.991  24.235  28.440  1.00  0.00     0.065 A 
ATOM     89  C   UNL A   1      45.893  23.859  27.605  1.00  0.00     0.017 A 
ATOM     90  C   UNL A   1      43.982  25.295  29.838  1.00  0.00     0.017 A 
ATOM     91  C   UNL A   1      47.299  24.626  28.142  1.00  0.00     0.001 A 
ATOM     92  C   UNL A   1      45.534  25.896  30.301  1.00  0.00     0.001 A 
ATOM     93  C   UNL A   1      47.098  25.659  29.420  1.00  0.00     0.000 A 
ENDBRANCH  82  88
BRANCH  86  94
ATOM     94  C   UNL A   1      38.448  22.108  26.099  1.00  0.00     0.005 C 
ATOM     95  C   UNL A   1      37.945  21.650  24.942  1.00  0.00     0.008 C 
BRANCH  95  96
ATOM     96  C   UNL A   1      36.539  21.890  24.538  1.00  0.00    -0.026 A 
ATOM     97  C   UNL A   1      36.269  22.844  23.547  1.00  0.00     0.008 A 
ATOM     98  C   UNL A   1      35.453  21.222  25.128  1.00  0.00     0.008 A 
ATOM     99  C   UNL A   1      34.954  23.112  23.144  1.00  0.00     0.001 A 
ATOM    100  C   UNL A   1      34.137  21.492  24.727  1.00  0.00     0.001 A 
ATOM    101  C   UNL A   1      33.888  22.436  23.733  1.00  0.00     0.000 A 
ENDBRANCH  95  96
ENDBRANCH  86  94
ENDBRANCH  76  80
BRANCH  79 102
ATOM    102  S   UNL A   1      38.541  28.508  30.136  1.00  0.00     0.124 S 
ATOM    103  O   UNL A   1      37.351  29.018  29.497  1.00  0.00    -0.237 OA
ATOM    104  O   UNL A   1      38.511  27.315  30.956  1.00  0.00    -0.237 OA
ATOM    105  O   UNL A   1      39.160  29.685  31.044  1.00  0.00    -0.744 OA
ENDBRANCH  79 102
ENDBRANCH  72  74
ENDBRANCH  71  72
ENDBRANCH  70  71
ENDBRANCH   1  70
TORSDOF 19
ENDMDL
