MODEL 1
REMARK VINA RESULT:     -13.0      0.000      0.000
REMARK SMILES CC1=CC[C@@](C(=O)N/N=C/C2=C([O-])CC(C)(C)CC2=O)(C(=O)OCCOC(=O)c2ccc(-c3c4nc(c(-c5cccc(S(=O)(=O)[O-])c5F)c5ccc([nH]5)c(-c5cccc(S(=O)(=O)[O-])c5F)c5nc(c(-c6cccc(S(=O)(=O)[O-])c6F)c6ccc3[nH]6)C=C5)C=C4)cc2)C[C@@H]1c1ccccc1
REMARK SMILES IDX 24 1 23 2 21 3 22 4 5 5 1 6 2 7 3 8 93 9 4 10 92 11 94 12
REMARK SMILES IDX 95 13 99 14 96 15 98 16 97 17 6 18 7 19 8 20 9 22 10 23
REMARK SMILES IDX 11 24 12 25 19 26 13 27 14 28 18 29 20 30 15 31 16 32 17 33
REMARK SMILES IDX 25 34 26 35 27 36 28 37 29 38 30 39 91 40 31 41 90 42 32 43
REMARK SMILES IDX 33 44 34 45 84 46 35 47 89 48 83 49 85 50 36 51 88 52 82 53
REMARK SMILES IDX 81 54 37 56 69 57 49 58 68 59 50 60 53 61 67 62 86 63 51 64
REMARK SMILES IDX 52 65 66 67 87 68 54 69 38 70 39 71 47 72 40 73 42 74 48 75
REMARK SMILES IDX 41 76 43 77 44 78 45 79 46 80 70 81 71 82 79 83 72 84 74 85
REMARK SMILES IDX 80 86 73 87 75 88 76 89 77 90 78 91 55 92 56 93 64 94 57 95
REMARK SMILES IDX 59 96 65 97 58 98 60 99 61 100 62 101 63 102
REMARK H PARENT 8 21 85 55 53 66
REMARK Flexibility Score: inf
ROOT
ATOM      1  C   UNL A   1      31.475  28.756  26.707  1.00  0.00     0.274 C 
ENDROOT
BRANCH   1   2
ATOM      2  O   UNL A   1      32.212  27.563  26.364  1.00  0.00    -0.461 OA
BRANCH   2   3
ATOM      3  C   UNL A   1      31.483  26.411  26.388  1.00  0.00     0.322 C 
ATOM      4  O   UNL A   1      30.400  26.313  26.960  1.00  0.00    -0.251 OA
BRANCH   3   5
ATOM      5  C   UNL A   1      32.138  25.273  25.585  1.00  0.00     0.152 C 
ATOM      6  C   UNL A   1      35.666  23.390  23.651  1.00  0.00     0.040 C 
ATOM      7  C   UNL A   1      34.585  24.163  24.358  1.00  0.00    -0.070 C 
ATOM      8  C   UNL A   1      34.368  23.998  25.675  1.00  0.00    -0.026 C 
ATOM      9  C   UNL A   1      33.861  25.232  23.574  1.00  0.00     0.046 C 
ATOM     10  C   UNL A   1      33.242  24.636  26.450  1.00  0.00     0.056 C 
ATOM     11  C   UNL A   1      32.784  25.994  24.369  1.00  0.00     0.042 C 
BRANCH   9  12
ATOM     12  C   UNL A   1      33.294  24.919  22.198  1.00  0.00    -0.041 A 
ATOM     13  C   UNL A   1      33.329  23.572  21.781  1.00  0.00     0.004 A 
ATOM     14  C   UNL A   1      32.927  25.894  21.269  1.00  0.00     0.004 A 
ATOM     15  C   UNL A   1      33.058  23.216  20.464  1.00  0.00     0.000 A 
ATOM     16  C   UNL A   1      32.653  25.536  19.945  1.00  0.00     0.000 A 
ATOM     17  C   UNL A   1      32.734  24.202  19.541  1.00  0.00     0.000 A 
ENDBRANCH   9  12
BRANCH   5  18
ATOM     18  C   UNL A   1      30.997  24.346  25.100  1.00  0.00     0.257 C 
ATOM     19  O   UNL A   1      30.940  23.163  25.466  1.00  0.00    -0.272 OA
ATOM     20  N   UNL A   1      29.954  24.779  24.317  1.00  0.00    -0.246 N 
ATOM     21  H   UNL A   1      29.217  24.151  24.146  1.00  0.00     0.193 HD
BRANCH  20  22
ATOM     22  N   UNL A   1      29.874  26.007  23.765  1.00  0.00    -0.181 NA
ATOM     23  C   UNL A   1      28.703  26.537  23.627  1.00  0.00     0.144 C 
BRANCH  23  24
ATOM     24  C   UNL A   1      28.514  27.950  23.188  1.00  0.00     0.026 C 
ATOM     25  C   UNL A   1      27.358  28.613  23.406  1.00  0.00    -0.119 C 
ATOM     26  C   UNL A   1      29.651  28.724  22.601  1.00  0.00     0.164 C 
ATOM     27  O   UNL A   1      26.211  28.047  23.932  1.00  0.00    -0.875 OA
ATOM     28  C   UNL A   1      27.182  30.102  23.187  1.00  0.00     0.026 C 
ATOM     29  C   UNL A   1      29.663  30.222  22.815  1.00  0.00     0.087 C 
ATOM     30  O   UNL A   1      30.532  28.168  21.950  1.00  0.00    -0.294 OA
ATOM     31  C   UNL A   1      28.312  30.829  22.426  1.00  0.00    -0.025 C 
ATOM     32  C   UNL A   1      28.102  30.717  20.904  1.00  0.00     0.012 C 
ATOM     33  C   UNL A   1      28.295  32.322  22.805  1.00  0.00     0.012 C 
ENDBRANCH  23  24
ENDBRANCH  20  22
ENDBRANCH   5  18
ENDBRANCH   3   5
ENDBRANCH   2   3
ENDBRANCH   1   2
BRANCH   1  34
ATOM     34  C   UNL A   1      31.697  29.808  25.621  1.00  0.00     0.275 C 
BRANCH  34  35
ATOM     35  O   UNL A   1      33.001  30.394  25.786  1.00  0.00    -0.458 OA
BRANCH  35  36
ATOM     36  C   UNL A   1      33.124  31.272  26.812  1.00  0.00     0.338 C 
ATOM     37  O   UNL A   1      32.301  32.127  27.123  1.00  0.00    -0.246 OA
BRANCH  36  38
ATOM     38  C   UNL A   1      34.387  31.036  27.562  1.00  0.00     0.060 A 
ATOM     39  C   UNL A   1      35.231  32.090  27.913  1.00  0.00     0.016 A 
ATOM     40  C   UNL A   1      34.779  29.733  27.872  1.00  0.00     0.016 A 
ATOM     41  C   UNL A   1      36.484  31.848  28.480  1.00  0.00     0.010 A 
ATOM     42  C   UNL A   1      35.982  29.503  28.560  1.00  0.00     0.010 A 
ATOM     43  C   UNL A   1      36.865  30.555  28.862  1.00  0.00    -0.014 A 
BRANCH  43  44
ATOM     44  C   UNL A   1      38.145  30.307  29.604  1.00  0.00     0.031 A 
ATOM     45  C   UNL A   1      39.207  29.399  29.030  1.00  0.00     0.074 A 
ATOM     46  C   UNL A   1      38.344  30.835  30.832  1.00  0.00     0.049 A 
ATOM     47  N   UNL A   1      40.238  28.853  29.625  1.00  0.00    -0.248 NA
ATOM     48  C   UNL A   1      39.086  29.041  27.607  1.00  0.00     0.031 C 
ATOM     49  C   UNL A   1      37.422  31.728  31.538  1.00  0.00     0.029 A 
ATOM     50  N   UNL A   1      39.383  30.674  31.725  1.00  0.00    -0.354 N 
ATOM     51  C   UNL A   1      40.821  28.007  28.687  1.00  0.00     0.074 A 
ATOM     52  C   UNL A   1      40.051  28.139  27.468  1.00  0.00     0.031 C 
ATOM     53  C   UNL A   1      37.937  32.050  32.732  1.00  0.00     0.029 A 
ATOM     54  C   UNL A   1      39.173  31.305  32.932  1.00  0.00     0.049 A 
ATOM     55  H   UNL A   1      40.195  30.157  31.520  1.00  0.00     0.167 HD
ATOM     56  C   UNL A   1      41.898  27.197  28.826  1.00  0.00     0.034 A 
ATOM     57  C   UNL A   1      39.847  31.249  34.098  1.00  0.00     0.034 A 
ATOM     58  C   UNL A   1      42.735  27.144  29.997  1.00  0.00     0.049 A 
ATOM     59  C   UNL A   1      41.058  30.369  34.213  1.00  0.00     0.074 A 
ATOM     60  C   UNL A   1      43.899  26.415  30.187  1.00  0.00     0.029 A 
ATOM     61  N   UNL A   1      42.513  27.848  31.168  1.00  0.00    -0.354 N 
ATOM     62  N   UNL A   1      41.623  29.621  33.298  1.00  0.00    -0.248 NA
ATOM     63  C   UNL A   1      41.725  30.323  35.523  1.00  0.00     0.031 C 
ATOM     64  C   UNL A   1      44.374  26.671  31.477  1.00  0.00     0.029 A 
ATOM     65  C   UNL A   1      43.513  27.567  32.086  1.00  0.00     0.049 A 
ATOM     66  H   UNL A   1      41.756  28.458  31.326  1.00  0.00     0.167 HD
ATOM     67  C   UNL A   1      42.712  29.021  33.918  1.00  0.00     0.074 A 
ATOM     68  C   UNL A   1      42.754  29.524  35.275  1.00  0.00     0.031 C 
ATOM     69  C   UNL A   1      43.579  28.108  33.418  1.00  0.00     0.034 A 
BRANCH  56  70
ATOM     70  C   UNL A   1      42.275  26.303  27.673  1.00  0.00     0.023 A 
ATOM     71  C   UNL A   1      43.213  26.744  26.720  1.00  0.00     0.012 A 
ATOM     72  C   UNL A   1      41.782  24.984  27.603  1.00  0.00     0.148 A 
ATOM     73  C   UNL A   1      43.645  25.889  25.705  1.00  0.00     0.002 A 
ATOM     74  C   UNL A   1      42.246  24.126  26.612  1.00  0.00     0.091 A 
ATOM     75  F   UNL A   1      40.878  24.590  28.512  1.00  0.00    -0.205 F 
ATOM     76  C   UNL A   1      43.172  24.580  25.659  1.00  0.00     0.022 A 
BRANCH  74  77
ATOM     77  S   UNL A   1      41.762  22.398  26.518  1.00  0.00     0.127 S 
ATOM     78  O   UNL A   1      40.323  22.508  26.283  1.00  0.00    -0.237 OA
ATOM     79  O   UNL A   1      42.532  21.925  25.366  1.00  0.00    -0.237 OA
ATOM     80  O   UNL A   1      42.143  21.802  27.790  1.00  0.00    -0.744 OA
ENDBRANCH  74  77
ENDBRANCH  56  70
BRANCH  57  81
ATOM     81  C   UNL A   1      39.368  32.039  35.270  1.00  0.00     0.023 A 
ATOM     82  C   UNL A   1      38.520  31.433  36.217  1.00  0.00     0.012 A 
ATOM     83  C   UNL A   1      39.777  33.373  35.471  1.00  0.00     0.148 A 
ATOM     84  C   UNL A   1      38.078  32.145  37.332  1.00  0.00     0.002 A 
ATOM     85  C   UNL A   1      39.391  34.051  36.621  1.00  0.00     0.091 A 
ATOM     86  F   UNL A   1      40.555  33.950  34.543  1.00  0.00    -0.205 F 
ATOM     87  C   UNL A   1      38.527  33.447  37.544  1.00  0.00     0.022 A 
BRANCH  85  88
ATOM     88  S   UNL A   1      40.076  35.660  37.033  1.00  0.00     0.127 S 
ATOM     89  O   UNL A   1      41.504  35.369  37.114  1.00  0.00    -0.237 OA
ATOM     90  O   UNL A   1      39.677  36.472  35.882  1.00  0.00    -0.237 OA
ATOM     91  O   UNL A   1      39.423  36.039  38.279  1.00  0.00    -0.744 OA
ENDBRANCH  85  88
ENDBRANCH  57  81
BRANCH  69  92
ATOM     92  C   UNL A   1      44.657  27.597  34.335  1.00  0.00     0.023 A 
ATOM     93  C   UNL A   1      45.863  28.318  34.452  1.00  0.00     0.012 A 
ATOM     94  C   UNL A   1      44.460  26.444  35.118  1.00  0.00     0.148 A 
ATOM     95  C   UNL A   1      46.867  27.883  35.315  1.00  0.00     0.002 A 
ATOM     96  C   UNL A   1      45.450  26.039  36.006  1.00  0.00     0.091 A 
ATOM     97  F   UNL A   1      43.315  25.761  34.976  1.00  0.00    -0.205 F 
ATOM     98  C   UNL A   1      46.658  26.750  36.099  1.00  0.00     0.022 A 
BRANCH  96  99
ATOM     99  S   UNL A   1      45.233  24.639  37.112  1.00  0.00     0.127 S 
ATOM    100  O   UNL A   1      46.530  24.583  37.781  1.00  0.00    -0.237 OA
ATOM    101  O   UNL A   1      44.125  25.080  37.961  1.00  0.00    -0.237 OA
ATOM    102  O   UNL A   1      44.918  23.502  36.258  1.00  0.00    -0.744 OA
ENDBRANCH  96  99
ENDBRANCH  69  92
ENDBRANCH  43  44
ENDBRANCH  36  38
ENDBRANCH  35  36
ENDBRANCH  34  35
ENDBRANCH   1  34
TORSDOF 18
ENDMDL
MODEL 2
REMARK VINA RESULT:     -12.7      5.052     10.166
REMARK SMILES CC1=CC[C@@](C(=O)N/N=C/C2=C([O-])CC(C)(C)CC2=O)(C(=O)OCCOC(=O)c2ccc(-c3c4nc(c(-c5cccc(S(=O)(=O)[O-])c5F)c5ccc([nH]5)c(-c5cccc(S(=O)(=O)[O-])c5F)c5nc(c(-c6cccc(S(=O)(=O)[O-])c6F)c6ccc3[nH]6)C=C5)C=C4)cc2)C[C@@H]1c1ccccc1
REMARK SMILES IDX 24 1 23 2 21 3 22 4 5 5 1 6 2 7 3 8 93 9 4 10 92 11 94 12
REMARK SMILES IDX 95 13 99 14 96 15 98 16 97 17 6 18 7 19 8 20 9 22 10 23
REMARK SMILES IDX 11 24 12 25 19 26 13 27 14 28 18 29 20 30 15 31 16 32 17 33
REMARK SMILES IDX 25 34 26 35 27 36 28 37 29 38 30 39 91 40 31 41 90 42 32 43
REMARK SMILES IDX 33 44 34 45 84 46 35 47 89 48 83 49 85 50 36 51 88 52 82 53
REMARK SMILES IDX 81 54 37 56 69 57 49 58 68 59 50 60 53 61 67 62 86 63 51 64
REMARK SMILES IDX 52 65 66 67 87 68 54 69 38 70 39 71 47 72 40 73 42 74 48 75
REMARK SMILES IDX 41 76 43 77 44 78 45 79 46 80 70 81 71 82 79 83 72 84 74 85
REMARK SMILES IDX 80 86 73 87 75 88 76 89 77 90 78 91 55 92 56 93 64 94 57 95
REMARK SMILES IDX 59 96 65 97 58 98 60 99 61 100 62 101 63 102
REMARK H PARENT 8 21 85 55 53 66
REMARK Flexibility Score: inf
ROOT
ATOM      1  C   UNL A   1      36.656  23.309  23.359  1.00  0.00     0.274 C 
ENDROOT
BRANCH   1   2
ATOM      2  O   UNL A   1      35.507  23.848  24.048  1.00  0.00    -0.461 OA
BRANCH   2   3
ATOM      3  C   UNL A   1      34.405  24.035  23.267  1.00  0.00     0.322 C 
ATOM      4  O   UNL A   1      34.395  23.822  22.057  1.00  0.00    -0.251 OA
BRANCH   3   5
ATOM      5  C   UNL A   1      33.174  24.492  24.070  1.00  0.00     0.152 C 
ATOM      6  C   UNL A   1      29.147  26.349  24.320  1.00  0.00     0.040 C 
ATOM      7  C   UNL A   1      30.501  25.749  24.054  1.00  0.00    -0.070 C 
ATOM      8  C   UNL A   1      30.627  24.449  23.727  1.00  0.00    -0.026 C 
ATOM      9  C   UNL A   1      31.687  26.683  24.018  1.00  0.00     0.046 C 
ATOM     10  C   UNL A   1      31.940  23.728  23.552  1.00  0.00     0.056 C 
ATOM     11  C   UNL A   1      33.035  26.000  23.719  1.00  0.00     0.042 C 
BRANCH   9  12
ATOM     12  C   UNL A   1      31.907  27.682  25.143  1.00  0.00    -0.041 A 
ATOM     13  C   UNL A   1      32.822  28.728  24.901  1.00  0.00     0.004 A 
ATOM     14  C   UNL A   1      31.414  27.515  26.438  1.00  0.00     0.004 A 
ATOM     15  C   UNL A   1      33.270  29.549  25.932  1.00  0.00     0.000 A 
ATOM     16  C   UNL A   1      31.863  28.341  27.474  1.00  0.00     0.000 A 
ATOM     17  C   UNL A   1      32.800  29.344  27.223  1.00  0.00     0.000 A 
ENDBRANCH   9  12
BRANCH   5  18
ATOM     18  C   UNL A   1      33.527  24.331  25.569  1.00  0.00     0.257 C 
ATOM     19  O   UNL A   1      33.781  25.320  26.271  1.00  0.00    -0.272 OA
ATOM     20  N   UNL A   1      33.505  23.123  26.223  1.00  0.00    -0.246 N 
ATOM     21  H   UNL A   1      33.636  23.127  27.199  1.00  0.00     0.193 HD
BRANCH  20  22
ATOM     22  N   UNL A   1      33.318  21.932  25.620  1.00  0.00    -0.181 NA
ATOM     23  C   UNL A   1      34.252  21.042  25.725  1.00  0.00     0.144 C 
BRANCH  23  24
ATOM     24  C   UNL A   1      34.076  19.642  25.243  1.00  0.00     0.026 C 
ATOM     25  C   UNL A   1      35.133  18.851  24.960  1.00  0.00    -0.119 C 
ATOM     26  C   UNL A   1      32.717  19.023  25.179  1.00  0.00     0.164 C 
ATOM     27  O   UNL A   1      36.453  19.265  24.964  1.00  0.00    -0.875 OA
ATOM     28  C   UNL A   1      35.028  17.365  24.683  1.00  0.00     0.026 C 
ATOM     29  C   UNL A   1      32.619  17.526  25.374  1.00  0.00     0.087 C 
ATOM     30  O   UNL A   1      31.717  19.702  24.954  1.00  0.00    -0.294 OA
ATOM     31  C   UNL A   1      33.609  16.801  24.458  1.00  0.00    -0.025 C 
ATOM     32  C   UNL A   1      33.185  16.968  22.986  1.00  0.00     0.012 C 
ATOM     33  C   UNL A   1      33.605  15.297  24.790  1.00  0.00     0.012 C 
ENDBRANCH  23  24
ENDBRANCH  20  22
ENDBRANCH   5  18
ENDBRANCH   3   5
ENDBRANCH   2   3
ENDBRANCH   1   2
BRANCH   1  34
ATOM     34  C   UNL A   1      37.115  22.040  24.075  1.00  0.00     0.275 C 
BRANCH  34  35
ATOM     35  O   UNL A   1      37.336  22.331  25.467  1.00  0.00    -0.458 OA
BRANCH  35  36
ATOM     36  C   UNL A   1      38.537  21.948  25.963  1.00  0.00     0.338 C 
ATOM     37  O   UNL A   1      38.995  20.810  25.926  1.00  0.00    -0.246 OA
BRANCH  36  38
ATOM     38  C   UNL A   1      39.271  23.111  26.530  1.00  0.00     0.060 A 
ATOM     39  C   UNL A   1      40.379  22.937  27.360  1.00  0.00     0.016 A 
ATOM     40  C   UNL A   1      38.815  24.407  26.287  1.00  0.00     0.016 A 
ATOM     41  C   UNL A   1      40.968  24.024  28.009  1.00  0.00     0.010 A 
ATOM     42  C   UNL A   1      39.490  25.508  26.838  1.00  0.00     0.010 A 
ATOM     43  C   UNL A   1      40.570  25.336  27.723  1.00  0.00    -0.014 A 
BRANCH  43  44
ATOM     44  C   UNL A   1      41.295  26.515  28.303  1.00  0.00     0.031 A 
ATOM     45  C   UNL A   1      40.557  27.550  29.119  1.00  0.00     0.074 A 
ATOM     46  C   UNL A   1      42.608  26.709  28.052  1.00  0.00     0.049 A 
ATOM     47  N   UNL A   1      40.938  28.754  29.467  1.00  0.00    -0.248 NA
ATOM     48  C   UNL A   1      39.206  27.198  29.587  1.00  0.00     0.031 C 
ATOM     49  C   UNL A   1      43.473  25.813  27.280  1.00  0.00     0.029 A 
ATOM     50  N   UNL A   1      43.448  27.748  28.396  1.00  0.00    -0.354 N 
ATOM     51  C   UNL A   1      39.843  29.339  30.095  1.00  0.00     0.074 A 
ATOM     52  C   UNL A   1      38.792  28.344  30.115  1.00  0.00     0.031 C 
ATOM     53  C   UNL A   1      44.711  26.322  27.226  1.00  0.00     0.029 A 
ATOM     54  C   UNL A   1      44.713  27.632  27.862  1.00  0.00     0.049 A 
ATOM     55  H   UNL A   1      43.169  28.499  28.968  1.00  0.00     0.167 HD
ATOM     56  C   UNL A   1      39.725  30.587  30.610  1.00  0.00     0.034 A 
ATOM     57  C   UNL A   1      45.747  28.497  27.818  1.00  0.00     0.034 A 
ATOM     58  C   UNL A   1      40.800  31.541  30.695  1.00  0.00     0.049 A 
ATOM     59  C   UNL A   1      45.598  29.862  28.427  1.00  0.00     0.074 A 
ATOM     60  C   UNL A   1      40.787  32.796  31.283  1.00  0.00     0.029 A 
ATOM     61  N   UNL A   1      42.076  31.351  30.194  1.00  0.00    -0.354 N 
ATOM     62  N   UNL A   1      44.574  30.372  29.064  1.00  0.00    -0.248 NA
ATOM     63  C   UNL A   1      46.748  30.770  28.311  1.00  0.00     0.031 C 
ATOM     64  C   UNL A   1      42.054  33.368  31.128  1.00  0.00     0.029 A 
ATOM     65  C   UNL A   1      42.857  32.465  30.453  1.00  0.00     0.049 A 
ATOM     66  H   UNL A   1      42.383  30.542  29.723  1.00  0.00     0.167 HD
ATOM     67  C   UNL A   1      44.956  31.657  29.428  1.00  0.00     0.074 A 
ATOM     68  C   UNL A   1      46.321  31.834  28.979  1.00  0.00     0.031 C 
ATOM     69  C   UNL A   1      44.229  32.618  30.048  1.00  0.00     0.034 A 
BRANCH  56  70
ATOM     70  C   UNL A   1      38.387  31.008  31.160  1.00  0.00     0.023 A 
ATOM     71  C   UNL A   1      38.134  30.911  32.542  1.00  0.00     0.012 A 
ATOM     72  C   UNL A   1      37.427  31.609  30.320  1.00  0.00     0.148 A 
ATOM     73  C   UNL A   1      36.938  31.391  33.077  1.00  0.00     0.002 A 
ATOM     74  C   UNL A   1      36.255  32.120  30.865  1.00  0.00     0.091 A 
ATOM     75  F   UNL A   1      37.683  31.677  29.005  1.00  0.00    -0.205 F 
ATOM     76  C   UNL A   1      36.006  32.005  32.243  1.00  0.00     0.022 A 
BRANCH  74  77
ATOM     77  S   UNL A   1      35.032  33.002  29.888  1.00  0.00     0.127 S 
ATOM     78  O   UNL A   1      34.557  31.950  28.992  1.00  0.00    -0.237 OA
ATOM     79  O   UNL A   1      34.066  33.417  30.907  1.00  0.00    -0.237 OA
ATOM     80  O   UNL A   1      35.744  34.096  29.244  1.00  0.00    -0.744 OA
ENDBRANCH  74  77
ENDBRANCH  56  70
BRANCH  57  81
ATOM     81  C   UNL A   1      47.015  28.101  27.140  1.00  0.00     0.023 A 
ATOM     82  C   UNL A   1      48.111  27.672  27.912  1.00  0.00     0.012 A 
ATOM     83  C   UNL A   1      47.129  28.112  25.735  1.00  0.00     0.148 A 
ATOM     84  C   UNL A   1      49.300  27.274  27.298  1.00  0.00     0.002 A 
ATOM     85  C   UNL A   1      48.290  27.647  25.129  1.00  0.00     0.091 A 
ATOM     86  F   UNL A   1      46.091  28.559  25.013  1.00  0.00    -0.205 F 
ATOM     87  C   UNL A   1      49.384  27.245  25.907  1.00  0.00     0.022 A 
BRANCH  85  88
ATOM     88  S   UNL A   1      48.392  27.422  23.350  1.00  0.00     0.127 S 
ATOM     89  O   UNL A   1      48.284  25.972  23.222  1.00  0.00    -0.237 OA
ATOM     90  O   UNL A   1      47.228  28.171  22.874  1.00  0.00    -0.237 OA
ATOM     91  O   UNL A   1      49.670  28.009  22.969  1.00  0.00    -0.744 OA
ENDBRANCH  85  88
ENDBRANCH  57  81
BRANCH  69  92
ATOM     92  C   UNL A   1      44.895  33.946  30.291  1.00  0.00     0.023 A 
ATOM     93  C   UNL A   1      45.642  34.139  31.470  1.00  0.00     0.012 A 
ATOM     94  C   UNL A   1      44.829  34.977  29.335  1.00  0.00     0.148 A 
ATOM     95  C   UNL A   1      46.291  35.349  31.708  1.00  0.00     0.002 A 
ATOM     96  C   UNL A   1      45.513  36.167  29.561  1.00  0.00     0.091 A 
ATOM     97  F   UNL A   1      44.096  34.781  28.231  1.00  0.00    -0.205 F 
ATOM     98  C   UNL A   1      46.235  36.359  30.749  1.00  0.00     0.022 A 
BRANCH  96  99
ATOM     99  S   UNL A   1      45.562  37.490  28.345  1.00  0.00     0.127 S 
ATOM    100  O   UNL A   1      44.174  37.947  28.345  1.00  0.00    -0.237 OA
ATOM    101  O   UNL A   1      46.514  38.429  28.942  1.00  0.00    -0.237 OA
ATOM    102  O   UNL A   1      46.021  36.876  27.107  1.00  0.00    -0.744 OA
ENDBRANCH  96  99
ENDBRANCH  69  92
ENDBRANCH  43  44
ENDBRANCH  36  38
ENDBRANCH  35  36
ENDBRANCH  34  35
ENDBRANCH   1  34
TORSDOF 18
ENDMDL
MODEL 3
REMARK VINA RESULT:     -12.4      4.849     10.058
REMARK SMILES CC1=CC[C@@](C(=O)N/N=C/C2=C([O-])CC(C)(C)CC2=O)(C(=O)OCCOC(=O)c2ccc(-c3c4nc(c(-c5cccc(S(=O)(=O)[O-])c5F)c5ccc([nH]5)c(-c5cccc(S(=O)(=O)[O-])c5F)c5nc(c(-c6cccc(S(=O)(=O)[O-])c6F)c6ccc3[nH]6)C=C5)C=C4)cc2)C[C@@H]1c1ccccc1
REMARK SMILES IDX 24 1 23 2 21 3 22 4 5 5 1 6 2 7 3 8 93 9 4 10 92 11 94 12
REMARK SMILES IDX 95 13 99 14 96 15 98 16 97 17 6 18 7 19 8 20 9 22 10 23
REMARK SMILES IDX 11 24 12 25 19 26 13 27 14 28 18 29 20 30 15 31 16 32 17 33
REMARK SMILES IDX 25 34 26 35 27 36 28 37 29 38 30 39 91 40 31 41 90 42 32 43
REMARK SMILES IDX 33 44 34 45 84 46 35 47 89 48 83 49 85 50 36 51 88 52 82 53
REMARK SMILES IDX 81 54 37 56 69 57 49 58 68 59 50 60 53 61 67 62 86 63 51 64
REMARK SMILES IDX 52 65 66 67 87 68 54 69 38 70 39 71 47 72 40 73 42 74 48 75
REMARK SMILES IDX 41 76 43 77 44 78 45 79 46 80 70 81 71 82 79 83 72 84 74 85
REMARK SMILES IDX 80 86 73 87 75 88 76 89 77 90 78 91 55 92 56 93 64 94 57 95
REMARK SMILES IDX 59 96 65 97 58 98 60 99 61 100 62 101 63 102
REMARK H PARENT 8 21 85 55 53 66
REMARK Flexibility Score: inf
ROOT
ATOM      1  C   UNL A   1      34.536  22.591  26.365  1.00  0.00     0.274 C 
ENDROOT
BRANCH   1   2
ATOM      2  O   UNL A   1      33.862  22.685  25.092  1.00  0.00    -0.461 OA
BRANCH   2   3
ATOM      3  C   UNL A   1      32.657  23.321  25.127  1.00  0.00     0.322 C 
ATOM      4  O   UNL A   1      31.725  22.956  25.838  1.00  0.00    -0.251 OA
BRANCH   3   5
ATOM      5  C   UNL A   1      32.611  24.563  24.220  1.00  0.00     0.152 C 
ATOM      6  C   UNL A   1      33.167  28.916  23.532  1.00  0.00     0.040 C 
ATOM      7  C   UNL A   1      33.037  27.473  23.937  1.00  0.00    -0.070 C 
ATOM      8  C   UNL A   1      34.087  26.635  23.852  1.00  0.00    -0.026 C 
ATOM      9  C   UNL A   1      31.741  27.039  24.579  1.00  0.00     0.046 C 
ATOM     10  C   UNL A   1      34.031  25.153  24.123  1.00  0.00     0.056 C 
ATOM     11  C   UNL A   1      31.690  25.554  24.986  1.00  0.00     0.042 C 
BRANCH   9  12
ATOM     12  C   UNL A   1      30.411  27.394  23.933  1.00  0.00    -0.041 A 
ATOM     13  C   UNL A   1      30.284  28.695  23.402  1.00  0.00     0.004 A 
ATOM     14  C   UNL A   1      29.273  26.590  24.006  1.00  0.00     0.004 A 
ATOM     15  C   UNL A   1      29.047  29.196  23.007  1.00  0.00     0.000 A 
ATOM     16  C   UNL A   1      28.030  27.093  23.606  1.00  0.00     0.000 A 
ATOM     17  C   UNL A   1      27.916  28.397  23.123  1.00  0.00     0.000 A 
ENDBRANCH   9  12
BRANCH   5  18
ATOM     18  C   UNL A   1      31.933  24.133  22.896  1.00  0.00     0.257 C 
ATOM     19  O   UNL A   1      31.399  24.969  22.154  1.00  0.00    -0.272 OA
ATOM     20  N   UNL A   1      31.946  22.840  22.428  1.00  0.00    -0.246 N 
ATOM     21  H   UNL A   1      31.587  22.675  21.527  1.00  0.00     0.193 HD
BRANCH  20  22
ATOM     22  N   UNL A   1      32.416  21.783  23.120  1.00  0.00    -0.181 NA
ATOM     23  C   UNL A   1      31.904  20.620  22.879  1.00  0.00     0.144 C 
BRANCH  23  24
ATOM     24  C   UNL A   1      32.464  19.367  23.461  1.00  0.00     0.026 C 
ATOM     25  C   UNL A   1      32.784  18.306  22.689  1.00  0.00    -0.119 C 
ATOM     26  C   UNL A   1      32.810  19.289  24.913  1.00  0.00     0.164 C 
ATOM     27  O   UNL A   1      32.528  18.211  21.333  1.00  0.00    -0.875 OA
ATOM     28  C   UNL A   1      33.555  17.100  23.184  1.00  0.00     0.026 C 
ATOM     29  C   UNL A   1      33.943  18.371  25.316  1.00  0.00     0.087 C 
ATOM     30  O   UNL A   1      32.183  19.931  25.754  1.00  0.00    -0.294 OA
ATOM     31  C   UNL A   1      33.743  16.978  24.712  1.00  0.00    -0.025 C 
ATOM     32  C   UNL A   1      32.522  16.294  25.357  1.00  0.00     0.012 C 
ATOM     33  C   UNL A   1      34.985  16.113  24.999  1.00  0.00     0.012 C 
ENDBRANCH  23  24
ENDBRANCH  20  22
ENDBRANCH   5  18
ENDBRANCH   3   5
ENDBRANCH   2   3
ENDBRANCH   1   2
BRANCH   1  34
ATOM     34  C   UNL A   1      35.548  21.447  26.309  1.00  0.00     0.275 C 
BRANCH  34  35
ATOM     35  O   UNL A   1      36.530  21.729  25.296  1.00  0.00    -0.458 OA
BRANCH  35  36
ATOM     36  C   UNL A   1      37.795  21.332  25.578  1.00  0.00     0.338 C 
ATOM     37  O   UNL A   1      38.242  20.201  25.412  1.00  0.00    -0.246 OA
BRANCH  36  38
ATOM     38  C   UNL A   1      38.609  22.472  26.079  1.00  0.00     0.060 A 
ATOM     39  C   UNL A   1      39.805  22.263  26.768  1.00  0.00     0.016 A 
ATOM     40  C   UNL A   1      38.148  23.779  25.921  1.00  0.00     0.016 A 
ATOM     41  C   UNL A   1      40.482  23.327  27.367  1.00  0.00     0.010 A 
ATOM     42  C   UNL A   1      38.900  24.858  26.413  1.00  0.00     0.010 A 
ATOM     43  C   UNL A   1      40.074  24.651  27.160  1.00  0.00    -0.014 A 
BRANCH  43  44
ATOM     44  C   UNL A   1      40.880  25.805  27.677  1.00  0.00     0.031 A 
ATOM     45  C   UNL A   1      40.245  26.862  28.549  1.00  0.00     0.074 A 
ATOM     46  C   UNL A   1      42.174  25.960  27.317  1.00  0.00     0.049 A 
ATOM     47  N   UNL A   1      40.691  28.053  28.863  1.00  0.00    -0.248 NA
ATOM     48  C   UNL A   1      38.927  26.550  29.128  1.00  0.00     0.031 C 
ATOM     49  C   UNL A   1      42.943  25.038  26.477  1.00  0.00     0.029 A 
ATOM     50  N   UNL A   1      43.070  26.971  27.589  1.00  0.00    -0.354 N 
ATOM     51  C   UNL A   1      39.670  28.670  29.580  1.00  0.00     0.074 A 
ATOM     52  C   UNL A   1      38.594  27.708  29.688  1.00  0.00     0.031 C 
ATOM     53  C   UNL A   1      44.188  25.508  26.320  1.00  0.00     0.029 A 
ATOM     54  C   UNL A   1      44.283  26.817  26.952  1.00  0.00     0.049 A 
ATOM     55  H   UNL A   1      42.864  27.730  28.181  1.00  0.00     0.167 HD
ATOM     56  C   UNL A   1      39.634  29.920  30.101  1.00  0.00     0.034 A 
ATOM     57  C   UNL A   1      45.335  27.650  26.821  1.00  0.00     0.034 A 
ATOM     58  C   UNL A   1      40.741  30.841  30.095  1.00  0.00     0.049 A 
ATOM     59  C   UNL A   1      45.280  29.018  27.439  1.00  0.00     0.074 A 
ATOM     60  C   UNL A   1      40.816  32.095  30.681  1.00  0.00     0.029 A 
ATOM     61  N   UNL A   1      41.965  30.612  29.490  1.00  0.00    -0.354 N 
ATOM     62  N   UNL A   1      44.329  29.559  28.158  1.00  0.00    -0.248 NA
ATOM     63  C   UNL A   1      46.444  29.891  27.226  1.00  0.00     0.031 C 
ATOM     64  C   UNL A   1      42.082  32.628  30.421  1.00  0.00     0.029 A 
ATOM     65  C   UNL A   1      42.799  31.702  29.682  1.00  0.00     0.049 A 
ATOM     66  H   UNL A   1      42.207  29.795  28.996  1.00  0.00     0.167 HD
ATOM     67  C   UNL A   1      44.780  30.831  28.488  1.00  0.00     0.074 A 
ATOM     68  C   UNL A   1      46.107  30.966  27.926  1.00  0.00     0.031 C 
ATOM     69  C   UNL A   1      44.137  31.813  29.165  1.00  0.00     0.034 A 
BRANCH  56  70
ATOM     70  C   UNL A   1      38.360  30.382  30.760  1.00  0.00     0.023 A 
ATOM     71  C   UNL A   1      38.170  30.182  32.141  1.00  0.00     0.012 A 
ATOM     72  C   UNL A   1      37.405  31.118  30.029  1.00  0.00     0.148 A 
ATOM     73  C   UNL A   1      37.042  30.693  32.782  1.00  0.00     0.002 A 
ATOM     74  C   UNL A   1      36.303  31.659  30.681  1.00  0.00     0.091 A 
ATOM     75  F   UNL A   1      37.598  31.285  28.712  1.00  0.00    -0.205 F 
ATOM     76  C   UNL A   1      36.116  31.440  32.056  1.00  0.00     0.022 A 
BRANCH  74  77
ATOM     77  S   UNL A   1      35.099  32.705  29.853  1.00  0.00     0.127 S 
ATOM     78  O   UNL A   1      34.186  33.027  30.949  1.00  0.00    -0.237 OA
ATOM     79  O   UNL A   1      35.926  33.825  29.400  1.00  0.00    -0.237 OA
ATOM     80  O   UNL A   1      34.531  31.897  28.785  1.00  0.00    -0.744 OA
ENDBRANCH  74  77
ENDBRANCH  56  70
BRANCH  57  81
ATOM     81  C   UNL A   1      46.531  27.216  26.040  1.00  0.00     0.023 A 
ATOM     82  C   UNL A   1      46.573  27.443  24.651  1.00  0.00     0.012 A 
ATOM     83  C   UNL A   1      47.639  26.617  26.671  1.00  0.00     0.148 A 
ATOM     84  C   UNL A   1      47.690  27.067  23.904  1.00  0.00     0.002 A 
ATOM     85  C   UNL A   1      48.777  26.312  25.933  1.00  0.00     0.091 A 
ATOM     86  F   UNL A   1      47.571  26.374  27.988  1.00  0.00    -0.205 F 
ATOM     87  C   UNL A   1      48.798  26.518  24.547  1.00  0.00     0.022 A 
BRANCH  85  88
ATOM     88  S   UNL A   1      50.292  25.768  26.729  1.00  0.00     0.127 S 
ATOM     89  O   UNL A   1      50.487  26.800  27.743  1.00  0.00    -0.237 OA
ATOM     90  O   UNL A   1      49.915  24.454  27.252  1.00  0.00    -0.237 OA
ATOM     91  O   UNL A   1      51.282  25.718  25.661  1.00  0.00    -0.744 OA
ENDBRANCH  85  88
ENDBRANCH  57  81
BRANCH  69  92
ATOM     92  C   UNL A   1      44.861  33.119  29.350  1.00  0.00     0.023 A 
ATOM     93  C   UNL A   1      45.683  33.299  30.480  1.00  0.00     0.012 A 
ATOM     94  C   UNL A   1      44.773  34.141  28.386  1.00  0.00     0.148 A 
ATOM     95  C   UNL A   1      46.387  34.488  30.662  1.00  0.00     0.002 A 
ATOM     96  C   UNL A   1      45.509  35.309  28.555  1.00  0.00     0.091 A 
ATOM     97  F   UNL A   1      43.968  33.959  27.330  1.00  0.00    -0.205 F 
ATOM     98  C   UNL A   1      46.308  35.489  29.696  1.00  0.00     0.022 A 
BRANCH  96  99
ATOM     99  S   UNL A   1      45.531  36.616  27.321  1.00  0.00     0.127 S 
ATOM    100  O   UNL A   1      44.130  37.031  27.302  1.00  0.00    -0.237 OA
ATOM    101  O   UNL A   1      46.448  37.591  27.914  1.00  0.00    -0.237 OA
ATOM    102  O   UNL A   1      46.020  35.999  26.096  1.00  0.00    -0.744 OA
ENDBRANCH  96  99
ENDBRANCH  69  92
ENDBRANCH  43  44
ENDBRANCH  36  38
ENDBRANCH  35  36
ENDBRANCH  34  35
ENDBRANCH   1  34
TORSDOF 18
ENDMDL
