MODEL 1
REMARK VINA RESULT:     -11.7      0.000      0.000
REMARK SMILES CC[NH2+][C@]1(C(=O)OCCOC(=O)c2ccc(-c3c4nc(c(-c5cccc(S(=O)(=O)[O-])c5F)c5ccc([nH]5)c(-c5cccc(S(=O)(=O)[O-])c5F)c5nc(c(-c6cccc(S(=O)(=O)[O-])c6F)c6ccc3[nH]6)C=C5)C=C4)cc2)CCC[C@@H](n2cccn2)C1
REMARK SMILES IDX 9 1 8 2 7 3 5 4 6 5 4 6 76 7 85 8 77 9 79 10 78 11 3 12 2 15
REMARK SMILES IDX 1 16 80 17 81 18 84 19 82 20 83 21 10 22 11 23 12 24 13 25
REMARK SMILES IDX 14 26 75 27 15 28 74 29 16 30 17 31 18 32 68 33 19 34 73 35
REMARK SMILES IDX 67 36 69 37 20 38 72 39 66 40 65 41 21 43 53 44 33 45 52 46
REMARK SMILES IDX 34 47 37 48 51 49 70 50 35 51 36 52 50 54 71 55 38 56 22 57
REMARK SMILES IDX 23 58 31 59 24 60 26 61 32 62 25 63 27 64 28 65 29 66 30 67
REMARK SMILES IDX 54 68 55 69 63 70 56 71 58 72 64 73 57 74 59 75 60 76 61 77
REMARK SMILES IDX 62 78 39 79 40 80 48 81 41 82 43 83 49 84 42 85 44 86 45 87
REMARK SMILES IDX 46 88 47 89
REMARK H PARENT 3 13 3 14 69 42 37 53
REMARK Flexibility Score: inf
ROOT
ATOM      1  C   UNL A   1      32.237  29.996  25.960  1.00  0.00     0.275 C 
ENDROOT
BRANCH   1   2
ATOM      2  C   UNL A   1      33.390  29.225  25.329  1.00  0.00     0.274 C 
BRANCH   2   3
ATOM      3  O   UNL A   1      32.884  28.070  24.624  1.00  0.00    -0.457 OA
BRANCH   3   4
ATOM      4  C   UNL A   1      32.702  28.219  23.283  1.00  0.00     0.368 C 
ATOM      5  O   UNL A   1      33.567  28.616  22.508  1.00  0.00    -0.245 OA
BRANCH   4   6
ATOM      6  C   UNL A   1      31.226  27.955  22.851  1.00  0.00     0.196 C 
ATOM      7  C   UNL A   1      30.342  27.392  23.981  1.00  0.00     0.081 C 
ATOM      8  C   UNL A   1      30.656  29.328  22.430  1.00  0.00     0.108 C 
ATOM      9  C   UNL A   1      28.874  27.273  23.569  1.00  0.00     0.009 C 
ATOM     10  C   UNL A   1      29.172  29.281  22.023  1.00  0.00     0.114 C 
ATOM     11  C   UNL A   1      28.316  28.615  23.119  1.00  0.00     0.028 C 
BRANCH   6  12
ATOM     12  N   UNL A   1      31.225  27.086  21.625  1.00  0.00    -0.332 N 
ATOM     13  H   UNL A   1      30.256  26.910  21.360  1.00  0.00     0.347 HD
ATOM     14  H   UNL A   1      31.750  27.593  20.911  1.00  0.00     0.347 HD
BRANCH  12  15
ATOM     15  C   UNL A   1      31.898  25.789  21.795  1.00  0.00     0.257 C 
ATOM     16  C   UNL A   1      32.648  25.420  20.522  1.00  0.00     0.071 C 
ENDBRANCH  12  15
ENDBRANCH   6  12
BRANCH  10  17
ATOM     17  N   UNL A   1      28.705  30.628  21.676  1.00  0.00    -0.269 N 
ATOM     18  C   UNL A   1      28.766  31.739  22.478  1.00  0.00     0.109 A 
ATOM     19  N   UNL A   1      28.120  30.881  20.487  1.00  0.00    -0.181 NA
ATOM     20  C   UNL A   1      28.164  32.756  21.775  1.00  0.00     0.042 A 
ATOM     21  C   UNL A   1      27.798  32.173  20.552  1.00  0.00     0.135 A 
ENDBRANCH  10  17
ENDBRANCH   4   6
ENDBRANCH   3   4
ENDBRANCH   2   3
ENDBRANCH   1   2
BRANCH   1  22
ATOM     22  O   UNL A   1      32.617  30.371  27.292  1.00  0.00    -0.458 OA
BRANCH  22  23
ATOM     23  C   UNL A   1      33.320  31.517  27.394  1.00  0.00     0.338 C 
ATOM     24  O   UNL A   1      32.925  32.660  27.185  1.00  0.00    -0.246 OA
BRANCH  23  25
ATOM     25  C   UNL A   1      34.669  31.211  27.876  1.00  0.00     0.060 A 
ATOM     26  C   UNL A   1      34.954  29.921  28.328  1.00  0.00     0.016 A 
ATOM     27  C   UNL A   1      35.613  32.226  27.994  1.00  0.00     0.016 A 
ATOM     28  C   UNL A   1      36.146  29.665  28.998  1.00  0.00     0.010 A 
ATOM     29  C   UNL A   1      36.852  31.938  28.568  1.00  0.00     0.010 A 
ATOM     30  C   UNL A   1      37.117  30.666  29.113  1.00  0.00    -0.014 A 
BRANCH  30  31
ATOM     31  C   UNL A   1      38.409  30.423  29.809  1.00  0.00     0.031 A 
ATOM     32  C   UNL A   1      39.409  29.475  29.206  1.00  0.00     0.074 A 
ATOM     33  C   UNL A   1      38.657  30.983  31.009  1.00  0.00     0.049 A 
ATOM     34  N   UNL A   1      40.430  28.883  29.767  1.00  0.00    -0.248 NA
ATOM     35  C   UNL A   1      39.218  29.129  27.787  1.00  0.00     0.031 C 
ATOM     36  C   UNL A   1      37.793  31.945  31.692  1.00  0.00     0.029 A 
ATOM     37  N   UNL A   1      39.696  30.787  31.887  1.00  0.00    -0.354 N 
ATOM     38  C   UNL A   1      40.944  28.025  28.803  1.00  0.00     0.074 A 
ATOM     39  C   UNL A   1      40.143  28.197  27.610  1.00  0.00     0.031 C 
ATOM     40  C   UNL A   1      38.324  32.243  32.886  1.00  0.00     0.029 A 
ATOM     41  C   UNL A   1      39.516  31.428  33.090  1.00  0.00     0.049 A 
ATOM     42  H   UNL A   1      40.489  30.243  31.676  1.00  0.00     0.167 HD
ATOM     43  C   UNL A   1      41.988  27.168  28.907  1.00  0.00     0.034 A 
ATOM     44  C   UNL A   1      40.187  31.323  34.255  1.00  0.00     0.034 A 
ATOM     45  C   UNL A   1      42.829  27.065  30.067  1.00  0.00     0.049 A 
ATOM     46  C   UNL A   1      41.354  30.381  34.343  1.00  0.00     0.074 A 
ATOM     47  C   UNL A   1      43.944  26.267  30.256  1.00  0.00     0.029 A 
ATOM     48  N   UNL A   1      42.656  27.793  31.234  1.00  0.00    -0.354 N 
ATOM     49  N   UNL A   1      41.853  29.600  33.415  1.00  0.00    -0.248 NA
ATOM     50  C   UNL A   1      42.055  30.308  35.633  1.00  0.00     0.031 C 
ATOM     51  C   UNL A   1      44.443  26.511  31.539  1.00  0.00     0.029 A 
ATOM     52  C   UNL A   1      43.643  27.465  32.148  1.00  0.00     0.049 A 
ATOM     53  H   UNL A   1      41.938  28.447  31.391  1.00  0.00     0.167 HD
ATOM     54  C   UNL A   1      42.936  28.956  34.002  1.00  0.00     0.074 A 
ATOM     55  C   UNL A   1      43.034  29.456  35.359  1.00  0.00     0.031 C 
ATOM     56  C   UNL A   1      43.760  28.019  33.473  1.00  0.00     0.034 A 
BRANCH  43  57
ATOM     57  C   UNL A   1      42.286  26.284  27.727  1.00  0.00     0.023 A 
ATOM     58  C   UNL A   1      43.044  26.783  26.649  1.00  0.00     0.012 A 
ATOM     59  C   UNL A   1      41.848  24.946  27.704  1.00  0.00     0.148 A 
ATOM     60  C   UNL A   1      43.338  25.970  25.555  1.00  0.00     0.002 A 
ATOM     61  C   UNL A   1      42.176  24.131  26.626  1.00  0.00     0.091 A 
ATOM     62  F   UNL A   1      41.100  24.497  28.723  1.00  0.00    -0.205 F 
ATOM     63  C   UNL A   1      42.913  24.643  25.548  1.00  0.00     0.022 A 
BRANCH  61  64
ATOM     64  S   UNL A   1      41.721  22.393  26.578  1.00  0.00     0.127 S 
ATOM     65  O   UNL A   1      42.264  21.907  27.844  1.00  0.00    -0.237 OA
ATOM     66  O   UNL A   1      40.259  22.449  26.524  1.00  0.00    -0.237 OA
ATOM     67  O   UNL A   1      42.344  21.863  25.372  1.00  0.00    -0.744 OA
ENDBRANCH  61  64
ENDBRANCH  43  57
BRANCH  44  68
ATOM     68  C   UNL A   1      39.752  32.137  35.423  1.00  0.00     0.023 A 
ATOM     69  C   UNL A   1      40.080  33.504  35.473  1.00  0.00     0.012 A 
ATOM     70  C   UNL A   1      38.941  31.587  36.437  1.00  0.00     0.148 A 
ATOM     71  C   UNL A   1      39.614  34.309  36.514  1.00  0.00     0.002 A 
ATOM     72  C   UNL A   1      38.429  32.406  37.436  1.00  0.00     0.091 A 
ATOM     73  F   UNL A   1      38.657  30.277  36.384  1.00  0.00    -0.205 F 
ATOM     74  C   UNL A   1      38.776  33.764  37.484  1.00  0.00     0.022 A 
BRANCH  72  75
ATOM     75  S   UNL A   1      37.217  31.821  38.626  1.00  0.00     0.127 S 
ATOM     76  O   UNL A   1      36.080  32.695  38.353  1.00  0.00    -0.237 OA
ATOM     77  O   UNL A   1      37.035  30.427  38.217  1.00  0.00    -0.237 OA
ATOM     78  O   UNL A   1      37.845  31.981  39.932  1.00  0.00    -0.744 OA
ENDBRANCH  72  75
ENDBRANCH  44  68
BRANCH  56  79
ATOM     79  C   UNL A   1      44.861  27.485  34.346  1.00  0.00     0.023 A 
ATOM     80  C   UNL A   1      46.073  28.197  34.445  1.00  0.00     0.012 A 
ATOM     81  C   UNL A   1      44.664  26.337  35.136  1.00  0.00     0.148 A 
ATOM     82  C   UNL A   1      47.078  27.763  35.307  1.00  0.00     0.002 A 
ATOM     83  C   UNL A   1      45.655  25.933  36.022  1.00  0.00     0.091 A 
ATOM     84  F   UNL A   1      43.511  25.662  35.007  1.00  0.00    -0.205 F 
ATOM     85  C   UNL A   1      46.865  26.640  36.105  1.00  0.00     0.022 A 
BRANCH  83  86
ATOM     86  S   UNL A   1      45.424  24.549  37.145  1.00  0.00     0.127 S 
ATOM     87  O   UNL A   1      46.769  24.380  37.691  1.00  0.00    -0.237 OA
ATOM     88  O   UNL A   1      44.443  25.075  38.095  1.00  0.00    -0.237 OA
ATOM     89  O   UNL A   1      44.936  23.449  36.324  1.00  0.00    -0.744 OA
ENDBRANCH  83  86
ENDBRANCH  56  79
ENDBRANCH  30  31
ENDBRANCH  23  25
ENDBRANCH  22  23
ENDBRANCH   1  22
TORSDOF 17
ENDMDL
MODEL 2
REMARK VINA RESULT:     -11.5      5.506     10.019
REMARK SMILES CC[NH2+][C@]1(C(=O)OCCOC(=O)c2ccc(-c3c4nc(c(-c5cccc(S(=O)(=O)[O-])c5F)c5ccc([nH]5)c(-c5cccc(S(=O)(=O)[O-])c5F)c5nc(c(-c6cccc(S(=O)(=O)[O-])c6F)c6ccc3[nH]6)C=C5)C=C4)cc2)CCC[C@@H](n2cccn2)C1
REMARK SMILES IDX 9 1 8 2 7 3 5 4 6 5 4 6 76 7 85 8 77 9 79 10 78 11 3 12 2 15
REMARK SMILES IDX 1 16 80 17 81 18 84 19 82 20 83 21 10 22 11 23 12 24 13 25
REMARK SMILES IDX 14 26 75 27 15 28 74 29 16 30 17 31 18 32 68 33 19 34 73 35
REMARK SMILES IDX 67 36 69 37 20 38 72 39 66 40 65 41 21 43 53 44 33 45 52 46
REMARK SMILES IDX 34 47 37 48 51 49 70 50 35 51 36 52 50 54 71 55 38 56 22 57
REMARK SMILES IDX 23 58 31 59 24 60 26 61 32 62 25 63 27 64 28 65 29 66 30 67
REMARK SMILES IDX 54 68 55 69 63 70 56 71 58 72 64 73 57 74 59 75 60 76 61 77
REMARK SMILES IDX 62 78 39 79 40 80 48 81 41 82 43 83 49 84 42 85 44 86 45 87
REMARK SMILES IDX 46 88 47 89
REMARK H PARENT 3 13 3 14 69 42 37 53
REMARK Flexibility Score: inf
ROOT
ATOM      1  C   UNL A   1      36.012  20.730  24.943  1.00  0.00     0.275 C 
ENDROOT
BRANCH   1   2
ATOM      2  C   UNL A   1      34.611  21.319  24.842  1.00  0.00     0.274 C 
BRANCH   2   3
ATOM      3  O   UNL A   1      34.688  22.722  24.510  1.00  0.00    -0.457 OA
BRANCH   3   4
ATOM      4  C   UNL A   1      33.531  23.301  24.083  1.00  0.00     0.368 C 
ATOM      5  O   UNL A   1      32.958  23.013  23.036  1.00  0.00    -0.245 OA
BRANCH   4   6
ATOM      6  C   UNL A   1      33.076  24.471  25.011  1.00  0.00     0.196 C 
ATOM      7  C   UNL A   1      34.192  25.489  25.316  1.00  0.00     0.081 C 
ATOM      8  C   UNL A   1      31.950  25.204  24.247  1.00  0.00     0.108 C 
ATOM      9  C   UNL A   1      33.684  26.691  26.111  1.00  0.00     0.009 C 
ATOM     10  C   UNL A   1      31.408  26.440  24.985  1.00  0.00     0.114 C 
ATOM     11  C   UNL A   1      32.550  27.396  25.381  1.00  0.00     0.028 C 
BRANCH   6  12
ATOM     12  N   UNL A   1      32.458  23.895  26.253  1.00  0.00    -0.332 N 
ATOM     13  H   UNL A   1      33.203  23.492  26.822  1.00  0.00     0.347 HD
ATOM     14  H   UNL A   1      31.972  24.663  26.718  1.00  0.00     0.347 HD
BRANCH  12  15
ATOM     15  C   UNL A   1      31.451  22.852  26.008  1.00  0.00     0.257 C 
ATOM     16  C   UNL A   1      30.263  23.044  26.941  1.00  0.00     0.071 C 
ENDBRANCH  12  15
ENDBRANCH   6  12
BRANCH  10  17
ATOM     17  N   UNL A   1      30.373  27.093  24.175  1.00  0.00    -0.269 N 
ATOM     18  C   UNL A   1      30.519  28.249  23.452  1.00  0.00     0.109 A 
ATOM     19  N   UNL A   1      29.121  26.594  24.103  1.00  0.00    -0.181 NA
ATOM     20  C   UNL A   1      29.288  28.521  22.905  1.00  0.00     0.042 A 
ATOM     21  C   UNL A   1      28.470  27.462  23.329  1.00  0.00     0.135 A 
ENDBRANCH  10  17
ENDBRANCH   4   6
ENDBRANCH   3   4
ENDBRANCH   2   3
ENDBRANCH   1   2
BRANCH   1  22
ATOM     22  O   UNL A   1      36.924  21.785  25.285  1.00  0.00    -0.458 OA
BRANCH  22  23
ATOM     23  C   UNL A   1      38.164  21.389  25.636  1.00  0.00     0.338 C 
ATOM     24  O   UNL A   1      38.705  20.315  25.392  1.00  0.00    -0.246 OA
BRANCH  23  25
ATOM     25  C   UNL A   1      38.842  22.489  26.326  1.00  0.00     0.060 A 
ATOM     26  C   UNL A   1      38.407  23.798  26.110  1.00  0.00     0.016 A 
ATOM     27  C   UNL A   1      39.978  22.238  27.088  1.00  0.00     0.016 A 
ATOM     28  C   UNL A   1      39.169  24.869  26.565  1.00  0.00     0.010 A 
ATOM     29  C   UNL A   1      40.678  23.312  27.637  1.00  0.00     0.010 A 
ATOM     30  C   UNL A   1      40.306  24.640  27.350  1.00  0.00    -0.014 A 
BRANCH  30  31
ATOM     31  C   UNL A   1      41.135  25.762  27.867  1.00  0.00     0.031 A 
ATOM     32  C   UNL A   1      40.488  26.846  28.683  1.00  0.00     0.074 A 
ATOM     33  C   UNL A   1      42.440  25.854  27.547  1.00  0.00     0.049 A 
ATOM     34  N   UNL A   1      40.928  28.044  28.964  1.00  0.00    -0.248 NA
ATOM     35  C   UNL A   1      39.156  26.550  29.237  1.00  0.00     0.031 C 
ATOM     36  C   UNL A   1      43.202  24.859  26.792  1.00  0.00     0.029 A 
ATOM     37  N   UNL A   1      43.348  26.859  27.782  1.00  0.00    -0.354 N 
ATOM     38  C   UNL A   1      39.893  28.676  29.642  1.00  0.00     0.074 A 
ATOM     39  C   UNL A   1      38.814  27.719  29.760  1.00  0.00     0.031 C 
ATOM     40  C   UNL A   1      44.453  25.306  26.611  1.00  0.00     0.029 A 
ATOM     41  C   UNL A   1      44.555  26.655  27.157  1.00  0.00     0.049 A 
ATOM     42  H   UNL A   1      43.153  27.645  28.341  1.00  0.00     0.167 HD
ATOM     43  C   UNL A   1      39.847  29.943  30.118  1.00  0.00     0.034 A 
ATOM     44  C   UNL A   1      45.606  27.481  26.976  1.00  0.00     0.034 A 
ATOM     45  C   UNL A   1      40.953  30.860  30.070  1.00  0.00     0.049 A 
ATOM     46  C   UNL A   1      45.542  28.876  27.530  1.00  0.00     0.074 A 
ATOM     47  C   UNL A   1      41.027  32.148  30.571  1.00  0.00     0.029 A 
ATOM     48  N   UNL A   1      42.185  30.580  29.499  1.00  0.00    -0.354 N 
ATOM     49  N   UNL A   1      44.573  29.451  28.199  1.00  0.00    -0.248 NA
ATOM     50  C   UNL A   1      46.715  29.733  27.310  1.00  0.00     0.031 C 
ATOM     51  C   UNL A   1      42.305  32.648  30.298  1.00  0.00     0.029 A 
ATOM     52  C   UNL A   1      43.027  31.670  29.634  1.00  0.00     0.049 A 
ATOM     53  H   UNL A   1      42.425  29.733  29.060  1.00  0.00     0.167 HD
ATOM     54  C   UNL A   1      45.023  30.732  28.496  1.00  0.00     0.074 A 
ATOM     55  C   UNL A   1      46.364  30.839  27.954  1.00  0.00     0.031 C 
ATOM     56  C   UNL A   1      44.379  31.736  29.140  1.00  0.00     0.034 A 
BRANCH  43  57
ATOM     57  C   UNL A   1      38.561  30.407  30.746  1.00  0.00     0.023 A 
ATOM     58  C   UNL A   1      38.328  30.184  32.117  1.00  0.00     0.012 A 
ATOM     59  C   UNL A   1      37.599  31.099  29.984  1.00  0.00     0.148 A 
ATOM     60  C   UNL A   1      37.145  30.621  32.714  1.00  0.00     0.002 A 
ATOM     61  C   UNL A   1      36.439  31.562  30.594  1.00  0.00     0.091 A 
ATOM     62  F   UNL A   1      37.822  31.274  28.673  1.00  0.00    -0.205 F 
ATOM     63  C   UNL A   1      36.206  31.317  31.956  1.00  0.00     0.022 A 
BRANCH  61  64
ATOM     64  S   UNL A   1      35.215  32.525  29.698  1.00  0.00     0.127 S 
ATOM     65  O   UNL A   1      34.250  32.835  30.751  1.00  0.00    -0.237 OA
ATOM     66  O   UNL A   1      35.994  33.672  29.228  1.00  0.00    -0.237 OA
ATOM     67  O   UNL A   1      34.737  31.651  28.635  1.00  0.00    -0.744 OA
ENDBRANCH  61  64
ENDBRANCH  43  57
BRANCH  44  68
ATOM     68  C   UNL A   1      46.797  26.991  26.229  1.00  0.00     0.023 A 
ATOM     69  C   UNL A   1      46.891  27.227  24.846  1.00  0.00     0.012 A 
ATOM     70  C   UNL A   1      47.876  26.375  26.896  1.00  0.00     0.148 A 
ATOM     71  C   UNL A   1      48.033  26.851  24.137  1.00  0.00     0.002 A 
ATOM     72  C   UNL A   1      49.035  26.061  26.198  1.00  0.00     0.091 A 
ATOM     73  F   UNL A   1      47.760  26.139  28.212  1.00  0.00    -0.205 F 
ATOM     74  C   UNL A   1      49.110  26.286  24.815  1.00  0.00     0.022 A 
BRANCH  72  75
ATOM     75  S   UNL A   1      50.523  25.481  27.021  1.00  0.00     0.127 S 
ATOM     76  O   UNL A   1      50.806  26.579  27.940  1.00  0.00    -0.237 OA
ATOM     77  O   UNL A   1      50.057  24.248  27.659  1.00  0.00    -0.237 OA
ATOM     78  O   UNL A   1      51.499  25.270  25.960  1.00  0.00    -0.744 OA
ENDBRANCH  72  75
ENDBRANCH  44  68
BRANCH  56  79
ATOM     79  C   UNL A   1      45.116  33.034  29.322  1.00  0.00     0.023 A 
ATOM     80  C   UNL A   1      45.925  33.217  30.461  1.00  0.00     0.012 A 
ATOM     81  C   UNL A   1      45.080  34.029  28.327  1.00  0.00     0.148 A 
ATOM     82  C   UNL A   1      46.677  34.380  30.612  1.00  0.00     0.002 A 
ATOM     83  C   UNL A   1      45.862  35.169  28.467  1.00  0.00     0.091 A 
ATOM     84  F   UNL A   1      44.283  33.844  27.263  1.00  0.00    -0.205 F 
ATOM     85  C   UNL A   1      46.656  35.350  29.611  1.00  0.00     0.022 A 
BRANCH  83  86
ATOM     86  S   UNL A   1      45.958  36.424  27.184  1.00  0.00     0.127 S 
ATOM     87  O   UNL A   1      44.586  36.925  27.154  1.00  0.00    -0.237 OA
ATOM     88  O   UNL A   1      46.938  37.362  27.734  1.00  0.00    -0.237 OA
ATOM     89  O   UNL A   1      46.401  35.729  25.983  1.00  0.00    -0.744 OA
ENDBRANCH  83  86
ENDBRANCH  56  79
ENDBRANCH  30  31
ENDBRANCH  23  25
ENDBRANCH  22  23
ENDBRANCH   1  22
TORSDOF 17
ENDMDL
MODEL 3
REMARK VINA RESULT:     -11.4      2.416      4.097
REMARK SMILES CC[NH2+][C@]1(C(=O)OCCOC(=O)c2ccc(-c3c4nc(c(-c5cccc(S(=O)(=O)[O-])c5F)c5ccc([nH]5)c(-c5cccc(S(=O)(=O)[O-])c5F)c5nc(c(-c6cccc(S(=O)(=O)[O-])c6F)c6ccc3[nH]6)C=C5)C=C4)cc2)CCC[C@@H](n2cccn2)C1
REMARK SMILES IDX 9 1 8 2 7 3 5 4 6 5 4 6 76 7 85 8 77 9 79 10 78 11 3 12 2 15
REMARK SMILES IDX 1 16 80 17 81 18 84 19 82 20 83 21 10 22 11 23 12 24 13 25
REMARK SMILES IDX 14 26 75 27 15 28 74 29 16 30 17 31 18 32 68 33 19 34 73 35
REMARK SMILES IDX 67 36 69 37 20 38 72 39 66 40 65 41 21 43 53 44 33 45 52 46
REMARK SMILES IDX 34 47 37 48 51 49 70 50 35 51 36 52 50 54 71 55 38 56 22 57
REMARK SMILES IDX 23 58 31 59 24 60 26 61 32 62 25 63 27 64 28 65 29 66 30 67
REMARK SMILES IDX 54 68 55 69 63 70 56 71 58 72 64 73 57 74 59 75 60 76 61 77
REMARK SMILES IDX 62 78 39 79 40 80 48 81 41 82 43 83 49 84 42 85 44 86 45 87
REMARK SMILES IDX 46 88 47 89
REMARK H PARENT 3 13 3 14 69 42 37 53
REMARK Flexibility Score: inf
ROOT
ATOM      1  C   UNL A   1      31.973  29.936  25.387  1.00  0.00     0.275 C 
ENDROOT
BRANCH   1   2
ATOM      2  C   UNL A   1      31.572  28.498  25.085  1.00  0.00     0.274 C 
BRANCH   2   3
ATOM      3  O   UNL A   1      32.626  27.835  24.353  1.00  0.00    -0.457 OA
BRANCH   3   4
ATOM      4  C   UNL A   1      33.257  26.818  25.003  1.00  0.00     0.368 C 
ATOM      5  O   UNL A   1      34.031  26.972  25.943  1.00  0.00    -0.245 OA
BRANCH   4   6
ATOM      6  C   UNL A   1      32.992  25.432  24.335  1.00  0.00     0.196 C 
ATOM      7  C   UNL A   1      32.944  25.486  22.796  1.00  0.00     0.081 C 
ATOM      8  C   UNL A   1      34.174  24.529  24.750  1.00  0.00     0.108 C 
ATOM      9  C   UNL A   1      32.819  24.098  22.167  1.00  0.00     0.009 C 
ATOM     10  C   UNL A   1      34.120  23.120  24.132  1.00  0.00     0.114 C 
ATOM     11  C   UNL A   1      33.962  23.191  22.600  1.00  0.00     0.028 C 
BRANCH   6  12
ATOM     12  N   UNL A   1      31.751  24.833  24.934  1.00  0.00    -0.332 N 
ATOM     13  H   UNL A   1      30.963  25.440  24.709  1.00  0.00     0.347 HD
ATOM     14  H   UNL A   1      31.661  23.896  24.538  1.00  0.00     0.347 HD
BRANCH  12  15
ATOM     15  C   UNL A   1      31.798  24.664  26.395  1.00  0.00     0.257 C 
ATOM     16  C   UNL A   1      31.205  23.316  26.783  1.00  0.00     0.071 C 
ENDBRANCH  12  15
ENDBRANCH   6  12
BRANCH  10  17
ATOM     17  N   UNL A   1      35.296  22.346  24.548  1.00  0.00    -0.269 N 
ATOM     18  C   UNL A   1      36.572  22.825  24.694  1.00  0.00     0.109 A 
ATOM     19  N   UNL A   1      35.209  21.023  24.799  1.00  0.00    -0.181 NA
ATOM     20  C   UNL A   1      37.353  21.747  25.036  1.00  0.00     0.042 A 
ATOM     21  C   UNL A   1      36.458  20.667  25.098  1.00  0.00     0.135 A 
ENDBRANCH  10  17
ENDBRANCH   4   6
ENDBRANCH   3   4
ENDBRANCH   2   3
ENDBRANCH   1   2
BRANCH   1  22
ATOM     22  O   UNL A   1      32.462  29.997  26.736  1.00  0.00    -0.458 OA
BRANCH  22  23
ATOM     23  C   UNL A   1      32.980  31.184  27.112  1.00  0.00     0.338 C 
ATOM     24  O   UNL A   1      32.425  32.278  27.113  1.00  0.00    -0.246 OA
BRANCH  23  25
ATOM     25  C   UNL A   1      34.343  30.976  27.608  1.00  0.00     0.060 A 
ATOM     26  C   UNL A   1      34.753  29.687  27.951  1.00  0.00     0.016 A 
ATOM     27  C   UNL A   1      35.171  32.068  27.846  1.00  0.00     0.016 A 
ATOM     28  C   UNL A   1      35.949  29.494  28.634  1.00  0.00     0.010 A 
ATOM     29  C   UNL A   1      36.419  31.858  28.432  1.00  0.00     0.010 A 
ATOM     30  C   UNL A   1      36.806  30.576  28.869  1.00  0.00    -0.014 A 
BRANCH  30  31
ATOM     31  C   UNL A   1      38.100  30.405  29.582  1.00  0.00     0.031 A 
ATOM     32  C   UNL A   1      39.167  29.531  28.982  1.00  0.00     0.074 A 
ATOM     33  C   UNL A   1      38.295  30.963  30.792  1.00  0.00     0.049 A 
ATOM     34  N   UNL A   1      40.215  28.997  29.551  1.00  0.00    -0.248 NA
ATOM     35  C   UNL A   1      39.019  29.194  27.556  1.00  0.00     0.031 C 
ATOM     36  C   UNL A   1      37.362  31.858  31.476  1.00  0.00     0.029 A 
ATOM     37  N   UNL A   1      39.332  30.820  31.684  1.00  0.00    -0.354 N 
ATOM     38  C   UNL A   1      40.797  28.187  28.583  1.00  0.00     0.074 A 
ATOM     39  C   UNL A   1      40.004  28.324  27.380  1.00  0.00     0.031 C 
ATOM     40  C   UNL A   1      37.855  32.172  32.681  1.00  0.00     0.029 A 
ATOM     41  C   UNL A   1      39.094  31.431  32.893  1.00  0.00     0.049 A 
ATOM     42  H   UNL A   1      40.161  30.330  31.478  1.00  0.00     0.167 HD
ATOM     43  C   UNL A   1      41.891  27.396  28.691  1.00  0.00     0.034 A 
ATOM     44  C   UNL A   1      39.753  31.351  34.066  1.00  0.00     0.034 A 
ATOM     45  C   UNL A   1      42.720  27.329  29.864  1.00  0.00     0.049 A 
ATOM     46  C   UNL A   1      40.976  30.484  34.160  1.00  0.00     0.074 A 
ATOM     47  C   UNL A   1      43.880  26.600  30.058  1.00  0.00     0.029 A 
ATOM     48  N   UNL A   1      42.484  28.029  31.038  1.00  0.00    -0.354 N 
ATOM     49  N   UNL A   1      41.536  29.750  33.230  1.00  0.00    -0.248 NA
ATOM     50  C   UNL A   1      41.661  30.438  35.459  1.00  0.00     0.031 C 
ATOM     51  C   UNL A   1      44.344  26.858  31.353  1.00  0.00     0.029 A 
ATOM     52  C   UNL A   1      43.477  27.751  31.961  1.00  0.00     0.049 A 
ATOM     53  H   UNL A   1      41.723  28.633  31.192  1.00  0.00     0.167 HD
ATOM     54  C   UNL A   1      42.649  29.167  33.824  1.00  0.00     0.074 A 
ATOM     55  C   UNL A   1      42.696  29.653  35.189  1.00  0.00     0.031 C 
ATOM     56  C   UNL A   1      43.539  28.291  33.295  1.00  0.00     0.034 A 
BRANCH  43  57
ATOM     57  C   UNL A   1      42.262  26.550  27.505  1.00  0.00     0.023 A 
ATOM     58  C   UNL A   1      42.992  27.114  26.441  1.00  0.00     0.012 A 
ATOM     59  C   UNL A   1      41.920  25.184  27.463  1.00  0.00     0.148 A 
ATOM     60  C   UNL A   1      43.353  26.336  25.340  1.00  0.00     0.002 A 
ATOM     61  C   UNL A   1      42.314  24.408  26.379  1.00  0.00     0.091 A 
ATOM     62  F   UNL A   1      41.197  24.671  28.469  1.00  0.00    -0.205 F 
ATOM     63  C   UNL A   1      43.023  24.983  25.313  1.00  0.00     0.022 A 
BRANCH  61  64
ATOM     64  S   UNL A   1      41.984  22.642  26.306  1.00  0.00     0.127 S 
ATOM     65  O   UNL A   1      42.601  22.276  25.033  1.00  0.00    -0.237 OA
ATOM     66  O   UNL A   1      42.684  22.139  27.489  1.00  0.00    -0.237 OA
ATOM     67  O   UNL A   1      40.534  22.516  26.370  1.00  0.00    -0.744 OA
ENDBRANCH  61  64
ENDBRANCH  43  57
BRANCH  44  68
ATOM     68  C   UNL A   1      39.250  32.120  35.238  1.00  0.00     0.023 A 
ATOM     69  C   UNL A   1      38.409  31.487  36.171  1.00  0.00     0.012 A 
ATOM     70  C   UNL A   1      39.670  33.445  35.479  1.00  0.00     0.148 A 
ATOM     71  C   UNL A   1      37.990  32.159  37.320  1.00  0.00     0.002 A 
ATOM     72  C   UNL A   1      39.301  34.086  36.655  1.00  0.00     0.091 A 
ATOM     73  F   UNL A   1      40.454  34.039  34.567  1.00  0.00    -0.205 F 
ATOM     74  C   UNL A   1      38.450  33.450  37.570  1.00  0.00     0.022 A 
BRANCH  72  75
ATOM     75  S   UNL A   1      39.977  35.682  37.129  1.00  0.00     0.127 S 
ATOM     76  O   UNL A   1      39.270  35.950  38.377  1.00  0.00    -0.237 OA
ATOM     77  O   UNL A   1      41.401  35.377  37.281  1.00  0.00    -0.237 OA
ATOM     78  O   UNL A   1      39.675  36.578  36.019  1.00  0.00    -0.744 OA
ENDBRANCH  72  75
ENDBRANCH  44  68
BRANCH  56  79
ATOM     79  C   UNL A   1      44.659  27.816  34.179  1.00  0.00     0.023 A 
ATOM     80  C   UNL A   1      45.837  28.581  34.275  1.00  0.00     0.012 A 
ATOM     81  C   UNL A   1      44.509  26.668  34.979  1.00  0.00     0.148 A 
ATOM     82  C   UNL A   1      46.857  28.201  35.146  1.00  0.00     0.002 A 
ATOM     83  C   UNL A   1      45.513  26.317  35.873  1.00  0.00     0.091 A 
ATOM     84  F   UNL A   1      43.387  25.941  34.853  1.00  0.00    -0.205 F 
ATOM     85  C   UNL A   1      46.690  27.078  35.954  1.00  0.00     0.022 A 
BRANCH  83  86
ATOM     86  S   UNL A   1      45.339  24.935  37.009  1.00  0.00     0.127 S 
ATOM     87  O   UNL A   1      45.028  23.836  36.097  1.00  0.00    -0.237 OA
ATOM     88  O   UNL A   1      46.666  24.862  37.621  1.00  0.00    -0.237 OA
ATOM     89  O   UNL A   1      44.273  25.309  37.928  1.00  0.00    -0.744 OA
ENDBRANCH  83  86
ENDBRANCH  56  79
ENDBRANCH  30  31
ENDBRANCH  23  25
ENDBRANCH  22  23
ENDBRANCH   1  22
TORSDOF 17
ENDMDL
