MODEL 1
REMARK VINA RESULT:     -12.9      0.000      0.000
REMARK SMILES O=C(OCCOC(=O)[C@H]1O[C@@H](Oc2c(-c3cc(O)c(O)c(O)c3)oc3cc(O)cc(O)c3c2=O)[C@H](O)[C@@H](O)[C@@H]1O)c1ccc(-c2c3nc(c(-c4cccc(S(=O)(=O)[O-])c4F)c4ccc([nH]4)c(-c4cccc(S(=O)(=O)[O-])c4F)c4nc(c(-c5cccc(S(=O)(=O)[O-])c5F)c5ccc2[nH]5)C=C4)C=C3)cc1
REMARK SMILES IDX 5 1 4 2 3 3 2 4 1 5 41 6 42 7 103 8 43 9 102 10 44 11 45 12
REMARK SMILES IDX 46 13 96 14 47 15 101 16 95 17 97 18 48 19 100 20 94 21
REMARK SMILES IDX 93 22 49 24 81 25 61 26 80 27 62 28 65 29 79 30 98 31 63 32
REMARK SMILES IDX 64 33 78 35 99 36 66 37 50 38 51 39 59 40 52 41 54 42 60 43
REMARK SMILES IDX 53 44 55 45 56 46 57 47 58 48 82 49 83 50 91 51 84 52 86 53
REMARK SMILES IDX 92 54 85 55 87 56 88 57 89 58 90 59 67 60 68 61 76 62 69 63
REMARK SMILES IDX 71 64 77 65 70 66 72 67 73 68 74 69 75 70 6 71 7 72 8 73
REMARK SMILES IDX 9 74 10 75 39 76 11 77 37 78 35 79 40 80 12 82 13 83 14 84
REMARK SMILES IDX 33 85 24 86 32 87 34 88 25 89 30 90 26 91 29 92 27 93 15 94
REMARK SMILES IDX 16 95 23 96 17 97 21 98 19 99 18 100 22 102 20 104 31 106
REMARK SMILES IDX 28 108 38 110 36 112
REMARK H PARENT 97 23 65 34 40 81 18 101 22 103 20 105 31 107 28 109 38 111
REMARK H PARENT 36 113
REMARK Flexibility Score: inf
ROOT
ATOM      1  C   UNL A   1      35.411  22.296  24.907  1.00  0.00     0.274 C 
ENDROOT
BRANCH   1   2
ATOM      2  C   UNL A   1      36.813  21.758  24.621  1.00  0.00     0.275 C 
BRANCH   2   3
ATOM      3  O   UNL A   1      37.552  21.390  25.797  1.00  0.00    -0.458 OA
BRANCH   3   4
ATOM      4  C   UNL A   1      38.878  21.530  26.043  1.00  0.00     0.338 C 
ATOM      5  O   UNL A   1      39.602  20.538  25.968  1.00  0.00    -0.246 OA
BRANCH   4   6
ATOM      6  C   UNL A   1      39.484  22.806  26.545  1.00  0.00     0.060 A 
ATOM      7  C   UNL A   1      39.135  24.101  26.161  1.00  0.00     0.016 A 
ATOM      8  C   UNL A   1      40.501  22.669  27.503  1.00  0.00     0.016 A 
ATOM      9  C   UNL A   1      39.711  25.215  26.777  1.00  0.00     0.010 A 
ATOM     10  C   UNL A   1      41.030  23.776  28.170  1.00  0.00     0.010 A 
ATOM     11  C   UNL A   1      40.654  25.067  27.796  1.00  0.00    -0.014 A 
BRANCH  11  12
ATOM     12  C   UNL A   1      41.352  26.269  28.312  1.00  0.00     0.031 A 
ATOM     13  C   UNL A   1      42.769  26.517  27.871  1.00  0.00     0.074 A 
ATOM     14  C   UNL A   1      40.698  27.175  29.070  1.00  0.00     0.049 A 
ATOM     15  N   UNL A   1      43.502  27.589  28.019  1.00  0.00    -0.248 NA
ATOM     16  C   UNL A   1      43.457  25.420  27.166  1.00  0.00     0.031 C 
ATOM     17  C   UNL A   1      39.339  27.025  29.599  1.00  0.00     0.029 A 
ATOM     18  N   UNL A   1      41.084  28.417  29.510  1.00  0.00    -0.354 N 
ATOM     19  C   UNL A   1      44.720  27.293  27.421  1.00  0.00     0.074 A 
ATOM     20  C   UNL A   1      44.666  25.921  26.985  1.00  0.00     0.031 C 
ATOM     21  C   UNL A   1      39.001  28.137  30.273  1.00  0.00     0.029 A 
ATOM     22  C   UNL A   1      40.112  29.083  30.222  1.00  0.00     0.049 A 
ATOM     23  H   UNL A   1      41.975  28.796  29.332  1.00  0.00     0.167 HD
ATOM     24  C   UNL A   1      45.775  28.106  27.193  1.00  0.00     0.034 A 
ATOM     25  C   UNL A   1      40.115  30.326  30.747  1.00  0.00     0.034 A 
ATOM     26  C   UNL A   1      45.828  29.472  27.616  1.00  0.00     0.049 A 
ATOM     27  C   UNL A   1      41.311  31.209  30.494  1.00  0.00     0.074 A 
ATOM     28  C   UNL A   1      46.843  30.391  27.441  1.00  0.00     0.029 A 
ATOM     29  N   UNL A   1      44.814  30.112  28.314  1.00  0.00    -0.354 N 
ATOM     30  N   UNL A   1      42.396  30.953  29.801  1.00  0.00    -0.248 NA
ATOM     31  C   UNL A   1      41.264  32.570  31.049  1.00  0.00     0.031 C 
ATOM     32  C   UNL A   1      46.453  31.584  28.057  1.00  0.00     0.029 A 
ATOM     33  C   UNL A   1      45.180  31.416  28.582  1.00  0.00     0.049 A 
ATOM     34  H   UNL A   1      43.962  29.697  28.579  1.00  0.00     0.167 HD
ATOM     35  C   UNL A   1      43.141  32.127  29.810  1.00  0.00     0.074 A 
ATOM     36  C   UNL A   1      42.368  33.105  30.547  1.00  0.00     0.031 C 
ATOM     37  C   UNL A   1      44.363  32.376  29.277  1.00  0.00     0.034 A 
BRANCH  24  38
ATOM     38  C   UNL A   1      46.924  27.524  26.415  1.00  0.00     0.023 A 
ATOM     39  C   UNL A   1      46.928  27.621  25.006  1.00  0.00     0.012 A 
ATOM     40  C   UNL A   1      47.982  26.867  27.067  1.00  0.00     0.148 A 
ATOM     41  C   UNL A   1      47.942  27.031  24.256  1.00  0.00     0.002 A 
ATOM     42  C   UNL A   1      49.015  26.322  26.314  1.00  0.00     0.091 A 
ATOM     43  F   UNL A   1      47.945  26.765  28.402  1.00  0.00    -0.205 F 
ATOM     44  C   UNL A   1      48.989  26.387  24.911  1.00  0.00     0.022 A 
BRANCH  42  45
ATOM     45  S   UNL A   1      50.441  25.526  27.058  1.00  0.00     0.127 S 
ATOM     46  O   UNL A   1      50.902  26.554  27.989  1.00  0.00    -0.237 OA
ATOM     47  O   UNL A   1      49.835  24.355  27.693  1.00  0.00    -0.237 OA
ATOM     48  O   UNL A   1      51.355  25.226  25.965  1.00  0.00    -0.744 OA
ENDBRANCH  42  45
ENDBRANCH  24  38
BRANCH  25  49
ATOM     49  C   UNL A   1      38.945  30.833  31.525  1.00  0.00     0.023 A 
ATOM     50  C   UNL A   1      38.745  30.428  32.861  1.00  0.00     0.012 A 
ATOM     51  C   UNL A   1      38.000  31.688  30.925  1.00  0.00     0.148 A 
ATOM     52  C   UNL A   1      37.603  30.821  33.563  1.00  0.00     0.002 A 
ATOM     53  C   UNL A   1      36.891  32.117  31.646  1.00  0.00     0.091 A 
ATOM     54  F   UNL A   1      38.198  32.056  29.651  1.00  0.00    -0.205 F 
ATOM     55  C   UNL A   1      36.679  31.669  32.959  1.00  0.00     0.022 A 
BRANCH  53  56
ATOM     56  S   UNL A   1      35.711  33.291  30.973  1.00  0.00     0.127 S 
ATOM     57  O   UNL A   1      34.459  32.548  31.077  1.00  0.00    -0.237 OA
ATOM     58  O   UNL A   1      35.840  34.416  31.901  1.00  0.00    -0.237 OA
ATOM     59  O   UNL A   1      36.176  33.571  29.620  1.00  0.00    -0.744 OA
ENDBRANCH  53  56
ENDBRANCH  25  49
BRANCH  37  60
ATOM     60  C   UNL A   1      44.923  33.763  29.438  1.00  0.00     0.023 A 
ATOM     61  C   UNL A   1      45.593  34.116  30.626  1.00  0.00     0.012 A 
ATOM     62  C   UNL A   1      44.856  34.687  28.377  1.00  0.00     0.148 A 
ATOM     63  C   UNL A   1      46.153  35.385  30.770  1.00  0.00     0.002 A 
ATOM     64  C   UNL A   1      45.466  35.927  28.507  1.00  0.00     0.091 A 
ATOM     65  F   UNL A   1      44.198  34.335  27.263  1.00  0.00    -0.205 F 
ATOM     66  C   UNL A   1      46.102  36.283  29.707  1.00  0.00     0.022 A 
BRANCH  64  67
ATOM     67  S   UNL A   1      45.547  37.100  27.150  1.00  0.00     0.127 S 
ATOM     68  O   UNL A   1      44.138  37.449  26.975  1.00  0.00    -0.237 OA
ATOM     69  O   UNL A   1      46.376  38.167  27.711  1.00  0.00    -0.237 OA
ATOM     70  O   UNL A   1      46.157  36.385  26.037  1.00  0.00    -0.744 OA
ENDBRANCH  64  67
ENDBRANCH  37  60
ENDBRANCH  11  12
ENDBRANCH   4   6
ENDBRANCH   3   4
ENDBRANCH   2   3
ENDBRANCH   1   2
BRANCH   1  71
ATOM     71  O   UNL A   1      34.379  21.356  24.586  1.00  0.00    -0.460 OA
BRANCH  71  72
ATOM     72  C   UNL A   1      33.201  21.874  24.104  1.00  0.00     0.338 C 
ATOM     73  O   UNL A   1      32.638  21.503  23.087  1.00  0.00    -0.249 OA
BRANCH  72  74
ATOM     74  C   UNL A   1      32.736  23.015  25.008  1.00  0.00     0.263 C 
ATOM     75  O   UNL A   1      32.882  24.259  24.340  1.00  0.00    -0.322 OA
ATOM     76  C   UNL A   1      31.266  22.884  25.370  1.00  0.00     0.186 C 
ATOM     77  C   UNL A   1      32.553  25.422  25.106  1.00  0.00     0.340 C 
ATOM     78  C   UNL A   1      31.052  23.847  26.536  1.00  0.00     0.181 C 
ATOM     79  C   UNL A   1      31.344  25.276  26.090  1.00  0.00     0.214 C 
BRANCH  76  80
ATOM     80  O   UNL A   1      30.848  21.584  25.743  1.00  0.00    -0.387 OA
ATOM     81  H   UNL A   1      30.734  21.544  26.705  1.00  0.00     0.211 HD
ENDBRANCH  76  80
BRANCH  77  82
ATOM     82  O   UNL A   1      32.258  26.562  24.251  1.00  0.00    -0.454 OA
BRANCH  82  83
ATOM     83  C   UNL A   1      32.385  27.801  24.874  1.00  0.00     0.214 A 
ATOM     84  C   UNL A   1      31.430  28.758  24.845  1.00  0.00     0.181 A 
ATOM     85  C   UNL A   1      33.624  28.068  25.675  1.00  0.00     0.239 A 
ATOM     86  O   UNL A   1      31.552  30.010  25.408  1.00  0.00    -0.452 OA
ATOM     87  C   UNL A   1      33.696  29.376  26.372  1.00  0.00     0.111 A 
ATOM     88  O   UNL A   1      34.522  27.237  25.743  1.00  0.00    -0.285 OA
ATOM     89  C   UNL A   1      32.652  30.281  26.176  1.00  0.00     0.146 A 
ATOM     90  C   UNL A   1      34.750  29.743  27.225  1.00  0.00     0.134 A 
ATOM     91  C   UNL A   1      32.663  31.535  26.789  1.00  0.00     0.094 A 
ATOM     92  C   UNL A   1      34.756  30.991  27.860  1.00  0.00     0.093 A 
ATOM     93  C   UNL A   1      33.709  31.878  27.632  1.00  0.00     0.123 A 
BRANCH  84  94
ATOM     94  C   UNL A   1      30.179  28.612  24.076  1.00  0.00     0.029 A 
ATOM     95  C   UNL A   1      29.494  27.384  24.128  1.00  0.00     0.062 A 
ATOM     96  C   UNL A   1      29.579  29.713  23.440  1.00  0.00     0.062 A 
ATOM     97  C   UNL A   1      28.182  27.309  23.672  1.00  0.00     0.162 A 
ATOM     98  C   UNL A   1      28.272  29.609  22.969  1.00  0.00     0.162 A 
ATOM     99  C   UNL A   1      27.564  28.424  23.120  1.00  0.00     0.200 A 
BRANCH  97 100
ATOM    100  O   UNL A   1      27.478  26.160  23.890  1.00  0.00    -0.504 OA
ATOM    101  H   UNL A   1      27.625  25.662  24.671  1.00  0.00     0.293 HD
ENDBRANCH  97 100
BRANCH  98 102
ATOM    102  O   UNL A   1      27.676  30.717  22.446  1.00  0.00    -0.504 OA
ATOM    103  H   UNL A   1      27.509  31.461  22.992  1.00  0.00     0.293 HD
ENDBRANCH  98 102
BRANCH  99 104
ATOM    104  O   UNL A   1      26.230  28.381  22.819  1.00  0.00    -0.502 OA
ATOM    105  H   UNL A   1      25.625  28.921  23.290  1.00  0.00     0.293 HD
ENDBRANCH  99 104
ENDBRANCH  84  94
BRANCH  90 106
ATOM    106  O   UNL A   1      35.786  28.888  27.466  1.00  0.00    -0.507 OA
ATOM    107  H   UNL A   1      36.124  28.354  26.773  1.00  0.00     0.293 HD
ENDBRANCH  90 106
BRANCH  93 108
ATOM    108  O   UNL A   1      33.666  33.101  28.231  1.00  0.00    -0.508 OA
ATOM    109  H   UNL A   1      34.462  33.561  28.417  1.00  0.00     0.293 HD
ENDBRANCH  93 108
ENDBRANCH  82  83
ENDBRANCH  77  82
BRANCH  78 110
ATOM    110  O   UNL A   1      29.710  23.669  27.033  1.00  0.00    -0.387 OA
ATOM    111  H   UNL A   1      29.461  22.734  26.967  1.00  0.00     0.211 HD
ENDBRANCH  78 110
BRANCH  79 112
ATOM    112  O   UNL A   1      31.418  26.118  27.248  1.00  0.00    -0.384 OA
ATOM    113  H   UNL A   1      32.215  25.900  27.756  1.00  0.00     0.211 HD
ENDBRANCH  79 112
ENDBRANCH  72  74
ENDBRANCH  71  72
ENDBRANCH   1  71
TORSDOF 25
ENDMDL
MODEL 2
REMARK VINA RESULT:     -12.0      6.125     16.361
REMARK SMILES O=C(OCCOC(=O)[C@H]1O[C@@H](Oc2c(-c3cc(O)c(O)c(O)c3)oc3cc(O)cc(O)c3c2=O)[C@H](O)[C@@H](O)[C@@H]1O)c1ccc(-c2c3nc(c(-c4cccc(S(=O)(=O)[O-])c4F)c4ccc([nH]4)c(-c4cccc(S(=O)(=O)[O-])c4F)c4nc(c(-c5cccc(S(=O)(=O)[O-])c5F)c5ccc2[nH]5)C=C4)C=C3)cc1
REMARK SMILES IDX 5 1 4 2 3 3 2 4 1 5 41 6 42 7 103 8 43 9 102 10 44 11 45 12
REMARK SMILES IDX 46 13 96 14 47 15 101 16 95 17 97 18 48 19 100 20 94 21
REMARK SMILES IDX 93 22 49 24 81 25 61 26 80 27 62 28 65 29 79 30 98 31 63 32
REMARK SMILES IDX 64 33 78 35 99 36 66 37 50 38 51 39 59 40 52 41 54 42 60 43
REMARK SMILES IDX 53 44 55 45 56 46 57 47 58 48 82 49 83 50 91 51 84 52 86 53
REMARK SMILES IDX 92 54 85 55 87 56 88 57 89 58 90 59 67 60 68 61 76 62 69 63
REMARK SMILES IDX 71 64 77 65 70 66 72 67 73 68 74 69 75 70 6 71 7 72 8 73
REMARK SMILES IDX 9 74 10 75 39 76 11 77 37 78 35 79 40 80 12 82 13 83 14 84
REMARK SMILES IDX 33 85 24 86 32 87 34 88 25 89 30 90 26 91 29 92 27 93 15 94
REMARK SMILES IDX 16 95 23 96 17 97 21 98 19 99 18 100 22 102 20 104 31 106
REMARK SMILES IDX 28 108 38 110 36 112
REMARK H PARENT 97 23 65 34 40 81 18 101 22 103 20 105 31 107 28 109 38 111
REMARK H PARENT 36 113
REMARK Flexibility Score: inf
ROOT
ATOM      1  C   UNL A   1      46.186  39.191  25.545  1.00  0.00     0.274 C 
ENDROOT
BRANCH   1   2
ATOM      2  C   UNL A   1      47.214  38.605  26.512  1.00  0.00     0.275 C 
BRANCH   2   3
ATOM      3  O   UNL A   1      46.663  38.186  27.771  1.00  0.00    -0.458 OA
BRANCH   3   4
ATOM      4  C   UNL A   1      45.415  37.727  28.040  1.00  0.00     0.338 C 
ATOM      5  O   UNL A   1      44.521  38.542  28.265  1.00  0.00    -0.246 OA
BRANCH   4   6
ATOM      6  C   UNL A   1      45.102  36.272  28.220  1.00  0.00     0.060 A 
ATOM      7  C   UNL A   1      45.524  35.453  29.267  1.00  0.00     0.016 A 
ATOM      8  C   UNL A   1      44.296  35.690  27.229  1.00  0.00     0.016 A 
ATOM      9  C   UNL A   1      45.083  34.131  29.371  1.00  0.00     0.010 A 
ATOM     10  C   UNL A   1      43.796  34.392  27.364  1.00  0.00     0.010 A 
ATOM     11  C   UNL A   1      44.205  33.590  28.431  1.00  0.00    -0.014 A 
BRANCH  11  12
ATOM     12  C   UNL A   1      43.886  32.143  28.491  1.00  0.00     0.031 A 
ATOM     13  C   UNL A   1      42.604  31.721  29.157  1.00  0.00     0.074 A 
ATOM     14  C   UNL A   1      44.670  31.237  27.870  1.00  0.00     0.049 A 
ATOM     15  N   UNL A   1      42.018  30.553  29.150  1.00  0.00    -0.248 NA
ATOM     16  C   UNL A   1      41.879  32.745  29.932  1.00  0.00     0.031 C 
ATOM     17  C   UNL A   1      45.958  31.517  27.230  1.00  0.00     0.029 A 
ATOM     18  N   UNL A   1      44.484  29.894  27.654  1.00  0.00    -0.354 N 
ATOM     19  C   UNL A   1      40.863  30.711  29.905  1.00  0.00     0.074 A 
ATOM     20  C   UNL A   1      40.869  32.053  30.428  1.00  0.00     0.031 C 
ATOM     21  C   UNL A   1      46.435  30.388  26.679  1.00  0.00     0.029 A 
ATOM     22  C   UNL A   1      45.488  29.303  26.919  1.00  0.00     0.049 A 
ATOM     23  H   UNL A   1      43.704  29.398  27.994  1.00  0.00     0.167 HD
ATOM     24  C   UNL A   1      39.849  29.840  30.099  1.00  0.00     0.034 A 
ATOM     25  C   UNL A   1      45.609  28.036  26.471  1.00  0.00     0.034 A 
ATOM     26  C   UNL A   1      39.837  28.509  29.573  1.00  0.00     0.049 A 
ATOM     27  C   UNL A   1      44.471  27.077  26.715  1.00  0.00     0.074 A 
ATOM     28  C   UNL A   1      38.864  27.538  29.704  1.00  0.00     0.029 A 
ATOM     29  N   UNL A   1      40.861  27.960  28.817  1.00  0.00    -0.354 N 
ATOM     30  N   UNL A   1      43.322  27.291  27.311  1.00  0.00    -0.248 NA
ATOM     31  C   UNL A   1      44.622  25.716  26.180  1.00  0.00     0.031 C 
ATOM     32  C   UNL A   1      39.313  26.388  29.046  1.00  0.00     0.029 A 
ATOM     33  C   UNL A   1      40.547  26.659  28.476  1.00  0.00     0.049 A 
ATOM     34  H   UNL A   1      41.689  28.428  28.562  1.00  0.00     0.167 HD
ATOM     35  C   UNL A   1      42.603  26.107  27.195  1.00  0.00     0.074 A 
ATOM     36  C   UNL A   1      43.432  25.190  26.440  1.00  0.00     0.031 C 
ATOM     37  C   UNL A   1      41.377  25.791  27.680  1.00  0.00     0.034 A 
BRANCH  24  38
ATOM     38  C   UNL A   1      38.665  30.340  30.883  1.00  0.00     0.023 A 
ATOM     39  C   UNL A   1      38.552  30.015  32.252  1.00  0.00     0.012 A 
ATOM     40  C   UNL A   1      37.660  31.105  30.267  1.00  0.00     0.148 A 
ATOM     41  C   UNL A   1      37.433  30.404  32.985  1.00  0.00     0.002 A 
ATOM     42  C   UNL A   1      36.570  31.530  31.016  1.00  0.00     0.091 A 
ATOM     43  F   UNL A   1      37.776  31.380  28.961  1.00  0.00    -0.205 F 
ATOM     44  C   UNL A   1      36.445  31.167  32.368  1.00  0.00     0.022 A 
BRANCH  42  45
ATOM     45  S   UNL A   1      35.272  32.568  30.337  1.00  0.00     0.127 S 
ATOM     46  O   UNL A   1      34.337  32.645  31.458  1.00  0.00    -0.237 OA
ATOM     47  O   UNL A   1      35.994  33.808  30.057  1.00  0.00    -0.237 OA
ATOM     48  O   UNL A   1      34.770  31.871  29.160  1.00  0.00    -0.744 OA
ENDBRANCH  42  45
ENDBRANCH  24  38
BRANCH  25  49
ATOM     49  C   UNL A   1      46.821  27.602  25.714  1.00  0.00     0.023 A 
ATOM     50  C   UNL A   1      46.883  27.759  24.313  1.00  0.00     0.012 A 
ATOM     51  C   UNL A   1      47.902  26.990  26.377  1.00  0.00     0.148 A 
ATOM     52  C   UNL A   1      47.971  27.269  23.587  1.00  0.00     0.002 A 
ATOM     53  C   UNL A   1      49.005  26.550  25.654  1.00  0.00     0.091 A 
ATOM     54  F   UNL A   1      47.824  26.838  27.707  1.00  0.00    -0.205 F 
ATOM     55  C   UNL A   1      49.034  26.670  24.256  1.00  0.00     0.022 A 
BRANCH  53  56
ATOM     56  S   UNL A   1      50.458  25.862  26.454  1.00  0.00     0.127 S 
ATOM     57  O   UNL A   1      50.830  26.935  27.371  1.00  0.00    -0.237 OA
ATOM     58  O   UNL A   1      49.913  24.664  27.094  1.00  0.00    -0.237 OA
ATOM     59  O   UNL A   1      51.400  25.592  25.374  1.00  0.00    -0.744 OA
ENDBRANCH  53  56
ENDBRANCH  25  49
BRANCH  37  60
ATOM     60  C   UNL A   1      40.843  24.416  27.384  1.00  0.00     0.023 A 
ATOM     61  C   UNL A   1      41.500  23.282  27.899  1.00  0.00     0.012 A 
ATOM     62  C   UNL A   1      39.644  24.258  26.663  1.00  0.00     0.148 A 
ATOM     63  C   UNL A   1      40.991  22.005  27.665  1.00  0.00     0.002 A 
ATOM     64  C   UNL A   1      39.112  22.988  26.485  1.00  0.00     0.091 A 
ATOM     65  F   UNL A   1      39.045  25.351  26.168  1.00  0.00    -0.205 F 
ATOM     66  C   UNL A   1      39.792  21.860  26.972  1.00  0.00     0.022 A 
BRANCH  64  67
ATOM     67  S   UNL A   1      37.518  22.719  25.704  1.00  0.00     0.127 S 
ATOM     68  O   UNL A   1      36.665  23.649  26.442  1.00  0.00    -0.237 OA
ATOM     69  O   UNL A   1      37.784  23.101  24.317  1.00  0.00    -0.237 OA
ATOM     70  O   UNL A   1      37.213  21.307  25.892  1.00  0.00    -0.744 OA
ENDBRANCH  64  67
ENDBRANCH  37  60
ENDBRANCH  11  12
ENDBRANCH   4   6
ENDBRANCH   3   4
ENDBRANCH   2   3
ENDBRANCH   1   2
BRANCH   1  71
ATOM     71  O   UNL A   1      46.325  40.607  25.377  1.00  0.00    -0.460 OA
BRANCH  71  72
ATOM     72  C   UNL A   1      45.596  41.404  26.226  1.00  0.00     0.338 C 
ATOM     73  O   UNL A   1      45.874  41.619  27.395  1.00  0.00    -0.249 OA
BRANCH  72  74
ATOM     74  C   UNL A   1      44.363  41.935  25.496  1.00  0.00     0.263 C 
ATOM     75  O   UNL A   1      44.596  41.960  24.096  1.00  0.00    -0.322 OA
ATOM     76  C   UNL A   1      43.149  41.047  25.720  1.00  0.00     0.186 C 
ATOM     77  C   UNL A   1      43.544  42.510  23.297  1.00  0.00     0.340 C 
ATOM     78  C   UNL A   1      41.953  41.879  25.259  1.00  0.00     0.181 C 
ATOM     79  C   UNL A   1      42.086  42.200  23.774  1.00  0.00     0.214 C 
BRANCH  76  80
ATOM     80  O   UNL A   1      42.949  40.623  27.056  1.00  0.00    -0.387 OA
ATOM     81  H   UNL A   1      43.105  41.368  27.658  1.00  0.00     0.211 HD
ENDBRANCH  76  80
BRANCH  77  82
ATOM     82  O   UNL A   1      43.632  42.067  21.914  1.00  0.00    -0.454 OA
BRANCH  82  83
ATOM     83  C   UNL A   1      43.565  43.092  20.973  1.00  0.00     0.214 A 
ATOM     84  C   UNL A   1      44.628  43.837  20.596  1.00  0.00     0.181 A 
ATOM     85  C   UNL A   1      42.252  43.345  20.293  1.00  0.00     0.239 A 
ATOM     86  O   UNL A   1      44.578  44.890  19.708  1.00  0.00    -0.452 OA
ATOM     87  C   UNL A   1      42.235  44.406  19.255  1.00  0.00     0.111 A 
ATOM     88  O   UNL A   1      41.254  42.699  20.589  1.00  0.00    -0.285 OA
ATOM     89  C   UNL A   1      43.408  45.131  19.041  1.00  0.00     0.146 A 
ATOM     90  C   UNL A   1      41.108  44.706  18.473  1.00  0.00     0.134 A 
ATOM     91  C   UNL A   1      43.457  46.153  18.091  1.00  0.00     0.094 A 
ATOM     92  C   UNL A   1      41.158  45.715  17.503  1.00  0.00     0.093 A 
ATOM     93  C   UNL A   1      42.336  46.432  17.324  1.00  0.00     0.123 A 
BRANCH  84  94
ATOM     94  C   UNL A   1      45.962  43.689  21.209  1.00  0.00     0.029 A 
ATOM     95  C   UNL A   1      46.941  42.945  20.522  1.00  0.00     0.062 A 
ATOM     96  C   UNL A   1      46.322  44.406  22.363  1.00  0.00     0.062 A 
ATOM     97  C   UNL A   1      48.273  43.036  20.913  1.00  0.00     0.162 A 
ATOM     98  C   UNL A   1      47.658  44.464  22.750  1.00  0.00     0.162 A 
ATOM     99  C   UNL A   1      48.635  43.814  22.006  1.00  0.00     0.200 A 
BRANCH  97 100
ATOM    100  O   UNL A   1      49.226  42.450  20.131  1.00  0.00    -0.504 OA
ATOM    101  H   UNL A   1      50.122  42.450  20.406  1.00  0.00     0.293 HD
ENDBRANCH  97 100
BRANCH  98 102
ATOM    102  O   UNL A   1      47.997  45.246  23.814  1.00  0.00    -0.504 OA
ATOM    103  H   UNL A   1      47.491  45.208  24.603  1.00  0.00     0.293 HD
ENDBRANCH  98 102
BRANCH  99 104
ATOM    104  O   UNL A   1      49.958  44.020  22.285  1.00  0.00    -0.502 OA
ATOM    105  H   UNL A   1      50.397  44.774  21.943  1.00  0.00     0.293 HD
ENDBRANCH  99 104
ENDBRANCH  84  94
BRANCH  90 106
ATOM    106  O   UNL A   1      39.942  44.014  18.629  1.00  0.00    -0.507 OA
ATOM    107  H   UNL A   1      39.238  44.388  19.123  1.00  0.00     0.293 HD
ENDBRANCH  90 106
BRANCH  93 108
ATOM    108  O   UNL A   1      42.437  47.418  16.388  1.00  0.00    -0.508 OA
ATOM    109  H   UNL A   1      41.701  47.628  15.847  1.00  0.00     0.293 HD
ENDBRANCH  93 108
ENDBRANCH  82  83
ENDBRANCH  77  82
BRANCH  78 110
ATOM    110  O   UNL A   1      40.747  41.157  25.580  1.00  0.00    -0.387 OA
ATOM    111  H   UNL A   1      40.846  40.731  26.447  1.00  0.00     0.211 HD
ENDBRANCH  78 110
BRANCH  79 112
ATOM    112  O   UNL A   1      41.122  43.204  23.428  1.00  0.00    -0.384 OA
ATOM    113  H   UNL A   1      40.429  43.232  24.106  1.00  0.00     0.211 HD
ENDBRANCH  79 112
ENDBRANCH  72  74
ENDBRANCH  71  72
ENDBRANCH   1  71
TORSDOF 25
ENDMDL
MODEL 3
REMARK VINA RESULT:     -11.7      6.333     16.381
REMARK SMILES O=C(OCCOC(=O)[C@H]1O[C@@H](Oc2c(-c3cc(O)c(O)c(O)c3)oc3cc(O)cc(O)c3c2=O)[C@H](O)[C@@H](O)[C@@H]1O)c1ccc(-c2c3nc(c(-c4cccc(S(=O)(=O)[O-])c4F)c4ccc([nH]4)c(-c4cccc(S(=O)(=O)[O-])c4F)c4nc(c(-c5cccc(S(=O)(=O)[O-])c5F)c5ccc2[nH]5)C=C4)C=C3)cc1
REMARK SMILES IDX 5 1 4 2 3 3 2 4 1 5 41 6 42 7 103 8 43 9 102 10 44 11 45 12
REMARK SMILES IDX 46 13 96 14 47 15 101 16 95 17 97 18 48 19 100 20 94 21
REMARK SMILES IDX 93 22 49 24 81 25 61 26 80 27 62 28 65 29 79 30 98 31 63 32
REMARK SMILES IDX 64 33 78 35 99 36 66 37 50 38 51 39 59 40 52 41 54 42 60 43
REMARK SMILES IDX 53 44 55 45 56 46 57 47 58 48 82 49 83 50 91 51 84 52 86 53
REMARK SMILES IDX 92 54 85 55 87 56 88 57 89 58 90 59 67 60 68 61 76 62 69 63
REMARK SMILES IDX 71 64 77 65 70 66 72 67 73 68 74 69 75 70 6 71 7 72 8 73
REMARK SMILES IDX 9 74 10 75 39 76 11 77 37 78 35 79 40 80 12 82 13 83 14 84
REMARK SMILES IDX 33 85 24 86 32 87 34 88 25 89 30 90 26 91 29 92 27 93 15 94
REMARK SMILES IDX 16 95 23 96 17 97 21 98 19 99 18 100 22 102 20 104 31 106
REMARK SMILES IDX 28 108 38 110 36 112
REMARK H PARENT 97 23 65 34 40 81 18 101 22 103 20 105 31 107 28 109 38 111
REMARK H PARENT 36 113
REMARK Flexibility Score: inf
ROOT
ATOM      1  C   UNL A   1      46.157  39.414  26.927  1.00  0.00     0.274 C 
ENDROOT
BRANCH   1   2
ATOM      2  C   UNL A   1      45.457  39.650  28.265  1.00  0.00     0.275 C 
BRANCH   2   3
ATOM      3  O   UNL A   1      45.091  38.444  28.957  1.00  0.00    -0.458 OA
BRANCH   3   4
ATOM      4  C   UNL A   1      45.859  37.363  29.240  1.00  0.00     0.338 C 
ATOM      5  O   UNL A   1      47.039  37.538  29.544  1.00  0.00    -0.246 OA
BRANCH   4   6
ATOM      6  C   UNL A   1      45.381  35.954  29.059  1.00  0.00     0.060 A 
ATOM      7  C   UNL A   1      44.649  35.453  27.983  1.00  0.00     0.016 A 
ATOM      8  C   UNL A   1      45.717  35.054  30.084  1.00  0.00     0.016 A 
ATOM      9  C   UNL A   1      44.346  34.093  27.886  1.00  0.00     0.010 A 
ATOM     10  C   UNL A   1      45.478  33.684  29.961  1.00  0.00     0.010 A 
ATOM     11  C   UNL A   1      44.767  33.191  28.865  1.00  0.00    -0.014 A 
BRANCH  11  12
ATOM     12  C   UNL A   1      44.293  31.787  28.804  1.00  0.00     0.031 A 
ATOM     13  C   UNL A   1      42.957  31.458  29.414  1.00  0.00     0.074 A 
ATOM     14  C   UNL A   1      44.989  30.852  28.125  1.00  0.00     0.049 A 
ATOM     15  N   UNL A   1      42.249  30.365  29.303  1.00  0.00    -0.248 NA
ATOM     16  C   UNL A   1      42.327  32.491  30.257  1.00  0.00     0.031 C 
ATOM     17  C   UNL A   1      46.316  31.040  27.530  1.00  0.00     0.029 A 
ATOM     18  N   UNL A   1      44.666  29.559  27.798  1.00  0.00    -0.354 N 
ATOM     19  C   UNL A   1      41.100  30.589  30.050  1.00  0.00     0.074 A 
ATOM     20  C   UNL A   1      41.237  31.877  30.680  1.00  0.00     0.031 C 
ATOM     21  C   UNL A   1      46.682  29.911  26.897  1.00  0.00     0.029 A 
ATOM     22  C   UNL A   1      45.617  28.922  27.034  1.00  0.00     0.049 A 
ATOM     23  H   UNL A   1      43.829  29.126  28.085  1.00  0.00     0.167 HD
ATOM     24  C   UNL A   1      39.993  29.821  30.158  1.00  0.00     0.034 A 
ATOM     25  C   UNL A   1      45.613  27.688  26.488  1.00  0.00     0.034 A 
ATOM     26  C   UNL A   1      39.851  28.545  29.526  1.00  0.00     0.049 A 
ATOM     27  C   UNL A   1      44.372  26.842  26.636  1.00  0.00     0.074 A 
ATOM     28  C   UNL A   1      38.776  27.678  29.563  1.00  0.00     0.029 A 
ATOM     29  N   UNL A   1      40.828  27.948  28.745  1.00  0.00    -0.354 N 
ATOM     30  N   UNL A   1      43.239  27.134  27.229  1.00  0.00    -0.248 NA
ATOM     31  C   UNL A   1      44.388  25.519  25.995  1.00  0.00     0.031 C 
ATOM     32  C   UNL A   1      39.115  26.542  28.823  1.00  0.00     0.029 A 
ATOM     33  C   UNL A   1      40.384  26.719  28.295  1.00  0.00     0.049 A 
ATOM     34  H   UNL A   1      41.707  28.341  28.542  1.00  0.00     0.167 HD
ATOM     35  C   UNL A   1      42.399  26.048  27.006  1.00  0.00     0.074 A 
ATOM     36  C   UNL A   1      43.143  25.108  26.193  1.00  0.00     0.031 C 
ATOM     37  C   UNL A   1      41.135  25.831  27.446  1.00  0.00     0.034 A 
BRANCH  24  38
ATOM     38  C   UNL A   1      38.851  30.384  30.960  1.00  0.00     0.023 A 
ATOM     39  C   UNL A   1      38.823  30.189  32.358  1.00  0.00     0.012 A 
ATOM     40  C   UNL A   1      37.802  31.082  30.337  1.00  0.00     0.148 A 
ATOM     41  C   UNL A   1      37.744  30.637  33.117  1.00  0.00     0.002 A 
ATOM     42  C   UNL A   1      36.753  31.568  31.107  1.00  0.00     0.091 A 
ATOM     43  F   UNL A   1      37.838  31.233  29.006  1.00  0.00    -0.205 F 
ATOM     44  C   UNL A   1      36.713  31.333  32.491  1.00  0.00     0.022 A 
BRANCH  42  45
ATOM     45  S   UNL A   1      35.406  32.529  30.412  1.00  0.00     0.127 S 
ATOM     46  O   UNL A   1      36.080  33.779  30.067  1.00  0.00    -0.237 OA
ATOM     47  O   UNL A   1      35.013  31.711  29.265  1.00  0.00    -0.237 OA
ATOM     48  O   UNL A   1      34.401  32.637  31.461  1.00  0.00    -0.744 OA
ENDBRANCH  42  45
ENDBRANCH  24  38
BRANCH  25  49
ATOM     49  C   UNL A   1      46.789  27.185  25.717  1.00  0.00     0.023 A 
ATOM     50  C   UNL A   1      47.727  26.326  26.325  1.00  0.00     0.012 A 
ATOM     51  C   UNL A   1      47.005  27.595  24.387  1.00  0.00     0.148 A 
ATOM     52  C   UNL A   1      48.880  25.928  25.643  1.00  0.00     0.002 A 
ATOM     53  C   UNL A   1      48.128  27.155  23.696  1.00  0.00     0.091 A 
ATOM     54  F   UNL A   1      46.110  28.421  23.826  1.00  0.00    -0.205 F 
ATOM     55  C   UNL A   1      49.078  26.337  24.327  1.00  0.00     0.022 A 
BRANCH  53  56
ATOM     56  S   UNL A   1      48.402  27.554  21.966  1.00  0.00     0.127 S 
ATOM     57  O   UNL A   1      49.524  28.485  22.050  1.00  0.00    -0.237 OA
ATOM     58  O   UNL A   1      48.727  26.245  21.401  1.00  0.00    -0.237 OA
ATOM     59  O   UNL A   1      47.141  28.116  21.498  1.00  0.00    -0.744 OA
ENDBRANCH  53  56
ENDBRANCH  25  49
BRANCH  37  60
ATOM     60  C   UNL A   1      40.464  24.550  27.031  1.00  0.00     0.023 A 
ATOM     61  C   UNL A   1      39.186  24.585  26.439  1.00  0.00     0.012 A 
ATOM     62  C   UNL A   1      41.139  23.320  27.155  1.00  0.00     0.148 A 
ATOM     63  C   UNL A   1      38.573  23.409  26.014  1.00  0.00     0.002 A 
ATOM     64  C   UNL A   1      40.546  22.161  26.675  1.00  0.00     0.091 A 
ATOM     65  F   UNL A   1      42.347  23.308  27.737  1.00  0.00    -0.205 F 
ATOM     66  C   UNL A   1      39.257  22.200  26.118  1.00  0.00     0.022 A 
BRANCH  64  67
ATOM     67  S   UNL A   1      41.401  20.582  26.667  1.00  0.00     0.127 S 
ATOM     68  O   UNL A   1      40.365  19.685  26.157  1.00  0.00    -0.237 OA
ATOM     69  O   UNL A   1      42.504  20.831  25.740  1.00  0.00    -0.237 OA
ATOM     70  O   UNL A   1      41.813  20.342  28.044  1.00  0.00    -0.744 OA
ENDBRANCH  64  67
ENDBRANCH  37  60
ENDBRANCH  11  12
ENDBRANCH   4   6
ENDBRANCH   3   4
ENDBRANCH   2   3
ENDBRANCH   1   2
BRANCH   1  71
ATOM     71  O   UNL A   1      45.529  40.107  25.842  1.00  0.00    -0.460 OA
BRANCH  71  72
ATOM     72  C   UNL A   1      45.516  41.479  25.911  1.00  0.00     0.338 C 
ATOM     73  O   UNL A   1      46.360  42.160  26.472  1.00  0.00    -0.249 OA
BRANCH  72  74
ATOM     74  C   UNL A   1      44.260  42.013  25.224  1.00  0.00     0.263 C 
ATOM     75  O   UNL A   1      44.458  42.076  23.820  1.00  0.00    -0.322 OA
ATOM     76  C   UNL A   1      43.062  41.105  25.455  1.00  0.00     0.186 C 
ATOM     77  C   UNL A   1      43.381  42.634  23.061  1.00  0.00     0.340 C 
ATOM     78  C   UNL A   1      41.846  41.933  25.043  1.00  0.00     0.181 C 
ATOM     79  C   UNL A   1      41.939  42.294  23.564  1.00  0.00     0.214 C 
BRANCH  76  80
ATOM     80  O   UNL A   1      42.899  40.645  26.783  1.00  0.00    -0.387 OA
ATOM     81  H   UNL A   1      42.323  41.256  27.269  1.00  0.00     0.211 HD
ENDBRANCH  76  80
BRANCH  77  82
ATOM     82  O   UNL A   1      43.442  42.227  21.665  1.00  0.00    -0.454 OA
BRANCH  82  83
ATOM     83  C   UNL A   1      43.425  43.282  20.755  1.00  0.00     0.214 A 
ATOM     84  C   UNL A   1      44.513  44.021  20.443  1.00  0.00     0.181 A 
ATOM     85  C   UNL A   1      42.144  43.575  20.033  1.00  0.00     0.239 A 
ATOM     86  O   UNL A   1      44.512  45.102  19.586  1.00  0.00    -0.452 OA
ATOM     87  C   UNL A   1      42.182  44.667  19.029  1.00  0.00     0.111 A 
ATOM     88  O   UNL A   1      41.127  42.935  20.270  1.00  0.00    -0.285 OA
ATOM     89  C   UNL A   1      43.373  45.380  18.882  1.00  0.00     0.146 A 
ATOM     90  C   UNL A   1      41.091  45.008  18.213  1.00  0.00     0.134 A 
ATOM     91  C   UNL A   1      43.474  46.430  17.967  1.00  0.00     0.094 A 
ATOM     92  C   UNL A   1      41.193  46.045  17.277  1.00  0.00     0.093 A 
ATOM     93  C   UNL A   1      42.387  46.750  17.166  1.00  0.00     0.123 A 
BRANCH  84  94
ATOM     94  C   UNL A   1      45.820  43.834  21.102  1.00  0.00     0.029 A 
ATOM     95  C   UNL A   1      46.712  42.881  20.572  1.00  0.00     0.062 A 
ATOM     96  C   UNL A   1      46.254  44.694  22.126  1.00  0.00     0.062 A 
ATOM     97  C   UNL A   1      48.044  42.891  20.973  1.00  0.00     0.162 A 
ATOM     98  C   UNL A   1      47.587  44.670  22.527  1.00  0.00     0.162 A 
ATOM     99  C   UNL A   1      48.487  43.800  21.926  1.00  0.00     0.200 A 
BRANCH  97 100
ATOM    100  O   UNL A   1      48.928  42.079  20.323  1.00  0.00    -0.504 OA
ATOM    101  H   UNL A   1      49.778  41.925  20.687  1.00  0.00     0.293 HD
ENDBRANCH  97 100
BRANCH  98 102
ATOM    102  O   UNL A   1      48.007  45.580  23.451  1.00  0.00    -0.504 OA
ATOM    103  H   UNL A   1      47.635  45.580  24.311  1.00  0.00     0.293 HD
ENDBRANCH  98 102
BRANCH  99 104
ATOM    104  O   UNL A   1      49.824  43.903  22.196  1.00  0.00    -0.502 OA
ATOM    105  H   UNL A   1      50.164  43.582  23.008  1.00  0.00     0.293 HD
ENDBRANCH  99 104
ENDBRANCH  84  94
BRANCH  90 106
ATOM    106  O   UNL A   1      39.910  44.330  18.303  1.00  0.00    -0.507 OA
ATOM    107  H   UNL A   1      39.142  44.670  17.888  1.00  0.00     0.293 HD
ENDBRANCH  90 106
BRANCH  93 108
ATOM    108  O   UNL A   1      42.538  47.762  16.267  1.00  0.00    -0.508 OA
ATOM    109  H   UNL A   1      41.792  48.099  15.811  1.00  0.00     0.293 HD
ENDBRANCH  93 108
ENDBRANCH  82  83
ENDBRANCH  77  82
BRANCH  78 110
ATOM    110  O   UNL A   1      40.656  41.188  25.374  1.00  0.00    -0.387 OA
ATOM    111  H   UNL A   1      40.899  40.401  25.887  1.00  0.00     0.211 HD
ENDBRANCH  78 110
BRANCH  79 112
ATOM    112  O   UNL A   1      40.956  43.294  23.267  1.00  0.00    -0.384 OA
ATOM    113  H   UNL A   1      40.150  42.867  22.938  1.00  0.00     0.211 HD
ENDBRANCH  79 112
ENDBRANCH  72  74
ENDBRANCH  71  72
ENDBRANCH   1  71
TORSDOF 25
ENDMDL
