MODEL 1
REMARK VINA RESULT:     -12.6      0.000      0.000
REMARK SMILES CC(C)Cc1ccc(S(=O)(=O)Nc2cnc(N3CCCC3)c(C(=O)OCCOC(=O)c3ccc(-c4c5nc(c(-c6cccc(S(=O)(=O)[O-])c6F)c6ccc([nH]6)c(-c6cccc(S(=O)(=O)[O-])c6F)c6nc(c(-c7cccc(S(=O)(=O)[O-])c7F)c7ccc4[nH]7)C=C6)C=C5)cc3)c2)cc1
REMARK SMILES IDX 26 1 25 2 23 3 24 4 22 5 13 6 14 7 94 8 15 9 16 10 12 11
REMARK SMILES IDX 9 13 10 14 11 15 8 16 5 17 6 18 96 19 7 20 95 21 4 22 2 23
REMARK SMILES IDX 1 24 3 25 17 26 18 27 21 28 19 29 20 30 27 31 28 32 29 33
REMARK SMILES IDX 30 34 31 35 32 36 93 37 33 38 92 39 34 40 35 41 36 42 86 43
REMARK SMILES IDX 37 44 91 45 85 46 87 47 38 48 90 49 84 50 83 51 39 53 71 54
REMARK SMILES IDX 51 55 70 56 52 57 55 58 69 59 88 60 53 61 54 62 68 64 89 65
REMARK SMILES IDX 56 66 40 67 41 68 49 69 42 70 44 71 50 72 43 73 45 74 46 75
REMARK SMILES IDX 47 76 48 77 72 78 73 79 81 80 74 81 76 82 82 83 75 84 77 85
REMARK SMILES IDX 78 86 79 87 80 88 57 89 58 90 66 91 59 92 61 93 67 94 60 95
REMARK SMILES IDX 62 96 63 97 64 98 65 99
REMARK H PARENT 12 12 87 52 55 63
REMARK Flexibility Score: inf
ROOT
ATOM      1  C   UNL A   1      31.575  29.427  25.437  1.00  0.00     0.275 C 
ENDROOT
BRANCH   1   2
ATOM      2  O   UNL A   1      31.398  28.387  26.423  1.00  0.00    -0.458 OA
BRANCH   2   3
ATOM      3  C   UNL A   1      31.120  27.164  25.910  1.00  0.00     0.342 C 
ATOM      4  O   UNL A   1      30.375  26.342  26.420  1.00  0.00    -0.246 OA
BRANCH   3   5
ATOM      5  C   UNL A   1      31.965  26.866  24.741  1.00  0.00     0.104 A 
ATOM      6  C   UNL A   1      33.788  25.398  24.234  1.00  0.00     0.068 A 
ATOM      7  C   UNL A   1      33.290  25.367  22.937  1.00  0.00     0.140 A 
ATOM      8  C   UNL A   1      33.186  26.270  25.115  1.00  0.00     0.048 A 
ATOM      9  N   UNL A   1      32.201  26.054  22.514  1.00  0.00    -0.236 NA
ATOM     10  C   UNL A   1      31.492  26.778  23.413  1.00  0.00     0.143 A 
BRANCH   6  11
ATOM     11  N   UNL A   1      34.818  24.492  24.617  1.00  0.00    -0.278 N 
ATOM     12  H   UNL A   1      35.273  24.653  25.475  1.00  0.00     0.180 HD
BRANCH  11  13
ATOM     13  S   UNL A   1      35.315  23.160  23.700  1.00  0.00     0.261 S 
ATOM     14  O   UNL A   1      36.734  23.003  23.946  1.00  0.00    -0.201 OA
ATOM     15  O   UNL A   1      34.831  23.439  22.362  1.00  0.00    -0.201 OA
BRANCH  13  16
ATOM     16  C   UNL A   1      34.540  21.636  24.197  1.00  0.00     0.087 A 
ATOM     17  C   UNL A   1      33.250  19.179  24.701  1.00  0.00    -0.048 A 
ATOM     18  C   UNL A   1      32.553  20.230  24.097  1.00  0.00     0.005 A 
ATOM     19  C   UNL A   1      34.588  19.391  25.064  1.00  0.00     0.005 A 
ATOM     20  C   UNL A   1      33.197  21.444  23.833  1.00  0.00     0.022 A 
ATOM     21  C   UNL A   1      35.214  20.625  24.868  1.00  0.00     0.022 A 
BRANCH  17  22
ATOM     22  C   UNL A   1      32.577  17.838  24.924  1.00  0.00     0.038 C 
BRANCH  22  23
ATOM     23  C   UNL A   1      33.304  16.632  24.287  1.00  0.00    -0.013 C 
ATOM     24  C   UNL A   1      33.986  17.016  22.972  1.00  0.00     0.008 C 
ATOM     25  C   UNL A   1      34.332  16.039  25.252  1.00  0.00     0.008 C 
ENDBRANCH  22  23
ENDBRANCH  17  22
ENDBRANCH  13  16
ENDBRANCH  11  13
ENDBRANCH   6  11
BRANCH  10  26
ATOM     26  N   UNL A   1      30.317  27.303  22.916  1.00  0.00    -0.356 N 
ATOM     27  C   UNL A   1      30.176  29.133  22.281  1.00  0.00     0.118 C 
ATOM     28  C   UNL A   1      28.714  26.659  23.591  1.00  0.00     0.118 C 
ATOM     29  C   UNL A   1      28.081  29.716  22.789  1.00  0.00     0.023 C 
ATOM     30  C   UNL A   1      27.343  28.044  23.627  1.00  0.00     0.023 C 
ENDBRANCH  10  26
ENDBRANCH   3   5
ENDBRANCH   2   3
ENDBRANCH   1   2
BRANCH   1  31
ATOM     31  C   UNL A   1      31.674  30.771  26.148  1.00  0.00     0.275 C 
BRANCH  31  32
ATOM     32  O   UNL A   1      33.027  30.931  26.609  1.00  0.00    -0.458 OA
BRANCH  32  33
ATOM     33  C   UNL A   1      33.238  32.058  27.316  1.00  0.00     0.338 C 
ATOM     34  O   UNL A   1      32.511  33.032  27.418  1.00  0.00    -0.246 OA
BRANCH  33  35
ATOM     35  C   UNL A   1      34.455  31.925  28.113  1.00  0.00     0.060 A 
ATOM     36  C   UNL A   1      35.649  33.169  28.107  1.00  0.00     0.016 A 
ATOM     37  C   UNL A   1      34.952  30.425  28.622  1.00  0.00     0.016 A 
ATOM     38  C   UNL A   1      37.531  32.703  28.667  1.00  0.00     0.010 A 
ATOM     39  C   UNL A   1      36.518  30.040  29.157  1.00  0.00     0.010 A 
ATOM     40  C   UNL A   1      37.862  31.077  29.203  1.00  0.00    -0.014 A 
BRANCH  40  41
ATOM     41  C   UNL A   1      39.155  30.617  29.835  1.00  0.00     0.031 A 
ATOM     42  C   UNL A   1      39.977  29.506  29.207  1.00  0.00     0.074 A 
ATOM     43  C   UNL A   1      39.524  31.054  31.064  1.00  0.00     0.049 A 
ATOM     44  N   UNL A   1      40.953  28.801  29.729  1.00  0.00    -0.248 NA
ATOM     45  C   UNL A   1      39.661  29.125  27.821  1.00  0.00     0.031 C 
ATOM     46  C   UNL A   1      38.888  32.122  31.818  1.00  0.00     0.029 A 
ATOM     47  N   UNL A   1      40.498  30.616  31.940  1.00  0.00    -0.354 N 
ATOM     48  C   UNL A   1      41.319  27.865  28.764  1.00  0.00     0.074 A 
ATOM     49  C   UNL A   1      40.432  28.061  27.639  1.00  0.00     0.031 C 
ATOM     50  C   UNL A   1      39.406  32.223  33.042  1.00  0.00     0.029 A 
ATOM     51  C   UNL A   1      40.420  31.204  33.189  1.00  0.00     0.049 A 
ATOM     52  H   UNL A   1      41.182  29.949  31.699  1.00  0.00     0.167 HD
ATOM     53  C   UNL A   1      42.326  26.956  28.791  1.00  0.00     0.034 A 
ATOM     54  C   UNL A   1      41.059  30.979  34.351  1.00  0.00     0.034 A 
ATOM     55  C   UNL A   1      43.268  26.829  29.873  1.00  0.00     0.049 A 
ATOM     56  C   UNL A   1      42.175  29.991  34.355  1.00  0.00     0.074 A 
ATOM     57  C   UNL A   1      44.393  26.025  29.945  1.00  0.00     0.029 A 
ATOM     58  N   UNL A   1      43.198  27.521  31.072  1.00  0.00    -0.354 N 
ATOM     59  N   UNL A   1      42.566  29.206  33.384  1.00  0.00    -0.248 NA
ATOM     60  C   UNL A   1      42.990  29.913  35.573  1.00  0.00     0.031 C 
ATOM     61  C   UNL A   1      44.978  26.200  31.204  1.00  0.00     0.029 A 
ATOM     62  C   UNL A   1      44.243  27.146  31.899  1.00  0.00     0.049 A 
ATOM     63  H   UNL A   1      42.506  28.183  31.303  1.00  0.00     0.167 HD
ATOM     64  C   UNL A   1      43.707  28.577  33.851  1.00  0.00     0.074 A 
ATOM     65  C   UNL A   1      43.948  29.081  35.188  1.00  0.00     0.031 C 
ATOM     66  C   UNL A   1      44.485  27.666  33.220  1.00  0.00     0.034 A 
BRANCH  53  67
ATOM     67  C   UNL A   1      42.500  26.042  27.598  1.00  0.00     0.023 A 
ATOM     68  C   UNL A   1      43.235  26.471  26.474  1.00  0.00     0.012 A 
ATOM     69  C   UNL A   1      41.997  24.725  27.626  1.00  0.00     0.148 A 
ATOM     70  C   UNL A   1      43.431  25.624  25.383  1.00  0.00     0.002 A 
ATOM     71  C   UNL A   1      42.238  23.869  26.556  1.00  0.00     0.091 A 
ATOM     72  F   UNL A   1      41.293  24.333  28.696  1.00  0.00    -0.205 F 
ATOM     73  C   UNL A   1      42.942  24.321  25.428  1.00  0.00     0.022 A 
BRANCH  71  74
ATOM     74  S   UNL A   1      41.723  22.147  26.551  1.00  0.00     0.127 S 
ATOM     75  O   UNL A   1      42.292  21.665  27.809  1.00  0.00    -0.237 OA
ATOM     76  O   UNL A   1      40.264  22.265  26.548  1.00  0.00    -0.237 OA
ATOM     77  O   UNL A   1      42.290  21.559  25.347  1.00  0.00    -0.744 OA
ENDBRANCH  71  74
ENDBRANCH  53  67
BRANCH  54  78
ATOM     78  C   UNL A   1      40.710  31.787  35.559  1.00  0.00     0.023 A 
ATOM     79  C   UNL A   1      41.542  32.854  35.945  1.00  0.00     0.012 A 
ATOM     80  C   UNL A   1      39.511  31.560  36.268  1.00  0.00     0.148 A 
ATOM     81  C   UNL A   1      41.207  33.661  37.034  1.00  0.00     0.002 A 
ATOM     82  C   UNL A   1      39.158  32.399  37.320  1.00  0.00     0.091 A 
ATOM     83  F   UNL A   1      38.725  30.546  35.880  1.00  0.00    -0.205 F 
ATOM     84  C   UNL A   1      40.012  33.440  37.715  1.00  0.00     0.022 A 
BRANCH  82  85
ATOM     85  S   UNL A   1      37.577  32.275  38.167  1.00  0.00     0.127 S 
ATOM     86  O   UNL A   1      37.356  30.832  38.178  1.00  0.00    -0.237 OA
ATOM     87  O   UNL A   1      37.884  32.860  39.474  1.00  0.00    -0.237 OA
ATOM     88  O   UNL A   1      36.642  33.055  37.368  1.00  0.00    -0.744 OA
ENDBRANCH  82  85
ENDBRANCH  54  78
BRANCH  66  89
ATOM     89  C   UNL A   1      45.692  27.173  33.965  1.00  0.00     0.023 A 
ATOM     90  C   UNL A   1      46.910  27.875  33.873  1.00  0.00     0.012 A 
ATOM     91  C   UNL A   1      45.603  26.034  34.787  1.00  0.00     0.148 A 
ATOM     92  C   UNL A   1      48.035  27.424  34.558  1.00  0.00     0.002 A 
ATOM     93  C   UNL A   1      46.712  25.625  35.512  1.00  0.00     0.091 A 
ATOM     94  F   UNL A   1      44.438  25.370  34.837  1.00  0.00    -0.205 F 
ATOM     95  C   UNL A   1      47.933  26.307  35.386  1.00  0.00     0.022 A 
BRANCH  93  96
ATOM     96  S   UNL A   1      46.649  24.263  36.679  1.00  0.00     0.127 S 
ATOM     97  O   UNL A   1      45.471  24.606  37.473  1.00  0.00    -0.237 OA
ATOM     98  O   UNL A   1      46.476  23.111  35.794  1.00  0.00    -0.237 OA
ATOM     99  O   UNL A   1      47.915  24.289  37.399  1.00  0.00    -0.744 OA
ENDBRANCH  93  96
ENDBRANCH  66  89
ENDBRANCH  40  41
ENDBRANCH  33  35
ENDBRANCH  32  33
ENDBRANCH  31  32
ENDBRANCH   1  31
TORSDOF 20
ENDMDL
MODEL 2
REMARK VINA RESULT:     -11.6      1.936      2.367
REMARK SMILES CC(C)Cc1ccc(S(=O)(=O)Nc2cnc(N3CCCC3)c(C(=O)OCCOC(=O)c3ccc(-c4c5nc(c(-c6cccc(S(=O)(=O)[O-])c6F)c6ccc([nH]6)c(-c6cccc(S(=O)(=O)[O-])c6F)c6nc(c(-c7cccc(S(=O)(=O)[O-])c7F)c7ccc4[nH]7)C=C6)C=C5)cc3)c2)cc1
REMARK SMILES IDX 26 1 25 2 23 3 24 4 22 5 13 6 14 7 94 8 15 9 16 10 12 11
REMARK SMILES IDX 9 13 10 14 11 15 8 16 5 17 6 18 96 19 7 20 95 21 4 22 2 23
REMARK SMILES IDX 1 24 3 25 17 26 18 27 21 28 19 29 20 30 27 31 28 32 29 33
REMARK SMILES IDX 30 34 31 35 32 36 93 37 33 38 92 39 34 40 35 41 36 42 86 43
REMARK SMILES IDX 37 44 91 45 85 46 87 47 38 48 90 49 84 50 83 51 39 53 71 54
REMARK SMILES IDX 51 55 70 56 52 57 55 58 69 59 88 60 53 61 54 62 68 64 89 65
REMARK SMILES IDX 56 66 40 67 41 68 49 69 42 70 44 71 50 72 43 73 45 74 46 75
REMARK SMILES IDX 47 76 48 77 72 78 73 79 81 80 74 81 76 82 82 83 75 84 77 85
REMARK SMILES IDX 78 86 79 87 80 88 57 89 58 90 66 91 59 92 61 93 67 94 60 95
REMARK SMILES IDX 62 96 63 97 64 98 65 99
REMARK H PARENT 12 12 87 52 55 63
REMARK Flexibility Score: inf
ROOT
ATOM      1  C   UNL A   1      32.728  28.302  26.675  1.00  0.00     0.275 C 
ENDROOT
BRANCH   1   2
ATOM      2  O   UNL A   1      31.476  27.593  26.804  1.00  0.00    -0.458 OA
BRANCH   2   3
ATOM      3  C   UNL A   1      31.395  26.453  26.077  1.00  0.00     0.342 C 
ATOM      4  O   UNL A   1      31.149  25.347  26.531  1.00  0.00    -0.246 OA
BRANCH   3   5
ATOM      5  C   UNL A   1      31.813  26.673  24.682  1.00  0.00     0.104 A 
ATOM      6  C   UNL A   1      32.931  25.418  22.977  1.00  0.00     0.068 A 
ATOM      7  C   UNL A   1      32.162  26.132  22.065  1.00  0.00     0.140 A 
ATOM      8  C   UNL A   1      32.846  25.794  24.298  1.00  0.00     0.048 A 
ATOM      9  N   UNL A   1      31.268  27.094  22.401  1.00  0.00    -0.236 NA
ATOM     10  C   UNL A   1      31.042  27.352  23.712  1.00  0.00     0.143 A 
BRANCH   6  11
ATOM     11  N   UNL A   1      33.695  24.301  22.532  1.00  0.00    -0.278 N 
ATOM     12  H   UNL A   1      33.607  24.031  21.590  1.00  0.00     0.180 HD
BRANCH  11  13
ATOM     13  S   UNL A   1      34.745  23.404  23.512  1.00  0.00     0.261 S 
ATOM     14  O   UNL A   1      34.874  24.143  24.752  1.00  0.00    -0.201 OA
ATOM     15  O   UNL A   1      35.905  23.165  22.677  1.00  0.00    -0.201 OA
BRANCH  13  16
ATOM     16  C   UNL A   1      34.106  21.798  23.940  1.00  0.00     0.087 A 
ATOM     17  C   UNL A   1      33.179  19.310  24.893  1.00  0.00    -0.048 A 
ATOM     18  C   UNL A   1      34.527  19.658  25.026  1.00  0.00     0.005 A 
ATOM     19  C   UNL A   1      32.319  20.217  24.257  1.00  0.00     0.005 A 
ATOM     20  C   UNL A   1      34.984  20.898  24.566  1.00  0.00     0.022 A 
ATOM     21  C   UNL A   1      32.784  21.426  23.733  1.00  0.00     0.022 A 
BRANCH  17  22
ATOM     22  C   UNL A   1      32.664  17.997  25.452  1.00  0.00     0.038 C 
BRANCH  22  23
ATOM     23  C   UNL A   1      32.912  16.766  24.551  1.00  0.00    -0.013 C 
ATOM     24  C   UNL A   1      34.285  16.826  23.879  1.00  0.00     0.008 C 
ATOM     25  C   UNL A   1      32.779  15.468  25.349  1.00  0.00     0.008 C 
ENDBRANCH  22  23
ENDBRANCH  17  22
ENDBRANCH  13  16
ENDBRANCH  11  13
ENDBRANCH   6  11
BRANCH  10  26
ATOM     26  N   UNL A   1      30.002  28.228  23.945  1.00  0.00    -0.356 N 
ATOM     27  C   UNL A   1      28.214  27.938  23.246  1.00  0.00     0.118 C 
ATOM     28  C   UNL A   1      30.402  30.027  24.151  1.00  0.00     0.118 C 
ATOM     29  C   UNL A   1      27.447  29.999  22.863  1.00  0.00     0.023 C 
ATOM     30  C   UNL A   1      28.973  31.162  23.466  1.00  0.00     0.023 C 
ENDBRANCH  10  26
ENDBRANCH   3   5
ENDBRANCH   2   3
ENDBRANCH   1   2
BRANCH   1  31
ATOM     31  C   UNL A   1      32.531  29.741  27.134  1.00  0.00     0.275 C 
BRANCH  31  32
ATOM     32  O   UNL A   1      33.750  30.460  26.877  1.00  0.00    -0.458 OA
BRANCH  32  33
ATOM     33  C   UNL A   1      33.870  31.608  27.572  1.00  0.00     0.338 C 
ATOM     34  O   UNL A   1      33.086  32.541  27.627  1.00  0.00    -0.246 OA
BRANCH  33  35
ATOM     35  C   UNL A   1      35.057  31.555  28.420  1.00  0.00     0.060 A 
ATOM     36  C   UNL A   1      36.247  32.801  28.345  1.00  0.00     0.016 A 
ATOM     37  C   UNL A   1      35.541  30.110  29.079  1.00  0.00     0.016 A 
ATOM     38  C   UNL A   1      38.110  32.400  29.009  1.00  0.00     0.010 A 
ATOM     39  C   UNL A   1      37.089  29.785  29.700  1.00  0.00     0.010 A 
ATOM     40  C   UNL A   1      38.427  30.831  29.701  1.00  0.00    -0.014 A 
BRANCH  40  41
ATOM     41  C   UNL A   1      39.698  30.438  30.416  1.00  0.00     0.031 A 
ATOM     42  C   UNL A   1      40.546  29.280  29.919  1.00  0.00     0.074 A 
ATOM     43  C   UNL A   1      40.022  30.985  31.613  1.00  0.00     0.049 A 
ATOM     44  N   UNL A   1      41.505  28.631  30.535  1.00  0.00    -0.248 NA
ATOM     45  C   UNL A   1      40.281  28.775  28.562  1.00  0.00     0.031 C 
ATOM     46  C   UNL A   1      39.356  32.112  32.245  1.00  0.00     0.029 A 
ATOM     47  N   UNL A   1      40.966  30.634  32.558  1.00  0.00    -0.354 N 
ATOM     48  C   UNL A   1      41.909  27.616  29.671  1.00  0.00     0.074 A 
ATOM     49  C   UNL A   1      41.062  27.704  28.503  1.00  0.00     0.031 C 
ATOM     50  C   UNL A   1      39.829  32.325  33.473  1.00  0.00     0.029 A 
ATOM     51  C   UNL A   1      40.841  31.330  33.746  1.00  0.00     0.049 A 
ATOM     52  H   UNL A   1      41.660  29.953  32.402  1.00  0.00     0.167 HD
ATOM     53  C   UNL A   1      42.917  26.720  29.815  1.00  0.00     0.034 A 
ATOM     54  C   UNL A   1      41.440  31.214  34.945  1.00  0.00     0.034 A 
ATOM     55  C   UNL A   1      43.821  26.696  30.937  1.00  0.00     0.049 A 
ATOM     56  C   UNL A   1      42.558  30.238  35.077  1.00  0.00     0.074 A 
ATOM     57  C   UNL A   1      44.945  25.909  31.120  1.00  0.00     0.029 A 
ATOM     58  N   UNL A   1      43.706  27.492  32.066  1.00  0.00    -0.354 N 
ATOM     59  N   UNL A   1      42.986  29.372  34.194  1.00  0.00    -0.248 NA
ATOM     60  C   UNL A   1      43.329  30.275  36.324  1.00  0.00     0.031 C 
ATOM     61  C   UNL A   1      45.485  26.200  32.377  1.00  0.00     0.029 A 
ATOM     62  C   UNL A   1      44.723  27.199  32.959  1.00  0.00     0.049 A 
ATOM     63  H   UNL A   1      43.004  28.167  32.212  1.00  0.00     0.167 HD
ATOM     64  C   UNL A   1      44.112  28.795  34.755  1.00  0.00     0.074 A 
ATOM     65  C   UNL A   1      44.304  29.418  36.049  1.00  0.00     0.031 C 
ATOM     66  C   UNL A   1      44.916  27.837  34.236  1.00  0.00     0.034 A 
BRANCH  53  67
ATOM     67  C   UNL A   1      43.137  25.704  28.716  1.00  0.00     0.023 A 
ATOM     68  C   UNL A   1      42.282  24.589  28.596  1.00  0.00     0.012 A 
ATOM     69  C   UNL A   1      44.147  25.899  27.751  1.00  0.00     0.148 A 
ATOM     70  C   UNL A   1      42.454  23.664  27.565  1.00  0.00     0.002 A 
ATOM     71  C   UNL A   1      44.282  25.000  26.698  1.00  0.00     0.091 A 
ATOM     72  F   UNL A   1      44.958  26.958  27.881  1.00  0.00    -0.205 F 
ATOM     73  C   UNL A   1      43.446  23.875  26.611  1.00  0.00     0.022 A 
BRANCH  71  74
ATOM     74  S   UNL A   1      45.474  25.226  25.372  1.00  0.00     0.127 S 
ATOM     75  O   UNL A   1      45.053  24.200  24.419  1.00  0.00    -0.237 OA
ATOM     76  O   UNL A   1      45.203  26.600  24.948  1.00  0.00    -0.237 OA
ATOM     77  O   UNL A   1      46.786  25.019  25.968  1.00  0.00    -0.744 OA
ENDBRANCH  71  74
ENDBRANCH  53  67
BRANCH  54  78
ATOM     78  C   UNL A   1      41.045  32.124  36.063  1.00  0.00     0.023 A 
ATOM     79  C   UNL A   1      41.862  33.224  36.385  1.00  0.00     0.012 A 
ATOM     80  C   UNL A   1      39.820  31.957  36.743  1.00  0.00     0.148 A 
ATOM     81  C   UNL A   1      41.486  34.122  37.385  1.00  0.00     0.002 A 
ATOM     82  C   UNL A   1      39.427  32.885  37.703  1.00  0.00     0.091 A 
ATOM     83  F   UNL A   1      39.049  30.911  36.416  1.00  0.00    -0.205 F 
ATOM     84  C   UNL A   1      40.266  33.959  38.037  1.00  0.00     0.022 A 
BRANCH  82  85
ATOM     85  S   UNL A   1      37.815  32.831  38.496  1.00  0.00     0.127 S 
ATOM     86  O   UNL A   1      37.954  33.857  39.526  1.00  0.00    -0.237 OA
ATOM     87  O   UNL A   1      36.920  33.184  37.393  1.00  0.00    -0.237 OA
ATOM     88  O   UNL A   1      37.659  31.465  38.977  1.00  0.00    -0.744 OA
ENDBRANCH  82  85
ENDBRANCH  54  78
BRANCH  66  89
ATOM     89  C   UNL A   1      46.096  27.421  35.064  1.00  0.00     0.023 A 
ATOM     90  C   UNL A   1      45.961  26.389  36.013  1.00  0.00     0.012 A 
ATOM     91  C   UNL A   1      47.350  28.031  34.871  1.00  0.00     0.148 A 
ATOM     92  C   UNL A   1      47.049  25.998  36.789  1.00  0.00     0.002 A 
ATOM     93  C   UNL A   1      48.443  27.596  35.606  1.00  0.00     0.091 A 
ATOM     94  F   UNL A   1      47.446  29.029  33.980  1.00  0.00    -0.205 F 
ATOM     95  C   UNL A   1      48.292  26.592  36.577  1.00  0.00     0.022 A 
BRANCH  93  96
ATOM     96  S   UNL A   1      50.099  28.230  35.332  1.00  0.00     0.127 S 
ATOM     97  O   UNL A   1      49.961  29.620  35.762  1.00  0.00    -0.237 OA
ATOM     98  O   UNL A   1      50.900  27.390  36.223  1.00  0.00    -0.237 OA
ATOM     99  O   UNL A   1      50.374  28.042  33.913  1.00  0.00    -0.744 OA
ENDBRANCH  93  96
ENDBRANCH  66  89
ENDBRANCH  40  41
ENDBRANCH  33  35
ENDBRANCH  32  33
ENDBRANCH  31  32
ENDBRANCH   1  31
TORSDOF 20
ENDMDL
MODEL 3
REMARK VINA RESULT:     -11.3      6.359     16.209
REMARK SMILES CC(C)Cc1ccc(S(=O)(=O)Nc2cnc(N3CCCC3)c(C(=O)OCCOC(=O)c3ccc(-c4c5nc(c(-c6cccc(S(=O)(=O)[O-])c6F)c6ccc([nH]6)c(-c6cccc(S(=O)(=O)[O-])c6F)c6nc(c(-c7cccc(S(=O)(=O)[O-])c7F)c7ccc4[nH]7)C=C6)C=C5)cc3)c2)cc1
REMARK SMILES IDX 26 1 25 2 23 3 24 4 22 5 13 6 14 7 94 8 15 9 16 10 12 11
REMARK SMILES IDX 9 13 10 14 11 15 8 16 5 17 6 18 96 19 7 20 95 21 4 22 2 23
REMARK SMILES IDX 1 24 3 25 17 26 18 27 21 28 19 29 20 30 27 31 28 32 29 33
REMARK SMILES IDX 30 34 31 35 32 36 93 37 33 38 92 39 34 40 35 41 36 42 86 43
REMARK SMILES IDX 37 44 91 45 85 46 87 47 38 48 90 49 84 50 83 51 39 53 71 54
REMARK SMILES IDX 51 55 70 56 52 57 55 58 69 59 88 60 53 61 54 62 68 64 89 65
REMARK SMILES IDX 56 66 40 67 41 68 49 69 42 70 44 71 50 72 43 73 45 74 46 75
REMARK SMILES IDX 47 76 48 77 72 78 73 79 81 80 74 81 76 82 82 83 75 84 77 85
REMARK SMILES IDX 78 86 79 87 80 88 57 89 58 90 66 91 59 92 61 93 67 94 60 95
REMARK SMILES IDX 62 96 63 97 64 98 65 99
REMARK H PARENT 12 12 87 52 55 63
REMARK Flexibility Score: inf
ROOT
ATOM      1  C   UNL A   1      47.142  21.403  35.269  1.00  0.00     0.275 C 
ENDROOT
BRANCH   1   2
ATOM      2  O   UNL A   1      47.201  20.963  36.643  1.00  0.00    -0.458 OA
BRANCH   2   3
ATOM      3  C   UNL A   1      46.879  19.661  36.834  1.00  0.00     0.342 C 
ATOM      4  O   UNL A   1      46.354  18.939  36.002  1.00  0.00    -0.246 OA
BRANCH   3   5
ATOM      5  C   UNL A   1      47.078  19.256  38.236  1.00  0.00     0.104 A 
ATOM      6  C   UNL A   1      46.190  17.598  39.717  1.00  0.00     0.068 A 
ATOM      7  C   UNL A   1      47.439  17.598  40.328  1.00  0.00     0.140 A 
ATOM      8  C   UNL A   1      45.972  18.542  38.739  1.00  0.00     0.048 A 
ATOM      9  N   UNL A   1      48.475  18.388  39.959  1.00  0.00    -0.236 NA
ATOM     10  C   UNL A   1      48.333  19.197  38.882  1.00  0.00     0.143 A 
BRANCH   6  11
ATOM     11  N   UNL A   1      45.236  16.596  40.058  1.00  0.00    -0.278 N 
ATOM     12  H   UNL A   1      45.554  15.666  40.126  1.00  0.00     0.180 HD
BRANCH  11  13
ATOM     13  S   UNL A   1      43.597  16.891  40.355  1.00  0.00     0.261 S 
ATOM     14  O   UNL A   1      42.934  16.839  39.068  1.00  0.00    -0.201 OA
ATOM     15  O   UNL A   1      43.584  18.112  41.137  1.00  0.00    -0.201 OA
BRANCH  13  16
ATOM     16  C   UNL A   1      42.832  15.646  41.373  1.00  0.00     0.087 A 
ATOM     17  C   UNL A   1      41.754  13.475  42.816  1.00  0.00    -0.048 A 
ATOM     18  C   UNL A   1      41.497  13.610  41.448  1.00  0.00     0.005 A 
ATOM     19  C   UNL A   1      42.537  14.455  43.444  1.00  0.00     0.005 A 
ATOM     20  C   UNL A   1      42.043  14.679  40.729  1.00  0.00     0.022 A 
ATOM     21  C   UNL A   1      43.026  15.562  42.746  1.00  0.00     0.022 A 
BRANCH  17  22
ATOM     22  C   UNL A   1      41.223  12.281  43.585  1.00  0.00     0.038 C 
BRANCH  22  23
ATOM     23  C   UNL A   1      42.290  11.232  43.976  1.00  0.00    -0.013 C 
ATOM     24  C   UNL A   1      43.104  10.778  42.763  1.00  0.00     0.008 C 
ATOM     25  C   UNL A   1      43.225  11.779  45.056  1.00  0.00     0.008 C 
ENDBRANCH  22  23
ENDBRANCH  17  22
ENDBRANCH  13  16
ENDBRANCH  11  13
ENDBRANCH   6  11
BRANCH  10  26
ATOM     26  N   UNL A   1      49.495  19.834  38.495  1.00  0.00    -0.356 N 
ATOM     27  C   UNL A   1      49.809  21.722  38.821  1.00  0.00     0.118 C 
ATOM     28  C   UNL A   1      50.370  19.218  36.981  1.00  0.00     0.118 C 
ATOM     29  C   UNL A   1      51.038  22.370  37.073  1.00  0.00     0.023 C 
ATOM     30  C   UNL A   1      51.256  20.666  36.025  1.00  0.00     0.023 C 
ENDBRANCH  10  26
ENDBRANCH   3   5
ENDBRANCH   2   3
ENDBRANCH   1   2
BRANCH   1  31
ATOM     31  C   UNL A   1      47.380  22.906  35.220  1.00  0.00     0.275 C 
BRANCH  31  32
ATOM     32  O   UNL A   1      47.877  23.319  36.506  1.00  0.00    -0.458 OA
BRANCH  32  33
ATOM     33  C   UNL A   1      47.233  24.380  37.031  1.00  0.00     0.338 C 
ATOM     34  O   UNL A   1      47.306  24.821  38.166  1.00  0.00    -0.246 OA
BRANCH  33  35
ATOM     35  C   UNL A   1      46.490  25.078  35.985  1.00  0.00     0.060 A 
ATOM     36  C   UNL A   1      47.159  26.464  35.208  1.00  0.00     0.016 A 
ATOM     37  C   UNL A   1      44.844  24.890  35.873  1.00  0.00     0.016 A 
ATOM     38  C   UNL A   1      45.910  27.746  34.277  1.00  0.00     0.010 A 
ATOM     39  C   UNL A   1      43.793  25.929  35.036  1.00  0.00     0.010 A 
ATOM     40  C   UNL A   1      44.208  27.367  34.233  1.00  0.00    -0.014 A 
BRANCH  40  41
ATOM     41  C   UNL A   1      43.174  28.108  33.419  1.00  0.00     0.031 A 
ATOM     42  C   UNL A   1      42.153  29.010  34.091  1.00  0.00     0.074 A 
ATOM     43  C   UNL A   1      43.014  27.855  32.097  1.00  0.00     0.049 A 
ATOM     44  N   UNL A   1      41.041  29.508  33.606  1.00  0.00    -0.248 NA
ATOM     45  C   UNL A   1      42.401  29.395  35.490  1.00  0.00     0.031 C 
ATOM     46  C   UNL A   1      43.894  27.046  31.270  1.00  0.00     0.029 A 
ATOM     47  N   UNL A   1      42.014  28.202  31.210  1.00  0.00    -0.354 N 
ATOM     48  C   UNL A   1      40.436  30.207  34.648  1.00  0.00     0.074 A 
ATOM     49  C   UNL A   1      41.282  30.032  35.808  1.00  0.00     0.031 C 
ATOM     50  C   UNL A   1      43.392  26.885  30.046  1.00  0.00     0.029 A 
ATOM     51  C   UNL A   1      42.122  27.571  29.985  1.00  0.00     0.049 A 
ATOM     52  H   UNL A   1      41.294  28.838  31.428  1.00  0.00     0.167 HD
ATOM     53  C   UNL A   1      39.307  30.958  34.634  1.00  0.00     0.034 A 
ATOM     54  C   UNL A   1      41.316  27.511  28.909  1.00  0.00     0.034 A 
ATOM     55  C   UNL A   1      38.520  31.209  33.455  1.00  0.00     0.049 A 
ATOM     56  C   UNL A   1      40.091  28.359  28.905  1.00  0.00     0.074 A 
ATOM     57  C   UNL A   1      37.430  32.050  33.310  1.00  0.00     0.029 A 
ATOM     58  N   UNL A   1      38.734  30.621  32.217  1.00  0.00    -0.354 N 
ATOM     59  N   UNL A   1      39.613  29.098  29.874  1.00  0.00    -0.248 NA
ATOM     60  C   UNL A   1      39.340  28.437  27.647  1.00  0.00     0.031 C 
ATOM     61  C   UNL A   1      36.961  31.938  31.996  1.00  0.00     0.029 A 
ATOM     62  C   UNL A   1      37.784  31.061  31.311  1.00  0.00     0.049 A 
ATOM     63  H   UNL A   1      39.456  29.983  32.013  1.00  0.00     0.167 HD
ATOM     64  C   UNL A   1      38.535  29.775  29.330  1.00  0.00     0.074 A 
ATOM     65  C   UNL A   1      38.437  29.363  27.944  1.00  0.00     0.031 C 
ATOM     66  C   UNL A   1      37.706  30.661  29.930  1.00  0.00     0.034 A 
BRANCH  53  67
ATOM     67  C   UNL A   1      38.862  31.608  35.926  1.00  0.00     0.023 A 
ATOM     68  C   UNL A   1      37.935  30.959  36.766  1.00  0.00     0.012 A 
ATOM     69  C   UNL A   1      39.426  32.831  36.344  1.00  0.00     0.148 A 
ATOM     70  C   UNL A   1      37.543  31.534  37.976  1.00  0.00     0.002 A 
ATOM     71  C   UNL A   1      39.069  33.374  37.574  1.00  0.00     0.091 A 
ATOM     72  F   UNL A   1      40.301  33.442  35.532  1.00  0.00    -0.205 F 
ATOM     73  C   UNL A   1      38.118  32.735  38.384  1.00  0.00     0.022 A 
BRANCH  71  74
ATOM     74  S   UNL A   1      39.813  34.874  38.230  1.00  0.00     0.127 S 
ATOM     75  O   UNL A   1      38.811  35.298  39.206  1.00  0.00    -0.237 OA
ATOM     76  O   UNL A   1      41.056  34.368  38.813  1.00  0.00    -0.237 OA
ATOM     77  O   UNL A   1      39.991  35.766  37.093  1.00  0.00    -0.744 OA
ENDBRANCH  71  74
ENDBRANCH  53  67
BRANCH  54  78
ATOM     78  C   UNL A   1      41.717  26.691  27.725  1.00  0.00     0.023 A 
ATOM     79  C   UNL A   1      42.350  27.313  26.633  1.00  0.00     0.012 A 
ATOM     80  C   UNL A   1      41.559  25.290  27.720  1.00  0.00     0.148 A 
ATOM     81  C   UNL A   1      42.788  26.561  25.541  1.00  0.00     0.002 A 
ATOM     82  C   UNL A   1      42.043  24.541  26.652  1.00  0.00     0.091 A 
ATOM     83  F   UNL A   1      40.965  24.713  28.774  1.00  0.00    -0.205 F 
ATOM     84  C   UNL A   1      42.644  25.176  25.554  1.00  0.00     0.022 A 
BRANCH  82  85
ATOM     85  S   UNL A   1      42.024  22.743  26.644  1.00  0.00     0.127 S 
ATOM     86  O   UNL A   1      40.716  22.455  27.226  1.00  0.00    -0.237 OA
ATOM     87  O   UNL A   1      42.141  22.443  25.216  1.00  0.00    -0.237 OA
ATOM     88  O   UNL A   1      43.176  22.334  27.436  1.00  0.00    -0.744 OA
ENDBRANCH  82  85
ENDBRANCH  54  78
BRANCH  66  89
ATOM     89  C   UNL A   1      36.631  31.267  29.077  1.00  0.00     0.023 A 
ATOM     90  C   UNL A   1      36.720  32.619  28.689  1.00  0.00     0.012 A 
ATOM     91  C   UNL A   1      35.552  30.483  28.630  1.00  0.00     0.148 A 
ATOM     92  C   UNL A   1      35.725  33.192  27.901  1.00  0.00     0.002 A 
ATOM     93  C   UNL A   1      34.596  31.045  27.796  1.00  0.00     0.091 A 
ATOM     94  F   UNL A   1      35.477  29.206  29.034  1.00  0.00    -0.205 F 
ATOM     95  C   UNL A   1      34.671  32.403  27.444  1.00  0.00     0.022 A 
BRANCH  93  96
ATOM     96  S   UNL A   1      33.261  30.083  27.079  1.00  0.00     0.127 S 
ATOM     97  O   UNL A   1      32.123  30.985  27.244  1.00  0.00    -0.237 OA
ATOM     98  O   UNL A   1      33.713  29.916  25.697  1.00  0.00    -0.237 OA
ATOM     99  O   UNL A   1      33.195  28.848  27.848  1.00  0.00    -0.744 OA
ENDBRANCH  93  96
ENDBRANCH  66  89
ENDBRANCH  40  41
ENDBRANCH  33  35
ENDBRANCH  32  33
ENDBRANCH  31  32
ENDBRANCH   1  31
TORSDOF 20
ENDMDL
