MODEL 1
REMARK VINA RESULT:     -11.8      0.000      0.000
REMARK SMILES Cc1ccc(S(=O)(=O)n2cc(C(=O)C(=O)NCC(=O)N[C@@H](Cc3c[nH]c4ccccc34)C(=O)OCCOC(=O)c3ccc(-c4c5nc(c(-c6cccc(S(=O)(=O)[O-])c6F)c6ccc([nH]6)c(-c6cccc(S(=O)(=O)[O-])c6F)c6nc(c(-c7cccc(S(=O)(=O)[O-])c7F)c7ccc4[nH]7)C=C6)C=C5)cc3)c3ccccc32)cc1
REMARK SMILES IDX 32 1 33 2 21 3 20 4 18 5 19 6 17 8 16 9 14 10 15 11 12 13
REMARK SMILES IDX 13 14 11 15 9 16 10 17 108 18 103 19 107 20 104 21 106 22
REMARK SMILES IDX 105 23 6 24 7 25 8 26 5 27 1 28 2 29 3 30 110 31 4 32 109 33
REMARK SMILES IDX 22 34 23 35 24 36 31 37 25 38 26 39 30 40 27 42 29 43 28 44
REMARK SMILES IDX 34 45 35 46 36 47 37 48 38 49 39 50 40 51 41 52 102 53 42 54
REMARK SMILES IDX 101 55 43 56 44 57 45 58 95 59 46 60 100 61 94 62 96 63
REMARK SMILES IDX 47 64 99 65 93 66 92 67 48 69 80 70 60 71 79 72 61 73 64 74
REMARK SMILES IDX 78 75 97 76 62 77 63 78 77 80 98 81 65 82 49 83 50 84 58 85
REMARK SMILES IDX 51 86 53 87 59 88 52 89 54 90 55 91 56 92 57 93 81 94 82 95
REMARK SMILES IDX 90 96 83 97 85 98 91 99 84 100 86 101 87 102 88 103 89 104
REMARK SMILES IDX 66 105 67 106 75 107 68 108 70 109 76 110 69 111 71 112
REMARK SMILES IDX 72 113 73 114 74 115
REMARK H PARENT 20 7 16 12 25 41 96 68 64 79
REMARK Flexibility Score: inf
ROOT
ATOM      1  C   UNL A   1      36.508  30.742  31.425  1.00  0.00     0.329 C 
ATOM      2  O   UNL A   1      36.305  29.534  31.414  1.00  0.00    -0.250 OA
ENDROOT
BRANCH   1   3
ATOM      3  C   UNL A   1      36.359  31.628  30.173  1.00  0.00     0.196 C 
BRANCH   3   4
ATOM      4  N   UNL A   1      37.074  31.167  28.982  1.00  0.00    -0.341 N 
ATOM      5  C   UNL A   1      36.683  30.291  28.009  1.00  0.00     0.240 C 
ATOM      6  O   UNL A   1      37.545  29.977  27.179  1.00  0.00    -0.273 OA
ATOM      7  H   UNL A   1      37.975  31.547  28.864  1.00  0.00     0.164 HD
BRANCH   5   8
ATOM      8  C   UNL A   1      35.224  29.750  27.882  1.00  0.00     0.216 C 
BRANCH   8   9
ATOM      9  N   UNL A   1      34.336  30.295  26.851  1.00  0.00    -0.340 N 
ATOM     10  C   UNL A   1      33.134  29.736  26.369  1.00  0.00     0.292 C 
ATOM     11  O   UNL A   1      32.353  30.427  25.721  1.00  0.00    -0.265 OA
ATOM     12  H   UNL A   1      34.609  31.151  26.448  1.00  0.00     0.164 HD
BRANCH  10  13
ATOM     13  C   UNL A   1      32.698  28.326  26.823  1.00  0.00     0.252 C 
ATOM     14  O   UNL A   1      32.240  28.287  27.973  1.00  0.00    -0.283 OA
BRANCH  13  15
ATOM     15  C   UNL A   1      32.828  27.059  26.048  1.00  0.00     0.054 A 
ATOM     16  N   UNL A   1      33.307  24.964  25.312  1.00  0.00    -0.240 N 
ATOM     17  C   UNL A   1      33.837  26.072  25.971  1.00  0.00     0.117 A 
ATOM     18  C   UNL A   1      32.116  25.372  24.672  1.00  0.00     0.065 A 
ATOM     19  C   UNL A   1      31.789  26.635  25.144  1.00  0.00     0.012 A 
ATOM     20  C   UNL A   1      31.256  24.690  23.770  1.00  0.00     0.028 A 
ATOM     21  C   UNL A   1      30.552  27.195  24.730  1.00  0.00     0.011 A 
ATOM     22  C   UNL A   1      30.029  25.235  23.425  1.00  0.00     0.002 A 
ATOM     23  C   UNL A   1      29.681  26.483  23.895  1.00  0.00     0.001 A 
BRANCH  16  24
ATOM     24  S   UNL A   1      33.906  23.451  24.774  1.00  0.00     0.268 S 
ATOM     25  O   UNL A   1      34.783  23.102  25.892  1.00  0.00    -0.201 OA
ATOM     26  O   UNL A   1      34.510  23.906  23.518  1.00  0.00    -0.201 OA
BRANCH  24  27
ATOM     27  C   UNL A   1      33.445  21.854  24.178  1.00  0.00     0.088 A 
ATOM     28  C   UNL A   1      32.854  17.539  23.933  1.00  0.00     0.044 C 
ATOM     29  C   UNL A   1      33.055  19.029  23.939  1.00  0.00    -0.051 A 
ATOM     30  C   UNL A   1      34.052  19.506  24.765  1.00  0.00     0.005 A 
ATOM     31  C   UNL A   1      32.291  19.964  23.198  1.00  0.00     0.005 A 
ATOM     32  C   UNL A   1      34.220  20.873  24.881  1.00  0.00     0.022 A 
ATOM     33  C   UNL A   1      32.482  21.384  23.305  1.00  0.00     0.022 A 
ENDBRANCH  24  27
ENDBRANCH  16  24
ENDBRANCH  13  15
ENDBRANCH  10  13
ENDBRANCH   8   9
ENDBRANCH   5   8
ENDBRANCH   3   4
BRANCH   3  34
ATOM     34  C   UNL A   1      34.886  31.958  29.854  1.00  0.00     0.074 C 
BRANCH  34  35
ATOM     35  C   UNL A   1      34.487  33.310  29.297  1.00  0.00    -0.020 A 
ATOM     36  C   UNL A   1      34.258  33.726  27.995  1.00  0.00     0.087 A 
ATOM     37  C   UNL A   1      34.109  34.423  30.131  1.00  0.00     0.003 A 
ATOM     38  N   UNL A   1      33.563  34.907  28.032  1.00  0.00    -0.361 N 
ATOM     39  C   UNL A   1      33.547  35.395  29.307  1.00  0.00     0.046 A 
ATOM     40  C   UNL A   1      34.129  34.665  31.521  1.00  0.00     0.010 A 
ATOM     41  H   UNL A   1      33.139  35.339  27.255  1.00  0.00     0.166 HD
ATOM     42  C   UNL A   1      33.015  36.588  29.787  1.00  0.00     0.026 A 
ATOM     43  C   UNL A   1      33.615  35.869  32.020  1.00  0.00     0.001 A 
ATOM     44  C   UNL A   1      33.063  36.813  31.161  1.00  0.00     0.002 A 
ENDBRANCH  34  35
ENDBRANCH   3  34
ENDBRANCH   1   3
BRANCH   1  45
ATOM     45  O   UNL A   1      36.796  31.410  32.588  1.00  0.00    -0.461 OA
BRANCH  45  46
ATOM     46  C   UNL A   1      37.836  32.395  32.420  1.00  0.00     0.274 C 
BRANCH  46  47
ATOM     47  C   UNL A   1      39.221  31.959  32.917  1.00  0.00     0.275 C 
BRANCH  47  48
ATOM     48  O   UNL A   1      39.399  31.195  34.138  1.00  0.00    -0.458 OA
BRANCH  48  49
ATOM     49  C   UNL A   1      40.016  29.987  34.203  1.00  0.00     0.338 C 
ATOM     50  O   UNL A   1      40.018  29.301  35.200  1.00  0.00    -0.246 OA
BRANCH  49  51
ATOM     51  C   UNL A   1      40.760  29.631  32.976  1.00  0.00     0.060 A 
ATOM     52  C   UNL A   1      42.154  29.789  32.957  1.00  0.00     0.016 A 
ATOM     53  C   UNL A   1      40.101  29.011  31.921  1.00  0.00     0.016 A 
ATOM     54  C   UNL A   1      42.910  29.223  31.928  1.00  0.00     0.010 A 
ATOM     55  C   UNL A   1      40.851  28.398  30.946  1.00  0.00     0.010 A 
ATOM     56  C   UNL A   1      42.252  28.535  30.920  1.00  0.00    -0.014 A 
BRANCH  56  57
ATOM     57  C   UNL A   1      42.887  28.062  29.695  1.00  0.00     0.031 A 
ATOM     58  C   UNL A   1      43.367  26.674  29.507  1.00  0.00     0.074 A 
ATOM     59  C   UNL A   1      42.860  29.000  28.717  1.00  0.00     0.049 A 
ATOM     60  N   UNL A   1      44.150  26.317  28.548  1.00  0.00    -0.248 NA
ATOM     61  C   UNL A   1      43.025  25.555  30.379  1.00  0.00     0.031 C 
ATOM     62  C   UNL A   1      43.011  28.893  27.283  1.00  0.00     0.029 A 
ATOM     63  N   UNL A   1      42.773  30.388  28.924  1.00  0.00    -0.354 N 
ATOM     64  C   UNL A   1      44.150  24.930  28.493  1.00  0.00     0.074 A 
ATOM     65  C   UNL A   1      43.539  24.506  29.721  1.00  0.00     0.031 C 
ATOM     66  C   UNL A   1      43.286  30.119  26.788  1.00  0.00     0.029 A 
ATOM     67  C   UNL A   1      43.545  30.988  27.931  1.00  0.00     0.049 A 
ATOM     68  H   UNL A   1      42.267  30.848  29.633  1.00  0.00     0.167 HD
ATOM     69  C   UNL A   1      44.493  24.338  27.314  1.00  0.00     0.034 A 
ATOM     70  C   UNL A   1      44.734  31.616  28.210  1.00  0.00     0.034 A 
ATOM     71  C   UNL A   1      44.975  25.375  26.387  1.00  0.00     0.049 A 
ATOM     72  C   UNL A   1      45.888  30.970  27.467  1.00  0.00     0.074 A 
ATOM     73  C   UNL A   1      44.311  26.122  25.429  1.00  0.00     0.029 A 
ATOM     74  N   UNL A   1      46.175  26.028  26.643  1.00  0.00    -0.354 N 
ATOM     75  N   UNL A   1      45.852  29.759  26.990  1.00  0.00    -0.248 NA
ATOM     76  C   UNL A   1      47.189  31.605  27.293  1.00  0.00     0.031 C 
ATOM     77  C   UNL A   1      45.077  27.290  25.184  1.00  0.00     0.029 A 
ATOM     78  C   UNL A   1      46.219  27.238  25.966  1.00  0.00     0.049 A 
ATOM     79  H   UNL A   1      46.891  25.680  27.223  1.00  0.00     0.167 HD
ATOM     80  C   UNL A   1      47.089  29.404  26.539  1.00  0.00     0.074 A 
ATOM     81  C   UNL A   1      47.879  30.617  26.697  1.00  0.00     0.031 C 
ATOM     82  C   UNL A   1      47.363  28.131  26.123  1.00  0.00     0.034 A 
BRANCH  69  83
ATOM     83  C   UNL A   1      44.103  22.942  26.817  1.00  0.00     0.023 A 
ATOM     84  C   UNL A   1      45.069  22.309  25.990  1.00  0.00     0.012 A 
ATOM     85  C   UNL A   1      42.894  22.221  26.998  1.00  0.00     0.148 A 
ATOM     86  C   UNL A   1      44.846  21.106  25.319  1.00  0.00     0.002 A 
ATOM     87  C   UNL A   1      42.671  21.000  26.327  1.00  0.00     0.091 A 
ATOM     88  F   UNL A   1      41.952  22.693  27.819  1.00  0.00    -0.205 F 
ATOM     89  C   UNL A   1      43.640  20.457  25.478  1.00  0.00     0.022 A 
BRANCH  87  90
ATOM     90  S   UNL A   1      41.160  20.019  26.449  1.00  0.00     0.127 S 
ATOM     91  O   UNL A   1      41.472  18.866  25.602  1.00  0.00    -0.237 OA
ATOM     92  O   UNL A   1      41.087  19.717  27.878  1.00  0.00    -0.237 OA
ATOM     93  O   UNL A   1      40.079  20.855  25.954  1.00  0.00    -0.744 OA
ENDBRANCH  87  90
ENDBRANCH  69  83
BRANCH  70  94
ATOM     94  C   UNL A   1      44.889  32.018  29.655  1.00  0.00     0.023 A 
ATOM     95  C   UNL A   1      45.748  31.266  30.494  1.00  0.00     0.012 A 
ATOM     96  C   UNL A   1      44.610  33.351  29.992  1.00  0.00     0.148 A 
ATOM     97  C   UNL A   1      46.492  31.908  31.487  1.00  0.00     0.002 A 
ATOM     98  C   UNL A   1      45.366  33.984  30.958  1.00  0.00     0.091 A 
ATOM     99  F   UNL A   1      43.667  34.030  29.330  1.00  0.00    -0.205 F 
ATOM    100  C   UNL A   1      46.336  33.279  31.676  1.00  0.00     0.022 A 
BRANCH  98 101
ATOM    101  S   UNL A   1      45.129  35.743  31.177  1.00  0.00     0.127 S 
ATOM    102  O   UNL A   1      45.482  36.238  29.847  1.00  0.00    -0.237 OA
ATOM    103  O   UNL A   1      43.711  35.833  31.529  1.00  0.00    -0.237 OA
ATOM    104  O   UNL A   1      46.017  36.099  32.270  1.00  0.00    -0.744 OA
ENDBRANCH  98 101
ENDBRANCH  70  94
BRANCH  82 105
ATOM    105  C   UNL A   1      48.739  27.613  25.789  1.00  0.00     0.023 A 
ATOM    106  C   UNL A   1      49.170  27.425  24.463  1.00  0.00     0.012 A 
ATOM    107  C   UNL A   1      49.699  27.416  26.812  1.00  0.00     0.148 A 
ATOM    108  C   UNL A   1      50.453  26.957  24.170  1.00  0.00     0.002 A 
ATOM    109  C   UNL A   1      51.013  27.090  26.503  1.00  0.00     0.091 A 
ATOM    110  F   UNL A   1      49.345  27.520  28.101  1.00  0.00    -0.205 F 
ATOM    111  C   UNL A   1      51.383  26.808  25.189  1.00  0.00     0.022 A 
BRANCH 109 112
ATOM    112  S   UNL A   1      52.293  27.190  27.759  1.00  0.00     0.127 S 
ATOM    113  O   UNL A   1      53.505  26.944  26.982  1.00  0.00    -0.237 OA
ATOM    114  O   UNL A   1      52.150  28.565  28.244  1.00  0.00    -0.237 OA
ATOM    115  O   UNL A   1      51.937  26.175  28.742  1.00  0.00    -0.744 OA
ENDBRANCH 109 112
ENDBRANCH  82 105
ENDBRANCH  56  57
ENDBRANCH  49  51
ENDBRANCH  48  49
ENDBRANCH  47  48
ENDBRANCH  46  47
ENDBRANCH  45  46
ENDBRANCH   1  45
TORSDOF 23
ENDMDL
MODEL 2
REMARK VINA RESULT:     -11.8      2.690      7.308
REMARK SMILES Cc1ccc(S(=O)(=O)n2cc(C(=O)C(=O)NCC(=O)N[C@@H](Cc3c[nH]c4ccccc34)C(=O)OCCOC(=O)c3ccc(-c4c5nc(c(-c6cccc(S(=O)(=O)[O-])c6F)c6ccc([nH]6)c(-c6cccc(S(=O)(=O)[O-])c6F)c6nc(c(-c7cccc(S(=O)(=O)[O-])c7F)c7ccc4[nH]7)C=C6)C=C5)cc3)c3ccccc32)cc1
REMARK SMILES IDX 32 1 33 2 21 3 20 4 18 5 19 6 17 8 16 9 14 10 15 11 12 13
REMARK SMILES IDX 13 14 11 15 9 16 10 17 108 18 103 19 107 20 104 21 106 22
REMARK SMILES IDX 105 23 6 24 7 25 8 26 5 27 1 28 2 29 3 30 110 31 4 32 109 33
REMARK SMILES IDX 22 34 23 35 24 36 31 37 25 38 26 39 30 40 27 42 29 43 28 44
REMARK SMILES IDX 34 45 35 46 36 47 37 48 38 49 39 50 40 51 41 52 102 53 42 54
REMARK SMILES IDX 101 55 43 56 44 57 45 58 95 59 46 60 100 61 94 62 96 63
REMARK SMILES IDX 47 64 99 65 93 66 92 67 48 69 80 70 60 71 79 72 61 73 64 74
REMARK SMILES IDX 78 75 97 76 62 77 63 78 77 80 98 81 65 82 49 83 50 84 58 85
REMARK SMILES IDX 51 86 53 87 59 88 52 89 54 90 55 91 56 92 57 93 81 94 82 95
REMARK SMILES IDX 90 96 83 97 85 98 91 99 84 100 86 101 87 102 88 103 89 104
REMARK SMILES IDX 66 105 67 106 75 107 68 108 70 109 76 110 69 111 71 112
REMARK SMILES IDX 72 113 73 114 74 115
REMARK H PARENT 20 7 16 12 25 41 96 68 64 79
REMARK Flexibility Score: inf
ROOT
ATOM      1  C   UNL A   1      36.542  30.165  28.462  1.00  0.00     0.329 C 
ATOM      2  O   UNL A   1      36.764  29.124  27.855  1.00  0.00    -0.250 OA
ENDROOT
BRANCH   1   3
ATOM      3  C   UNL A   1      35.579  31.248  27.942  1.00  0.00     0.196 C 
BRANCH   3   4
ATOM      4  N   UNL A   1      34.156  30.910  27.994  1.00  0.00    -0.341 N 
ATOM      5  C   UNL A   1      33.409  30.132  27.155  1.00  0.00     0.240 C 
ATOM      6  O   UNL A   1      32.190  30.123  27.360  1.00  0.00    -0.273 OA
ATOM      7  H   UNL A   1      33.661  31.302  28.750  1.00  0.00     0.164 HD
BRANCH   5   8
ATOM      8  C   UNL A   1      34.032  29.242  26.033  1.00  0.00     0.216 C 
BRANCH   8   9
ATOM      9  N   UNL A   1      33.488  29.301  24.674  1.00  0.00    -0.340 N 
ATOM     10  C   UNL A   1      32.508  28.463  24.103  1.00  0.00     0.292 C 
ATOM     11  O   UNL A   1      31.944  28.798  23.064  1.00  0.00    -0.265 OA
ATOM     12  H   UNL A   1      33.848  30.008  24.090  1.00  0.00     0.164 HD
BRANCH  10  13
ATOM     13  C   UNL A   1      31.992  27.233  24.880  1.00  0.00     0.252 C 
ATOM     14  O   UNL A   1      31.014  27.467  25.603  1.00  0.00    -0.283 OA
BRANCH  13  15
ATOM     15  C   UNL A   1      32.580  25.862  24.874  1.00  0.00     0.054 A 
ATOM     16  N   UNL A   1      33.204  23.729  25.341  1.00  0.00    -0.240 N 
ATOM     17  C   UNL A   1      33.013  24.991  25.900  1.00  0.00     0.117 A 
ATOM     18  C   UNL A   1      33.242  23.879  23.938  1.00  0.00     0.065 A 
ATOM     19  C   UNL A   1      32.823  25.167  23.635  1.00  0.00     0.012 A 
ATOM     20  C   UNL A   1      33.538  22.952  22.903  1.00  0.00     0.028 A 
ATOM     21  C   UNL A   1      32.659  25.504  22.266  1.00  0.00     0.011 A 
ATOM     22  C   UNL A   1      33.317  23.289  21.577  1.00  0.00     0.002 A 
ATOM     23  C   UNL A   1      32.888  24.559  21.258  1.00  0.00     0.001 A 
BRANCH  16  24
ATOM     24  S   UNL A   1      33.782  22.213  25.896  1.00  0.00     0.268 S 
ATOM     25  O   UNL A   1      33.000  22.067  27.125  1.00  0.00    -0.201 OA
ATOM     26  O   UNL A   1      35.202  22.562  26.000  1.00  0.00    -0.201 OA
BRANCH  24  27
ATOM     27  C   UNL A   1      34.048  20.526  25.448  1.00  0.00     0.088 A 
ATOM     28  C   UNL A   1      33.313  16.370  24.348  1.00  0.00     0.044 C 
ATOM     29  C   UNL A   1      33.637  17.781  24.753  1.00  0.00    -0.051 A 
ATOM     30  C   UNL A   1      32.654  18.457  25.447  1.00  0.00     0.005 A 
ATOM     31  C   UNL A   1      34.841  18.465  24.455  1.00  0.00     0.005 A 
ATOM     32  C   UNL A   1      32.860  19.787  25.763  1.00  0.00     0.022 A 
ATOM     33  C   UNL A   1      35.061  19.842  24.803  1.00  0.00     0.022 A 
ENDBRANCH  24  27
ENDBRANCH  16  24
ENDBRANCH  13  15
ENDBRANCH  10  13
ENDBRANCH   8   9
ENDBRANCH   5   8
ENDBRANCH   3   4
BRANCH   3  34
ATOM     34  C   UNL A   1      35.852  32.633  28.567  1.00  0.00     0.074 C 
BRANCH  34  35
ATOM     35  C   UNL A   1      34.989  33.172  29.689  1.00  0.00    -0.020 A 
ATOM     36  C   UNL A   1      34.793  32.719  30.985  1.00  0.00     0.087 A 
ATOM     37  C   UNL A   1      34.295  34.433  29.612  1.00  0.00     0.003 A 
ATOM     38  N   UNL A   1      34.236  33.733  31.720  1.00  0.00    -0.361 N 
ATOM     39  C   UNL A   1      33.838  34.742  30.891  1.00  0.00     0.046 A 
ATOM     40  C   UNL A   1      34.076  35.376  28.586  1.00  0.00     0.010 A 
ATOM     41  H   UNL A   1      34.137  33.734  32.700  1.00  0.00     0.166 HD
ATOM     42  C   UNL A   1      33.172  35.925  31.199  1.00  0.00     0.026 A 
ATOM     43  C   UNL A   1      33.391  36.564  28.873  1.00  0.00     0.001 A 
ATOM     44  C   UNL A   1      32.951  36.832  30.164  1.00  0.00     0.002 A 
ENDBRANCH  34  35
ENDBRANCH   3  34
ENDBRANCH   1   3
BRANCH   1  45
ATOM     45  O   UNL A   1      37.072  30.395  29.706  1.00  0.00    -0.461 OA
BRANCH  45  46
ATOM     46  C   UNL A   1      36.641  29.426  30.683  1.00  0.00     0.274 C 
BRANCH  46  47
ATOM     47  C   UNL A   1      37.712  28.406  31.094  1.00  0.00     0.275 C 
BRANCH  47  48
ATOM     48  O   UNL A   1      39.119  28.604  30.804  1.00  0.00    -0.458 OA
BRANCH  48  49
ATOM     49  C   UNL A   1      40.055  28.923  31.734  1.00  0.00     0.338 C 
ATOM     50  O   UNL A   1      39.774  29.257  32.863  1.00  0.00    -0.246 OA
BRANCH  49  51
ATOM     51  C   UNL A   1      41.440  28.914  31.216  1.00  0.00     0.060 A 
ATOM     52  C   UNL A   1      42.497  28.685  32.109  1.00  0.00     0.016 A 
ATOM     53  C   UNL A   1      41.668  28.982  29.846  1.00  0.00     0.016 A 
ATOM     54  C   UNL A   1      43.778  28.409  31.622  1.00  0.00     0.010 A 
ATOM     55  C   UNL A   1      42.911  28.645  29.369  1.00  0.00     0.010 A 
ATOM     56  C   UNL A   1      43.981  28.399  30.251  1.00  0.00    -0.014 A 
BRANCH  56  57
ATOM     57  C   UNL A   1      45.289  28.317  29.612  1.00  0.00     0.031 A 
ATOM     58  C   UNL A   1      46.019  29.494  29.089  1.00  0.00     0.074 A 
ATOM     59  C   UNL A   1      45.805  27.065  29.677  1.00  0.00     0.049 A 
ATOM     60  N   UNL A   1      47.036  29.409  28.304  1.00  0.00    -0.248 NA
ATOM     61  C   UNL A   1      45.674  30.881  29.388  1.00  0.00     0.031 C 
ATOM     62  C   UNL A   1      47.160  26.579  29.535  1.00  0.00     0.029 A 
ATOM     63  N   UNL A   1      45.056  25.882  29.806  1.00  0.00    -0.354 N 
ATOM     64  C   UNL A   1      47.646  30.654  28.260  1.00  0.00     0.074 A 
ATOM     65  C   UNL A   1      46.697  31.557  28.846  1.00  0.00     0.031 C 
ATOM     66  C   UNL A   1      47.117  25.250  29.303  1.00  0.00     0.029 A 
ATOM     67  C   UNL A   1      45.719  24.908  29.062  1.00  0.00     0.049 A 
ATOM     68  H   UNL A   1      44.226  25.765  30.321  1.00  0.00     0.167 HD
ATOM     69  C   UNL A   1      48.962  30.709  27.907  1.00  0.00     0.034 A 
ATOM     70  C   UNL A   1      45.204  24.407  27.892  1.00  0.00     0.034 A 
ATOM     71  C   UNL A   1      49.388  29.371  27.466  1.00  0.00     0.049 A 
ATOM     72  C   UNL A   1      46.139  24.660  26.725  1.00  0.00     0.074 A 
ATOM     73  C   UNL A   1      49.968  28.323  28.162  1.00  0.00     0.029 A 
ATOM     74  N   UNL A   1      48.885  28.838  26.286  1.00  0.00    -0.354 N 
ATOM     75  N   UNL A   1      47.064  25.576  26.726  1.00  0.00    -0.248 NA
ATOM     76  C   UNL A   1      46.035  23.967  25.446  1.00  0.00     0.031 C 
ATOM     77  C   UNL A   1      49.716  27.132  27.436  1.00  0.00     0.029 A 
ATOM     78  C   UNL A   1      49.016  27.457  26.287  1.00  0.00     0.049 A 
ATOM     79  H   UNL A   1      48.491  29.367  25.554  1.00  0.00     0.167 HD
ATOM     80  C   UNL A   1      47.614  25.678  25.482  1.00  0.00     0.074 A 
ATOM     81  C   UNL A   1      46.975  24.608  24.730  1.00  0.00     0.031 C 
ATOM     82  C   UNL A   1      48.506  26.667  25.171  1.00  0.00     0.034 A 
BRANCH  69  83
ATOM     83  C   UNL A   1      49.982  31.798  28.257  1.00  0.00     0.023 A 
ATOM     84  C   UNL A   1      50.347  31.859  29.628  1.00  0.00     0.012 A 
ATOM     85  C   UNL A   1      50.556  32.800  27.431  1.00  0.00     0.148 A 
ATOM     86  C   UNL A   1      51.142  32.867  30.174  1.00  0.00     0.002 A 
ATOM     87  C   UNL A   1      51.367  33.814  27.981  1.00  0.00     0.091 A 
ATOM     88  F   UNL A   1      50.337  32.785  26.114  1.00  0.00    -0.205 F 
ATOM     89  C   UNL A   1      51.643  33.854  29.351  1.00  0.00     0.022 A 
BRANCH  87  90
ATOM     90  S   UNL A   1      52.116  35.159  27.037  1.00  0.00     0.127 S 
ATOM     91  O   UNL A   1      52.752  34.442  25.930  1.00  0.00    -0.237 OA
ATOM     92  O   UNL A   1      50.959  35.964  26.650  1.00  0.00    -0.237 OA
ATOM     93  O   UNL A   1      53.044  35.830  27.932  1.00  0.00    -0.744 OA
ENDBRANCH  87  90
ENDBRANCH  69  83
BRANCH  70  94
ATOM     94  C   UNL A   1      43.719  24.617  27.738  1.00  0.00     0.023 A 
ATOM     95  C   UNL A   1      43.248  25.817  27.150  1.00  0.00     0.012 A 
ATOM     96  C   UNL A   1      42.902  23.478  27.699  1.00  0.00     0.148 A 
ATOM     97  C   UNL A   1      42.112  25.797  26.338  1.00  0.00     0.002 A 
ATOM     98  C   UNL A   1      41.795  23.459  26.875  1.00  0.00     0.091 A 
ATOM     99  F   UNL A   1      43.234  22.387  28.398  1.00  0.00    -0.205 F 
ATOM    100  C   UNL A   1      41.421  24.600  26.160  1.00  0.00     0.022 A 
BRANCH  98 101
ATOM    101  S   UNL A   1      40.930  21.905  26.683  1.00  0.00     0.127 S 
ATOM    102  O   UNL A   1      41.892  21.150  25.880  1.00  0.00    -0.237 OA
ATOM    103  O   UNL A   1      40.770  21.455  28.066  1.00  0.00    -0.237 OA
ATOM    104  O   UNL A   1      39.675  22.262  26.044  1.00  0.00    -0.744 OA
ENDBRANCH  98 101
ENDBRANCH  70  94
BRANCH  82 105
ATOM    105  C   UNL A   1      49.014  26.960  23.782  1.00  0.00     0.023 A 
ATOM    106  C   UNL A   1      48.181  27.465  22.767  1.00  0.00     0.012 A 
ATOM    107  C   UNL A   1      50.396  26.853  23.486  1.00  0.00     0.148 A 
ATOM    108  C   UNL A   1      48.670  27.743  21.488  1.00  0.00     0.002 A 
ATOM    109  C   UNL A   1      50.896  27.267  22.260  1.00  0.00     0.091 A 
ATOM    110  F   UNL A   1      51.240  26.324  24.384  1.00  0.00    -0.205 F 
ATOM    111  C   UNL A   1      50.034  27.664  21.239  1.00  0.00     0.022 A 
BRANCH 109 112
ATOM    112  S   UNL A   1      52.666  27.463  22.019  1.00  0.00     0.127 S 
ATOM    113  O   UNL A   1      53.029  28.351  23.121  1.00  0.00    -0.237 OA
ATOM    114  O   UNL A   1      53.155  26.088  22.159  1.00  0.00    -0.237 OA
ATOM    115  O   UNL A   1      52.806  28.008  20.675  1.00  0.00    -0.744 OA
ENDBRANCH 109 112
ENDBRANCH  82 105
ENDBRANCH  56  57
ENDBRANCH  49  51
ENDBRANCH  48  49
ENDBRANCH  47  48
ENDBRANCH  46  47
ENDBRANCH  45  46
ENDBRANCH   1  45
TORSDOF 23
ENDMDL
MODEL 3
REMARK VINA RESULT:     -11.4      3.023      7.760
REMARK SMILES Cc1ccc(S(=O)(=O)n2cc(C(=O)C(=O)NCC(=O)N[C@@H](Cc3c[nH]c4ccccc34)C(=O)OCCOC(=O)c3ccc(-c4c5nc(c(-c6cccc(S(=O)(=O)[O-])c6F)c6ccc([nH]6)c(-c6cccc(S(=O)(=O)[O-])c6F)c6nc(c(-c7cccc(S(=O)(=O)[O-])c7F)c7ccc4[nH]7)C=C6)C=C5)cc3)c3ccccc32)cc1
REMARK SMILES IDX 32 1 33 2 21 3 20 4 18 5 19 6 17 8 16 9 14 10 15 11 12 13
REMARK SMILES IDX 13 14 11 15 9 16 10 17 108 18 103 19 107 20 104 21 106 22
REMARK SMILES IDX 105 23 6 24 7 25 8 26 5 27 1 28 2 29 3 30 110 31 4 32 109 33
REMARK SMILES IDX 22 34 23 35 24 36 31 37 25 38 26 39 30 40 27 42 29 43 28 44
REMARK SMILES IDX 34 45 35 46 36 47 37 48 38 49 39 50 40 51 41 52 102 53 42 54
REMARK SMILES IDX 101 55 43 56 44 57 45 58 95 59 46 60 100 61 94 62 96 63
REMARK SMILES IDX 47 64 99 65 93 66 92 67 48 69 80 70 60 71 79 72 61 73 64 74
REMARK SMILES IDX 78 75 97 76 62 77 63 78 77 80 98 81 65 82 49 83 50 84 58 85
REMARK SMILES IDX 51 86 53 87 59 88 52 89 54 90 55 91 56 92 57 93 81 94 82 95
REMARK SMILES IDX 90 96 83 97 85 98 91 99 84 100 86 101 87 102 88 103 89 104
REMARK SMILES IDX 66 105 67 106 75 107 68 108 70 109 76 110 69 111 71 112
REMARK SMILES IDX 72 113 73 114 74 115
REMARK H PARENT 20 7 16 12 25 41 96 68 64 79
REMARK Flexibility Score: inf
ROOT
ATOM      1  C   UNL A   1      38.856  33.290  30.634  1.00  0.00     0.329 C 
ATOM      2  O   UNL A   1      38.202  33.365  29.601  1.00  0.00    -0.250 OA
ENDROOT
BRANCH   1   3
ATOM      3  C   UNL A   1      38.273  32.760  31.958  1.00  0.00     0.196 C 
BRANCH   3   4
ATOM      4  N   UNL A   1      36.901  32.256  31.889  1.00  0.00    -0.341 N 
ATOM      5  C   UNL A   1      35.719  32.937  31.822  1.00  0.00     0.240 C 
ATOM      6  O   UNL A   1      34.690  32.256  31.908  1.00  0.00    -0.273 OA
ATOM      7  H   UNL A   1      36.817  31.275  31.891  1.00  0.00     0.164 HD
BRANCH   5   8
ATOM      8  C   UNL A   1      35.633  34.478  31.582  1.00  0.00     0.216 C 
BRANCH   8   9
ATOM      9  N   UNL A   1      34.361  35.078  31.170  1.00  0.00    -0.340 N 
ATOM     10  C   UNL A   1      33.696  34.922  29.936  1.00  0.00     0.292 C 
ATOM     11  O   UNL A   1      32.516  35.244  29.830  1.00  0.00    -0.265 OA
ATOM     12  H   UNL A   1      33.918  35.659  31.831  1.00  0.00     0.164 HD
BRANCH  10  13
ATOM     13  C   UNL A   1      34.378  34.159  28.779  1.00  0.00     0.252 C 
ATOM     14  O   UNL A   1      35.341  34.758  28.280  1.00  0.00    -0.283 OA
BRANCH  13  15
ATOM     15  C   UNL A   1      33.959  32.849  28.205  1.00  0.00     0.054 A 
ATOM     16  N   UNL A   1      33.015  31.171  27.000  1.00  0.00    -0.240 N 
ATOM     17  C   UNL A   1      32.753  32.386  27.629  1.00  0.00     0.117 A 
ATOM     18  C   UNL A   1      34.259  30.699  27.471  1.00  0.00     0.065 A 
ATOM     19  C   UNL A   1      34.867  31.730  28.175  1.00  0.00     0.012 A 
ATOM     20  C   UNL A   1      34.935  29.467  27.264  1.00  0.00     0.028 A 
ATOM     21  C   UNL A   1      36.193  31.523  28.636  1.00  0.00     0.011 A 
ATOM     22  C   UNL A   1      36.249  29.312  27.675  1.00  0.00     0.002 A 
ATOM     23  C   UNL A   1      36.874  30.329  28.364  1.00  0.00     0.001 A 
BRANCH  16  24
ATOM     24  S   UNL A   1      32.086  29.986  26.180  1.00  0.00     0.268 S 
ATOM     25  O   UNL A   1      31.080  30.836  25.541  1.00  0.00    -0.201 OA
ATOM     26  O   UNL A   1      31.698  29.187  27.346  1.00  0.00    -0.201 OA
BRANCH  24  27
ATOM     27  C   UNL A   1      32.161  28.628  25.054  1.00  0.00     0.088 A 
ATOM     28  C   UNL A   1      32.284  24.565  23.472  1.00  0.00     0.044 C 
ATOM     29  C   UNL A   1      32.276  25.990  23.951  1.00  0.00    -0.051 A 
ATOM     30  C   UNL A   1      32.694  26.199  25.250  1.00  0.00     0.005 A 
ATOM     31  C   UNL A   1      31.850  27.109  23.194  1.00  0.00     0.005 A 
ATOM     32  C   UNL A   1      32.620  27.475  25.774  1.00  0.00     0.022 A 
ATOM     33  C   UNL A   1      31.793  28.439  23.735  1.00  0.00     0.022 A 
ENDBRANCH  24  27
ENDBRANCH  16  24
ENDBRANCH  13  15
ENDBRANCH  10  13
ENDBRANCH   8   9
ENDBRANCH   5   8
ENDBRANCH   3   4
BRANCH   3  34
ATOM     34  C   UNL A   1      39.210  31.753  32.657  1.00  0.00     0.074 C 
BRANCH  34  35
ATOM     35  C   UNL A   1      38.990  30.259  32.533  1.00  0.00    -0.020 A 
ATOM     36  C   UNL A   1      38.378  29.355  33.388  1.00  0.00     0.087 A 
ATOM     37  C   UNL A   1      39.281  29.518  31.332  1.00  0.00     0.003 A 
ATOM     38  N   UNL A   1      38.090  28.216  32.682  1.00  0.00    -0.361 N 
ATOM     39  C   UNL A   1      38.711  28.254  31.467  1.00  0.00     0.046 A 
ATOM     40  C   UNL A   1      39.915  29.830  30.110  1.00  0.00     0.010 A 
ATOM     41  H   UNL A   1      37.520  27.480  33.004  1.00  0.00     0.166 HD
ATOM     42  C   UNL A   1      38.746  27.289  30.465  1.00  0.00     0.026 A 
ATOM     43  C   UNL A   1      39.976  28.865  29.097  1.00  0.00     0.001 A 
ATOM     44  C   UNL A   1      39.395  27.614  29.275  1.00  0.00     0.002 A 
ENDBRANCH  34  35
ENDBRANCH   3  34
ENDBRANCH   1   3
BRANCH   1  45
ATOM     45  O   UNL A   1      40.195  33.589  30.658  1.00  0.00    -0.461 OA
BRANCH  45  46
ATOM     46  C   UNL A   1      40.622  34.121  31.929  1.00  0.00     0.274 C 
BRANCH  46  47
ATOM     47  C   UNL A   1      42.062  34.654  31.951  1.00  0.00     0.275 C 
BRANCH  47  48
ATOM     48  O   UNL A   1      43.142  33.938  32.603  1.00  0.00    -0.458 OA
BRANCH  48  49
ATOM     49  C   UNL A   1      44.451  34.053  32.265  1.00  0.00     0.338 C 
ATOM     50  O   UNL A   1      45.124  35.018  32.553  1.00  0.00    -0.246 OA
BRANCH  49  51
ATOM     51  C   UNL A   1      44.954  32.938  31.434  1.00  0.00     0.060 A 
ATOM     52  C   UNL A   1      46.332  32.839  31.194  1.00  0.00     0.016 A 
ATOM     53  C   UNL A   1      44.087  31.930  31.029  1.00  0.00     0.016 A 
ATOM     54  C   UNL A   1      46.865  31.670  30.644  1.00  0.00     0.010 A 
ATOM     55  C   UNL A   1      44.620  30.757  30.552  1.00  0.00     0.010 A 
ATOM     56  C   UNL A   1      46.003  30.635  30.317  1.00  0.00    -0.014 A 
BRANCH  56  57
ATOM     57  C   UNL A   1      46.390  29.445  29.568  1.00  0.00     0.031 A 
ATOM     58  C   UNL A   1      46.342  29.357  28.091  1.00  0.00     0.074 A 
ATOM     59  C   UNL A   1      46.918  28.491  30.373  1.00  0.00     0.049 A 
ATOM     60  N   UNL A   1      46.428  28.248  27.442  1.00  0.00    -0.248 NA
ATOM     61  C   UNL A   1      46.182  30.501  27.199  1.00  0.00     0.031 C 
ATOM     62  C   UNL A   1      47.753  27.347  30.082  1.00  0.00     0.029 A 
ATOM     63  N   UNL A   1      46.660  28.353  31.749  1.00  0.00    -0.354 N 
ATOM     64  C   UNL A   1      46.652  28.552  26.107  1.00  0.00     0.074 A 
ATOM     65  C   UNL A   1      46.368  29.954  25.989  1.00  0.00     0.031 C 
ATOM     66  C   UNL A   1      47.704  26.501  31.132  1.00  0.00     0.029 A 
ATOM     67  C   UNL A   1      46.648  26.985  32.016  1.00  0.00     0.049 A 
ATOM     68  H   UNL A   1      46.516  29.080  32.397  1.00  0.00     0.167 HD
ATOM     69  C   UNL A   1      47.243  27.604  25.326  1.00  0.00     0.034 A 
ATOM     70  C   UNL A   1      45.494  26.314  32.333  1.00  0.00     0.034 A 
ATOM     71  C   UNL A   1      47.345  26.354  26.096  1.00  0.00     0.049 A 
ATOM     72  C   UNL A   1      45.203  25.212  31.331  1.00  0.00     0.074 A 
ATOM     73  C   UNL A   1      48.364  25.852  26.888  1.00  0.00     0.029 A 
ATOM     74  N   UNL A   1      46.194  25.652  26.431  1.00  0.00    -0.354 N 
ATOM     75  N   UNL A   1      45.704  25.178  30.130  1.00  0.00    -0.248 NA
ATOM     76  C   UNL A   1      44.257  24.129  31.578  1.00  0.00     0.031 C 
ATOM     77  C   UNL A   1      47.792  24.909  27.780  1.00  0.00     0.029 A 
ATOM     78  C   UNL A   1      46.438  24.814  27.509  1.00  0.00     0.049 A 
ATOM     79  H   UNL A   1      45.329  25.739  25.968  1.00  0.00     0.167 HD
ATOM     80  C   UNL A   1      45.121  24.173  29.416  1.00  0.00     0.074 A 
ATOM     81  C   UNL A   1      44.263  23.508  30.386  1.00  0.00     0.031 C 
ATOM     82  C   UNL A   1      45.359  24.012  28.079  1.00  0.00     0.034 A 
BRANCH  69  83
ATOM     83  C   UNL A   1      48.047  27.817  24.038  1.00  0.00     0.023 A 
ATOM     84  C   UNL A   1      47.266  28.080  22.882  1.00  0.00     0.012 A 
ATOM     85  C   UNL A   1      49.445  27.717  23.816  1.00  0.00     0.148 A 
ATOM     86  C   UNL A   1      47.792  28.155  21.591  1.00  0.00     0.002 A 
ATOM     87  C   UNL A   1      49.980  27.801  22.513  1.00  0.00     0.091 A 
ATOM     88  F   UNL A   1      50.275  27.548  24.849  1.00  0.00    -0.205 F 
ATOM     89  C   UNL A   1      49.151  28.003  21.405  1.00  0.00     0.022 A 
BRANCH  87  90
ATOM     90  S   UNL A   1      51.732  27.649  22.107  1.00  0.00     0.127 S 
ATOM     91  O   UNL A   1      51.710  27.634  20.643  1.00  0.00    -0.237 OA
ATOM     92  O   UNL A   1      52.305  28.861  22.691  1.00  0.00    -0.237 OA
ATOM     93  O   UNL A   1      52.195  26.412  22.715  1.00  0.00    -0.744 OA
ENDBRANCH  87  90
ENDBRANCH  69  83
BRANCH  70  94
ATOM     94  C   UNL A   1      44.384  27.206  32.828  1.00  0.00     0.023 A 
ATOM     95  C   UNL A   1      43.382  27.631  31.921  1.00  0.00     0.012 A 
ATOM     96  C   UNL A   1      44.086  27.174  34.198  1.00  0.00     0.148 A 
ATOM     97  C   UNL A   1      42.062  27.775  32.354  1.00  0.00     0.002 A 
ATOM     98  C   UNL A   1      42.776  27.292  34.616  1.00  0.00     0.091 A 
ATOM     99  F   UNL A   1      45.056  26.954  35.093  1.00  0.00    -0.205 F 
ATOM    100  C   UNL A   1      41.756  27.549  33.694  1.00  0.00     0.022 A 
BRANCH  98 101
ATOM    101  S   UNL A   1      42.427  27.005  36.347  1.00  0.00     0.127 S 
ATOM    102  O   UNL A   1      42.747  25.583  36.461  1.00  0.00    -0.237 OA
ATOM    103  O   UNL A   1      43.355  27.918  37.015  1.00  0.00    -0.237 OA
ATOM    104  O   UNL A   1      41.033  27.382  36.506  1.00  0.00    -0.744 OA
ENDBRANCH  98 101
ENDBRANCH  70  94
BRANCH  82 105
ATOM    105  C   UNL A   1      44.619  23.050  27.184  1.00  0.00     0.023 A 
ATOM    106  C   UNL A   1      45.284  22.106  26.381  1.00  0.00     0.012 A 
ATOM    107  C   UNL A   1      43.204  22.982  27.220  1.00  0.00     0.148 A 
ATOM    108  C   UNL A   1      44.582  21.213  25.567  1.00  0.00     0.002 A 
ATOM    109  C   UNL A   1      42.520  21.999  26.518  1.00  0.00     0.091 A 
ATOM    110  F   UNL A   1      42.501  23.887  27.916  1.00  0.00    -0.205 F 
ATOM    111  C   UNL A   1      43.199  21.146  25.650  1.00  0.00     0.022 A 
BRANCH 109 112
ATOM    112  S   UNL A   1      40.779  21.696  26.843  1.00  0.00     0.127 S 
ATOM    113  O   UNL A   1      40.477  20.614  25.910  1.00  0.00    -0.237 OA
ATOM    114  O   UNL A   1      40.787  21.299  28.253  1.00  0.00    -0.237 OA
ATOM    115  O   UNL A   1      40.121  22.971  26.589  1.00  0.00    -0.744 OA
ENDBRANCH 109 112
ENDBRANCH  82 105
ENDBRANCH  56  57
ENDBRANCH  49  51
ENDBRANCH  48  49
ENDBRANCH  47  48
ENDBRANCH  46  47
ENDBRANCH  45  46
ENDBRANCH   1  45
TORSDOF 23
ENDMDL
