MODEL 1
REMARK VINA RESULT:     -13.2      0.000      0.000
REMARK SMILES O=C(OCCOC(=O)c1ccccc1C(=O)Nc1ccc(N2C(=O)[C@H]3[C@@H]4CC[C@@H](C4)[C@@H]3C2=O)cc1)c1ccc(-c2c3nc(c(-c4cccc(S(=O)(=O)[O-])c4F)c4ccc([nH]4)c(-c4cccc(S(=O)(=O)[O-])c4F)c4nc(c(-c5cccc(S(=O)(=O)[O-])c5F)c5ccc2[nH]5)C=C4)C=C3)cc1
REMARK SMILES IDX 4 1 3 2 2 3 1 4 36 5 37 6 98 7 38 8 97 9 39 10 40 11 41 12
REMARK SMILES IDX 91 13 42 14 96 15 90 16 92 17 43 18 95 19 89 20 88 21 44 23
REMARK SMILES IDX 76 24 56 25 75 26 57 27 60 28 74 29 93 30 58 31 59 32 73 34
REMARK SMILES IDX 94 35 61 36 45 37 46 38 54 39 47 40 49 41 55 42 48 43 50 44
REMARK SMILES IDX 51 45 52 46 53 47 77 48 78 49 86 50 79 51 81 52 87 53 80 54
REMARK SMILES IDX 82 55 83 56 84 57 85 58 62 59 63 60 71 61 64 62 66 63 72 64
REMARK SMILES IDX 65 65 67 66 68 67 69 68 70 69 5 70 6 71 7 72 8 73 9 74 10 75
REMARK SMILES IDX 14 76 11 77 13 78 12 79 15 80 16 81 17 82 18 84 19 85 35 86
REMARK SMILES IDX 20 87 34 88 21 89 22 90 23 91 32 92 24 93 25 94 31 95 33 96
REMARK SMILES IDX 26 97 29 98 27 99 30 100 28 101
REMARK H PARENT 92 22 60 33 17 83
REMARK Flexibility Score: inf
ROOT
ATOM      1  C   UNL A   1      38.920  20.468  25.772  1.00  0.00     0.275 C 
ENDROOT
BRANCH   1   2
ATOM      2  O   UNL A   1      40.063  19.690  26.157  1.00  0.00    -0.458 OA
BRANCH   2   3
ATOM      3  C   UNL A   1      41.305  20.166  26.405  1.00  0.00     0.338 C 
ATOM      4  O   UNL A   1      42.269  19.413  26.508  1.00  0.00    -0.246 OA
BRANCH   3   5
ATOM      5  C   UNL A   1      41.454  21.596  26.755  1.00  0.00     0.060 A 
ATOM      6  C   UNL A   1      41.389  22.623  25.812  1.00  0.00     0.016 A 
ATOM      7  C   UNL A   1      41.633  21.907  28.110  1.00  0.00     0.016 A 
ATOM      8  C   UNL A   1      41.319  23.944  26.220  1.00  0.00     0.010 A 
ATOM      9  C   UNL A   1      41.643  23.238  28.523  1.00  0.00     0.010 A 
ATOM     10  C   UNL A   1      41.480  24.252  27.573  1.00  0.00    -0.014 A 
BRANCH  10  11
ATOM     11  C   UNL A   1      41.881  25.629  27.888  1.00  0.00     0.031 A 
ATOM     12  C   UNL A   1      43.298  25.978  27.551  1.00  0.00     0.074 A 
ATOM     13  C   UNL A   1      41.016  26.530  28.376  1.00  0.00     0.049 A 
ATOM     14  N   UNL A   1      43.870  27.146  27.526  1.00  0.00    -0.248 NA
ATOM     15  C   UNL A   1      44.168  24.867  27.111  1.00  0.00     0.031 C 
ATOM     16  C   UNL A   1      39.606  26.285  28.663  1.00  0.00     0.029 A 
ATOM     17  N   UNL A   1      41.212  27.832  28.744  1.00  0.00    -0.354 N 
ATOM     18  C   UNL A   1      45.138  26.917  27.016  1.00  0.00     0.074 A 
ATOM     19  C   UNL A   1      45.268  25.505  26.756  1.00  0.00     0.031 C 
ATOM     20  C   UNL A   1      39.085  27.372  29.260  1.00  0.00     0.029 A 
ATOM     21  C   UNL A   1      40.125  28.387  29.377  1.00  0.00     0.049 A 
ATOM     22  H   UNL A   1      42.048  28.322  28.573  1.00  0.00     0.167 HD
ATOM     23  C   UNL A   1      46.111  27.820  26.779  1.00  0.00     0.034 A 
ATOM     24  C   UNL A   1      40.022  29.577  30.000  1.00  0.00     0.034 A 
ATOM     25  C   UNL A   1      45.998  29.193  27.160  1.00  0.00     0.049 A 
ATOM     26  C   UNL A   1      41.200  30.514  29.907  1.00  0.00     0.074 A 
ATOM     27  C   UNL A   1      46.916  30.210  27.009  1.00  0.00     0.029 A 
ATOM     28  N   UNL A   1      44.907  29.717  27.839  1.00  0.00    -0.354 N 
ATOM     29  N   UNL A   1      42.332  30.351  29.258  1.00  0.00    -0.248 NA
ATOM     30  C   UNL A   1      41.084  31.809  30.590  1.00  0.00     0.031 C 
ATOM     31  C   UNL A   1      46.401  31.340  27.652  1.00  0.00     0.029 A 
ATOM     32  C   UNL A   1      45.149  31.033  28.172  1.00  0.00     0.049 A 
ATOM     33  H   UNL A   1      44.082  29.223  28.052  1.00  0.00     0.167 HD
ATOM     34  C   UNL A   1      43.041  31.533  29.415  1.00  0.00     0.074 A 
ATOM     35  C   UNL A   1      42.211  32.407  30.222  1.00  0.00     0.031 C 
ATOM     36  C   UNL A   1      44.266  31.872  28.942  1.00  0.00     0.034 A 
BRANCH  23  37
ATOM     37  C   UNL A   1      47.356  27.304  26.128  1.00  0.00     0.023 A 
ATOM     38  C   UNL A   1      47.487  27.377  24.726  1.00  0.00     0.012 A 
ATOM     39  C   UNL A   1      48.357  26.679  26.892  1.00  0.00     0.148 A 
ATOM     40  C   UNL A   1      48.591  26.813  24.090  1.00  0.00     0.002 A 
ATOM     41  C   UNL A   1      49.464  26.139  26.253  1.00  0.00     0.091 A 
ATOM     42  F   UNL A   1      48.182  26.587  28.218  1.00  0.00    -0.205 F 
ATOM     43  C   UNL A   1      49.581  26.198  24.853  1.00  0.00     0.022 A 
BRANCH  41  44
ATOM     44  S   UNL A   1      50.796  25.327  27.141  1.00  0.00     0.127 S 
ATOM     45  O   UNL A   1      51.277  26.404  28.004  1.00  0.00    -0.237 OA
ATOM     46  O   UNL A   1      50.083  24.257  27.838  1.00  0.00    -0.237 OA
ATOM     47  O   UNL A   1      51.743  24.880  26.130  1.00  0.00    -0.744 OA
ENDBRANCH  41  44
ENDBRANCH  23  37
BRANCH  24  48
ATOM     48  C   UNL A   1      38.791  29.931  30.759  1.00  0.00     0.023 A 
ATOM     49  C   UNL A   1      38.550  29.375  32.030  1.00  0.00     0.012 A 
ATOM     50  C   UNL A   1      37.840  30.820  30.215  1.00  0.00     0.148 A 
ATOM     51  C   UNL A   1      37.376  29.671  32.727  1.00  0.00     0.002 A 
ATOM     52  C   UNL A   1      36.692  31.144  30.931  1.00  0.00     0.091 A 
ATOM     53  F   UNL A   1      38.064  31.323  28.992  1.00  0.00    -0.205 F 
ATOM     54  C   UNL A   1      36.451  30.561  32.183  1.00  0.00     0.022 A 
BRANCH  52  55
ATOM     55  S   UNL A   1      35.514  32.359  30.327  1.00  0.00     0.127 S 
ATOM     56  O   UNL A   1      34.522  32.376  31.399  1.00  0.00    -0.237 OA
ATOM     57  O   UNL A   1      36.333  33.568  30.227  1.00  0.00    -0.237 OA
ATOM     58  O   UNL A   1      35.061  31.844  29.039  1.00  0.00    -0.744 OA
ENDBRANCH  52  55
ENDBRANCH  24  48
BRANCH  36  59
ATOM     59  C   UNL A   1      44.777  33.247  29.263  1.00  0.00     0.023 A 
ATOM     60  C   UNL A   1      45.564  33.442  30.414  1.00  0.00     0.012 A 
ATOM     61  C   UNL A   1      44.599  34.299  28.346  1.00  0.00     0.148 A 
ATOM     62  C   UNL A   1      46.161  34.678  30.651  1.00  0.00     0.002 A 
ATOM     63  C   UNL A   1      45.242  35.508  28.562  1.00  0.00     0.091 A 
ATOM     64  F   UNL A   1      43.831  34.084  27.268  1.00  0.00    -0.205 F 
ATOM     65  C   UNL A   1      46.016  35.702  29.719  1.00  0.00     0.022 A 
BRANCH  63  66
ATOM     66  S   UNL A   1      45.208  36.837  27.355  1.00  0.00     0.127 S 
ATOM     67  O   UNL A   1      46.082  36.310  26.309  1.00  0.00    -0.237 OA
ATOM     68  O   UNL A   1      43.790  36.893  26.997  1.00  0.00    -0.237 OA
ATOM     69  O   UNL A   1      45.702  38.020  28.046  1.00  0.00    -0.744 OA
ENDBRANCH  63  66
ENDBRANCH  36  59
ENDBRANCH  10  11
ENDBRANCH   3   5
ENDBRANCH   2   3
ENDBRANCH   1   2
BRANCH   1  70
ATOM     70  C   UNL A   1      37.898  19.860  24.799  1.00  0.00     0.275 C 
BRANCH  70  71
ATOM     71  O   UNL A   1      36.484  19.964  25.029  1.00  0.00    -0.458 OA
BRANCH  71  72
ATOM     72  C   UNL A   1      35.914  21.173  24.796  1.00  0.00     0.339 C 
ATOM     73  O   UNL A   1      36.224  21.958  23.926  1.00  0.00    -0.246 OA
BRANCH  72  74
ATOM     74  C   UNL A   1      34.744  21.392  25.685  1.00  0.00     0.072 A 
ATOM     75  C   UNL A   1      35.061  21.850  26.980  1.00  0.00     0.016 A 
ATOM     76  C   UNL A   1      33.400  21.205  25.330  1.00  0.00     0.054 A 
ATOM     77  C   UNL A   1      34.062  22.271  27.858  1.00  0.00     0.001 A 
ATOM     78  C   UNL A   1      32.403  21.633  26.234  1.00  0.00     0.015 A 
ATOM     79  C   UNL A   1      32.731  22.187  27.473  1.00  0.00     0.001 A 
BRANCH  76  80
ATOM     80  C   UNL A   1      32.890  20.689  24.035  1.00  0.00     0.256 C 
ATOM     81  O   UNL A   1      32.966  19.476  23.828  1.00  0.00    -0.269 OA
ATOM     82  N   UNL A   1      32.288  21.451  23.057  1.00  0.00    -0.322 N 
ATOM     83  H   UNL A   1      31.952  20.925  22.297  1.00  0.00     0.170 HD
BRANCH  82  84
ATOM     84  C   UNL A   1      32.063  22.825  22.937  1.00  0.00     0.041 A 
ATOM     85  C   UNL A   1      30.781  23.264  23.273  1.00  0.00     0.028 A 
ATOM     86  C   UNL A   1      33.054  23.758  22.651  1.00  0.00     0.028 A 
ATOM     87  C   UNL A   1      30.590  24.593  23.655  1.00  0.00     0.029 A 
ATOM     88  C   UNL A   1      32.829  25.111  22.935  1.00  0.00     0.029 A 
ATOM     89  C   UNL A   1      31.645  25.507  23.575  1.00  0.00     0.052 A 
BRANCH  89  90
ATOM     90  N   UNL A   1      31.632  26.703  24.332  1.00  0.00    -0.250 N 
ATOM     91  C   UNL A   1      32.085  27.938  23.856  1.00  0.00     0.237 C 
ATOM     92  C   UNL A   1      31.366  26.740  25.717  1.00  0.00     0.237 C 
ATOM     93  O   UNL A   1      32.177  28.356  22.715  1.00  0.00    -0.274 OA
ATOM     94  C   UNL A   1      32.572  28.622  25.087  1.00  0.00     0.095 C 
ATOM     95  C   UNL A   1      31.503  28.189  26.068  1.00  0.00     0.095 C 
ATOM     96  O   UNL A   1      30.924  25.880  26.459  1.00  0.00    -0.274 OA
ATOM     97  C   UNL A   1      32.801  30.081  25.501  1.00  0.00     0.002 C 
ATOM     98  C   UNL A   1      31.880  29.030  27.286  1.00  0.00     0.002 C 
ATOM     99  C   UNL A   1      33.992  30.003  26.478  1.00  0.00     0.005 C 
ATOM    100  C   UNL A   1      31.711  30.390  26.562  1.00  0.00     0.009 C 
ATOM    101  C   UNL A   1      33.404  29.104  27.607  1.00  0.00     0.005 C 
ENDBRANCH  89  90
ENDBRANCH  82  84
ENDBRANCH  76  80
ENDBRANCH  72  74
ENDBRANCH  71  72
ENDBRANCH  70  71
ENDBRANCH   1  70
TORSDOF 17
ENDMDL
MODEL 2
REMARK VINA RESULT:     -12.9      4.778     10.676
REMARK SMILES O=C(OCCOC(=O)c1ccccc1C(=O)Nc1ccc(N2C(=O)[C@H]3[C@@H]4CC[C@@H](C4)[C@@H]3C2=O)cc1)c1ccc(-c2c3nc(c(-c4cccc(S(=O)(=O)[O-])c4F)c4ccc([nH]4)c(-c4cccc(S(=O)(=O)[O-])c4F)c4nc(c(-c5cccc(S(=O)(=O)[O-])c5F)c5ccc2[nH]5)C=C4)C=C3)cc1
REMARK SMILES IDX 4 1 3 2 2 3 1 4 36 5 37 6 98 7 38 8 97 9 39 10 40 11 41 12
REMARK SMILES IDX 91 13 42 14 96 15 90 16 92 17 43 18 95 19 89 20 88 21 44 23
REMARK SMILES IDX 76 24 56 25 75 26 57 27 60 28 74 29 93 30 58 31 59 32 73 34
REMARK SMILES IDX 94 35 61 36 45 37 46 38 54 39 47 40 49 41 55 42 48 43 50 44
REMARK SMILES IDX 51 45 52 46 53 47 77 48 78 49 86 50 79 51 81 52 87 53 80 54
REMARK SMILES IDX 82 55 83 56 84 57 85 58 62 59 63 60 71 61 64 62 66 63 72 64
REMARK SMILES IDX 65 65 67 66 68 67 69 68 70 69 5 70 6 71 7 72 8 73 9 74 10 75
REMARK SMILES IDX 14 76 11 77 13 78 12 79 15 80 16 81 17 82 18 84 19 85 35 86
REMARK SMILES IDX 20 87 34 88 21 89 22 90 23 91 32 92 24 93 25 94 31 95 33 96
REMARK SMILES IDX 26 97 29 98 27 99 30 100 28 101
REMARK H PARENT 92 22 60 33 17 83
REMARK Flexibility Score: inf
ROOT
ATOM      1  C   UNL A   1      33.338  31.465  27.219  1.00  0.00     0.275 C 
ENDROOT
BRANCH   1   2
ATOM      2  O   UNL A   1      33.298  32.804  27.734  1.00  0.00    -0.458 OA
BRANCH   2   3
ATOM      3  C   UNL A   1      34.150  33.337  28.642  1.00  0.00     0.338 C 
ATOM      4  O   UNL A   1      34.061  34.511  28.987  1.00  0.00    -0.246 OA
BRANCH   3   5
ATOM      5  C   UNL A   1      35.321  32.537  29.061  1.00  0.00     0.060 A 
ATOM      6  C   UNL A   1      35.236  31.479  29.968  1.00  0.00     0.016 A 
ATOM      7  C   UNL A   1      36.555  32.855  28.478  1.00  0.00     0.016 A 
ATOM      8  C   UNL A   1      36.316  30.633  30.159  1.00  0.00     0.010 A 
ATOM      9  C   UNL A   1      37.669  32.056  28.725  1.00  0.00     0.010 A 
ATOM     10  C   UNL A   1      37.541  30.942  29.563  1.00  0.00    -0.014 A 
BRANCH  10  11
ATOM     11  C   UNL A   1      38.734  30.329  30.161  1.00  0.00     0.031 A 
ATOM     12  C   UNL A   1      39.162  30.907  31.474  1.00  0.00     0.074 A 
ATOM     13  C   UNL A   1      39.352  29.278  29.603  1.00  0.00     0.049 A 
ATOM     14  N   UNL A   1      40.037  30.453  32.323  1.00  0.00    -0.248 NA
ATOM     15  C   UNL A   1      38.453  32.123  31.927  1.00  0.00     0.031 C 
ATOM     16  C   UNL A   1      38.953  28.617  28.365  1.00  0.00     0.029 A 
ATOM     17  N   UNL A   1      40.471  28.600  30.000  1.00  0.00    -0.354 N 
ATOM     18  C   UNL A   1      39.941  31.289  33.424  1.00  0.00     0.074 A 
ATOM     19  C   UNL A   1      38.940  32.287  33.143  1.00  0.00     0.031 C 
ATOM     20  C   UNL A   1      39.875  27.691  28.045  1.00  0.00     0.029 A 
ATOM     21  C   UNL A   1      40.913  27.689  29.070  1.00  0.00     0.049 A 
ATOM     22  H   UNL A   1      40.916  28.750  30.865  1.00  0.00     0.167 HD
ATOM     23  C   UNL A   1      40.632  31.218  34.580  1.00  0.00     0.034 A 
ATOM     24  C   UNL A   1      42.052  26.971  29.060  1.00  0.00     0.034 A 
ATOM     25  C   UNL A   1      41.702  30.293  34.784  1.00  0.00     0.049 A 
ATOM     26  C   UNL A   1      42.935  27.052  30.280  1.00  0.00     0.074 A 
ATOM     27  C   UNL A   1      42.507  30.133  35.891  1.00  0.00     0.029 A 
ATOM     28  N   UNL A   1      42.158  29.416  33.810  1.00  0.00    -0.354 N 
ATOM     29  N   UNL A   1      42.733  27.712  31.398  1.00  0.00    -0.248 NA
ATOM     30  C   UNL A   1      44.176  26.268  30.263  1.00  0.00     0.031 C 
ATOM     31  C   UNL A   1      43.491  29.194  35.563  1.00  0.00     0.029 A 
ATOM     32  C   UNL A   1      43.275  28.748  34.265  1.00  0.00     0.049 A 
ATOM     33  H   UNL A   1      41.745  29.288  32.925  1.00  0.00     0.167 HD
ATOM     34  C   UNL A   1      43.794  27.390  32.234  1.00  0.00     0.074 A 
ATOM     35  C   UNL A   1      44.639  26.474  31.492  1.00  0.00     0.031 C 
ATOM     36  C   UNL A   1      44.054  27.810  33.497  1.00  0.00     0.034 A 
BRANCH  23  37
ATOM     37  C   UNL A   1      40.252  32.200  35.645  1.00  0.00     0.023 A 
ATOM     38  C   UNL A   1      41.026  33.366  35.820  1.00  0.00     0.012 A 
ATOM     39  C   UNL A   1      39.184  31.932  36.517  1.00  0.00     0.148 A 
ATOM     40  C   UNL A   1      40.753  34.243  36.868  1.00  0.00     0.002 A 
ATOM     41  C   UNL A   1      38.904  32.822  37.545  1.00  0.00     0.091 A 
ATOM     42  F   UNL A   1      38.496  30.794  36.351  1.00  0.00    -0.205 F 
ATOM     43  C   UNL A   1      39.690  33.973  37.727  1.00  0.00     0.022 A 
BRANCH  41  44
ATOM     44  S   UNL A   1      37.559  32.570  38.706  1.00  0.00     0.127 S 
ATOM     45  O   UNL A   1      37.810  33.627  39.685  1.00  0.00    -0.237 OA
ATOM     46  O   UNL A   1      36.387  32.786  37.860  1.00  0.00    -0.237 OA
ATOM     47  O   UNL A   1      37.712  31.214  39.215  1.00  0.00    -0.744 OA
ENDBRANCH  41  44
ENDBRANCH  23  37
BRANCH  24  48
ATOM     48  C   UNL A   1      42.417  26.143  27.876  1.00  0.00     0.023 A 
ATOM     49  C   UNL A   1      43.249  26.667  26.869  1.00  0.00     0.012 A 
ATOM     50  C   UNL A   1      41.927  24.827  27.739  1.00  0.00     0.148 A 
ATOM     51  C   UNL A   1      43.559  25.910  25.735  1.00  0.00     0.002 A 
ATOM     52  C   UNL A   1      42.273  24.063  26.629  1.00  0.00     0.091 A 
ATOM     53  F   UNL A   1      41.112  24.348  28.690  1.00  0.00    -0.205 F 
ATOM     54  C   UNL A   1      43.078  24.607  25.618  1.00  0.00     0.022 A 
BRANCH  52  55
ATOM     55  S   UNL A   1      41.767  22.346  26.471  1.00  0.00     0.127 S 
ATOM     56  O   UNL A   1      42.397  21.738  27.639  1.00  0.00    -0.237 OA
ATOM     57  O   UNL A   1      40.309  22.441  26.538  1.00  0.00    -0.237 OA
ATOM     58  O   UNL A   1      42.273  21.917  25.171  1.00  0.00    -0.744 OA
ENDBRANCH  52  55
ENDBRANCH  24  48
BRANCH  36  59
ATOM     59  C   UNL A   1      45.286  27.273  34.166  1.00  0.00     0.023 A 
ATOM     60  C   UNL A   1      46.510  27.952  34.014  1.00  0.00     0.012 A 
ATOM     61  C   UNL A   1      45.189  26.188  35.057  1.00  0.00     0.148 A 
ATOM     62  C   UNL A   1      47.628  27.548  34.739  1.00  0.00     0.002 A 
ATOM     63  C   UNL A   1      46.293  25.829  35.816  1.00  0.00     0.091 A 
ATOM     64  F   UNL A   1      44.013  25.554  35.167  1.00  0.00    -0.205 F 
ATOM     65  C   UNL A   1      47.515  26.501  35.651  1.00  0.00     0.022 A 
BRANCH  63  66
ATOM     66  S   UNL A   1      46.202  24.575  37.098  1.00  0.00     0.127 S 
ATOM     67  O   UNL A   1      45.682  23.428  36.356  1.00  0.00    -0.237 OA
ATOM     68  O   UNL A   1      47.601  24.454  37.512  1.00  0.00    -0.237 OA
ATOM     69  O   UNL A   1      45.316  25.112  38.122  1.00  0.00    -0.744 OA
ENDBRANCH  63  66
ENDBRANCH  36  59
ENDBRANCH  10  11
ENDBRANCH   3   5
ENDBRANCH   2   3
ENDBRANCH   1   2
BRANCH   1  70
ATOM     70  C   UNL A   1      32.027  30.794  26.785  1.00  0.00     0.275 C 
BRANCH  70  71
ATOM     71  O   UNL A   1      31.745  30.512  25.405  1.00  0.00    -0.458 OA
BRANCH  71  72
ATOM     72  C   UNL A   1      32.147  29.305  24.933  1.00  0.00     0.339 C 
ATOM     73  O   UNL A   1      33.291  28.915  24.838  1.00  0.00    -0.246 OA
BRANCH  72  74
ATOM     74  C   UNL A   1      30.983  28.430  24.641  1.00  0.00     0.072 A 
ATOM     75  C   UNL A   1      30.175  28.856  23.568  1.00  0.00     0.016 A 
ATOM     76  C   UNL A   1      30.659  27.245  25.318  1.00  0.00     0.054 A 
ATOM     77  C   UNL A   1      29.158  28.044  23.066  1.00  0.00     0.001 A 
ATOM     78  C   UNL A   1      29.624  26.437  24.798  1.00  0.00     0.015 A 
ATOM     79  C   UNL A   1      28.901  26.819  23.666  1.00  0.00     0.001 A 
BRANCH  76  80
ATOM     80  C   UNL A   1      31.367  26.674  26.491  1.00  0.00     0.256 C 
ATOM     81  O   UNL A   1      31.560  27.409  27.462  1.00  0.00    -0.269 OA
ATOM     82  N   UNL A   1      31.788  25.367  26.608  1.00  0.00    -0.322 N 
ATOM     83  H   UNL A   1      32.178  25.153  27.486  1.00  0.00     0.170 HD
BRANCH  82  84
ATOM     84  C   UNL A   1      31.768  24.287  25.722  1.00  0.00     0.041 A 
ATOM     85  C   UNL A   1      32.743  24.298  24.724  1.00  0.00     0.028 A 
ATOM     86  C   UNL A   1      30.950  23.171  25.868  1.00  0.00     0.028 A 
ATOM     87  C   UNL A   1      33.123  23.096  24.123  1.00  0.00     0.029 A 
ATOM     88  C   UNL A   1      31.266  21.990  25.184  1.00  0.00     0.029 A 
ATOM     89  C   UNL A   1      32.442  21.914  24.422  1.00  0.00     0.052 A 
BRANCH  89  90
ATOM     90  N   UNL A   1      33.039  20.651  24.193  1.00  0.00    -0.250 N 
ATOM     91  C   UNL A   1      32.551  19.705  23.286  1.00  0.00     0.237 C 
ATOM     92  C   UNL A   1      34.060  20.118  25.008  1.00  0.00     0.237 C 
ATOM     93  O   UNL A   1      31.868  19.851  22.287  1.00  0.00    -0.274 OA
ATOM     94  C   UNL A   1      32.957  18.406  23.893  1.00  0.00     0.095 C 
ATOM     95  C   UNL A   1      34.333  18.774  24.406  1.00  0.00     0.095 C 
ATOM     96  O   UNL A   1      34.740  20.649  25.869  1.00  0.00    -0.274 OA
ATOM     97  C   UNL A   1      33.193  16.986  23.364  1.00  0.00     0.002 C 
ATOM     98  C   UNL A   1      34.839  17.409  24.865  1.00  0.00     0.002 C 
ATOM     99  C   UNL A   1      32.790  16.082  24.548  1.00  0.00     0.005 C 
ATOM    100  C   UNL A   1      34.724  16.752  23.465  1.00  0.00     0.009 C 
ATOM    101  C   UNL A   1      33.807  16.533  25.639  1.00  0.00     0.005 C 
ENDBRANCH  89  90
ENDBRANCH  82  84
ENDBRANCH  76  80
ENDBRANCH  72  74
ENDBRANCH  71  72
ENDBRANCH  70  71
ENDBRANCH   1  70
TORSDOF 17
ENDMDL
MODEL 3
REMARK VINA RESULT:     -12.7      1.995      2.665
REMARK SMILES O=C(OCCOC(=O)c1ccccc1C(=O)Nc1ccc(N2C(=O)[C@H]3[C@@H]4CC[C@@H](C4)[C@@H]3C2=O)cc1)c1ccc(-c2c3nc(c(-c4cccc(S(=O)(=O)[O-])c4F)c4ccc([nH]4)c(-c4cccc(S(=O)(=O)[O-])c4F)c4nc(c(-c5cccc(S(=O)(=O)[O-])c5F)c5ccc2[nH]5)C=C4)C=C3)cc1
REMARK SMILES IDX 4 1 3 2 2 3 1 4 36 5 37 6 98 7 38 8 97 9 39 10 40 11 41 12
REMARK SMILES IDX 91 13 42 14 96 15 90 16 92 17 43 18 95 19 89 20 88 21 44 23
REMARK SMILES IDX 76 24 56 25 75 26 57 27 60 28 74 29 93 30 58 31 59 32 73 34
REMARK SMILES IDX 94 35 61 36 45 37 46 38 54 39 47 40 49 41 55 42 48 43 50 44
REMARK SMILES IDX 51 45 52 46 53 47 77 48 78 49 86 50 79 51 81 52 87 53 80 54
REMARK SMILES IDX 82 55 83 56 84 57 85 58 62 59 63 60 71 61 64 62 66 63 72 64
REMARK SMILES IDX 65 65 67 66 68 67 69 68 70 69 5 70 6 71 7 72 8 73 9 74 10 75
REMARK SMILES IDX 14 76 11 77 13 78 12 79 15 80 16 81 17 82 18 84 19 85 35 86
REMARK SMILES IDX 20 87 34 88 21 89 22 90 23 91 32 92 24 93 25 94 31 95 33 96
REMARK SMILES IDX 26 97 29 98 27 99 30 100 28 101
REMARK H PARENT 92 22 60 33 17 83
REMARK Flexibility Score: inf
ROOT
ATOM      1  C   UNL A   1      39.375  20.392  25.543  1.00  0.00     0.275 C 
ENDROOT
BRANCH   1   2
ATOM      2  O   UNL A   1      40.483  19.607  26.007  1.00  0.00    -0.458 OA
BRANCH   2   3
ATOM      3  C   UNL A   1      41.678  20.084  26.428  1.00  0.00     0.338 C 
ATOM      4  O   UNL A   1      42.596  19.328  26.730  1.00  0.00    -0.246 OA
BRANCH   3   5
ATOM      5  C   UNL A   1      41.798  21.530  26.715  1.00  0.00     0.060 A 
ATOM      6  C   UNL A   1      41.977  22.493  25.720  1.00  0.00     0.016 A 
ATOM      7  C   UNL A   1      41.686  21.927  28.054  1.00  0.00     0.016 A 
ATOM      8  C   UNL A   1      41.866  23.840  26.022  1.00  0.00     0.010 A 
ATOM      9  C   UNL A   1      41.653  23.282  28.378  1.00  0.00     0.010 A 
ATOM     10  C   UNL A   1      41.738  24.234  27.356  1.00  0.00    -0.014 A 
BRANCH  10  11
ATOM     11  C   UNL A   1      42.108  25.620  27.668  1.00  0.00     0.031 A 
ATOM     12  C   UNL A   1      43.516  26.001  27.325  1.00  0.00     0.074 A 
ATOM     13  C   UNL A   1      41.225  26.502  28.158  1.00  0.00     0.049 A 
ATOM     14  N   UNL A   1      44.061  27.181  27.296  1.00  0.00    -0.248 NA
ATOM     15  C   UNL A   1      44.409  24.909  26.883  1.00  0.00     0.031 C 
ATOM     16  C   UNL A   1      39.822  26.225  28.451  1.00  0.00     0.029 A 
ATOM     17  N   UNL A   1      41.393  27.808  28.523  1.00  0.00    -0.354 N 
ATOM     18  C   UNL A   1      45.332  26.980  26.782  1.00  0.00     0.074 A 
ATOM     19  C   UNL A   1      45.493  25.572  26.523  1.00  0.00     0.031 C 
ATOM     20  C   UNL A   1      39.279  27.300  29.049  1.00  0.00     0.029 A 
ATOM     21  C   UNL A   1      40.296  28.339  29.161  1.00  0.00     0.049 A 
ATOM     22  H   UNL A   1      42.217  28.317  28.349  1.00  0.00     0.167 HD
ATOM     23  C   UNL A   1      46.283  27.905  26.540  1.00  0.00     0.034 A 
ATOM     24  C   UNL A   1      40.169  29.527  29.783  1.00  0.00     0.034 A 
ATOM     25  C   UNL A   1      46.140  29.276  26.919  1.00  0.00     0.049 A 
ATOM     26  C   UNL A   1      41.325  30.491  29.684  1.00  0.00     0.074 A 
ATOM     27  C   UNL A   1      47.035  30.313  26.764  1.00  0.00     0.029 A 
ATOM     28  N   UNL A   1      45.041  29.776  27.603  1.00  0.00    -0.354 N 
ATOM     29  N   UNL A   1      42.457  30.352  29.031  1.00  0.00    -0.248 NA
ATOM     30  C   UNL A   1      41.181  31.783  30.366  1.00  0.00     0.031 C 
ATOM     31  C   UNL A   1      46.496  31.432  27.408  1.00  0.00     0.029 A 
ATOM     32  C   UNL A   1      45.254  31.097  27.933  1.00  0.00     0.049 A 
ATOM     33  H   UNL A   1      44.228  29.263  27.819  1.00  0.00     0.167 HD
ATOM     34  C   UNL A   1      43.140  31.551  29.184  1.00  0.00     0.074 A 
ATOM     35  C   UNL A   1      42.294  32.407  29.993  1.00  0.00     0.031 C 
ATOM     36  C   UNL A   1      44.355  31.917  28.705  1.00  0.00     0.034 A 
BRANCH  23  37
ATOM     37  C   UNL A   1      47.537  27.417  25.885  1.00  0.00     0.023 A 
ATOM     38  C   UNL A   1      48.583  26.908  26.683  1.00  0.00     0.012 A 
ATOM     39  C   UNL A   1      47.711  27.531  24.495  1.00  0.00     0.148 A 
ATOM     40  C   UNL A   1      49.797  26.541  26.105  1.00  0.00     0.002 A 
ATOM     41  C   UNL A   1      48.915  27.143  23.924  1.00  0.00     0.091 A 
ATOM     42  F   UNL A   1      46.714  28.058  23.770  1.00  0.00    -0.205 F 
ATOM     43  C   UNL A   1      49.961  26.655  24.727  1.00  0.00     0.022 A 
BRANCH  41  44
ATOM     44  S   UNL A   1      49.230  27.247  22.161  1.00  0.00     0.127 S 
ATOM     45  O   UNL A   1      48.548  28.492  21.810  1.00  0.00    -0.237 OA
ATOM     46  O   UNL A   1      50.690  27.317  22.120  1.00  0.00    -0.237 OA
ATOM     47  O   UNL A   1      48.653  26.045  21.575  1.00  0.00    -0.744 OA
ENDBRANCH  41  44
ENDBRANCH  23  37
BRANCH  24  48
ATOM     48  C   UNL A   1      38.932  29.854  30.546  1.00  0.00     0.023 A 
ATOM     49  C   UNL A   1      38.719  29.310  31.827  1.00  0.00     0.012 A 
ATOM     50  C   UNL A   1      37.950  30.705  29.996  1.00  0.00     0.148 A 
ATOM     51  C   UNL A   1      37.541  29.580  32.529  1.00  0.00     0.002 A 
ATOM     52  C   UNL A   1      36.799  31.004  30.717  1.00  0.00     0.091 A 
ATOM     53  F   UNL A   1      38.150  31.196  28.764  1.00  0.00    -0.205 F 
ATOM     54  C   UNL A   1      36.585  30.432  31.979  1.00  0.00     0.022 A 
BRANCH  52  55
ATOM     55  S   UNL A   1      35.579  32.173  30.104  1.00  0.00     0.127 S 
ATOM     56  O   UNL A   1      36.404  33.340  29.804  1.00  0.00    -0.237 OA
ATOM     57  O   UNL A   1      35.042  31.480  28.932  1.00  0.00    -0.237 OA
ATOM     58  O   UNL A   1      34.618  32.326  31.191  1.00  0.00    -0.744 OA
ENDBRANCH  52  55
ENDBRANCH  24  48
BRANCH  36  59
ATOM     59  C   UNL A   1      44.836  33.303  29.023  1.00  0.00     0.023 A 
ATOM     60  C   UNL A   1      45.499  33.545  30.241  1.00  0.00     0.012 A 
ATOM     61  C   UNL A   1      44.759  34.317  28.051  1.00  0.00     0.148 A 
ATOM     62  C   UNL A   1      46.074  34.788  30.490  1.00  0.00     0.002 A 
ATOM     63  C   UNL A   1      45.382  35.534  28.284  1.00  0.00     0.091 A 
ATOM     64  F   UNL A   1      44.107  34.060  26.908  1.00  0.00    -0.205 F 
ATOM     65  C   UNL A   1      46.031  35.775  29.507  1.00  0.00     0.022 A 
BRANCH  63  66
ATOM     66  S   UNL A   1      45.480  36.813  27.028  1.00  0.00     0.127 S 
ATOM     67  O   UNL A   1      44.077  37.189  26.876  1.00  0.00    -0.237 OA
ATOM     68  O   UNL A   1      46.319  37.821  27.677  1.00  0.00    -0.237 OA
ATOM     69  O   UNL A   1      46.088  36.184  25.862  1.00  0.00    -0.744 OA
ENDBRANCH  63  66
ENDBRANCH  36  59
ENDBRANCH  10  11
ENDBRANCH   3   5
ENDBRANCH   2   3
ENDBRANCH   1   2
BRANCH   1  70
ATOM     70  C   UNL A   1      38.005  19.719  25.371  1.00  0.00     0.275 C 
BRANCH  70  71
ATOM     71  O   UNL A   1      37.147  20.028  24.262  1.00  0.00    -0.458 OA
BRANCH  71  72
ATOM     72  C   UNL A   1      36.600  21.269  24.239  1.00  0.00     0.339 C 
ATOM     73  O   UNL A   1      37.018  22.228  23.628  1.00  0.00    -0.246 OA
BRANCH  72  74
ATOM     74  C   UNL A   1      35.314  21.300  24.981  1.00  0.00     0.072 A 
ATOM     75  C   UNL A   1      34.557  20.113  24.908  1.00  0.00     0.016 A 
ATOM     76  C   UNL A   1      34.831  22.378  25.739  1.00  0.00     0.054 A 
ATOM     77  C   UNL A   1      33.423  19.933  25.699  1.00  0.00     0.001 A 
ATOM     78  C   UNL A   1      33.679  22.178  26.530  1.00  0.00     0.015 A 
ATOM     79  C   UNL A   1      32.999  20.959  26.533  1.00  0.00     0.001 A 
BRANCH  76  80
ATOM     80  C   UNL A   1      35.469  23.710  25.889  1.00  0.00     0.256 C 
ATOM     81  O   UNL A   1      36.596  23.756  26.387  1.00  0.00    -0.269 OA
ATOM     82  N   UNL A   1      34.926  24.904  25.469  1.00  0.00    -0.322 N 
ATOM     83  H   UNL A   1      35.524  25.676  25.590  1.00  0.00     0.170 HD
BRANCH  82  84
ATOM     84  C   UNL A   1      33.690  25.232  24.905  1.00  0.00     0.041 A 
ATOM     85  C   UNL A   1      32.595  25.189  25.768  1.00  0.00     0.028 A 
ATOM     86  C   UNL A   1      33.526  25.721  23.613  1.00  0.00     0.028 A 
ATOM     87  C   UNL A   1      31.455  25.938  25.468  1.00  0.00     0.029 A 
ATOM     88  C   UNL A   1      32.339  26.382  23.272  1.00  0.00     0.029 A 
ATOM     89  C   UNL A   1      31.360  26.618  24.251  1.00  0.00     0.052 A 
BRANCH  89  90
ATOM     90  N   UNL A   1      30.463  27.700  24.087  1.00  0.00    -0.250 N 
ATOM     91  C   UNL A   1      29.145  27.567  23.638  1.00  0.00     0.237 C 
ATOM     92  C   UNL A   1      30.862  29.052  24.150  1.00  0.00     0.237 C 
ATOM     93  O   UNL A   1      28.390  26.613  23.687  1.00  0.00    -0.274 OA
ATOM     94  C   UNL A   1      28.889  28.859  22.942  1.00  0.00     0.095 C 
ATOM     95  C   UNL A   1      29.599  29.811  23.882  1.00  0.00     0.095 C 
ATOM     96  O   UNL A   1      31.909  29.549  24.529  1.00  0.00    -0.274 OA
ATOM     97  C   UNL A   1      27.636  29.665  22.574  1.00  0.00     0.002 C 
ATOM     98  C   UNL A   1      29.188  31.156  23.288  1.00  0.00     0.002 C 
ATOM     99  C   UNL A   1      28.029  30.375  21.262  1.00  0.00     0.005 C 
ATOM    100  C   UNL A   1      27.668  30.924  23.482  1.00  0.00     0.009 C 
ATOM    101  C   UNL A   1      29.233  31.246  21.732  1.00  0.00     0.005 C 
ENDBRANCH  89  90
ENDBRANCH  82  84
ENDBRANCH  76  80
ENDBRANCH  72  74
ENDBRANCH  71  72
ENDBRANCH  70  71
ENDBRANCH   1  70
TORSDOF 17
ENDMDL
