MODEL 1
REMARK VINA RESULT:     -11.1      0.000      0.000
REMARK SMILES CC(C)[C@@H](CNC(=O)NC[C@@]1(C)CCCO1)C(=O)OCCOC(=O)c1ccc(-c2c3nc(c(-c4cccc(S(=O)(=O)[O-])c4F)c4ccc([nH]4)c(-c4cccc(S(=O)(=O)[O-])c4F)c4nc(c(-c5cccc(S(=O)(=O)[O-])c5F)c5ccc2[nH]5)C=C4)C=C3)cc1
REMARK SMILES IDX 20 1 19 2 17 3 18 4 4 5 2 6 1 7 3 8 5 9 6 10 7 11 8 13 9 14
REMARK SMILES IDX 10 16 11 17 12 18 13 19 16 20 14 21 15 22 21 23 22 24 23 25
REMARK SMILES IDX 24 26 25 27 26 28 87 29 27 30 86 31 28 32 29 33 30 34 80 35
REMARK SMILES IDX 31 36 85 37 79 38 81 39 32 40 84 41 78 42 77 43 33 45 65 46
REMARK SMILES IDX 45 47 64 48 46 49 49 50 63 51 82 52 47 53 48 54 62 56 83 57
REMARK SMILES IDX 50 58 34 59 35 60 43 61 36 62 38 63 44 64 37 65 39 66 40 67
REMARK SMILES IDX 41 68 42 69 66 70 67 71 75 72 68 73 70 74 76 75 69 76 71 77
REMARK SMILES IDX 72 78 73 79 74 80 51 81 52 82 60 83 53 84 55 85 61 86 54 87
REMARK SMILES IDX 56 88 57 89 58 90 59 91
REMARK H PARENT 6 12 9 15 81 44 49 55
REMARK Flexibility Score: inf
ROOT
ATOM      1  C   UNL A   1      36.576  22.203  23.673  1.00  0.00     0.274 C 
ENDROOT
BRANCH   1   2
ATOM      2  O   UNL A   1      35.410  22.745  24.324  1.00  0.00    -0.462 OA
BRANCH   2   3
ATOM      3  C   UNL A   1      34.506  23.330  23.496  1.00  0.00     0.311 C 
ATOM      4  O   UNL A   1      34.579  23.330  22.271  1.00  0.00    -0.252 OA
BRANCH   3   5
ATOM      5  C   UNL A   1      33.393  24.060  24.229  1.00  0.00     0.121 C 
BRANCH   5   6
ATOM      6  C   UNL A   1      32.642  25.145  23.412  1.00  0.00    -0.001 C 
ATOM      7  C   UNL A   1      31.184  25.290  23.877  1.00  0.00     0.008 C 
ATOM      8  C   UNL A   1      33.309  26.523  23.552  1.00  0.00     0.008 C 
ENDBRANCH   5   6
BRANCH   5   9
ATOM      9  C   UNL A   1      32.495  23.001  24.887  1.00  0.00     0.133 C 
BRANCH   9  10
ATOM     10  N   UNL A   1      33.020  22.466  26.125  1.00  0.00    -0.337 N 
ATOM     11  C   UNL A   1      33.609  21.313  26.463  1.00  0.00     0.314 C 
ATOM     12  H   UNL A   1      32.923  23.086  26.884  1.00  0.00     0.165 HD
ATOM     13  O   UNL A   1      34.027  21.216  27.621  1.00  0.00    -0.249 OA
ATOM     14  N   UNL A   1      33.772  20.269  25.651  1.00  0.00    -0.335 N 
ATOM     15  H   UNL A   1      34.311  19.565  26.082  1.00  0.00     0.165 HD
BRANCH  14  16
ATOM     16  C   UNL A   1      33.378  19.876  24.301  1.00  0.00     0.152 C 
BRANCH  16  17
ATOM     17  C   UNL A   1      33.128  18.352  24.128  1.00  0.00     0.083 C 
ATOM     18  C   UNL A   1      32.540  18.073  22.736  1.00  0.00     0.044 C 
ATOM     19  C   UNL A   1      34.394  17.518  24.356  1.00  0.00     0.039 C 
ATOM     20  O   UNL A   1      32.155  17.865  25.084  1.00  0.00    -0.373 OA
ATOM     21  C   UNL A   1      33.853  16.225  24.914  1.00  0.00     0.031 C 
ATOM     22  C   UNL A   1      32.689  16.712  25.748  1.00  0.00     0.161 C 
ENDBRANCH  16  17
ENDBRANCH  14  16
ENDBRANCH   9  10
ENDBRANCH   5   9
ENDBRANCH   3   5
ENDBRANCH   2   3
ENDBRANCH   1   2
BRANCH   1  23
ATOM     23  C   UNL A   1      37.103  20.959  24.390  1.00  0.00     0.275 C 
BRANCH  23  24
ATOM     24  O   UNL A   1      37.510  21.284  25.730  1.00  0.00    -0.458 OA
BRANCH  24  25
ATOM     25  C   UNL A   1      38.820  21.132  26.010  1.00  0.00     0.338 C 
ATOM     26  O   UNL A   1      39.505  20.129  25.838  1.00  0.00    -0.246 OA
BRANCH  25  27
ATOM     27  C   UNL A   1      39.364  22.381  26.558  1.00  0.00     0.060 A 
ATOM     28  C   UNL A   1      38.876  23.612  26.108  1.00  0.00     0.016 A 
ATOM     29  C   UNL A   1      40.450  22.332  27.430  1.00  0.00     0.016 A 
ATOM     30  C   UNL A   1      39.494  24.798  26.499  1.00  0.00     0.010 A 
ATOM     31  C   UNL A   1      41.050  23.522  27.848  1.00  0.00     0.010 A 
ATOM     32  C   UNL A   1      40.596  24.760  27.359  1.00  0.00    -0.014 A 
BRANCH  32  33
ATOM     33  C   UNL A   1      41.328  26.007  27.687  1.00  0.00     0.031 A 
ATOM     34  C   UNL A   1      40.635  27.090  28.466  1.00  0.00     0.074 A 
ATOM     35  C   UNL A   1      42.600  26.171  27.279  1.00  0.00     0.049 A 
ATOM     36  N   UNL A   1      41.065  28.284  28.780  1.00  0.00    -0.248 NA
ATOM     37  C   UNL A   1      39.277  26.793  28.949  1.00  0.00     0.031 C 
ATOM     38  C   UNL A   1      43.377  25.188  26.525  1.00  0.00     0.029 A 
ATOM     39  N   UNL A   1      43.454  27.234  27.426  1.00  0.00    -0.354 N 
ATOM     40  C   UNL A   1      40.017  28.897  29.457  1.00  0.00     0.074 A 
ATOM     41  C   UNL A   1      38.931  27.943  29.511  1.00  0.00     0.031 C 
ATOM     42  C   UNL A   1      44.591  25.700  26.262  1.00  0.00     0.029 A 
ATOM     43  C   UNL A   1      44.665  27.057  26.797  1.00  0.00     0.049 A 
ATOM     44  H   UNL A   1      43.223  28.047  27.932  1.00  0.00     0.167 HD
ATOM     45  C   UNL A   1      39.970  30.137  29.998  1.00  0.00     0.034 A 
ATOM     46  C   UNL A   1      45.705  27.900  26.654  1.00  0.00     0.034 A 
ATOM     47  C   UNL A   1      41.067  31.067  29.984  1.00  0.00     0.049 A 
ATOM     48  C   UNL A   1      45.631  29.269  27.275  1.00  0.00     0.074 A 
ATOM     49  C   UNL A   1      41.127  32.333  30.537  1.00  0.00     0.029 A 
ATOM     50  N   UNL A   1      42.297  30.826  29.394  1.00  0.00    -0.354 N 
ATOM     51  N   UNL A   1      44.666  29.798  27.989  1.00  0.00    -0.248 NA
ATOM     52  C   UNL A   1      46.795  30.147  27.093  1.00  0.00     0.031 C 
ATOM     53  C   UNL A   1      42.398  32.860  30.280  1.00  0.00     0.029 A 
ATOM     54  C   UNL A   1      43.127  31.920  29.569  1.00  0.00     0.049 A 
ATOM     55  H   UNL A   1      42.544  30.000  28.920  1.00  0.00     0.167 HD
ATOM     56  C   UNL A   1      45.116  31.059  28.361  1.00  0.00     0.074 A 
ATOM     57  C   UNL A   1      46.451  31.205  27.816  1.00  0.00     0.031 C 
ATOM     58  C   UNL A   1      44.475  32.022  29.070  1.00  0.00     0.034 A 
BRANCH  45  59
ATOM     59  C   UNL A   1      38.698  30.544  30.690  1.00  0.00     0.023 A 
ATOM     60  C   UNL A   1      38.538  30.263  32.061  1.00  0.00     0.012 A 
ATOM     61  C   UNL A   1      37.687  31.243  30.003  1.00  0.00     0.148 A 
ATOM     62  C   UNL A   1      37.381  30.651  32.734  1.00  0.00     0.002 A 
ATOM     63  C   UNL A   1      36.550  31.655  30.689  1.00  0.00     0.091 A 
ATOM     64  F   UNL A   1      37.843  31.473  28.692  1.00  0.00    -0.205 F 
ATOM     65  C   UNL A   1      36.392  31.355  32.051  1.00  0.00     0.022 A 
BRANCH  63  66
ATOM     66  S   UNL A   1      35.255  32.620  29.900  1.00  0.00     0.127 S 
ATOM     67  O   UNL A   1      34.747  31.678  28.905  1.00  0.00    -0.237 OA
ATOM     68  O   UNL A   1      34.339  32.883  31.012  1.00  0.00    -0.237 OA
ATOM     69  O   UNL A   1      35.915  33.806  29.372  1.00  0.00    -0.744 OA
ENDBRANCH  63  66
ENDBRANCH  45  59
BRANCH  46  70
ATOM     70  C   UNL A   1      46.927  27.448  25.932  1.00  0.00     0.023 A 
ATOM     71  C   UNL A   1      47.085  27.775  24.572  1.00  0.00     0.012 A 
ATOM     72  C   UNL A   1      47.952  26.740  26.590  1.00  0.00     0.148 A 
ATOM     73  C   UNL A   1      48.232  27.393  23.875  1.00  0.00     0.002 A 
ATOM     74  C   UNL A   1      49.117  26.410  25.905  1.00  0.00     0.091 A 
ATOM     75  F   UNL A   1      47.775  26.412  27.878  1.00  0.00    -0.205 F 
ATOM     76  C   UNL A   1      49.254  26.724  24.545  1.00  0.00     0.022 A 
BRANCH  74  77
ATOM     77  S   UNL A   1      50.529  25.678  26.740  1.00  0.00     0.127 S 
ATOM     78  O   UNL A   1      51.474  25.509  25.640  1.00  0.00    -0.237 OA
ATOM     79  O   UNL A   1      50.890  26.715  27.708  1.00  0.00    -0.237 OA
ATOM     80  O   UNL A   1      50.020  24.453  27.345  1.00  0.00    -0.744 OA
ENDBRANCH  74  77
ENDBRANCH  46  70
BRANCH  58  81
ATOM     81  C   UNL A   1      45.210  33.310  29.314  1.00  0.00     0.023 A 
ATOM     82  C   UNL A   1      46.007  33.442  30.468  1.00  0.00     0.012 A 
ATOM     83  C   UNL A   1      45.173  34.358  28.375  1.00  0.00     0.148 A 
ATOM     84  C   UNL A   1      46.738  34.608  30.694  1.00  0.00     0.002 A 
ATOM     85  C   UNL A   1      45.932  35.503  28.589  1.00  0.00     0.091 A 
ATOM     86  F   UNL A   1      44.388  34.225  27.294  1.00  0.00    -0.205 F 
ATOM     87  C   UNL A   1      46.710  35.632  29.750  1.00  0.00     0.022 A 
BRANCH  85  88
ATOM     88  S   UNL A   1      46.005  36.825  27.374  1.00  0.00     0.127 S 
ATOM     89  O   UNL A   1      44.651  37.368  27.439  1.00  0.00    -0.237 OA
ATOM     90  O   UNL A   1      47.042  37.705  27.919  1.00  0.00    -0.237 OA
ATOM     91  O   UNL A   1      46.373  36.178  26.121  1.00  0.00    -0.744 OA
ENDBRANCH  85  88
ENDBRANCH  58  81
ENDBRANCH  32  33
ENDBRANCH  25  27
ENDBRANCH  24  25
ENDBRANCH  23  24
ENDBRANCH   1  23
TORSDOF 19
ENDMDL
MODEL 2
REMARK VINA RESULT:     -10.7      1.605      3.738
REMARK SMILES CC(C)[C@@H](CNC(=O)NC[C@@]1(C)CCCO1)C(=O)OCCOC(=O)c1ccc(-c2c3nc(c(-c4cccc(S(=O)(=O)[O-])c4F)c4ccc([nH]4)c(-c4cccc(S(=O)(=O)[O-])c4F)c4nc(c(-c5cccc(S(=O)(=O)[O-])c5F)c5ccc2[nH]5)C=C4)C=C3)cc1
REMARK SMILES IDX 20 1 19 2 17 3 18 4 4 5 2 6 1 7 3 8 5 9 6 10 7 11 8 13 9 14
REMARK SMILES IDX 10 16 11 17 12 18 13 19 16 20 14 21 15 22 21 23 22 24 23 25
REMARK SMILES IDX 24 26 25 27 26 28 87 29 27 30 86 31 28 32 29 33 30 34 80 35
REMARK SMILES IDX 31 36 85 37 79 38 81 39 32 40 84 41 78 42 77 43 33 45 65 46
REMARK SMILES IDX 45 47 64 48 46 49 49 50 63 51 82 52 47 53 48 54 62 56 83 57
REMARK SMILES IDX 50 58 34 59 35 60 43 61 36 62 38 63 44 64 37 65 39 66 40 67
REMARK SMILES IDX 41 68 42 69 66 70 67 71 75 72 68 73 70 74 76 75 69 76 71 77
REMARK SMILES IDX 72 78 73 79 74 80 51 81 52 82 60 83 53 84 55 85 61 86 54 87
REMARK SMILES IDX 56 88 57 89 58 90 59 91
REMARK H PARENT 6 12 9 15 81 44 49 55
REMARK Flexibility Score: inf
ROOT
ATOM      1  C   UNL A   1      35.277  21.463  25.415  1.00  0.00     0.274 C 
ENDROOT
BRANCH   1   2
ATOM      2  O   UNL A   1      34.736  22.207  24.306  1.00  0.00    -0.462 OA
BRANCH   2   3
ATOM      3  C   UNL A   1      33.406  22.038  24.092  1.00  0.00     0.311 C 
ATOM      4  O   UNL A   1      32.896  21.019  23.639  1.00  0.00    -0.252 OA
BRANCH   3   5
ATOM      5  C   UNL A   1      32.577  23.271  24.412  1.00  0.00     0.121 C 
BRANCH   5   6
ATOM      6  C   UNL A   1      32.143  23.429  25.895  1.00  0.00    -0.001 C 
ATOM      7  C   UNL A   1      32.426  24.847  26.415  1.00  0.00     0.008 C 
ATOM      8  C   UNL A   1      30.639  23.163  26.075  1.00  0.00     0.008 C 
ENDBRANCH   5   6
BRANCH   5   9
ATOM      9  C   UNL A   1      33.298  24.487  23.811  1.00  0.00     0.133 C 
BRANCH   9  10
ATOM     10  N   UNL A   1      33.198  24.583  22.371  1.00  0.00    -0.337 N 
ATOM     11  C   UNL A   1      32.996  25.595  21.519  1.00  0.00     0.314 C 
ATOM     12  H   UNL A   1      33.300  23.715  21.919  1.00  0.00     0.165 HD
ATOM     13  O   UNL A   1      33.059  25.333  20.314  1.00  0.00    -0.249 OA
ATOM     14  N   UNL A   1      32.731  26.853  21.871  1.00  0.00    -0.335 N 
ATOM     15  H   UNL A   1      32.711  27.445  21.085  1.00  0.00     0.165 HD
BRANCH  14  16
ATOM     16  C   UNL A   1      32.464  27.599  23.098  1.00  0.00     0.152 C 
BRANCH  16  17
ATOM     17  C   UNL A   1      30.977  28.013  23.282  1.00  0.00     0.083 C 
ATOM     18  C   UNL A   1      30.196  26.872  23.952  1.00  0.00     0.044 C 
ATOM     19  C   UNL A   1      30.822  29.314  24.078  1.00  0.00     0.039 C 
ATOM     20  O   UNL A   1      30.334  28.250  22.006  1.00  0.00    -0.373 OA
ATOM     21  C   UNL A   1      29.567  29.919  23.499  1.00  0.00     0.031 C 
ATOM     22  C   UNL A   1      29.679  29.524  22.044  1.00  0.00     0.161 C 
ENDBRANCH  16  17
ENDBRANCH  14  16
ENDBRANCH   9  10
ENDBRANCH   5   9
ENDBRANCH   3   5
ENDBRANCH   2   3
ENDBRANCH   1   2
BRANCH   1  23
ATOM     23  C   UNL A   1      36.495  20.633  25.005  1.00  0.00     0.275 C 
BRANCH  23  24
ATOM     24  O   UNL A   1      37.674  21.456  24.961  1.00  0.00    -0.458 OA
BRANCH  24  25
ATOM     25  C   UNL A   1      38.678  21.107  25.788  1.00  0.00     0.338 C 
ATOM     26  O   UNL A   1      39.093  19.976  26.018  1.00  0.00    -0.246 OA
BRANCH  25  27
ATOM     27  C   UNL A   1      39.262  22.307  26.402  1.00  0.00     0.060 A 
ATOM     28  C   UNL A   1      38.705  23.564  26.144  1.00  0.00     0.016 A 
ATOM     29  C   UNL A   1      40.442  22.197  27.136  1.00  0.00     0.016 A 
ATOM     30  C   UNL A   1      39.345  24.719  26.587  1.00  0.00     0.010 A 
ATOM     31  C   UNL A   1      41.067  23.354  27.608  1.00  0.00     0.010 A 
ATOM     32  C   UNL A   1      40.540  24.623  27.309  1.00  0.00    -0.014 A 
BRANCH  32  33
ATOM     33  C   UNL A   1      41.285  25.849  27.684  1.00  0.00     0.031 A 
ATOM     34  C   UNL A   1      40.599  26.915  28.492  1.00  0.00     0.074 A 
ATOM     35  C   UNL A   1      42.562  26.009  27.291  1.00  0.00     0.049 A 
ATOM     36  N   UNL A   1      41.041  28.092  28.849  1.00  0.00    -0.248 NA
ATOM     37  C   UNL A   1      39.233  26.619  28.955  1.00  0.00     0.031 C 
ATOM     38  C   UNL A   1      43.333  25.042  26.511  1.00  0.00     0.029 A 
ATOM     39  N   UNL A   1      43.429  27.056  27.480  1.00  0.00    -0.354 N 
ATOM     40  C   UNL A   1      39.996  28.695  29.537  1.00  0.00     0.074 A 
ATOM     41  C   UNL A   1      38.897  27.754  29.551  1.00  0.00     0.031 C 
ATOM     42  C   UNL A   1      44.556  25.547  26.275  1.00  0.00     0.029 A 
ATOM     43  C   UNL A   1      44.642  26.884  26.855  1.00  0.00     0.049 A 
ATOM     44  H   UNL A   1      43.204  27.855  28.011  1.00  0.00     0.167 HD
ATOM     45  C   UNL A   1      39.960  29.917  30.118  1.00  0.00     0.034 A 
ATOM     46  C   UNL A   1      45.695  27.718  26.749  1.00  0.00     0.034 A 
ATOM     47  C   UNL A   1      41.068  30.833  30.144  1.00  0.00     0.049 A 
ATOM     48  C   UNL A   1      45.632  29.066  27.414  1.00  0.00     0.074 A 
ATOM     49  C   UNL A   1      41.141  32.080  30.739  1.00  0.00     0.029 A 
ATOM     50  N   UNL A   1      42.300  30.596  29.556  1.00  0.00    -0.354 N 
ATOM     51  N   UNL A   1      44.668  29.584  28.137  1.00  0.00    -0.248 NA
ATOM     52  C   UNL A   1      46.809  29.935  27.270  1.00  0.00     0.031 C 
ATOM     53  C   UNL A   1      42.420  32.599  30.509  1.00  0.00     0.029 A 
ATOM     54  C   UNL A   1      43.143  31.673  29.774  1.00  0.00     0.049 A 
ATOM     55  H   UNL A   1      42.542  29.783  29.057  1.00  0.00     0.167 HD
ATOM     56  C   UNL A   1      45.131  30.827  28.554  1.00  0.00     0.074 A 
ATOM     57  C   UNL A   1      46.472  30.973  28.024  1.00  0.00     0.031 C 
ATOM     58  C   UNL A   1      44.496  31.773  29.289  1.00  0.00     0.034 A 
BRANCH  45  59
ATOM     59  C   UNL A   1      38.688  30.318  30.814  1.00  0.00     0.023 A 
ATOM     60  C   UNL A   1      38.491  29.949  32.159  1.00  0.00     0.012 A 
ATOM     61  C   UNL A   1      37.714  31.095  30.158  1.00  0.00     0.148 A 
ATOM     62  C   UNL A   1      37.332  30.329  32.835  1.00  0.00     0.002 A 
ATOM     63  C   UNL A   1      36.576  31.497  30.849  1.00  0.00     0.091 A 
ATOM     64  F   UNL A   1      37.904  31.409  28.869  1.00  0.00    -0.205 F 
ATOM     65  C   UNL A   1      36.381  31.110  32.185  1.00  0.00     0.022 A 
BRANCH  63  66
ATOM     66  S   UNL A   1      35.329  32.555  30.105  1.00  0.00     0.127 S 
ATOM     67  O   UNL A   1      36.112  33.738  29.758  1.00  0.00    -0.237 OA
ATOM     68  O   UNL A   1      34.887  31.760  28.958  1.00  0.00    -0.237 OA
ATOM     69  O   UNL A   1      34.312  32.746  31.131  1.00  0.00    -0.744 OA
ENDBRANCH  63  66
ENDBRANCH  45  59
BRANCH  46  70
ATOM     70  C   UNL A   1      46.917  27.274  26.021  1.00  0.00     0.023 A 
ATOM     71  C   UNL A   1      47.033  27.537  24.643  1.00  0.00     0.012 A 
ATOM     72  C   UNL A   1      47.981  26.638  26.690  1.00  0.00     0.148 A 
ATOM     73  C   UNL A   1      48.178  27.162  23.941  1.00  0.00     0.002 A 
ATOM     74  C   UNL A   1      49.142  26.316  25.995  1.00  0.00     0.091 A 
ATOM     75  F   UNL A   1      47.843  26.369  27.997  1.00  0.00    -0.205 F 
ATOM     76  C   UNL A   1      49.238  26.565  24.619  1.00  0.00     0.022 A 
BRANCH  74  77
ATOM     77  S   UNL A   1      50.598  25.678  26.833  1.00  0.00     0.127 S 
ATOM     78  O   UNL A   1      50.890  26.746  27.784  1.00  0.00    -0.237 OA
ATOM     79  O   UNL A   1      50.095  24.440  27.431  1.00  0.00    -0.237 OA
ATOM     80  O   UNL A   1      51.582  25.468  25.778  1.00  0.00    -0.744 OA
ENDBRANCH  74  77
ENDBRANCH  46  70
BRANCH  58  81
ATOM     81  C   UNL A   1      45.246  33.044  29.581  1.00  0.00     0.023 A 
ATOM     82  C   UNL A   1      46.032  33.128  30.747  1.00  0.00     0.012 A 
ATOM     83  C   UNL A   1      45.232  34.121  28.675  1.00  0.00     0.148 A 
ATOM     84  C   UNL A   1      46.775  34.276  31.018  1.00  0.00     0.002 A 
ATOM     85  C   UNL A   1      46.004  35.248  28.934  1.00  0.00     0.091 A 
ATOM     86  F   UNL A   1      44.458  34.033  27.583  1.00  0.00    -0.205 F 
ATOM     87  C   UNL A   1      46.771  35.330  30.107  1.00  0.00     0.022 A 
BRANCH  85  88
ATOM     88  S   UNL A   1      46.108  36.606  27.762  1.00  0.00     0.127 S 
ATOM     89  O   UNL A   1      44.706  36.994  27.626  1.00  0.00    -0.237 OA
ATOM     90  O   UNL A   1      46.944  37.578  28.470  1.00  0.00    -0.237 OA
ATOM     91  O   UNL A   1      46.732  36.042  26.571  1.00  0.00    -0.744 OA
ENDBRANCH  85  88
ENDBRANCH  58  81
ENDBRANCH  32  33
ENDBRANCH  25  27
ENDBRANCH  24  25
ENDBRANCH  23  24
ENDBRANCH   1  23
TORSDOF 19
ENDMDL
MODEL 3
REMARK VINA RESULT:     -10.7      4.964      9.770
REMARK SMILES CC(C)[C@@H](CNC(=O)NC[C@@]1(C)CCCO1)C(=O)OCCOC(=O)c1ccc(-c2c3nc(c(-c4cccc(S(=O)(=O)[O-])c4F)c4ccc([nH]4)c(-c4cccc(S(=O)(=O)[O-])c4F)c4nc(c(-c5cccc(S(=O)(=O)[O-])c5F)c5ccc2[nH]5)C=C4)C=C3)cc1
REMARK SMILES IDX 20 1 19 2 17 3 18 4 4 5 2 6 1 7 3 8 5 9 6 10 7 11 8 13 9 14
REMARK SMILES IDX 10 16 11 17 12 18 13 19 16 20 14 21 15 22 21 23 22 24 23 25
REMARK SMILES IDX 24 26 25 27 26 28 87 29 27 30 86 31 28 32 29 33 30 34 80 35
REMARK SMILES IDX 31 36 85 37 79 38 81 39 32 40 84 41 78 42 77 43 33 45 65 46
REMARK SMILES IDX 45 47 64 48 46 49 49 50 63 51 82 52 47 53 48 54 62 56 83 57
REMARK SMILES IDX 50 58 34 59 35 60 43 61 36 62 38 63 44 64 37 65 39 66 40 67
REMARK SMILES IDX 41 68 42 69 66 70 67 71 75 72 68 73 70 74 76 75 69 76 71 77
REMARK SMILES IDX 72 78 73 79 74 80 51 81 52 82 60 83 53 84 55 85 61 86 54 87
REMARK SMILES IDX 56 88 57 89 58 90 59 91
REMARK H PARENT 6 12 9 15 81 44 49 55
REMARK Flexibility Score: inf
ROOT
ATOM      1  C   UNL A   1      31.420  29.377  24.748  1.00  0.00     0.274 C 
ENDROOT
BRANCH   1   2
ATOM      2  O   UNL A   1      30.886  28.078  25.074  1.00  0.00    -0.462 OA
BRANCH   2   3
ATOM      3  C   UNL A   1      31.813  27.132  25.375  1.00  0.00     0.311 C 
ATOM      4  O   UNL A   1      32.607  27.206  26.307  1.00  0.00    -0.252 OA
BRANCH   3   5
ATOM      5  C   UNL A   1      31.830  25.966  24.402  1.00  0.00     0.121 C 
BRANCH   5   6
ATOM      6  C   UNL A   1      32.566  26.216  23.057  1.00  0.00    -0.001 C 
ATOM      7  C   UNL A   1      33.713  25.214  22.849  1.00  0.00     0.008 C 
ATOM      8  C   UNL A   1      31.613  26.082  21.857  1.00  0.00     0.008 C 
ENDBRANCH   5   6
BRANCH   5   9
ATOM      9  C   UNL A   1      32.289  24.720  25.174  1.00  0.00     0.133 C 
BRANCH   9  10
ATOM     10  N   UNL A   1      31.286  24.169  26.060  1.00  0.00    -0.337 N 
ATOM     11  C   UNL A   1      31.220  23.070  26.819  1.00  0.00     0.314 C 
ATOM     12  H   UNL A   1      30.475  24.725  26.117  1.00  0.00     0.165 HD
ATOM     13  O   UNL A   1      30.227  22.947  27.542  1.00  0.00    -0.249 OA
ATOM     14  N   UNL A   1      32.137  22.104  26.851  1.00  0.00    -0.335 N 
ATOM     15  H   UNL A   1      31.929  21.439  27.547  1.00  0.00     0.165 HD
BRANCH  14  16
ATOM     16  C   UNL A   1      33.367  21.756  26.143  1.00  0.00     0.152 C 
BRANCH  16  17
ATOM     17  C   UNL A   1      33.179  20.696  25.022  1.00  0.00     0.083 C 
ATOM     18  C   UNL A   1      32.768  21.386  23.713  1.00  0.00     0.044 C 
ATOM     19  C   UNL A   1      34.430  19.836  24.809  1.00  0.00     0.039 C 
ATOM     20  O   UNL A   1      32.113  19.769  25.345  1.00  0.00    -0.373 OA
ATOM     21  C   UNL A   1      33.861  18.511  24.364  1.00  0.00     0.031 C 
ATOM     22  C   UNL A   1      32.595  18.429  25.186  1.00  0.00     0.161 C 
ENDBRANCH  16  17
ENDBRANCH  14  16
ENDBRANCH   9  10
ENDBRANCH   5   9
ENDBRANCH   3   5
ENDBRANCH   2   3
ENDBRANCH   1   2
BRANCH   1  23
ATOM     23  C   UNL A   1      31.690  30.213  26.001  1.00  0.00     0.275 C 
BRANCH  23  24
ATOM     24  O   UNL A   1      33.073  30.605  26.055  1.00  0.00    -0.458 OA
BRANCH  24  25
ATOM     25  C   UNL A   1      33.410  31.470  27.032  1.00  0.00     0.338 C 
ATOM     26  O   UNL A   1      32.757  32.427  27.436  1.00  0.00    -0.246 OA
BRANCH  25  27
ATOM     27  C   UNL A   1      34.714  31.103  27.598  1.00  0.00     0.060 A 
ATOM     28  C   UNL A   1      34.971  29.775  27.955  1.00  0.00     0.016 A 
ATOM     29  C   UNL A   1      35.640  32.102  27.892  1.00  0.00     0.016 A 
ATOM     30  C   UNL A   1      36.138  29.446  28.641  1.00  0.00     0.010 A 
ATOM     31  C   UNL A   1      36.826  31.767  28.551  1.00  0.00     0.010 A 
ATOM     32  C   UNL A   1      37.067  30.443  28.958  1.00  0.00    -0.014 A 
BRANCH  32  33
ATOM     33  C   UNL A   1      38.254  30.120  29.785  1.00  0.00     0.031 A 
ATOM     34  C   UNL A   1      39.293  29.172  29.252  1.00  0.00     0.074 A 
ATOM     35  C   UNL A   1      38.393  30.662  31.009  1.00  0.00     0.049 A 
ATOM     36  N   UNL A   1      40.355  28.694  29.846  1.00  0.00    -0.248 NA
ATOM     37  C   UNL A   1      39.109  28.696  27.872  1.00  0.00     0.031 C 
ATOM     38  C   UNL A   1      37.455  31.598  31.627  1.00  0.00     0.029 A 
ATOM     39  N   UNL A   1      39.367  30.485  31.958  1.00  0.00    -0.354 N 
ATOM     40  C   UNL A   1      40.941  27.827  28.931  1.00  0.00     0.074 A 
ATOM     41  C   UNL A   1      40.119  27.847  27.741  1.00  0.00     0.031 C 
ATOM     42  C   UNL A   1      37.893  31.904  32.861  1.00  0.00     0.029 A 
ATOM     43  C   UNL A   1      39.120  31.160  33.131  1.00  0.00     0.049 A 
ATOM     44  H   UNL A   1      40.168  29.930  31.814  1.00  0.00     0.167 HD
ATOM     45  C   UNL A   1      42.070  27.093  29.065  1.00  0.00     0.034 A 
ATOM     46  C   UNL A   1      39.797  31.162  34.296  1.00  0.00     0.034 A 
ATOM     47  C   UNL A   1      42.912  27.111  30.231  1.00  0.00     0.049 A 
ATOM     48  C   UNL A   1      41.055  30.346  34.413  1.00  0.00     0.074 A 
ATOM     49  C   UNL A   1      44.095  26.428  30.448  1.00  0.00     0.029 A 
ATOM     50  N   UNL A   1      42.662  27.855  31.373  1.00  0.00    -0.354 N 
ATOM     51  N   UNL A   1      41.643  29.602  33.507  1.00  0.00    -0.248 NA
ATOM     52  C   UNL A   1      41.757  30.387  35.705  1.00  0.00     0.031 C 
ATOM     53  C   UNL A   1      44.562  26.761  31.725  1.00  0.00     0.029 A 
ATOM     54  C   UNL A   1      43.670  27.652  32.300  1.00  0.00     0.049 A 
ATOM     55  H   UNL A   1      41.882  28.441  31.506  1.00  0.00     0.167 HD
ATOM     56  C   UNL A   1      42.794  29.107  34.108  1.00  0.00     0.074 A 
ATOM     57  C   UNL A   1      42.835  29.656  35.449  1.00  0.00     0.031 C 
ATOM     58  C   UNL A   1      43.723  28.255  33.607  1.00  0.00     0.034 A 
BRANCH  45  59
ATOM     59  C   UNL A   1      42.485  26.238  27.899  1.00  0.00     0.023 A 
ATOM     60  C   UNL A   1      43.410  26.745  26.967  1.00  0.00     0.012 A 
ATOM     61  C   UNL A   1      42.000  24.924  27.752  1.00  0.00     0.148 A 
ATOM     62  C   UNL A   1      43.831  25.965  25.891  1.00  0.00     0.002 A 
ATOM     63  C   UNL A   1      42.449  24.141  26.694  1.00  0.00     0.091 A 
ATOM     64  F   UNL A   1      41.096  24.471  28.632  1.00  0.00    -0.205 F 
ATOM     65  C   UNL A   1      43.359  24.662  25.760  1.00  0.00     0.022 A 
BRANCH  63  66
ATOM     66  S   UNL A   1      41.939  22.431  26.486  1.00  0.00     0.127 S 
ATOM     67  O   UNL A   1      42.438  21.820  27.716  1.00  0.00    -0.237 OA
ATOM     68  O   UNL A   1      40.481  22.546  26.412  1.00  0.00    -0.237 OA
ATOM     69  O   UNL A   1      42.569  21.980  25.253  1.00  0.00    -0.744 OA
ENDBRANCH  63  66
ENDBRANCH  45  59
BRANCH  46  70
ATOM     70  C   UNL A   1      39.319  32.008  35.425  1.00  0.00     0.023 A 
ATOM     71  C   UNL A   1      38.464  31.448  36.393  1.00  0.00     0.012 A 
ATOM     72  C   UNL A   1      39.741  33.345  35.573  1.00  0.00     0.148 A 
ATOM     73  C   UNL A   1      38.025  32.205  37.479  1.00  0.00     0.002 A 
ATOM     74  C   UNL A   1      39.343  34.076  36.686  1.00  0.00     0.091 A 
ATOM     75  F   UNL A   1      40.532  33.872  34.628  1.00  0.00    -0.205 F 
ATOM     76  C   UNL A   1      38.475  33.514  37.633  1.00  0.00     0.022 A 
BRANCH  74  77
ATOM     77  S   UNL A   1      39.999  35.715  37.023  1.00  0.00     0.127 S 
ATOM     78  O   UNL A   1      39.330  36.055  38.276  1.00  0.00    -0.237 OA
ATOM     79  O   UNL A   1      41.435  35.457  37.142  1.00  0.00    -0.237 OA
ATOM     80  O   UNL A   1      39.635  36.517  35.861  1.00  0.00    -0.744 OA
ENDBRANCH  74  77
ENDBRANCH  46  70
BRANCH  58  81
ATOM     81  C   UNL A   1      44.872  27.877  34.501  1.00  0.00     0.023 A 
ATOM     82  C   UNL A   1      46.032  28.676  34.508  1.00  0.00     0.012 A 
ATOM     83  C   UNL A   1      44.779  26.782  35.380  1.00  0.00     0.148 A 
ATOM     84  C   UNL A   1      47.093  28.375  35.361  1.00  0.00     0.002 A 
ATOM     85  C   UNL A   1      45.826  26.510  36.254  1.00  0.00     0.091 A 
ATOM     86  F   UNL A   1      43.677  26.017  35.341  1.00  0.00    -0.205 F 
ATOM     87  C   UNL A   1      46.985  27.301  36.242  1.00  0.00     0.022 A 
BRANCH  85  88
ATOM     88  S   UNL A   1      45.717  25.191  37.470  1.00  0.00     0.127 S 
ATOM     89  O   UNL A   1      45.620  24.006  36.621  1.00  0.00    -0.237 OA
ATOM     90  O   UNL A   1      46.983  25.319  38.195  1.00  0.00    -0.237 OA
ATOM     91  O   UNL A   1      44.539  25.500  38.271  1.00  0.00    -0.744 OA
ENDBRANCH  85  88
ENDBRANCH  58  81
ENDBRANCH  32  33
ENDBRANCH  25  27
ENDBRANCH  24  25
ENDBRANCH  23  24
ENDBRANCH   1  23
TORSDOF 19
ENDMDL
