MODEL 1
REMARK VINA RESULT:     -10.3      0.000      0.000
REMARK SMILES CCC[C@@](C)(C(=O)OCCOC(=O)c1ccc(-c2c3nc(c(-c4cccc(S(=O)(=O)[O-])c4F)c4ccc([nH]4)c(-c4cccc(S(=O)(=O)[O-])c4F)c4nc(c(-c5cccc(S(=O)(=O)[O-])c5F)c5ccc2[nH]5)C=C4)C=C3)cc1)[C@H]1CCOC1
REMARK SMILES IDX 10 1 9 2 8 3 6 4 7 5 4 6 5 7 3 8 2 9 1 10 77 11 78 12 81 13
REMARK SMILES IDX 79 14 80 15 11 16 12 17 13 18 14 19 15 20 76 21 16 22 75 23
REMARK SMILES IDX 17 24 18 25 19 26 69 27 20 28 74 29 68 30 70 31 21 32 73 33
REMARK SMILES IDX 67 34 66 35 22 37 54 38 34 39 53 40 35 41 38 42 52 43 71 44
REMARK SMILES IDX 36 45 37 46 51 48 72 49 39 50 23 51 24 52 32 53 25 54 27 55
REMARK SMILES IDX 33 56 26 57 28 58 29 59 30 60 31 61 55 62 56 63 64 64 57 65
REMARK SMILES IDX 59 66 65 67 58 68 60 69 61 70 62 71 63 72 40 73 41 74 49 75
REMARK SMILES IDX 42 76 44 77 50 78 43 79 45 80 46 81 47 82 48 83
REMARK H PARENT 70 36 38 47
REMARK Flexibility Score: inf
ROOT
ATOM      1  C   UNL A   1      35.620  20.733  25.263  1.00  0.00     0.275 C 
ENDROOT
BRANCH   1   2
ATOM      2  C   UNL A   1      34.324  21.432  24.863  1.00  0.00     0.274 C 
BRANCH   2   3
ATOM      3  O   UNL A   1      34.397  22.823  25.246  1.00  0.00    -0.462 OA
BRANCH   3   4
ATOM      4  C   UNL A   1      33.268  23.399  25.737  1.00  0.00     0.312 C 
ATOM      5  O   UNL A   1      32.673  22.985  26.725  1.00  0.00    -0.252 OA
BRANCH   4   6
ATOM      6  C   UNL A   1      32.781  24.632  24.915  1.00  0.00     0.070 C 
ATOM      7  C   UNL A   1      31.482  24.163  24.236  1.00  0.00     0.024 C 
BRANCH   6   8
ATOM      8  C   UNL A   1      33.853  25.049  23.843  1.00  0.00     0.018 C 
BRANCH   8   9
ATOM      9  C   UNL A   1      33.417  25.685  22.509  1.00  0.00    -0.002 C 
ATOM     10  C   UNL A   1      33.437  27.202  22.452  1.00  0.00     0.004 C 
ENDBRANCH   8   9
ENDBRANCH   6   8
BRANCH   6  11
ATOM     11  C   UNL A   1      32.540  25.767  25.961  1.00  0.00     0.034 C 
ATOM     12  C   UNL A   1      33.567  26.872  26.109  1.00  0.00     0.035 C 
ATOM     13  C   UNL A   1      31.266  26.604  25.799  1.00  0.00     0.165 C 
ATOM     14  C   UNL A   1      32.826  27.900  26.939  1.00  0.00     0.160 C 
ATOM     15  O   UNL A   1      31.452  27.807  26.560  1.00  0.00    -0.381 OA
ENDBRANCH   6  11
ENDBRANCH   4   6
ENDBRANCH   3   4
ENDBRANCH   2   3
ENDBRANCH   1   2
BRANCH   1  16
ATOM     16  O   UNL A   1      36.672  21.708  25.220  1.00  0.00    -0.458 OA
BRANCH  16  17
ATOM     17  C   UNL A   1      37.910  21.283  25.550  1.00  0.00     0.338 C 
ATOM     18  O   UNL A   1      38.372  20.160  25.384  1.00  0.00    -0.246 OA
BRANCH  17  19
ATOM     19  C   UNL A   1      38.673  22.413  26.116  1.00  0.00     0.060 A 
ATOM     20  C   UNL A   1      38.247  23.724  25.903  1.00  0.00     0.016 A 
ATOM     21  C   UNL A   1      39.867  22.177  26.799  1.00  0.00     0.016 A 
ATOM     22  C   UNL A   1      39.053  24.795  26.286  1.00  0.00     0.010 A 
ATOM     23  C   UNL A   1      40.607  23.259  27.295  1.00  0.00     0.010 A 
ATOM     24  C   UNL A   1      40.223  24.585  27.026  1.00  0.00    -0.014 A 
BRANCH  24  25
ATOM     25  C   UNL A   1      41.032  25.734  27.537  1.00  0.00     0.031 A 
ATOM     26  C   UNL A   1      40.403  26.784  28.418  1.00  0.00     0.074 A 
ATOM     27  C   UNL A   1      42.329  25.871  27.187  1.00  0.00     0.049 A 
ATOM     28  N   UNL A   1      40.847  27.972  28.736  1.00  0.00    -0.248 NA
ATOM     29  C   UNL A   1      39.089  26.464  29.003  1.00  0.00     0.031 C 
ATOM     30  C   UNL A   1      43.093  24.930  26.366  1.00  0.00     0.029 A 
ATOM     31  N   UNL A   1      43.236  26.866  27.469  1.00  0.00    -0.354 N 
ATOM     32  C   UNL A   1      39.835  28.576  29.472  1.00  0.00     0.074 A 
ATOM     33  C   UNL A   1      38.760  27.612  29.579  1.00  0.00     0.031 C 
ATOM     34  C   UNL A   1      44.356  25.360  26.253  1.00  0.00     0.029 A 
ATOM     35  C   UNL A   1      44.468  26.667  26.887  1.00  0.00     0.049 A 
ATOM     36  H   UNL A   1      43.025  27.645  28.033  1.00  0.00     0.167 HD
ATOM     37  C   UNL A   1      39.806  29.818  30.015  1.00  0.00     0.034 A 
ATOM     38  C   UNL A   1      45.554  27.462  26.812  1.00  0.00     0.034 A 
ATOM     39  C   UNL A   1      40.914  30.736  29.995  1.00  0.00     0.049 A 
ATOM     40  C   UNL A   1      45.497  28.835  27.413  1.00  0.00     0.074 A 
ATOM     41  C   UNL A   1      40.997  31.996  30.564  1.00  0.00     0.029 A 
ATOM     42  N   UNL A   1      42.139  30.489  29.395  1.00  0.00    -0.354 N 
ATOM     43  N   UNL A   1      44.533  29.393  28.103  1.00  0.00    -0.248 NA
ATOM     44  C   UNL A   1      46.670  29.698  27.208  1.00  0.00     0.031 C 
ATOM     45  C   UNL A   1      42.273  32.511  30.305  1.00  0.00     0.029 A 
ATOM     46  C   UNL A   1      42.983  31.572  29.575  1.00  0.00     0.049 A 
ATOM     47  H   UNL A   1      42.374  29.664  28.912  1.00  0.00     0.167 HD
ATOM     48  C   UNL A   1      44.976  30.673  28.410  1.00  0.00     0.074 A 
ATOM     49  C   UNL A   1      46.314  30.794  27.865  1.00  0.00     0.031 C 
ATOM     50  C   UNL A   1      44.322  31.668  29.055  1.00  0.00     0.034 A 
BRANCH  37  51
ATOM     51  C   UNL A   1      38.541  30.253  30.705  1.00  0.00     0.023 A 
ATOM     52  C   UNL A   1      38.353  29.958  32.070  1.00  0.00     0.012 A 
ATOM     53  C   UNL A   1      37.569  31.010  30.020  1.00  0.00     0.148 A 
ATOM     54  C   UNL A   1      37.205  30.389  32.735  1.00  0.00     0.002 A 
ATOM     55  C   UNL A   1      36.445  31.465  30.700  1.00  0.00     0.091 A 
ATOM     56  F   UNL A   1      37.751  31.258  28.715  1.00  0.00    -0.205 F 
ATOM     57  C   UNL A   1      36.258  31.150  32.054  1.00  0.00     0.022 A 
BRANCH  55  58
ATOM     58  S   UNL A   1      35.214  32.511  29.911  1.00  0.00     0.127 S 
ATOM     59  O   UNL A   1      34.668  31.613  28.896  1.00  0.00    -0.237 OA
ATOM     60  O   UNL A   1      34.299  32.810  31.014  1.00  0.00    -0.237 OA
ATOM     61  O   UNL A   1      35.945  33.667  29.411  1.00  0.00    -0.744 OA
ENDBRANCH  55  58
ENDBRANCH  37  51
BRANCH  38  62
ATOM     62  C   UNL A   1      46.780  26.964  26.125  1.00  0.00     0.023 A 
ATOM     63  C   UNL A   1      46.950  27.223  24.752  1.00  0.00     0.012 A 
ATOM     64  C   UNL A   1      47.813  26.320  26.834  1.00  0.00     0.148 A 
ATOM     65  C   UNL A   1      48.128  26.855  24.101  1.00  0.00     0.002 A 
ATOM     66  C   UNL A   1      49.011  26.018  26.196  1.00  0.00     0.091 A 
ATOM     67  F   UNL A   1      47.620  26.045  28.133  1.00  0.00    -0.205 F 
ATOM     68  C   UNL A   1      49.166  26.273  24.826  1.00  0.00     0.022 A 
BRANCH  66  69
ATOM     69  S   UNL A   1      50.445  25.435  27.108  1.00  0.00     0.127 S 
ATOM     70  O   UNL A   1      51.432  25.272  26.046  1.00  0.00    -0.237 OA
ATOM     71  O   UNL A   1      50.704  26.546  28.025  1.00  0.00    -0.237 OA
ATOM     72  O   UNL A   1      50.006  24.213  27.770  1.00  0.00    -0.744 OA
ENDBRANCH  66  69
ENDBRANCH  38  62
BRANCH  50  73
ATOM     73  C   UNL A   1      45.033  32.986  29.192  1.00  0.00     0.023 A 
ATOM     74  C   UNL A   1      45.864  33.199  30.310  1.00  0.00     0.012 A 
ATOM     75  C   UNL A   1      44.937  33.977  28.198  1.00  0.00     0.148 A 
ATOM     76  C   UNL A   1      46.574  34.390  30.447  1.00  0.00     0.002 A 
ATOM     77  C   UNL A   1      45.674  35.149  28.324  1.00  0.00     0.091 A 
ATOM     78  F   UNL A   1      44.125  33.759  27.153  1.00  0.00    -0.205 F 
ATOM     79  C   UNL A   1      46.487  35.360  29.451  1.00  0.00     0.022 A 
BRANCH  77  80
ATOM     80  S   UNL A   1      45.680  36.424  27.059  1.00  0.00     0.127 S 
ATOM     81  O   UNL A   1      46.606  37.403  27.627  1.00  0.00    -0.237 OA
ATOM     82  O   UNL A   1      46.194  35.703  25.893  1.00  0.00    -0.237 OA
ATOM     83  O   UNL A   1      44.299  36.869  26.932  1.00  0.00    -0.744 OA
ENDBRANCH  77  80
ENDBRANCH  50  73
ENDBRANCH  24  25
ENDBRANCH  17  19
ENDBRANCH  16  17
ENDBRANCH   1  16
TORSDOF 17
ENDMDL
MODEL 2
REMARK VINA RESULT:     -10.3      4.892      9.937
REMARK SMILES CCC[C@@](C)(C(=O)OCCOC(=O)c1ccc(-c2c3nc(c(-c4cccc(S(=O)(=O)[O-])c4F)c4ccc([nH]4)c(-c4cccc(S(=O)(=O)[O-])c4F)c4nc(c(-c5cccc(S(=O)(=O)[O-])c5F)c5ccc2[nH]5)C=C4)C=C3)cc1)[C@H]1CCOC1
REMARK SMILES IDX 10 1 9 2 8 3 6 4 7 5 4 6 5 7 3 8 2 9 1 10 77 11 78 12 81 13
REMARK SMILES IDX 79 14 80 15 11 16 12 17 13 18 14 19 15 20 76 21 16 22 75 23
REMARK SMILES IDX 17 24 18 25 19 26 69 27 20 28 74 29 68 30 70 31 21 32 73 33
REMARK SMILES IDX 67 34 66 35 22 37 54 38 34 39 53 40 35 41 38 42 52 43 71 44
REMARK SMILES IDX 36 45 37 46 51 48 72 49 39 50 23 51 24 52 32 53 25 54 27 55
REMARK SMILES IDX 33 56 26 57 28 58 29 59 30 60 31 61 55 62 56 63 64 64 57 65
REMARK SMILES IDX 59 66 65 67 58 68 60 69 61 70 62 71 63 72 40 73 41 74 49 75
REMARK SMILES IDX 42 76 44 77 50 78 43 79 45 80 46 81 47 82 48 83
REMARK H PARENT 70 36 38 47
REMARK Flexibility Score: inf
ROOT
ATOM      1  C   UNL A   1      31.670  29.078  25.625  1.00  0.00     0.275 C 
ENDROOT
BRANCH   1   2
ATOM      2  C   UNL A   1      31.832  28.052  24.507  1.00  0.00     0.274 C 
BRANCH   2   3
ATOM      3  O   UNL A   1      32.836  27.086  24.890  1.00  0.00    -0.462 OA
BRANCH   3   4
ATOM      4  C   UNL A   1      33.113  26.087  24.012  1.00  0.00     0.312 C 
ATOM      5  O   UNL A   1      33.111  26.236  22.795  1.00  0.00    -0.252 OA
BRANCH   4   6
ATOM      6  C   UNL A   1      33.418  24.716  24.692  1.00  0.00     0.070 C 
ATOM      7  C   UNL A   1      34.766  24.923  25.405  1.00  0.00     0.024 C 
BRANCH   6   8
ATOM      8  C   UNL A   1      33.523  23.571  23.620  1.00  0.00     0.018 C 
BRANCH   8   9
ATOM      9  C   UNL A   1      34.428  22.348  23.870  1.00  0.00    -0.002 C 
ATOM     10  C   UNL A   1      33.808  21.205  24.654  1.00  0.00     0.004 C 
ENDBRANCH   8   9
ENDBRANCH   6   8
BRANCH   6  11
ATOM     11  C   UNL A   1      32.239  24.468  25.687  1.00  0.00     0.034 C 
ATOM     12  C   UNL A   1      31.025  23.689  25.222  1.00  0.00     0.035 C 
ATOM     13  C   UNL A   1      32.567  23.710  26.979  1.00  0.00     0.165 C 
ATOM     14  C   UNL A   1      30.307  23.393  26.523  1.00  0.00     0.160 C 
ATOM     15  O   UNL A   1      31.323  23.233  27.514  1.00  0.00    -0.381 OA
ENDBRANCH   6  11
ENDBRANCH   4   6
ENDBRANCH   3   4
ENDBRANCH   2   3
ENDBRANCH   1   2
BRANCH   1  16
ATOM     16  O   UNL A   1      32.825  29.930  25.605  1.00  0.00    -0.458 OA
BRANCH  16  17
ATOM     17  C   UNL A   1      32.929  30.839  26.598  1.00  0.00     0.338 C 
ATOM     18  O   UNL A   1      32.086  31.664  26.932  1.00  0.00    -0.246 OA
BRANCH  17  19
ATOM     19  C   UNL A   1      34.226  30.664  27.279  1.00  0.00     0.060 A 
ATOM     20  C   UNL A   1      34.694  29.385  27.578  1.00  0.00     0.016 A 
ATOM     21  C   UNL A   1      34.951  31.780  27.697  1.00  0.00     0.016 A 
ATOM     22  C   UNL A   1      35.830  29.220  28.370  1.00  0.00     0.010 A 
ATOM     23  C   UNL A   1      36.161  31.604  28.382  1.00  0.00     0.010 A 
ATOM     24  C   UNL A   1      36.608  30.322  28.749  1.00  0.00    -0.014 A 
BRANCH  24  25
ATOM     25  C   UNL A   1      37.887  30.143  29.502  1.00  0.00     0.031 A 
ATOM     26  C   UNL A   1      39.004  29.309  28.928  1.00  0.00     0.074 A 
ATOM     27  C   UNL A   1      38.047  30.694  30.724  1.00  0.00     0.049 A 
ATOM     28  N   UNL A   1      40.061  28.818  29.525  1.00  0.00    -0.248 NA
ATOM     29  C   UNL A   1      38.913  28.961  27.499  1.00  0.00     0.031 C 
ATOM     30  C   UNL A   1      37.076  31.550  31.406  1.00  0.00     0.029 A 
ATOM     31  N   UNL A   1      39.088  30.607  31.620  1.00  0.00    -0.354 N 
ATOM     32  C   UNL A   1      40.705  28.031  28.577  1.00  0.00     0.074 A 
ATOM     33  C   UNL A   1      39.935  28.129  27.355  1.00  0.00     0.031 C 
ATOM     34  C   UNL A   1      37.579  31.949  32.581  1.00  0.00     0.029 A 
ATOM     35  C   UNL A   1      38.858  31.284  32.796  1.00  0.00     0.049 A 
ATOM     36  H   UNL A   1      39.918  30.110  31.437  1.00  0.00     0.167 HD
ATOM     37  C   UNL A   1      41.836  27.298  28.713  1.00  0.00     0.034 A 
ATOM     38  C   UNL A   1      39.556  31.326  33.948  1.00  0.00     0.034 A 
ATOM     39  C   UNL A   1      42.656  27.282  29.896  1.00  0.00     0.049 A 
ATOM     40  C   UNL A   1      40.802  30.501  34.078  1.00  0.00     0.074 A 
ATOM     41  C   UNL A   1      43.848  26.611  30.107  1.00  0.00     0.029 A 
ATOM     42  N   UNL A   1      42.381  27.984  31.059  1.00  0.00    -0.354 N 
ATOM     43  N   UNL A   1      41.396  29.759  33.176  1.00  0.00    -0.248 NA
ATOM     44  C   UNL A   1      41.464  30.500  35.391  1.00  0.00     0.031 C 
ATOM     45  C   UNL A   1      44.293  26.906  31.401  1.00  0.00     0.029 A 
ATOM     46  C   UNL A   1      43.378  27.760  31.994  1.00  0.00     0.049 A 
ATOM     47  H   UNL A   1      41.593  28.556  31.200  1.00  0.00     0.167 HD
ATOM     48  C   UNL A   1      42.497  29.198  33.810  1.00  0.00     0.074 A 
ATOM     49  C   UNL A   1      42.510  29.717  35.163  1.00  0.00     0.031 C 
ATOM     50  C   UNL A   1      43.396  28.307  33.326  1.00  0.00     0.034 A 
BRANCH  37  51
ATOM     51  C   UNL A   1      42.279  26.467  27.538  1.00  0.00     0.023 A 
ATOM     52  C   UNL A   1      43.075  27.048  26.531  1.00  0.00     0.012 A 
ATOM     53  C   UNL A   1      41.961  25.095  27.463  1.00  0.00     0.148 A 
ATOM     54  C   UNL A   1      43.527  26.281  25.456  1.00  0.00     0.002 A 
ATOM     55  C   UNL A   1      42.445  24.332  26.407  1.00  0.00     0.091 A 
ATOM     56  F   UNL A   1      41.180  24.565  28.415  1.00  0.00    -0.205 F 
ATOM     57  C   UNL A   1      43.221  24.924  25.400  1.00  0.00     0.022 A 
BRANCH  55  58
ATOM     58  S   UNL A   1      42.155  22.561  26.301  1.00  0.00     0.127 S 
ATOM     59  O   UNL A   1      42.890  22.069  27.464  1.00  0.00    -0.237 OA
ATOM     60  O   UNL A   1      40.698  22.471  26.421  1.00  0.00    -0.237 OA
ATOM     61  O   UNL A   1      42.674  22.156  25.003  1.00  0.00    -0.744 OA
ENDBRANCH  55  58
ENDBRANCH  37  51
BRANCH  38  62
ATOM     62  C   UNL A   1      39.069  32.181  35.070  1.00  0.00     0.023 A 
ATOM     63  C   UNL A   1      38.150  31.645  35.990  1.00  0.00     0.012 A 
ATOM     64  C   UNL A   1      39.575  33.478  35.280  1.00  0.00     0.148 A 
ATOM     65  C   UNL A   1      37.748  32.385  37.103  1.00  0.00     0.002 A 
ATOM     66  C   UNL A   1      39.224  34.182  36.427  1.00  0.00     0.091 A 
ATOM     67  F   UNL A   1      40.421  33.989  34.374  1.00  0.00    -0.205 F 
ATOM     68  C   UNL A   1      38.300  33.643  37.333  1.00  0.00     0.022 A 
BRANCH  66  69
ATOM     69  S   UNL A   1      40.033  35.725  36.871  1.00  0.00     0.127 S 
ATOM     70  O   UNL A   1      39.653  36.595  35.763  1.00  0.00    -0.237 OA
ATOM     71  O   UNL A   1      39.403  36.048  38.152  1.00  0.00    -0.237 OA
ATOM     72  O   UNL A   1      41.449  35.398  36.975  1.00  0.00    -0.744 OA
ENDBRANCH  66  69
ENDBRANCH  38  62
BRANCH  50  73
ATOM     73  C   UNL A   1      44.461  27.820  34.269  1.00  0.00     0.023 A 
ATOM     74  C   UNL A   1      45.674  28.531  34.354  1.00  0.00     0.012 A 
ATOM     75  C   UNL A   1      44.243  26.712  35.109  1.00  0.00     0.148 A 
ATOM     76  C   UNL A   1      46.665  28.135  35.249  1.00  0.00     0.002 A 
ATOM     77  C   UNL A   1      45.222  26.343  36.025  1.00  0.00     0.091 A 
ATOM     78  F   UNL A   1      43.088  26.040  34.996  1.00  0.00    -0.205 F 
ATOM     79  C   UNL A   1      46.436  27.048  36.090  1.00  0.00     0.022 A 
BRANCH  77  80
ATOM     80  S   UNL A   1      44.990  25.001  37.196  1.00  0.00     0.127 S 
ATOM     81  O   UNL A   1      46.369  24.596  37.463  1.00  0.00    -0.237 OA
ATOM     82  O   UNL A   1      44.324  25.674  38.312  1.00  0.00    -0.237 OA
ATOM     83  O   UNL A   1      44.169  24.011  36.513  1.00  0.00    -0.744 OA
ENDBRANCH  77  80
ENDBRANCH  50  73
ENDBRANCH  24  25
ENDBRANCH  17  19
ENDBRANCH  16  17
ENDBRANCH   1  16
TORSDOF 17
ENDMDL
MODEL 3
REMARK VINA RESULT:     -10.0      5.322     10.135
REMARK SMILES CCC[C@@](C)(C(=O)OCCOC(=O)c1ccc(-c2c3nc(c(-c4cccc(S(=O)(=O)[O-])c4F)c4ccc([nH]4)c(-c4cccc(S(=O)(=O)[O-])c4F)c4nc(c(-c5cccc(S(=O)(=O)[O-])c5F)c5ccc2[nH]5)C=C4)C=C3)cc1)[C@H]1CCOC1
REMARK SMILES IDX 10 1 9 2 8 3 6 4 7 5 4 6 5 7 3 8 2 9 1 10 77 11 78 12 81 13
REMARK SMILES IDX 79 14 80 15 11 16 12 17 13 18 14 19 15 20 76 21 16 22 75 23
REMARK SMILES IDX 17 24 18 25 19 26 69 27 20 28 74 29 68 30 70 31 21 32 73 33
REMARK SMILES IDX 67 34 66 35 22 37 54 38 34 39 53 40 35 41 38 42 52 43 71 44
REMARK SMILES IDX 36 45 37 46 51 48 72 49 39 50 23 51 24 52 32 53 25 54 27 55
REMARK SMILES IDX 33 56 26 57 28 58 29 59 30 60 31 61 55 62 56 63 64 64 57 65
REMARK SMILES IDX 59 66 65 67 58 68 60 69 61 70 62 71 63 72 40 73 41 74 49 75
REMARK SMILES IDX 42 76 44 77 50 78 43 79 45 80 46 81 47 82 48 83
REMARK H PARENT 70 36 38 47
REMARK Flexibility Score: inf
ROOT
ATOM      1  C   UNL A   1      32.073  30.091  26.309  1.00  0.00     0.275 C 
ENDROOT
BRANCH   1   2
ATOM      2  C   UNL A   1      31.885  28.840  27.162  1.00  0.00     0.274 C 
BRANCH   2   3
ATOM      3  O   UNL A   1      31.203  27.832  26.383  1.00  0.00    -0.462 OA
BRANCH   3   4
ATOM      4  C   UNL A   1      31.969  26.958  25.679  1.00  0.00     0.312 C 
ATOM      5  O   UNL A   1      33.142  26.722  25.944  1.00  0.00    -0.252 OA
BRANCH   4   6
ATOM      6  C   UNL A   1      31.225  26.290  24.481  1.00  0.00     0.070 C 
ATOM      7  C   UNL A   1      30.393  27.424  23.855  1.00  0.00     0.024 C 
BRANCH   6   8
ATOM      8  C   UNL A   1      30.296  25.124  24.979  1.00  0.00     0.018 C 
BRANCH   8   9
ATOM      9  C   UNL A   1      30.578  24.421  26.322  1.00  0.00    -0.002 C 
ATOM     10  C   UNL A   1      30.523  22.904  26.307  1.00  0.00     0.004 C 
ENDBRANCH   8   9
ENDBRANCH   6   8
BRANCH   6  11
ATOM     11  C   UNL A   1      32.347  25.766  23.528  1.00  0.00     0.034 C 
ATOM     12  C   UNL A   1      32.244  24.366  22.957  1.00  0.00     0.035 C 
ATOM     13  C   UNL A   1      32.596  26.564  22.242  1.00  0.00     0.165 C 
ATOM     14  C   UNL A   1      33.298  24.377  21.869  1.00  0.00     0.160 C 
ATOM     15  O   UNL A   1      33.326  25.707  21.350  1.00  0.00    -0.381 OA
ENDBRANCH   6  11
ENDBRANCH   4   6
ENDBRANCH   3   4
ENDBRANCH   2   3
ENDBRANCH   1   2
BRANCH   1  16
ATOM     16  O   UNL A   1      33.451  30.480  26.405  1.00  0.00    -0.458 OA
BRANCH  16  17
ATOM     17  C   UNL A   1      33.745  31.473  27.270  1.00  0.00     0.338 C 
ATOM     18  O   UNL A   1      33.087  32.485  27.481  1.00  0.00    -0.246 OA
BRANCH  17  19
ATOM     19  C   UNL A   1      34.991  31.137  27.988  1.00  0.00     0.060 A 
ATOM     20  C   UNL A   1      35.987  32.100  28.150  1.00  0.00     0.016 A 
ATOM     21  C   UNL A   1      35.210  29.834  28.434  1.00  0.00     0.016 A 
ATOM     22  C   UNL A   1      37.230  31.742  28.672  1.00  0.00     0.010 A 
ATOM     23  C   UNL A   1      36.414  29.515  29.075  1.00  0.00     0.010 A 
ATOM     24  C   UNL A   1      37.452  30.458  29.184  1.00  0.00    -0.014 A 
BRANCH  24  25
ATOM     25  C   UNL A   1      38.744  30.101  29.846  1.00  0.00     0.031 A 
ATOM     26  C   UNL A   1      39.704  29.143  29.188  1.00  0.00     0.074 A 
ATOM     27  C   UNL A   1      39.053  30.600  31.062  1.00  0.00     0.049 A 
ATOM     28  N   UNL A   1      40.725  28.509  29.705  1.00  0.00    -0.248 NA
ATOM     29  C   UNL A   1      39.476  28.842  27.764  1.00  0.00     0.031 C 
ATOM     30  C   UNL A   1      38.246  31.558  31.819  1.00  0.00     0.029 A 
ATOM     31  N   UNL A   1      40.130  30.362  31.885  1.00  0.00    -0.354 N 
ATOM     32  C   UNL A   1      41.200  27.667  28.706  1.00  0.00     0.074 A 
ATOM     33  C   UNL A   1      40.371  27.889  27.540  1.00  0.00     0.031 C 
ATOM     34  C   UNL A   1      38.872  31.863  32.963  1.00  0.00     0.029 A 
ATOM     35  C   UNL A   1      40.066  31.037  33.083  1.00  0.00     0.049 A 
ATOM     36  H   UNL A   1      40.875  29.766  31.640  1.00  0.00     0.167 HD
ATOM     37  C   UNL A   1      42.234  26.793  28.755  1.00  0.00     0.034 A 
ATOM     38  C   UNL A   1      40.838  30.964  34.185  1.00  0.00     0.034 A 
ATOM     39  C   UNL A   1      43.120  26.647  29.880  1.00  0.00     0.049 A 
ATOM     40  C   UNL A   1      41.972  29.984  34.220  1.00  0.00     0.074 A 
ATOM     41  C   UNL A   1      44.227  25.825  30.002  1.00  0.00     0.029 A 
ATOM     42  N   UNL A   1      43.014  27.352  31.069  1.00  0.00    -0.354 N 
ATOM     43  N   UNL A   1      42.406  29.193  33.270  1.00  0.00    -0.248 NA
ATOM     44  C   UNL A   1      42.713  29.870  35.485  1.00  0.00     0.031 C 
ATOM     45  C   UNL A   1      44.790  26.033  31.267  1.00  0.00     0.029 A 
ATOM     46  C   UNL A   1      44.032  26.983  31.931  1.00  0.00     0.049 A 
ATOM     47  H   UNL A   1      42.317  28.017  31.270  1.00  0.00     0.167 HD
ATOM     48  C   UNL A   1      43.465  28.482  33.821  1.00  0.00     0.074 A 
ATOM     49  C   UNL A   1      43.633  28.965  35.177  1.00  0.00     0.031 C 
ATOM     50  C   UNL A   1      44.207  27.494  33.266  1.00  0.00     0.034 A 
BRANCH  37  51
ATOM     51  C   UNL A   1      42.488  25.938  27.542  1.00  0.00     0.023 A 
ATOM     52  C   UNL A   1      43.221  26.462  26.459  1.00  0.00     0.012 A 
ATOM     53  C   UNL A   1      42.058  24.596  27.502  1.00  0.00     0.148 A 
ATOM     54  C   UNL A   1      43.500  25.670  25.344  1.00  0.00     0.002 A 
ATOM     55  C   UNL A   1      42.371  23.804  26.403  1.00  0.00     0.091 A 
ATOM     56  F   UNL A   1      41.338  24.122  28.529  1.00  0.00    -0.205 F 
ATOM     57  C   UNL A   1      43.085  24.341  25.321  1.00  0.00     0.022 A 
BRANCH  55  58
ATOM     58  S   UNL A   1      41.933  22.063  26.329  1.00  0.00     0.127 S 
ATOM     59  O   UNL A   1      40.501  22.128  26.048  1.00  0.00    -0.237 OA
ATOM     60  O   UNL A   1      42.749  21.578  25.214  1.00  0.00    -0.237 OA
ATOM     61  O   UNL A   1      42.303  21.511  27.624  1.00  0.00    -0.744 OA
ENDBRANCH  55  58
ENDBRANCH  37  51
BRANCH  38  62
ATOM     62  C   UNL A   1      40.539  31.849  35.349  1.00  0.00     0.023 A 
ATOM     63  C   UNL A   1      41.355  32.970  35.585  1.00  0.00     0.012 A 
ATOM     64  C   UNL A   1      39.407  31.639  36.162  1.00  0.00     0.148 A 
ATOM     65  C   UNL A   1      41.046  33.870  36.606  1.00  0.00     0.002 A 
ATOM     66  C   UNL A   1      39.067  32.576  37.132  1.00  0.00     0.091 A 
ATOM     67  F   UNL A   1      38.662  30.546  35.949  1.00  0.00    -0.205 F 
ATOM     68  C   UNL A   1      39.892  33.685  37.364  1.00  0.00     0.022 A 
BRANCH  66  69
ATOM     69  S   UNL A   1      37.505  32.491  38.017  1.00  0.00     0.127 S 
ATOM     70  O   UNL A   1      36.566  32.996  37.021  1.00  0.00    -0.237 OA
ATOM     71  O   UNL A   1      37.388  31.061  38.305  1.00  0.00    -0.237 OA
ATOM     72  O   UNL A   1      37.692  33.319  39.202  1.00  0.00    -0.744 OA
ENDBRANCH  66  69
ENDBRANCH  38  62
BRANCH  50  73
ATOM     73  C   UNL A   1      45.260  26.854  34.128  1.00  0.00     0.023 A 
ATOM     74  C   UNL A   1      46.557  27.405  34.144  1.00  0.00     0.012 A 
ATOM     75  C   UNL A   1      44.957  25.764  34.965  1.00  0.00     0.148 A 
ATOM     76  C   UNL A   1      47.544  26.866  34.965  1.00  0.00     0.002 A 
ATOM     77  C   UNL A   1      45.938  25.252  35.807  1.00  0.00     0.091 A 
ATOM     78  F   UNL A   1      43.722  25.245  34.918  1.00  0.00    -0.205 F 
ATOM     79  C   UNL A   1      47.233  25.798  35.802  1.00  0.00     0.022 A 
BRANCH  77  80
ATOM     80  S   UNL A   1      45.613  23.923  36.971  1.00  0.00     0.127 S 
ATOM     81  O   UNL A   1      44.565  24.508  37.805  1.00  0.00    -0.237 OA
ATOM     82  O   UNL A   1      45.161  22.844  36.091  1.00  0.00    -0.237 OA
ATOM     83  O   UNL A   1      46.877  23.662  37.645  1.00  0.00    -0.744 OA
ENDBRANCH  77  80
ENDBRANCH  50  73
ENDBRANCH  24  25
ENDBRANCH  17  19
ENDBRANCH  16  17
ENDBRANCH   1  16
TORSDOF 17
ENDMDL
