MODEL 1
REMARK VINA RESULT:     -11.6      0.000      0.000
REMARK SMILES CSCc1ccc(C(=O)Nc2cc(C)c(C(=O)OCCOC(=O)c3ccc(-c4c5nc(c(-c6cccc(S(=O)(=O)[O-])c6F)c6ccc([nH]6)c(-c6cccc(S(=O)(=O)[O-])c6F)c6nc(c(-c7cccc(S(=O)(=O)[O-])c7F)c7ccc4[nH]7)C=C6)C=C5)cc3)s2)cc1
REMARK SMILES IDX 19 1 18 2 16 3 17 4 15 5 11 6 12 7 87 8 13 9 14 10 10 11
REMARK SMILES IDX 8 12 9 13 7 15 4 16 5 17 89 18 6 19 88 20 3 21 2 22 1 23
REMARK SMILES IDX 20 24 21 25 22 26 23 27 24 28 25 29 86 30 26 31 85 32 27 33
REMARK SMILES IDX 28 34 29 35 79 36 30 37 84 38 78 39 80 40 31 41 83 42 77 43
REMARK SMILES IDX 76 44 32 46 64 47 44 48 63 49 45 50 48 51 62 52 81 53 46 54
REMARK SMILES IDX 47 55 61 57 82 58 49 59 33 60 34 61 42 62 35 63 37 64 43 65
REMARK SMILES IDX 36 66 38 67 39 68 40 69 41 70 65 71 66 72 74 73 67 74 69 75
REMARK SMILES IDX 75 76 68 77 70 78 71 79 72 80 73 81 50 82 51 83 59 84 52 85
REMARK SMILES IDX 54 86 60 87 53 88 55 89 56 90 57 91 58 92
REMARK H PARENT 10 14 80 45 48 56
REMARK Flexibility Score: inf
ROOT
ATOM      1  C   UNL A   1      31.248  30.636  25.415  1.00  0.00     0.275 C 
ENDROOT
BRANCH   1   2
ATOM      2  O   UNL A   1      31.910  29.376  25.170  1.00  0.00    -0.458 OA
BRANCH   2   3
ATOM      3  C   UNL A   1      31.587  28.716  24.020  1.00  0.00     0.348 C 
ATOM      4  O   UNL A   1      31.622  29.242  22.912  1.00  0.00    -0.245 OA
BRANCH   3   5
ATOM      5  C   UNL A   1      31.270  27.314  24.286  1.00  0.00     0.117 A 
ATOM      6  C   UNL A   1      30.388  25.359  25.495  1.00  0.00     0.096 A 
ATOM      7  C   UNL A   1      30.719  25.039  24.207  1.00  0.00     0.042 A 
ATOM      8  S   UNL A   1      30.977  26.876  25.938  1.00  0.00    -0.111 S 
ATOM      9  C   UNL A   1      31.144  26.197  23.456  1.00  0.00    -0.023 A 
ATOM     10  C   UNL A   1      31.380  26.118  21.984  1.00  0.00     0.046 C 
BRANCH   6  11
ATOM     11  N   UNL A   1      29.823  24.566  26.454  1.00  0.00    -0.314 N 
ATOM     12  C   UNL A   1      30.258  23.334  26.911  1.00  0.00     0.256 C 
ATOM     13  O   UNL A   1      29.530  22.759  27.728  1.00  0.00    -0.269 OA
ATOM     14  H   UNL A   1      29.004  24.916  26.873  1.00  0.00     0.171 HD
BRANCH  12  15
ATOM     15  C   UNL A   1      31.590  22.714  26.594  1.00  0.00     0.040 A 
ATOM     16  C   UNL A   1      34.234  21.764  26.033  1.00  0.00    -0.038 A 
ATOM     17  C   UNL A   1      33.963  22.529  27.179  1.00  0.00     0.005 A 
ATOM     18  C   UNL A   1      33.163  21.494  25.178  1.00  0.00     0.005 A 
ATOM     19  C   UNL A   1      32.667  22.998  27.451  1.00  0.00     0.014 A 
ATOM     20  C   UNL A   1      31.874  21.977  25.444  1.00  0.00     0.014 A 
BRANCH  16  21
ATOM     21  C   UNL A   1      35.648  21.271  25.809  1.00  0.00     0.104 C 
BRANCH  21  22
ATOM     22  S   UNL A   1      36.585  21.960  24.407  1.00  0.00    -0.161 SA
ATOM     23  C   UNL A   1      37.073  23.539  25.142  1.00  0.00     0.085 C 
ENDBRANCH  21  22
ENDBRANCH  16  21
ENDBRANCH  12  15
ENDBRANCH   6  11
ENDBRANCH   3   5
ENDBRANCH   2   3
ENDBRANCH   1   2
BRANCH   1  24
ATOM     24  C   UNL A   1      31.714  31.302  26.717  1.00  0.00     0.275 C 
BRANCH  24  25
ATOM     25  O   UNL A   1      33.055  30.919  27.073  1.00  0.00    -0.458 OA
BRANCH  25  26
ATOM     26  C   UNL A   1      33.788  31.927  27.593  1.00  0.00     0.338 C 
ATOM     27  O   UNL A   1      33.402  33.072  27.788  1.00  0.00    -0.246 OA
BRANCH  26  28
ATOM     28  C   UNL A   1      35.132  31.485  27.998  1.00  0.00     0.060 A 
ATOM     29  C   UNL A   1      35.220  30.199  28.527  1.00  0.00     0.016 A 
ATOM     30  C   UNL A   1      36.233  32.341  28.057  1.00  0.00     0.016 A 
ATOM     31  C   UNL A   1      36.371  29.763  29.163  1.00  0.00     0.010 A 
ATOM     32  C   UNL A   1      37.403  31.903  28.690  1.00  0.00     0.010 A 
ATOM     33  C   UNL A   1      37.466  30.621  29.268  1.00  0.00    -0.014 A 
BRANCH  33  34
ATOM     34  C   UNL A   1      38.684  30.130  29.945  1.00  0.00     0.031 A 
ATOM     35  C   UNL A   1      39.508  29.023  29.360  1.00  0.00     0.074 A 
ATOM     36  C   UNL A   1      39.058  30.726  31.089  1.00  0.00     0.049 A 
ATOM     37  N   UNL A   1      40.696  28.605  29.707  1.00  0.00    -0.248 NA
ATOM     38  C   UNL A   1      38.941  28.313  28.208  1.00  0.00     0.031 C 
ATOM     39  C   UNL A   1      38.339  31.822  31.741  1.00  0.00     0.029 A 
ATOM     40  N   UNL A   1      40.107  30.461  31.926  1.00  0.00    -0.354 N 
ATOM     41  C   UNL A   1      41.044  27.632  28.778  1.00  0.00     0.074 A 
ATOM     42  C   UNL A   1      39.938  27.512  27.855  1.00  0.00     0.031 C 
ATOM     43  C   UNL A   1      38.927  32.087  32.917  1.00  0.00     0.029 A 
ATOM     44  C   UNL A   1      40.042  31.165  33.102  1.00  0.00     0.049 A 
ATOM     45  H   UNL A   1      40.832  29.833  31.707  1.00  0.00     0.167 HD
ATOM     46  C   UNL A   1      42.169  26.883  28.722  1.00  0.00     0.034 A 
ATOM     47  C   UNL A   1      40.771  31.034  34.224  1.00  0.00     0.034 A 
ATOM     48  C   UNL A   1      43.152  26.855  29.771  1.00  0.00     0.049 A 
ATOM     49  C   UNL A   1      41.904  30.049  34.232  1.00  0.00     0.074 A 
ATOM     50  C   UNL A   1      44.293  26.079  29.864  1.00  0.00     0.029 A 
ATOM     51  N   UNL A   1      43.051  27.566  30.957  1.00  0.00    -0.354 N 
ATOM     52  N   UNL A   1      42.327  29.272  33.264  1.00  0.00    -0.248 NA
ATOM     53  C   UNL A   1      42.683  29.947  35.472  1.00  0.00     0.031 C 
ATOM     54  C   UNL A   1      44.828  26.254  31.146  1.00  0.00     0.029 A 
ATOM     55  C   UNL A   1      44.067  27.197  31.819  1.00  0.00     0.049 A 
ATOM     56  H   UNL A   1      42.357  28.237  31.157  1.00  0.00     0.167 HD
ATOM     57  C   UNL A   1      43.450  28.621  33.760  1.00  0.00     0.074 A 
ATOM     58  C   UNL A   1      43.640  29.100  35.115  1.00  0.00     0.031 C 
ATOM     59  C   UNL A   1      44.251  27.711  33.152  1.00  0.00     0.034 A 
BRANCH  46  60
ATOM     60  C   UNL A   1      42.364  25.987  27.528  1.00  0.00     0.023 A 
ATOM     61  C   UNL A   1      43.000  26.493  26.375  1.00  0.00     0.012 A 
ATOM     62  C   UNL A   1      41.978  24.634  27.568  1.00  0.00     0.148 A 
ATOM     63  C   UNL A   1      43.239  25.666  25.276  1.00  0.00     0.002 A 
ATOM     64  C   UNL A   1      42.245  23.810  26.481  1.00  0.00     0.091 A 
ATOM     65  F   UNL A   1      41.353  24.182  28.664  1.00  0.00    -0.205 F 
ATOM     66  C   UNL A   1      42.870  24.324  25.333  1.00  0.00     0.022 A 
BRANCH  64  67
ATOM     67  S   UNL A   1      41.850  22.058  26.471  1.00  0.00     0.127 S 
ATOM     68  O   UNL A   1      42.393  21.627  27.759  1.00  0.00    -0.237 OA
ATOM     69  O   UNL A   1      40.390  22.073  26.398  1.00  0.00    -0.237 OA
ATOM     70  O   UNL A   1      42.517  21.500  25.303  1.00  0.00    -0.744 OA
ENDBRANCH  64  67
ENDBRANCH  46  60
BRANCH  47  71
ATOM     71  C   UNL A   1      40.430  31.853  35.416  1.00  0.00     0.023 A 
ATOM     72  C   UNL A   1      41.146  33.033  35.683  1.00  0.00     0.012 A 
ATOM     73  C   UNL A   1      39.361  31.487  36.259  1.00  0.00     0.148 A 
ATOM     74  C   UNL A   1      40.820  33.823  36.786  1.00  0.00     0.002 A 
ATOM     75  C   UNL A   1      39.005  32.307  37.322  1.00  0.00     0.091 A 
ATOM     76  F   UNL A   1      38.699  30.352  35.991  1.00  0.00    -0.205 F 
ATOM     77  C   UNL A   1      39.743  33.467  37.597  1.00  0.00     0.022 A 
BRANCH  75  78
ATOM     78  S   UNL A   1      37.557  31.992  38.337  1.00  0.00     0.127 S 
ATOM     79  O   UNL A   1      38.056  32.305  39.674  1.00  0.00    -0.237 OA
ATOM     80  O   UNL A   1      36.595  32.953  37.797  1.00  0.00    -0.237 OA
ATOM     81  O   UNL A   1      37.207  30.598  38.104  1.00  0.00    -0.744 OA
ENDBRANCH  75  78
ENDBRANCH  47  71
BRANCH  59  82
ATOM     82  C   UNL A   1      45.439  27.204  33.926  1.00  0.00     0.023 A 
ATOM     83  C   UNL A   1      46.671  27.883  33.863  1.00  0.00     0.012 A 
ATOM     84  C   UNL A   1      45.298  26.095  34.782  1.00  0.00     0.148 A 
ATOM     85  C   UNL A   1      47.757  27.441  34.618  1.00  0.00     0.002 A 
ATOM     86  C   UNL A   1      46.367  25.698  35.574  1.00  0.00     0.091 A 
ATOM     87  F   UNL A   1      44.120  25.454  34.811  1.00  0.00    -0.205 F 
ATOM     88  C   UNL A   1      47.601  26.360  35.482  1.00  0.00     0.022 A 
BRANCH  86  89
ATOM     89  S   UNL A   1      46.223  24.389  36.794  1.00  0.00     0.127 S 
ATOM     90  O   UNL A   1      45.951  23.226  35.951  1.00  0.00    -0.237 OA
ATOM     91  O   UNL A   1      47.549  24.398  37.413  1.00  0.00    -0.237 OA
ATOM     92  O   UNL A   1      45.137  24.781  37.683  1.00  0.00    -0.744 OA
ENDBRANCH  86  89
ENDBRANCH  59  82
ENDBRANCH  33  34
ENDBRANCH  26  28
ENDBRANCH  25  26
ENDBRANCH  24  25
ENDBRANCH   1  24
TORSDOF 18
ENDMDL
MODEL 2
REMARK VINA RESULT:     -11.6      5.079      8.351
REMARK SMILES CSCc1ccc(C(=O)Nc2cc(C)c(C(=O)OCCOC(=O)c3ccc(-c4c5nc(c(-c6cccc(S(=O)(=O)[O-])c6F)c6ccc([nH]6)c(-c6cccc(S(=O)(=O)[O-])c6F)c6nc(c(-c7cccc(S(=O)(=O)[O-])c7F)c7ccc4[nH]7)C=C6)C=C5)cc3)s2)cc1
REMARK SMILES IDX 19 1 18 2 16 3 17 4 15 5 11 6 12 7 87 8 13 9 14 10 10 11
REMARK SMILES IDX 8 12 9 13 7 15 4 16 5 17 89 18 6 19 88 20 3 21 2 22 1 23
REMARK SMILES IDX 20 24 21 25 22 26 23 27 24 28 25 29 86 30 26 31 85 32 27 33
REMARK SMILES IDX 28 34 29 35 79 36 30 37 84 38 78 39 80 40 31 41 83 42 77 43
REMARK SMILES IDX 76 44 32 46 64 47 44 48 63 49 45 50 48 51 62 52 81 53 46 54
REMARK SMILES IDX 47 55 61 57 82 58 49 59 33 60 34 61 42 62 35 63 37 64 43 65
REMARK SMILES IDX 36 66 38 67 39 68 40 69 41 70 65 71 66 72 74 73 67 74 69 75
REMARK SMILES IDX 75 76 68 77 70 78 71 79 72 80 73 81 50 82 51 83 59 84 52 85
REMARK SMILES IDX 54 86 60 87 53 88 55 89 56 90 57 91 58 92
REMARK H PARENT 10 14 80 45 48 56
REMARK Flexibility Score: inf
ROOT
ATOM      1  C   UNL A   1      37.416  20.477  24.992  1.00  0.00     0.275 C 
ENDROOT
BRANCH   1   2
ATOM      2  O   UNL A   1      37.729  21.743  24.372  1.00  0.00    -0.458 OA
BRANCH   2   3
ATOM      3  C   UNL A   1      36.701  22.417  23.778  1.00  0.00     0.348 C 
ATOM      4  O   UNL A   1      36.685  22.700  22.583  1.00  0.00    -0.245 OA
BRANCH   3   5
ATOM      5  C   UNL A   1      35.625  22.686  24.729  1.00  0.00     0.117 A 
ATOM      6  C   UNL A   1      33.444  22.435  25.846  1.00  0.00     0.096 A 
ATOM      7  C   UNL A   1      34.280  23.247  26.563  1.00  0.00     0.042 A 
ATOM      8  S   UNL A   1      34.040  22.129  24.298  1.00  0.00    -0.111 S 
ATOM      9  C   UNL A   1      35.595  23.324  25.971  1.00  0.00    -0.023 A 
ATOM     10  C   UNL A   1      36.720  24.006  26.678  1.00  0.00     0.046 C 
BRANCH   6  11
ATOM     11  N   UNL A   1      32.183  22.015  26.161  1.00  0.00    -0.314 N 
ATOM     12  C   UNL A   1      30.987  22.689  25.981  1.00  0.00     0.256 C 
ATOM     13  O   UNL A   1      29.972  22.143  26.427  1.00  0.00    -0.269 OA
ATOM     14  H   UNL A   1      32.116  21.122  26.568  1.00  0.00     0.171 HD
BRANCH  12  15
ATOM     15  C   UNL A   1      30.816  23.950  25.180  1.00  0.00     0.040 A 
ATOM     16  C   UNL A   1      30.676  26.264  23.498  1.00  0.00    -0.038 A 
ATOM     17  C   UNL A   1      30.678  24.969  22.955  1.00  0.00     0.005 A 
ATOM     18  C   UNL A   1      30.753  26.373  24.888  1.00  0.00     0.005 A 
ATOM     19  C   UNL A   1      30.750  23.834  23.781  1.00  0.00     0.014 A 
ATOM     20  C   UNL A   1      30.842  25.241  25.708  1.00  0.00     0.014 A 
BRANCH  16  21
ATOM     21  C   UNL A   1      30.573  27.444  22.554  1.00  0.00     0.104 C 
BRANCH  21  22
ATOM     22  S   UNL A   1      30.077  29.054  23.246  1.00  0.00    -0.161 SA
ATOM     23  C   UNL A   1      28.305  28.980  22.893  1.00  0.00     0.085 C 
ENDBRANCH  21  22
ENDBRANCH  16  21
ENDBRANCH  12  15
ENDBRANCH   6  11
ENDBRANCH   3   5
ENDBRANCH   2   3
ENDBRANCH   1   2
BRANCH   1  24
ATOM     24  C   UNL A   1      38.671  19.707  25.424  1.00  0.00     0.275 C 
BRANCH  24  25
ATOM     25  O   UNL A   1      39.825  20.561  25.520  1.00  0.00    -0.458 OA
BRANCH  25  26
ATOM     26  C   UNL A   1      40.393  20.573  26.745  1.00  0.00     0.338 C 
ATOM     27  O   UNL A   1      40.718  19.591  27.397  1.00  0.00    -0.246 OA
BRANCH  26  28
ATOM     28  C   UNL A   1      40.672  21.940  27.215  1.00  0.00     0.060 A 
ATOM     29  C   UNL A   1      40.350  22.969  26.332  1.00  0.00     0.016 A 
ATOM     30  C   UNL A   1      41.400  22.215  28.374  1.00  0.00     0.016 A 
ATOM     31  C   UNL A   1      40.783  24.265  26.555  1.00  0.00     0.010 A 
ATOM     32  C   UNL A   1      41.833  23.527  28.609  1.00  0.00     0.010 A 
ATOM     33  C   UNL A   1      41.549  24.550  27.686  1.00  0.00    -0.014 A 
BRANCH  33  34
ATOM     34  C   UNL A   1      41.993  25.943  27.904  1.00  0.00     0.031 A 
ATOM     35  C   UNL A   1      43.395  26.371  27.595  1.00  0.00     0.074 A 
ATOM     36  C   UNL A   1      41.094  26.831  28.359  1.00  0.00     0.049 A 
ATOM     37  N   UNL A   1      43.897  27.575  27.537  1.00  0.00    -0.248 NA
ATOM     38  C   UNL A   1      44.355  25.310  27.269  1.00  0.00     0.031 C 
ATOM     39  C   UNL A   1      39.698  26.526  28.681  1.00  0.00     0.029 A 
ATOM     40  N   UNL A   1      41.235  28.154  28.673  1.00  0.00    -0.354 N 
ATOM     41  C   UNL A   1      45.209  27.421  27.106  1.00  0.00     0.074 A 
ATOM     42  C   UNL A   1      45.432  26.004  26.925  1.00  0.00     0.031 C 
ATOM     43  C   UNL A   1      39.130  27.616  29.217  1.00  0.00     0.029 A 
ATOM     44  C   UNL A   1      40.129  28.676  29.295  1.00  0.00     0.049 A 
ATOM     45  H   UNL A   1      42.044  28.678  28.473  1.00  0.00     0.167 HD
ATOM     46  C   UNL A   1      46.152  28.372  26.913  1.00  0.00     0.034 A 
ATOM     47  C   UNL A   1      39.966  29.861  29.909  1.00  0.00     0.034 A 
ATOM     48  C   UNL A   1      45.983  29.743  27.313  1.00  0.00     0.049 A 
ATOM     49  C   UNL A   1      41.095  30.850  29.870  1.00  0.00     0.074 A 
ATOM     50  C   UNL A   1      46.894  30.781  27.241  1.00  0.00     0.029 A 
ATOM     51  N   UNL A   1      44.858  30.238  27.955  1.00  0.00    -0.354 N 
ATOM     52  N   UNL A   1      42.265  30.743  29.287  1.00  0.00    -0.248 NA
ATOM     53  C   UNL A   1      40.871  32.136  30.541  1.00  0.00     0.031 C 
ATOM     54  C   UNL A   1      46.352  31.876  27.924  1.00  0.00     0.029 A 
ATOM     55  C   UNL A   1      45.075  31.545  28.350  1.00  0.00     0.049 A 
ATOM     56  H   UNL A   1      44.026  29.733  28.108  1.00  0.00     0.167 HD
ATOM     57  C   UNL A   1      42.901  31.962  29.480  1.00  0.00     0.074 A 
ATOM     58  C   UNL A   1      41.981  32.794  30.231  1.00  0.00     0.031 C 
ATOM     59  C   UNL A   1      44.132  32.360  29.072  1.00  0.00     0.034 A 
BRANCH  46  60
ATOM     60  C   UNL A   1      47.465  27.954  26.308  1.00  0.00     0.023 A 
ATOM     61  C   UNL A   1      48.529  27.572  27.151  1.00  0.00     0.012 A 
ATOM     62  C   UNL A   1      47.628  27.879  24.912  1.00  0.00     0.148 A 
ATOM     63  C   UNL A   1      49.738  27.130  26.612  1.00  0.00     0.002 A 
ATOM     64  C   UNL A   1      48.825  27.411  24.383  1.00  0.00     0.091 A 
ATOM     65  F   UNL A   1      46.613  28.272  24.131  1.00  0.00    -0.205 F 
ATOM     66  C   UNL A   1      49.883  27.042  25.230  1.00  0.00     0.022 A 
BRANCH  64  67
ATOM     67  S   UNL A   1      49.096  27.218  22.618  1.00  0.00     0.127 S 
ATOM     68  O   UNL A   1      50.551  27.085  22.557  1.00  0.00    -0.237 OA
ATOM     69  O   UNL A   1      48.358  25.990  22.326  1.00  0.00    -0.237 OA
ATOM     70  O   UNL A   1      48.559  28.419  21.993  1.00  0.00    -0.744 OA
ENDBRANCH  64  67
ENDBRANCH  46  60
BRANCH  47  71
ATOM     71  C   UNL A   1      38.688  30.150  30.611  1.00  0.00     0.023 A 
ATOM     72  C   UNL A   1      38.489  29.684  31.923  1.00  0.00     0.012 A 
ATOM     73  C   UNL A   1      37.688  30.931  29.995  1.00  0.00     0.148 A 
ATOM     74  C   UNL A   1      37.303  29.969  32.601  1.00  0.00     0.002 A 
ATOM     75  C   UNL A   1      36.535  31.257  30.696  1.00  0.00     0.091 A 
ATOM     76  F   UNL A   1      37.896  31.354  28.740  1.00  0.00    -0.205 F 
ATOM     77  C   UNL A   1      36.333  30.764  31.993  1.00  0.00     0.022 A 
BRANCH  75  78
ATOM     78  S   UNL A   1      35.296  32.379  30.039  1.00  0.00     0.127 S 
ATOM     79  O   UNL A   1      36.099  33.554  29.714  1.00  0.00    -0.237 OA
ATOM     80  O   UNL A   1      34.796  31.634  28.883  1.00  0.00    -0.237 OA
ATOM     81  O   UNL A   1      34.319  32.557  31.105  1.00  0.00    -0.744 OA
ENDBRANCH  75  78
ENDBRANCH  47  71
BRANCH  59  82
ATOM     82  C   UNL A   1      44.544  33.773  29.387  1.00  0.00     0.023 A 
ATOM     83  C   UNL A   1      45.272  34.058  30.559  1.00  0.00     0.012 A 
ATOM     84  C   UNL A   1      44.276  34.805  28.467  1.00  0.00     0.148 A 
ATOM     85  C   UNL A   1      45.696  35.359  30.826  1.00  0.00     0.002 A 
ATOM     86  C   UNL A   1      44.752  36.086  28.712  1.00  0.00     0.091 A 
ATOM     87  F   UNL A   1      43.566  34.514  27.368  1.00  0.00    -0.205 F 
ATOM     88  C   UNL A   1      45.449  36.368  29.898  1.00  0.00     0.022 A 
BRANCH  86  89
ATOM     89  S   UNL A   1      44.578  37.419  27.523  1.00  0.00     0.127 S 
ATOM     90  O   UNL A   1      44.697  38.598  28.378  1.00  0.00    -0.237 OA
ATOM     91  O   UNL A   1      45.717  37.190  26.634  1.00  0.00    -0.237 OA
ATOM     92  O   UNL A   1      43.275  37.234  26.897  1.00  0.00    -0.744 OA
ENDBRANCH  86  89
ENDBRANCH  59  82
ENDBRANCH  33  34
ENDBRANCH  26  28
ENDBRANCH  25  26
ENDBRANCH  24  25
ENDBRANCH   1  24
TORSDOF 18
ENDMDL
MODEL 3
REMARK VINA RESULT:     -11.6      5.216      8.467
REMARK SMILES CSCc1ccc(C(=O)Nc2cc(C)c(C(=O)OCCOC(=O)c3ccc(-c4c5nc(c(-c6cccc(S(=O)(=O)[O-])c6F)c6ccc([nH]6)c(-c6cccc(S(=O)(=O)[O-])c6F)c6nc(c(-c7cccc(S(=O)(=O)[O-])c7F)c7ccc4[nH]7)C=C6)C=C5)cc3)s2)cc1
REMARK SMILES IDX 19 1 18 2 16 3 17 4 15 5 11 6 12 7 87 8 13 9 14 10 10 11
REMARK SMILES IDX 8 12 9 13 7 15 4 16 5 17 89 18 6 19 88 20 3 21 2 22 1 23
REMARK SMILES IDX 20 24 21 25 22 26 23 27 24 28 25 29 86 30 26 31 85 32 27 33
REMARK SMILES IDX 28 34 29 35 79 36 30 37 84 38 78 39 80 40 31 41 83 42 77 43
REMARK SMILES IDX 76 44 32 46 64 47 44 48 63 49 45 50 48 51 62 52 81 53 46 54
REMARK SMILES IDX 47 55 61 57 82 58 49 59 33 60 34 61 42 62 35 63 37 64 43 65
REMARK SMILES IDX 36 66 38 67 39 68 40 69 41 70 65 71 66 72 74 73 67 74 69 75
REMARK SMILES IDX 75 76 68 77 70 78 71 79 72 80 73 81 50 82 51 83 59 84 52 85
REMARK SMILES IDX 54 86 60 87 53 88 55 89 56 90 57 91 58 92
REMARK H PARENT 10 14 80 45 48 56
REMARK Flexibility Score: inf
ROOT
ATOM      1  C   UNL A   1      37.620  20.830  25.163  1.00  0.00     0.275 C 
ENDROOT
BRANCH   1   2
ATOM      2  O   UNL A   1      36.260  20.413  24.917  1.00  0.00    -0.458 OA
BRANCH   2   3
ATOM      3  C   UNL A   1      35.267  21.155  25.490  1.00  0.00     0.348 C 
ATOM      4  O   UNL A   1      35.235  21.421  26.687  1.00  0.00    -0.245 OA
BRANCH   3   5
ATOM      5  C   UNL A   1      34.315  21.628  24.488  1.00  0.00     0.117 A 
ATOM      6  C   UNL A   1      33.471  22.900  22.555  1.00  0.00     0.096 A 
ATOM      7  C   UNL A   1      32.592  21.920  22.927  1.00  0.00     0.042 A 
ATOM      8  S   UNL A   1      34.677  23.135  23.710  1.00  0.00    -0.111 S 
ATOM      9  C   UNL A   1      33.117  21.103  23.996  1.00  0.00    -0.023 A 
ATOM     10  C   UNL A   1      32.409  19.865  24.440  1.00  0.00     0.046 C 
BRANCH   6  11
ATOM     11  N   UNL A   1      33.386  23.770  21.505  1.00  0.00    -0.314 N 
ATOM     12  C   UNL A   1      32.830  25.038  21.488  1.00  0.00     0.256 C 
ATOM     13  O   UNL A   1      32.789  25.609  20.392  1.00  0.00    -0.269 OA
ATOM     14  H   UNL A   1      33.767  23.456  20.654  1.00  0.00     0.171 HD
BRANCH  12  15
ATOM     15  C   UNL A   1      32.404  25.812  22.704  1.00  0.00     0.040 A 
ATOM     16  C   UNL A   1      31.802  27.198  25.138  1.00  0.00    -0.038 A 
ATOM     17  C   UNL A   1      33.083  27.252  24.567  1.00  0.00     0.005 A 
ATOM     18  C   UNL A   1      30.840  26.435  24.473  1.00  0.00     0.005 A 
ATOM     19  C   UNL A   1      33.379  26.570  23.375  1.00  0.00     0.014 A 
ATOM     20  C   UNL A   1      31.141  25.741  23.293  1.00  0.00     0.014 A 
BRANCH  16  21
ATOM     21  C   UNL A   1      31.543  27.974  26.411  1.00  0.00     0.104 C 
BRANCH  21  22
ATOM     22  S   UNL A   1      32.959  28.771  27.234  1.00  0.00    -0.161 SA
ATOM     23  C   UNL A   1      32.699  30.468  26.666  1.00  0.00     0.085 C 
ENDBRANCH  21  22
ENDBRANCH  16  21
ENDBRANCH  12  15
ENDBRANCH   6  11
ENDBRANCH   3   5
ENDBRANCH   2   3
ENDBRANCH   1   2
BRANCH   1  24
ATOM     24  C   UNL A   1      38.593  19.646  25.252  1.00  0.00     0.275 C 
BRANCH  24  25
ATOM     25  O   UNL A   1      39.319  19.633  26.495  1.00  0.00    -0.458 OA
BRANCH  25  26
ATOM     26  C   UNL A   1      40.615  19.990  26.370  1.00  0.00     0.338 C 
ATOM     27  O   UNL A   1      41.507  19.307  25.886  1.00  0.00    -0.246 OA
BRANCH  26  28
ATOM     28  C   UNL A   1      40.857  21.372  26.816  1.00  0.00     0.060 A 
ATOM     29  C   UNL A   1      40.818  22.350  25.824  1.00  0.00     0.016 A 
ATOM     30  C   UNL A   1      41.302  21.694  28.099  1.00  0.00     0.016 A 
ATOM     31  C   UNL A   1      41.263  23.638  26.071  1.00  0.00     0.010 A 
ATOM     32  C   UNL A   1      41.745  22.998  28.357  1.00  0.00     0.010 A 
ATOM     33  C   UNL A   1      41.752  23.967  27.336  1.00  0.00    -0.014 A 
BRANCH  33  34
ATOM     34  C   UNL A   1      42.215  25.349  27.576  1.00  0.00     0.031 A 
ATOM     35  C   UNL A   1      43.609  25.776  27.229  1.00  0.00     0.074 A 
ATOM     36  C   UNL A   1      41.340  26.231  28.087  1.00  0.00     0.049 A 
ATOM     37  N   UNL A   1      44.118  26.978  27.186  1.00  0.00    -0.248 NA
ATOM     38  C   UNL A   1      44.548  24.718  26.841  1.00  0.00     0.031 C 
ATOM     39  C   UNL A   1      39.954  25.928  28.450  1.00  0.00     0.029 A 
ATOM     40  N   UNL A   1      41.502  27.544  28.433  1.00  0.00    -0.354 N 
ATOM     41  C   UNL A   1      45.413  26.826  26.705  1.00  0.00     0.074 A 
ATOM     42  C   UNL A   1      45.618  25.413  26.477  1.00  0.00     0.031 C 
ATOM     43  C   UNL A   1      39.414  27.006  29.036  1.00  0.00     0.029 A 
ATOM     44  C   UNL A   1      40.423  28.056  29.107  1.00  0.00     0.049 A 
ATOM     45  H   UNL A   1      42.308  28.067  28.218  1.00  0.00     0.167 HD
ATOM     46  C   UNL A   1      46.356  27.776  26.505  1.00  0.00     0.034 A 
ATOM     47  C   UNL A   1      40.291  29.225  29.759  1.00  0.00     0.034 A 
ATOM     48  C   UNL A   1      46.212  29.136  26.948  1.00  0.00     0.049 A 
ATOM     49  C   UNL A   1      41.426  30.207  29.706  1.00  0.00     0.074 A 
ATOM     50  C   UNL A   1      47.128  30.170  26.872  1.00  0.00     0.029 A 
ATOM     51  N   UNL A   1      45.114  29.622  27.643  1.00  0.00    -0.354 N 
ATOM     52  N   UNL A   1      42.574  30.107  29.080  1.00  0.00    -0.248 NA
ATOM     53  C   UNL A   1      41.236  31.475  30.420  1.00  0.00     0.031 C 
ATOM     54  C   UNL A   1      46.619  31.249  27.604  1.00  0.00     0.029 A 
ATOM     55  C   UNL A   1      45.356  30.915  28.066  1.00  0.00     0.049 A 
ATOM     56  H   UNL A   1      44.284  29.118  27.811  1.00  0.00     0.167 HD
ATOM     57  C   UNL A   1      43.226  31.316  29.283  1.00  0.00     0.074 A 
ATOM     58  C   UNL A   1      42.341  32.133  30.089  1.00  0.00     0.031 C 
ATOM     59  C   UNL A   1      44.445  31.717  28.843  1.00  0.00     0.034 A 
BRANCH  46  60
ATOM     60  C   UNL A   1      47.643  27.366  25.842  1.00  0.00     0.023 A 
ATOM     61  C   UNL A   1      48.658  26.758  26.611  1.00  0.00     0.012 A 
ATOM     62  C   UNL A   1      47.826  27.522  24.456  1.00  0.00     0.148 A 
ATOM     63  C   UNL A   1      49.839  26.322  26.008  1.00  0.00     0.002 A 
ATOM     64  C   UNL A   1      48.992  27.058  23.858  1.00  0.00     0.091 A 
ATOM     65  F   UNL A   1      46.859  28.124  23.750  1.00  0.00    -0.205 F 
ATOM     66  C   UNL A   1      50.002  26.464  24.633  1.00  0.00     0.022 A 
BRANCH  64  67
ATOM     67  S   UNL A   1      49.280  27.154  22.088  1.00  0.00     0.127 S 
ATOM     68  O   UNL A   1      48.472  26.037  21.598  1.00  0.00    -0.237 OA
ATOM     69  O   UNL A   1      48.753  28.478  21.762  1.00  0.00    -0.237 OA
ATOM     70  O   UNL A   1      50.717  27.004  21.904  1.00  0.00    -0.744 OA
ENDBRANCH  64  67
ENDBRANCH  46  60
BRANCH  47  71
ATOM     71  C   UNL A   1      39.042  29.504  30.514  1.00  0.00     0.023 A 
ATOM     72  C   UNL A   1      38.833  28.903  31.767  1.00  0.00     0.012 A 
ATOM     73  C   UNL A   1      38.081  30.404  30.009  1.00  0.00     0.148 A 
ATOM     74  C   UNL A   1      37.674  29.175  32.496  1.00  0.00     0.002 A 
ATOM     75  C   UNL A   1      36.958  30.713  30.764  1.00  0.00     0.091 A 
ATOM     76  F   UNL A   1      38.297  30.956  28.806  1.00  0.00    -0.205 F 
ATOM     77  C   UNL A   1      36.744  30.087  32.001  1.00  0.00     0.022 A 
BRANCH  75  78
ATOM     78  S   UNL A   1      35.777  31.970  30.262  1.00  0.00     0.127 S 
ATOM     79  O   UNL A   1      34.897  32.034  31.426  1.00  0.00    -0.237 OA
ATOM     80  O   UNL A   1      36.640  33.138  30.076  1.00  0.00    -0.237 OA
ATOM     81  O   UNL A   1      35.168  31.473  29.036  1.00  0.00    -0.744 OA
ENDBRANCH  75  78
ENDBRANCH  47  71
BRANCH  59  82
ATOM     82  C   UNL A   1      44.880  33.118  29.181  1.00  0.00     0.023 A 
ATOM     83  C   UNL A   1      45.553  33.381  30.391  1.00  0.00     0.012 A 
ATOM     84  C   UNL A   1      44.689  34.157  28.251  1.00  0.00     0.148 A 
ATOM     85  C   UNL A   1      45.998  34.670  30.682  1.00  0.00     0.002 A 
ATOM     86  C   UNL A   1      45.187  35.424  28.523  1.00  0.00     0.091 A 
ATOM     87  F   UNL A   1      44.029  33.886  27.115  1.00  0.00    -0.205 F 
ATOM     88  C   UNL A   1      45.828  35.686  29.744  1.00  0.00     0.022 A 
BRANCH  86  89
ATOM     89  S   UNL A   1      45.112  36.762  27.328  1.00  0.00     0.127 S 
ATOM     90  O   UNL A   1      45.720  37.862  28.075  1.00  0.00    -0.237 OA
ATOM     91  O   UNL A   1      45.930  36.242  26.232  1.00  0.00    -0.237 OA
ATOM     92  O   UNL A   1      43.702  36.935  27.003  1.00  0.00    -0.744 OA
ENDBRANCH  86  89
ENDBRANCH  59  82
ENDBRANCH  33  34
ENDBRANCH  26  28
ENDBRANCH  25  26
ENDBRANCH  24  25
ENDBRANCH   1  24
TORSDOF 18
ENDMDL
