MODEL 1
REMARK VINA RESULT:     -11.1      0.000      0.000
REMARK SMILES C[C@H](C(=O)OCCOC(=O)c1ccc(-c2c3nc(c(-c4cccc(S(=O)(=O)[O-])c4F)c4ccc([nH]4)c(-c4cccc(S(=O)(=O)[O-])c4F)c4nc(c(-c5cccc(S(=O)(=O)[O-])c5F)c5ccc2[nH]5)C=C4)C=C3)cc1)[N@@H+](C)C[C@@H]1CCC[N@H+]1C
REMARK SMILES IDX 6 1 5 2 3 3 4 4 2 5 1 6 74 7 75 8 76 10 77 11 78 12 81 13
REMARK SMILES IDX 79 14 80 15 82 16 7 18 8 19 9 20 10 21 11 22 12 23 73 24
REMARK SMILES IDX 13 25 72 26 14 27 15 28 16 29 66 30 17 31 71 32 65 33 67 34
REMARK SMILES IDX 18 35 70 36 64 37 63 38 19 40 51 41 31 42 50 43 32 44 35 45
REMARK SMILES IDX 49 46 68 47 33 48 34 49 48 51 69 52 36 53 20 54 21 55 29 56
REMARK SMILES IDX 22 57 24 58 30 59 23 60 25 61 26 62 27 63 28 64 52 65 53 66
REMARK SMILES IDX 61 67 54 68 56 69 62 70 55 71 57 72 58 73 59 74 60 75 37 76
REMARK SMILES IDX 38 77 46 78 39 79 41 80 47 81 40 82 42 83 43 84 44 85 45 86
REMARK H PARENT 74 9 81 17 67 39 35 50
REMARK Flexibility Score: inf
ROOT
ATOM      1  C   UNL A   1      31.560  28.839  24.424  1.00  0.00     0.274 C 
ENDROOT
BRANCH   1   2
ATOM      2  O   UNL A   1      30.709  27.700  24.635  1.00  0.00    -0.458 OA
BRANCH   2   3
ATOM      3  C   UNL A   1      31.187  26.745  25.500  1.00  0.00     0.364 C 
ATOM      4  O   UNL A   1      30.733  26.571  26.622  1.00  0.00    -0.245 OA
BRANCH   3   5
ATOM      5  C   UNL A   1      32.394  26.039  24.847  1.00  0.00     0.291 C 
ATOM      6  C   UNL A   1      33.564  26.080  25.832  1.00  0.00     0.088 C 
BRANCH   5   7
ATOM      7  N   UNL A   1      32.126  24.733  24.224  1.00  0.00    -0.321 N 
ATOM      8  C   UNL A   1      32.999  24.278  23.165  1.00  0.00     0.333 C 
ATOM      9  H   UNL A   1      31.321  25.356  24.163  1.00  0.00     0.348 HD
BRANCH   7  10
ATOM     10  C   UNL A   1      31.104  23.802  24.683  1.00  0.00     0.328 C 
BRANCH  10  11
ATOM     11  C   UNL A   1      31.496  22.629  25.629  1.00  0.00     0.239 C 
ATOM     12  C   UNL A   1      31.796  23.148  27.050  1.00  0.00     0.077 C 
ATOM     13  N   UNL A   1      32.685  21.838  25.246  1.00  0.00    -0.330 N 
ATOM     14  C   UNL A   1      33.219  22.711  27.340  1.00  0.00     0.068 C 
ATOM     15  C   UNL A   1      33.393  21.485  26.474  1.00  0.00     0.262 C 
ATOM     16  C   UNL A   1      32.346  20.647  24.473  1.00  0.00     0.333 C 
ATOM     17  H   UNL A   1      33.277  22.398  24.633  1.00  0.00     0.348 HD
ENDBRANCH  10  11
ENDBRANCH   7  10
ENDBRANCH   5   7
ENDBRANCH   3   5
ENDBRANCH   2   3
ENDBRANCH   1   2
BRANCH   1  18
ATOM     18  C   UNL A   1      31.667  29.692  25.691  1.00  0.00     0.275 C 
BRANCH  18  19
ATOM     19  O   UNL A   1      32.940  30.362  25.773  1.00  0.00    -0.458 OA
BRANCH  19  20
ATOM     20  C   UNL A   1      33.032  31.289  26.763  1.00  0.00     0.338 C 
ATOM     21  O   UNL A   1      32.157  32.056  27.119  1.00  0.00    -0.246 OA
BRANCH  20  22
ATOM     22  C   UNL A   1      34.300  31.119  27.508  1.00  0.00     0.060 A 
ATOM     23  C   UNL A   1      34.592  29.823  27.936  1.00  0.00     0.016 A 
ATOM     24  C   UNL A   1      35.180  32.160  27.804  1.00  0.00     0.016 A 
ATOM     25  C   UNL A   1      35.785  29.543  28.599  1.00  0.00     0.010 A 
ATOM     26  C   UNL A   1      36.363  31.885  28.513  1.00  0.00     0.010 A 
ATOM     27  C   UNL A   1      36.680  30.571  28.899  1.00  0.00    -0.014 A 
BRANCH  27  28
ATOM     28  C   UNL A   1      37.880  30.252  29.712  1.00  0.00     0.031 A 
ATOM     29  C   UNL A   1      38.923  29.333  29.143  1.00  0.00     0.074 A 
ATOM     30  C   UNL A   1      38.088  30.829  30.911  1.00  0.00     0.049 A 
ATOM     31  N   UNL A   1      40.032  28.901  29.685  1.00  0.00    -0.248 NA
ATOM     32  C   UNL A   1      38.697  28.861  27.768  1.00  0.00     0.031 C 
ATOM     33  C   UNL A   1      37.218  31.823  31.534  1.00  0.00     0.029 A 
ATOM     34  N   UNL A   1      39.103  30.651  31.820  1.00  0.00    -0.354 N 
ATOM     35  C   UNL A   1      40.626  28.090  28.729  1.00  0.00     0.074 A 
ATOM     36  C   UNL A   1      39.766  28.106  27.565  1.00  0.00     0.031 C 
ATOM     37  C   UNL A   1      37.715  32.137  32.744  1.00  0.00     0.029 A 
ATOM     38  C   UNL A   1      38.914  31.338  32.996  1.00  0.00     0.049 A 
ATOM     39  H   UNL A   1      39.890  30.085  31.647  1.00  0.00     0.167 HD
ATOM     40  C   UNL A   1      41.779  27.384  28.811  1.00  0.00     0.034 A 
ATOM     41  C   UNL A   1      39.604  31.294  34.156  1.00  0.00     0.034 A 
ATOM     42  C   UNL A   1      42.623  27.336  29.974  1.00  0.00     0.049 A 
ATOM     43  C   UNL A   1      40.820  30.403  34.265  1.00  0.00     0.074 A 
ATOM     44  C   UNL A   1      43.790  26.614  30.158  1.00  0.00     0.029 A 
ATOM     45  N   UNL A   1      42.382  28.015  31.157  1.00  0.00    -0.354 N 
ATOM     46  N   UNL A   1      41.398  29.674  33.342  1.00  0.00    -0.248 NA
ATOM     47  C   UNL A   1      41.489  30.344  35.575  1.00  0.00     0.031 C 
ATOM     48  C   UNL A   1      44.232  26.826  31.468  1.00  0.00     0.029 A 
ATOM     49  C   UNL A   1      43.367  27.716  32.083  1.00  0.00     0.049 A 
ATOM     50  H   UNL A   1      41.622  28.621  31.316  1.00  0.00     0.167 HD
ATOM     51  C   UNL A   1      42.515  29.101  33.947  1.00  0.00     0.074 A 
ATOM     52  C   UNL A   1      42.544  29.583  35.311  1.00  0.00     0.031 C 
ATOM     53  C   UNL A   1      43.425  28.243  33.423  1.00  0.00     0.034 A 
BRANCH  40  54
ATOM     54  C   UNL A   1      42.166  26.566  27.611  1.00  0.00     0.023 A 
ATOM     55  C   UNL A   1      42.846  27.170  26.535  1.00  0.00     0.012 A 
ATOM     56  C   UNL A   1      41.863  25.192  27.559  1.00  0.00     0.148 A 
ATOM     57  C   UNL A   1      43.186  26.424  25.407  1.00  0.00     0.002 A 
ATOM     58  C   UNL A   1      42.244  24.447  26.452  1.00  0.00     0.091 A 
ATOM     59  F   UNL A   1      41.193  24.647  28.584  1.00  0.00    -0.205 F 
ATOM     60  C   UNL A   1      42.893  25.063  25.369  1.00  0.00     0.022 A 
BRANCH  58  61
ATOM     61  S   UNL A   1      41.972  22.675  26.342  1.00  0.00     0.127 S 
ATOM     62  O   UNL A   1      42.578  22.364  25.048  1.00  0.00    -0.237 OA
ATOM     63  O   UNL A   1      42.717  22.179  27.499  1.00  0.00    -0.237 OA
ATOM     64  O   UNL A   1      40.531  22.483  26.418  1.00  0.00    -0.744 OA
ENDBRANCH  58  61
ENDBRANCH  40  54
BRANCH  41  65
ATOM     65  C   UNL A   1      39.155  32.091  35.336  1.00  0.00     0.023 A 
ATOM     66  C   UNL A   1      39.465  33.462  35.417  1.00  0.00     0.012 A 
ATOM     67  C   UNL A   1      38.455  31.483  36.396  1.00  0.00     0.148 A 
ATOM     68  C   UNL A   1      39.122  34.203  36.550  1.00  0.00     0.002 A 
ATOM     69  C   UNL A   1      38.065  32.239  37.495  1.00  0.00     0.091 A 
ATOM     70  F   UNL A   1      38.190  30.172  36.313  1.00  0.00    -0.205 F 
ATOM     71  C   UNL A   1      38.415  33.595  37.584  1.00  0.00     0.022 A 
BRANCH  69  72
ATOM     72  S   UNL A   1      37.059  31.568  38.823  1.00  0.00     0.127 S 
ATOM     73  O   UNL A   1      36.840  30.196  38.367  1.00  0.00    -0.237 OA
ATOM     74  O   UNL A   1      37.956  31.699  39.972  1.00  0.00    -0.237 OA
ATOM     75  O   UNL A   1      35.871  32.407  38.885  1.00  0.00    -0.744 OA
ENDBRANCH  69  72
ENDBRANCH  41  65
BRANCH  53  76
ATOM     76  C   UNL A   1      44.572  27.798  34.298  1.00  0.00     0.023 A 
ATOM     77  C   UNL A   1      45.748  28.570  34.371  1.00  0.00     0.012 A 
ATOM     78  C   UNL A   1      44.445  26.659  35.119  1.00  0.00     0.148 A 
ATOM     79  C   UNL A   1      46.789  28.201  35.224  1.00  0.00     0.002 A 
ATOM     80  C   UNL A   1      45.463  26.327  36.006  1.00  0.00     0.091 A 
ATOM     81  F   UNL A   1      43.326  25.925  35.025  1.00  0.00    -0.205 F 
ATOM     82  C   UNL A   1      46.642  27.089  36.051  1.00  0.00     0.022 A 
BRANCH  80  83
ATOM     83  S   UNL A   1      45.320  24.972  37.179  1.00  0.00     0.127 S 
ATOM     84  O   UNL A   1      45.057  23.839  36.295  1.00  0.00    -0.237 OA
ATOM     85  O   UNL A   1      46.643  24.964  37.804  1.00  0.00    -0.237 OA
ATOM     86  O   UNL A   1      44.229  25.331  38.076  1.00  0.00    -0.744 OA
ENDBRANCH  80  83
ENDBRANCH  53  76
ENDBRANCH  27  28
ENDBRANCH  20  22
ENDBRANCH  19  20
ENDBRANCH  18  19
ENDBRANCH   1  18
TORSDOF 17
ENDMDL
MODEL 2
REMARK VINA RESULT:     -10.9      2.035      2.552
REMARK SMILES C[C@H](C(=O)OCCOC(=O)c1ccc(-c2c3nc(c(-c4cccc(S(=O)(=O)[O-])c4F)c4ccc([nH]4)c(-c4cccc(S(=O)(=O)[O-])c4F)c4nc(c(-c5cccc(S(=O)(=O)[O-])c5F)c5ccc2[nH]5)C=C4)C=C3)cc1)[N@@H+](C)C[C@@H]1CCC[N@H+]1C
REMARK SMILES IDX 6 1 5 2 3 3 4 4 2 5 1 6 74 7 75 8 76 10 77 11 78 12 81 13
REMARK SMILES IDX 79 14 80 15 82 16 7 18 8 19 9 20 10 21 11 22 12 23 73 24
REMARK SMILES IDX 13 25 72 26 14 27 15 28 16 29 66 30 17 31 71 32 65 33 67 34
REMARK SMILES IDX 18 35 70 36 64 37 63 38 19 40 51 41 31 42 50 43 32 44 35 45
REMARK SMILES IDX 49 46 68 47 33 48 34 49 48 51 69 52 36 53 20 54 21 55 29 56
REMARK SMILES IDX 22 57 24 58 30 59 23 60 25 61 26 62 27 63 28 64 52 65 53 66
REMARK SMILES IDX 61 67 54 68 56 69 62 70 55 71 57 72 58 73 59 74 60 75 37 76
REMARK SMILES IDX 38 77 46 78 39 79 41 80 47 81 40 82 42 83 43 84 44 85 45 86
REMARK H PARENT 74 9 81 17 67 39 35 50
REMARK Flexibility Score: inf
ROOT
ATOM      1  C   UNL A   1      31.036  29.316  24.623  1.00  0.00     0.274 C 
ENDROOT
BRANCH   1   2
ATOM      2  O   UNL A   1      31.961  29.224  23.526  1.00  0.00    -0.458 OA
BRANCH   2   3
ATOM      3  C   UNL A   1      31.783  28.156  22.680  1.00  0.00     0.364 C 
ATOM      4  O   UNL A   1      30.693  27.834  22.229  1.00  0.00    -0.245 OA
BRANCH   3   5
ATOM      5  C   UNL A   1      33.136  27.437  22.491  1.00  0.00     0.291 C 
ATOM      6  C   UNL A   1      34.240  28.497  22.457  1.00  0.00     0.088 C 
BRANCH   5   7
ATOM      7  N   UNL A   1      33.386  26.278  23.362  1.00  0.00    -0.321 N 
ATOM      8  C   UNL A   1      33.659  24.997  22.749  1.00  0.00     0.333 C 
ATOM      9  H   UNL A   1      32.484  26.713  23.556  1.00  0.00     0.348 HD
BRANCH   7  10
ATOM     10  C   UNL A   1      33.496  26.354  24.812  1.00  0.00     0.328 C 
BRANCH  10  11
ATOM     11  C   UNL A   1      32.523  25.530  25.706  1.00  0.00     0.239 C 
ATOM     12  C   UNL A   1      33.227  24.280  26.274  1.00  0.00     0.077 C 
ATOM     13  N   UNL A   1      31.296  25.022  25.055  1.00  0.00    -0.330 N 
ATOM     14  C   UNL A   1      32.398  23.105  25.792  1.00  0.00     0.068 C 
ATOM     15  C   UNL A   1      31.021  23.698  25.608  1.00  0.00     0.262 C 
ATOM     16  C   UNL A   1      30.154  25.913  25.229  1.00  0.00     0.333 C 
ATOM     17  H   UNL A   1      31.448  24.971  24.048  1.00  0.00     0.348 HD
ENDBRANCH  10  11
ENDBRANCH   7  10
ENDBRANCH   5   7
ENDBRANCH   3   5
ENDBRANCH   2   3
ENDBRANCH   1   2
BRANCH   1  18
ATOM     18  C   UNL A   1      31.772  29.362  25.965  1.00  0.00     0.275 C 
BRANCH  18  19
ATOM     19  O   UNL A   1      33.013  30.087  25.866  1.00  0.00    -0.458 OA
BRANCH  19  20
ATOM     20  C   UNL A   1      33.161  31.088  26.772  1.00  0.00     0.338 C 
ATOM     21  O   UNL A   1      32.329  31.924  27.070  1.00  0.00    -0.246 OA
BRANCH  20  22
ATOM     22  C   UNL A   1      34.429  30.919  27.519  1.00  0.00     0.060 A 
ATOM     23  C   UNL A   1      34.686  29.640  28.013  1.00  0.00     0.016 A 
ATOM     24  C   UNL A   1      35.342  31.947  27.755  1.00  0.00     0.016 A 
ATOM     25  C   UNL A   1      35.874  29.359  28.683  1.00  0.00     0.010 A 
ATOM     26  C   UNL A   1      36.521  31.675  28.471  1.00  0.00     0.010 A 
ATOM     27  C   UNL A   1      36.801  30.374  28.924  1.00  0.00    -0.014 A 
BRANCH  27  28
ATOM     28  C   UNL A   1      37.997  30.062  29.746  1.00  0.00     0.031 A 
ATOM     29  C   UNL A   1      39.042  29.138  29.191  1.00  0.00     0.074 A 
ATOM     30  C   UNL A   1      38.199  30.651  30.940  1.00  0.00     0.049 A 
ATOM     31  N   UNL A   1      40.148  28.711  29.743  1.00  0.00    -0.248 NA
ATOM     32  C   UNL A   1      38.823  28.652  27.819  1.00  0.00     0.031 C 
ATOM     33  C   UNL A   1      37.326  31.651  31.549  1.00  0.00     0.029 A 
ATOM     34  N   UNL A   1      39.210  30.481  31.856  1.00  0.00    -0.354 N 
ATOM     35  C   UNL A   1      40.747  27.890  28.798  1.00  0.00     0.074 A 
ATOM     36  C   UNL A   1      39.893  27.894  27.629  1.00  0.00     0.031 C 
ATOM     37  C   UNL A   1      37.818  31.977  32.758  1.00  0.00     0.029 A 
ATOM     38  C   UNL A   1      39.015  31.180  33.025  1.00  0.00     0.049 A 
ATOM     39  H   UNL A   1      39.997  29.914  31.693  1.00  0.00     0.167 HD
ATOM     40  C   UNL A   1      41.899  27.184  28.893  1.00  0.00     0.034 A 
ATOM     41  C   UNL A   1      39.700  31.146  34.188  1.00  0.00     0.034 A 
ATOM     42  C   UNL A   1      42.737  27.146  30.060  1.00  0.00     0.049 A 
ATOM     43  C   UNL A   1      40.914  30.256  34.312  1.00  0.00     0.074 A 
ATOM     44  C   UNL A   1      43.902  26.426  30.257  1.00  0.00     0.029 A 
ATOM     45  N   UNL A   1      42.491  27.838  31.235  1.00  0.00    -0.354 N 
ATOM     46  N   UNL A   1      41.497  29.518  33.399  1.00  0.00    -0.248 NA
ATOM     47  C   UNL A   1      41.576  30.209  35.626  1.00  0.00     0.031 C 
ATOM     48  C   UNL A   1      44.339  26.650  31.568  1.00  0.00     0.029 A 
ATOM     49  C   UNL A   1      43.471  27.547  32.169  1.00  0.00     0.049 A 
ATOM     50  H   UNL A   1      41.730  28.445  31.385  1.00  0.00     0.167 HD
ATOM     51  C   UNL A   1      42.610  28.951  34.015  1.00  0.00     0.074 A 
ATOM     52  C   UNL A   1      42.632  29.446  35.375  1.00  0.00     0.031 C 
ATOM     53  C   UNL A   1      43.522  28.087  33.505  1.00  0.00     0.034 A 
BRANCH  40  54
ATOM     54  C   UNL A   1      42.291  26.354  27.702  1.00  0.00     0.023 A 
ATOM     55  C   UNL A   1      43.027  26.934  26.650  1.00  0.00     0.012 A 
ATOM     56  C   UNL A   1      41.939  24.993  27.637  1.00  0.00     0.148 A 
ATOM     57  C   UNL A   1      43.374  26.178  25.530  1.00  0.00     0.002 A 
ATOM     58  C   UNL A   1      42.325  24.235  26.540  1.00  0.00     0.091 A 
ATOM     59  F   UNL A   1      41.217  24.471  28.639  1.00  0.00    -0.205 F 
ATOM     60  C   UNL A   1      43.030  24.829  25.480  1.00  0.00     0.022 A 
BRANCH  58  61
ATOM     61  S   UNL A   1      41.990  22.476  26.416  1.00  0.00     0.127 S 
ATOM     62  O   UNL A   1      42.479  22.177  25.071  1.00  0.00    -0.237 OA
ATOM     63  O   UNL A   1      42.809  21.931  27.499  1.00  0.00    -0.237 OA
ATOM     64  O   UNL A   1      40.554  22.325  26.605  1.00  0.00    -0.744 OA
ENDBRANCH  58  61
ENDBRANCH  40  54
BRANCH  41  65
ATOM     65  C   UNL A   1      39.244  31.955  35.358  1.00  0.00     0.023 A 
ATOM     66  C   UNL A   1      38.275  31.435  36.237  1.00  0.00     0.012 A 
ATOM     67  C   UNL A   1      39.740  33.255  35.578  1.00  0.00     0.148 A 
ATOM     68  C   UNL A   1      37.779  32.208  37.289  1.00  0.00     0.002 A 
ATOM     69  C   UNL A   1      39.286  33.998  36.661  1.00  0.00     0.091 A 
ATOM     70  F   UNL A   1      40.644  33.743  34.717  1.00  0.00    -0.205 F 
ATOM     71  C   UNL A   1      38.291  33.485  37.506  1.00  0.00     0.022 A 
BRANCH  69  72
ATOM     72  S   UNL A   1      39.964  35.607  37.081  1.00  0.00     0.127 S 
ATOM     73  O   UNL A   1      39.247  35.920  38.316  1.00  0.00    -0.237 OA
ATOM     74  O   UNL A   1      41.383  35.295  37.256  1.00  0.00    -0.237 OA
ATOM     75  O   UNL A   1      39.670  36.471  35.947  1.00  0.00    -0.744 OA
ENDBRANCH  69  72
ENDBRANCH  41  65
BRANCH  53  76
ATOM     76  C   UNL A   1      44.664  27.649  34.389  1.00  0.00     0.023 A 
ATOM     77  C   UNL A   1      44.555  26.473  35.156  1.00  0.00     0.012 A 
ATOM     78  C   UNL A   1      45.883  28.358  34.387  1.00  0.00     0.148 A 
ATOM     79  C   UNL A   1      45.629  26.025  35.928  1.00  0.00     0.002 A 
ATOM     80  C   UNL A   1      46.965  27.879  35.116  1.00  0.00     0.091 A 
ATOM     81  F   UNL A   1      45.965  29.486  33.664  1.00  0.00    -0.205 F 
ATOM     82  C   UNL A   1      46.837  26.719  35.897  1.00  0.00     0.022 A 
BRANCH  80  83
ATOM     83  S   UNL A   1      48.588  28.649  35.058  1.00  0.00     0.127 S 
ATOM     84  O   UNL A   1      48.304  29.983  35.583  1.00  0.00    -0.237 OA
ATOM     85  O   UNL A   1      49.369  27.795  35.953  1.00  0.00    -0.237 OA
ATOM     86  O   UNL A   1      49.005  28.604  33.662  1.00  0.00    -0.744 OA
ENDBRANCH  80  83
ENDBRANCH  53  76
ENDBRANCH  27  28
ENDBRANCH  20  22
ENDBRANCH  19  20
ENDBRANCH  18  19
ENDBRANCH   1  18
TORSDOF 17
ENDMDL
MODEL 3
REMARK VINA RESULT:     -10.8      5.429     10.014
REMARK SMILES C[C@H](C(=O)OCCOC(=O)c1ccc(-c2c3nc(c(-c4cccc(S(=O)(=O)[O-])c4F)c4ccc([nH]4)c(-c4cccc(S(=O)(=O)[O-])c4F)c4nc(c(-c5cccc(S(=O)(=O)[O-])c5F)c5ccc2[nH]5)C=C4)C=C3)cc1)[N@@H+](C)C[C@@H]1CCC[N@H+]1C
REMARK SMILES IDX 6 1 5 2 3 3 4 4 2 5 1 6 74 7 75 8 76 10 77 11 78 12 81 13
REMARK SMILES IDX 79 14 80 15 82 16 7 18 8 19 9 20 10 21 11 22 12 23 73 24
REMARK SMILES IDX 13 25 72 26 14 27 15 28 16 29 66 30 17 31 71 32 65 33 67 34
REMARK SMILES IDX 18 35 70 36 64 37 63 38 19 40 51 41 31 42 50 43 32 44 35 45
REMARK SMILES IDX 49 46 68 47 33 48 34 49 48 51 69 52 36 53 20 54 21 55 29 56
REMARK SMILES IDX 22 57 24 58 30 59 23 60 25 61 26 62 27 63 28 64 52 65 53 66
REMARK SMILES IDX 61 67 54 68 56 69 62 70 55 71 57 72 58 73 59 74 60 75 37 76
REMARK SMILES IDX 38 77 46 78 39 79 41 80 47 81 40 82 42 83 43 84 44 85 45 86
REMARK H PARENT 74 9 81 17 67 39 35 50
REMARK Flexibility Score: inf
ROOT
ATOM      1  C   UNL A   1      34.565  22.244  25.356  1.00  0.00     0.274 C 
ENDROOT
BRANCH   1   2
ATOM      2  O   UNL A   1      34.143  21.864  24.035  1.00  0.00    -0.458 OA
BRANCH   2   3
ATOM      3  C   UNL A   1      34.215  22.846  23.077  1.00  0.00     0.364 C 
ATOM      4  O   UNL A   1      35.173  23.597  22.959  1.00  0.00    -0.245 OA
BRANCH   3   5
ATOM      5  C   UNL A   1      32.892  22.868  22.282  1.00  0.00     0.291 C 
ATOM      6  C   UNL A   1      32.312  21.451  22.280  1.00  0.00     0.088 C 
BRANCH   5   7
ATOM      7  N   UNL A   1      31.949  23.947  22.615  1.00  0.00    -0.321 N 
ATOM      8  C   UNL A   1      32.094  25.223  21.950  1.00  0.00     0.333 C 
ATOM      9  H   UNL A   1      32.437  23.599  23.440  1.00  0.00     0.348 HD
BRANCH   7  10
ATOM     10  C   UNL A   1      30.794  23.784  23.487  1.00  0.00     0.328 C 
BRANCH  10  11
ATOM     11  C   UNL A   1      30.961  23.940  25.027  1.00  0.00     0.239 C 
ATOM     12  C   UNL A   1      30.904  22.567  25.727  1.00  0.00     0.077 C 
ATOM     13  N   UNL A   1      29.953  24.771  25.721  1.00  0.00    -0.330 N 
ATOM     14  C   UNL A   1      29.756  22.672  26.713  1.00  0.00     0.068 C 
ATOM     15  C   UNL A   1      29.687  24.151  27.016  1.00  0.00     0.262 C 
ATOM     16  C   UNL A   1      30.378  26.159  25.879  1.00  0.00     0.333 C 
ATOM     17  H   UNL A   1      29.106  24.811  25.156  1.00  0.00     0.348 HD
ENDBRANCH  10  11
ENDBRANCH   7  10
ENDBRANCH   5   7
ENDBRANCH   3   5
ENDBRANCH   2   3
ENDBRANCH   1   2
BRANCH   1  18
ATOM     18  C   UNL A   1      35.770  21.416  25.811  1.00  0.00     0.275 C 
BRANCH  18  19
ATOM     19  O   UNL A   1      36.975  21.812  25.127  1.00  0.00    -0.458 OA
BRANCH  19  20
ATOM     20  C   UNL A   1      38.120  21.298  25.648  1.00  0.00     0.338 C 
ATOM     21  O   UNL A   1      38.504  20.148  25.554  1.00  0.00    -0.246 OA
BRANCH  20  22
ATOM     22  C   UNL A   1      38.966  22.383  26.195  1.00  0.00     0.060 A 
ATOM     23  C   UNL A   1      38.604  23.683  25.842  1.00  0.00     0.016 A 
ATOM     24  C   UNL A   1      40.079  22.172  27.010  1.00  0.00     0.016 A 
ATOM     25  C   UNL A   1      39.300  24.779  26.346  1.00  0.00     0.010 A 
ATOM     26  C   UNL A   1      40.810  23.277  27.482  1.00  0.00     0.010 A 
ATOM     27  C   UNL A   1      40.413  24.588  27.166  1.00  0.00    -0.014 A 
BRANCH  27  28
ATOM     28  C   UNL A   1      41.199  25.776  27.583  1.00  0.00     0.031 A 
ATOM     29  C   UNL A   1      40.528  26.847  28.394  1.00  0.00     0.074 A 
ATOM     30  C   UNL A   1      42.515  25.873  27.317  1.00  0.00     0.049 A 
ATOM     31  N   UNL A   1      41.015  27.974  28.842  1.00  0.00    -0.248 NA
ATOM     32  C   UNL A   1      39.128  26.598  28.773  1.00  0.00     0.031 C 
ATOM     33  C   UNL A   1      43.319  24.859  26.638  1.00  0.00     0.029 A 
ATOM     34  N   UNL A   1      43.406  26.885  27.585  1.00  0.00    -0.354 N 
ATOM     35  C   UNL A   1      39.979  28.582  29.537  1.00  0.00     0.074 A 
ATOM     36  C   UNL A   1      38.842  27.688  29.469  1.00  0.00     0.031 C 
ATOM     37  C   UNL A   1      44.577  25.318  26.506  1.00  0.00     0.029 A 
ATOM     38  C   UNL A   1      44.657  26.672  27.054  1.00  0.00     0.049 A 
ATOM     39  H   UNL A   1      43.171  27.686  28.106  1.00  0.00     0.167 HD
ATOM     40  C   UNL A   1      39.966  29.780  30.167  1.00  0.00     0.034 A 
ATOM     41  C   UNL A   1      45.726  27.492  26.981  1.00  0.00     0.034 A 
ATOM     42  C   UNL A   1      41.078  30.689  30.212  1.00  0.00     0.049 A 
ATOM     43  C   UNL A   1      45.648  28.875  27.585  1.00  0.00     0.074 A 
ATOM     44  C   UNL A   1      41.139  31.943  30.795  1.00  0.00     0.029 A 
ATOM     45  N   UNL A   1      42.316  30.456  29.634  1.00  0.00    -0.354 N 
ATOM     46  N   UNL A   1      44.678  29.423  28.277  1.00  0.00    -0.248 NA
ATOM     47  C   UNL A   1      46.821  29.747  27.412  1.00  0.00     0.031 C 
ATOM     48  C   UNL A   1      42.402  32.485  30.534  1.00  0.00     0.029 A 
ATOM     49  C   UNL A   1      43.142  31.549  29.830  1.00  0.00     0.049 A 
ATOM     50  H   UNL A   1      42.569  29.635  29.155  1.00  0.00     0.167 HD
ATOM     51  C   UNL A   1      45.138  30.683  28.652  1.00  0.00     0.074 A 
ATOM     52  C   UNL A   1      46.480  30.812  28.126  1.00  0.00     0.031 C 
ATOM     53  C   UNL A   1      44.499  31.652  29.355  1.00  0.00     0.034 A 
BRANCH  40  54
ATOM     54  C   UNL A   1      38.677  30.193  30.823  1.00  0.00     0.023 A 
ATOM     55  C   UNL A   1      38.427  29.849  32.166  1.00  0.00     0.012 A 
ATOM     56  C   UNL A   1      37.719  30.934  30.105  1.00  0.00     0.148 A 
ATOM     57  C   UNL A   1      37.224  30.206  32.774  1.00  0.00     0.002 A 
ATOM     58  C   UNL A   1      36.542  31.323  30.730  1.00  0.00     0.091 A 
ATOM     59  F   UNL A   1      37.969  31.226  28.820  1.00  0.00    -0.205 F 
ATOM     60  C   UNL A   1      36.287  30.949  32.060  1.00  0.00     0.022 A 
BRANCH  58  61
ATOM     61  S   UNL A   1      35.307  32.340  29.915  1.00  0.00     0.127 S 
ATOM     62  O   UNL A   1      34.346  32.557  30.995  1.00  0.00    -0.237 OA
ATOM     63  O   UNL A   1      36.083  33.522  29.540  1.00  0.00    -0.237 OA
ATOM     64  O   UNL A   1      34.817  31.554  28.792  1.00  0.00    -0.744 OA
ENDBRANCH  58  61
ENDBRANCH  40  54
BRANCH  41  65
ATOM     65  C   UNL A   1      46.970  27.054  26.279  1.00  0.00     0.023 A 
ATOM     66  C   UNL A   1      47.090  27.229  24.887  1.00  0.00     0.012 A 
ATOM     67  C   UNL A   1      48.017  26.428  26.983  1.00  0.00     0.148 A 
ATOM     68  C   UNL A   1      48.210  26.753  24.203  1.00  0.00     0.002 A 
ATOM     69  C   UNL A   1      49.155  26.008  26.306  1.00  0.00     0.091 A 
ATOM     70  F   UNL A   1      47.875  26.248  28.304  1.00  0.00    -0.205 F 
ATOM     71  C   UNL A   1      49.246  26.151  24.913  1.00  0.00     0.022 A 
BRANCH  69  72
ATOM     72  S   UNL A   1      50.584  25.322  27.150  1.00  0.00     0.127 S 
ATOM     73  O   UNL A   1      50.963  26.420  28.037  1.00  0.00    -0.237 OA
ATOM     74  O   UNL A   1      50.002  24.159  27.823  1.00  0.00    -0.237 OA
ATOM     75  O   UNL A   1      51.545  24.998  26.106  1.00  0.00    -0.744 OA
ENDBRANCH  69  72
ENDBRANCH  41  65
BRANCH  53  76
ATOM     76  C   UNL A   1      45.248  32.927  29.656  1.00  0.00     0.023 A 
ATOM     77  C   UNL A   1      46.069  33.014  30.798  1.00  0.00     0.012 A 
ATOM     78  C   UNL A   1      45.210  34.009  28.753  1.00  0.00     0.148 A 
ATOM     79  C   UNL A   1      46.815  34.166  31.052  1.00  0.00     0.002 A 
ATOM     80  C   UNL A   1      45.996  35.133  28.984  1.00  0.00     0.091 A 
ATOM     81  F   UNL A   1      44.411  33.918  27.679  1.00  0.00    -0.205 F 
ATOM     82  C   UNL A   1      46.789  35.219  30.139  1.00  0.00     0.022 A 
BRANCH  80  83
ATOM     83  S   UNL A   1      46.105  36.494  27.814  1.00  0.00     0.127 S 
ATOM     84  O   UNL A   1      46.466  35.797  26.581  1.00  0.00    -0.237 OA
ATOM     85  O   UNL A   1      44.744  37.030  27.836  1.00  0.00    -0.237 OA
ATOM     86  O   UNL A   1      47.120  37.396  28.342  1.00  0.00    -0.744 OA
ENDBRANCH  80  83
ENDBRANCH  53  76
ENDBRANCH  27  28
ENDBRANCH  20  22
ENDBRANCH  19  20
ENDBRANCH  18  19
ENDBRANCH   1  18
TORSDOF 17
ENDMDL
