MODEL 1
REMARK VINA RESULT:     -12.1      0.000      0.000
REMARK SMILES CC[N@@H+](C)Cc1cc2c(cc1Cl)C=C(C(=O)OCCOC(=O)c1ccc(-c3c4nc(c(-c5cccc(S(=O)(=O)[O-])c5F)c5ccc([nH]5)c(-c5cccc(S(=O)(=O)[O-])c5F)c5nc(c(-c6cccc(S(=O)(=O)[O-])c6F)c6ccc3[nH]6)C=C5)C=C4)cc1)[C@@H](C(F)(F)F)O2
REMARK SMILES IDX 18 1 17 2 15 3 16 4 14 5 6 6 7 7 11 8 8 9 10 10 12 11 9 12
REMARK SMILES IDX 91 13 13 14 86 15 5 16 3 17 4 18 2 20 1 21 87 22 88 23 89 24
REMARK SMILES IDX 90 25 19 26 20 27 21 28 22 29 23 30 24 31 85 32 25 33 84 34
REMARK SMILES IDX 26 35 27 36 28 37 78 38 29 39 83 40 77 41 79 42 30 43 82 44
REMARK SMILES IDX 76 45 75 46 31 48 63 49 43 50 62 51 44 52 47 53 61 54 80 55
REMARK SMILES IDX 45 56 46 57 60 59 81 60 48 61 32 62 33 63 41 64 34 65 36 66
REMARK SMILES IDX 42 67 35 68 37 69 38 70 39 71 40 72 64 73 65 74 73 75 66 76
REMARK SMILES IDX 68 77 74 78 67 79 69 80 70 81 71 82 72 83 49 84 50 85 58 86
REMARK SMILES IDX 51 87 53 88 59 89 52 90 54 91 55 92 56 93 57 94
REMARK H PARENT 3 19 79 47 47 58
REMARK Flexibility Score: inf
ROOT
ATOM      1  C   UNL A   1      35.856  20.503  25.000  1.00  0.00     0.275 C 
ENDROOT
BRANCH   1   2
ATOM      2  O   UNL A   1      35.054  21.600  24.510  1.00  0.00    -0.459 OA
BRANCH   2   3
ATOM      3  C   UNL A   1      34.339  22.266  25.446  1.00  0.00     0.338 C 
ATOM      4  O   UNL A   1      34.166  21.926  26.606  1.00  0.00    -0.246 OA
BRANCH   3   5
ATOM      5  C   UNL A   1      33.812  23.524  24.887  1.00  0.00     0.087 C 
ATOM      6  C   UNL A   1      31.793  28.093  24.396  1.00  0.00     0.029 A 
ATOM      7  C   UNL A   1      31.962  26.992  23.528  1.00  0.00     0.058 A 
ATOM      8  C   UNL A   1      32.478  28.086  25.621  1.00  0.00     0.050 A 
ATOM      9  C   UNL A   1      32.652  25.854  23.931  1.00  0.00     0.128 A 
ATOM     10  C   UNL A   1      33.193  26.957  26.014  1.00  0.00     0.033 A 
ATOM     11  Cl  UNL A   1      32.456  29.420  26.715  1.00  0.00    -0.084 Cl
ATOM     12  C   UNL A   1      33.230  25.829  25.190  1.00  0.00     0.019 A 
ATOM     13  O   UNL A   1      32.695  24.808  23.054  1.00  0.00    -0.475 OA
ATOM     14  C   UNL A   1      33.826  24.605  25.672  1.00  0.00     0.027 C 
ATOM     15  C   UNL A   1      33.171  23.514  23.530  1.00  0.00     0.316 C 
BRANCH   6  16
ATOM     16  C   UNL A   1      30.812  29.186  24.017  1.00  0.00     0.300 C 
BRANCH  16  17
ATOM     17  N   UNL A   1      29.908  28.881  22.885  1.00  0.00    -0.334 N 
ATOM     18  C   UNL A   1      29.579  30.079  22.106  1.00  0.00     0.333 C 
ATOM     19  H   UNL A   1      30.458  28.239  22.314  1.00  0.00     0.348 HD
BRANCH  17  20
ATOM     20  C   UNL A   1      28.684  28.147  23.224  1.00  0.00     0.258 C 
ATOM     21  C   UNL A   1      27.412  28.966  23.033  1.00  0.00     0.071 C 
ENDBRANCH  17  20
ENDBRANCH  16  17
ENDBRANCH   6  16
BRANCH  15  22
ATOM     22  C   UNL A   1      32.005  22.512  23.486  1.00  0.00     0.430 C 
ATOM     23  F   UNL A   1      31.544  22.236  24.731  1.00  0.00    -0.167 F 
ATOM     24  F   UNL A   1      30.950  23.005  22.790  1.00  0.00    -0.167 F 
ATOM     25  F   UNL A   1      32.353  21.337  22.915  1.00  0.00    -0.167 F 
ENDBRANCH  15  22
ENDBRANCH   3   5
ENDBRANCH   2   3
ENDBRANCH   1   2
BRANCH   1  26
ATOM     26  C   UNL A   1      37.342  20.737  24.727  1.00  0.00     0.275 C 
BRANCH  26  27
ATOM     27  O   UNL A   1      37.863  21.756  25.599  1.00  0.00    -0.458 OA
BRANCH  27  28
ATOM     28  C   UNL A   1      39.078  21.492  26.131  1.00  0.00     0.338 C 
ATOM     29  O   UNL A   1      39.731  20.469  26.012  1.00  0.00    -0.246 OA
BRANCH  28  30
ATOM     30  C   UNL A   1      39.591  22.694  26.802  1.00  0.00     0.060 A 
ATOM     31  C   UNL A   1      40.702  22.657  27.634  1.00  0.00     0.016 A 
ATOM     32  C   UNL A   1      39.034  23.914  26.448  1.00  0.00     0.016 A 
ATOM     33  C   UNL A   1      41.232  23.864  28.109  1.00  0.00     0.010 A 
ATOM     34  C   UNL A   1      39.676  25.106  26.761  1.00  0.00     0.010 A 
ATOM     35  C   UNL A   1      40.757  25.111  27.642  1.00  0.00    -0.014 A 
BRANCH  35  36
ATOM     36  C   UNL A   1      41.366  26.403  28.082  1.00  0.00     0.031 A 
ATOM     37  C   UNL A   1      42.793  26.767  27.718  1.00  0.00     0.074 A 
ATOM     38  C   UNL A   1      40.650  27.250  28.853  1.00  0.00     0.049 A 
ATOM     39  N   UNL A   1      43.456  27.864  27.993  1.00  0.00    -0.248 NA
ATOM     40  C   UNL A   1      43.602  25.768  26.995  1.00  0.00     0.031 C 
ATOM     41  C   UNL A   1      39.319  26.977  29.402  1.00  0.00     0.029 A 
ATOM     42  N   UNL A   1      40.931  28.518  29.299  1.00  0.00    -0.354 N 
ATOM     43  C   UNL A   1      44.750  27.662  27.523  1.00  0.00     0.074 A 
ATOM     44  C   UNL A   1      44.806  26.321  26.998  1.00  0.00     0.031 C 
ATOM     45  C   UNL A   1      38.868  28.070  30.036  1.00  0.00     0.029 A 
ATOM     46  C   UNL A   1      39.888  29.110  29.975  1.00  0.00     0.049 A 
ATOM     47  H   UNL A   1      41.797  28.962  29.149  1.00  0.00     0.167 HD
ATOM     48  C   UNL A   1      45.788  28.529  27.474  1.00  0.00     0.034 A 
ATOM     49  C   UNL A   1      39.751  30.356  30.469  1.00  0.00     0.034 A 
ATOM     50  C   UNL A   1      45.709  29.900  27.893  1.00  0.00     0.049 A 
ATOM     51  C   UNL A   1      40.870  31.342  30.295  1.00  0.00     0.074 A 
ATOM     52  C   UNL A   1      46.668  30.889  27.774  1.00  0.00     0.029 A 
ATOM     53  N   UNL A   1      44.603  30.477  28.492  1.00  0.00    -0.354 N 
ATOM     54  N   UNL A   1      42.034  31.166  29.719  1.00  0.00    -0.248 NA
ATOM     55  C   UNL A   1      40.651  32.702  30.806  1.00  0.00     0.031 C 
ATOM     56  C   UNL A   1      46.141  32.069  28.305  1.00  0.00     0.029 A 
ATOM     57  C   UNL A   1      44.850  31.814  28.740  1.00  0.00     0.049 A 
ATOM     58  H   UNL A   1      43.766  30.007  28.709  1.00  0.00     0.167 HD
ATOM     59  C   UNL A   1      42.678  32.395  29.780  1.00  0.00     0.074 A 
ATOM     60  C   UNL A   1      41.768  33.313  30.434  1.00  0.00     0.031 C 
ATOM     61  C   UNL A   1      43.917  32.726  29.343  1.00  0.00     0.034 A 
BRANCH  48  62
ATOM     62  C   UNL A   1      47.076  28.065  26.844  1.00  0.00     0.023 A 
ATOM     63  C   UNL A   1      48.119  27.608  27.675  1.00  0.00     0.012 A 
ATOM     64  C   UNL A   1      47.216  27.980  25.446  1.00  0.00     0.148 A 
ATOM     65  C   UNL A   1      49.291  27.092  27.125  1.00  0.00     0.002 A 
ATOM     66  C   UNL A   1      48.373  27.430  24.905  1.00  0.00     0.091 A 
ATOM     67  F   UNL A   1      46.214  28.426  24.675  1.00  0.00    -0.205 F 
ATOM     68  C   UNL A   1      49.413  26.993  25.743  1.00  0.00     0.022 A 
BRANCH  66  69
ATOM     69  S   UNL A   1      48.612  27.197  23.139  1.00  0.00     0.127 S 
ATOM     70  O   UNL A   1      47.647  28.145  22.583  1.00  0.00    -0.237 OA
ATOM     71  O   UNL A   1      50.013  27.582  22.968  1.00  0.00    -0.237 OA
ATOM     72  O   UNL A   1      48.323  25.795  22.873  1.00  0.00    -0.744 OA
ENDBRANCH  66  69
ENDBRANCH  48  62
BRANCH  49  73
ATOM     73  C   UNL A   1      38.452  30.760  31.072  1.00  0.00     0.023 A 
ATOM     74  C   UNL A   1      38.261  30.600  32.459  1.00  0.00     0.012 A 
ATOM     75  C   UNL A   1      37.447  31.379  30.305  1.00  0.00     0.148 A 
ATOM     76  C   UNL A   1      37.089  31.045  33.071  1.00  0.00     0.002 A 
ATOM     77  C   UNL A   1      36.300  31.855  30.926  1.00  0.00     0.091 A 
ATOM     78  F   UNL A   1      37.656  31.521  28.988  1.00  0.00    -0.205 F 
ATOM     79  C   UNL A   1      36.114  31.681  32.308  1.00  0.00     0.022 A 
BRANCH  77  80
ATOM     80  S   UNL A   1      35.035  32.782  30.050  1.00  0.00     0.127 S 
ATOM     81  O   UNL A   1      34.113  33.125  31.132  1.00  0.00    -0.237 OA
ATOM     82  O   UNL A   1      35.804  33.906  29.517  1.00  0.00    -0.237 OA
ATOM     83  O   UNL A   1      34.506  31.876  29.041  1.00  0.00    -0.744 OA
ENDBRANCH  77  80
ENDBRANCH  49  73
BRANCH  61  84
ATOM     84  C   UNL A   1      44.376  34.145  29.525  1.00  0.00     0.023 A 
ATOM     85  C   UNL A   1      45.052  34.507  30.705  1.00  0.00     0.012 A 
ATOM     86  C   UNL A   1      44.257  35.072  28.473  1.00  0.00     0.148 A 
ATOM     87  C   UNL A   1      45.598  35.783  30.839  1.00  0.00     0.002 A 
ATOM     88  C   UNL A   1      44.833  36.329  28.599  1.00  0.00     0.091 A 
ATOM     89  F   UNL A   1      43.602  34.699  27.365  1.00  0.00    -0.205 F 
ATOM     90  C   UNL A   1      45.501  36.687  29.783  1.00  0.00     0.022 A 
BRANCH  88  91
ATOM     91  S   UNL A   1      44.828  37.534  27.268  1.00  0.00     0.127 S 
ATOM     92  O   UNL A   1      45.756  36.927  26.314  1.00  0.00    -0.237 OA
ATOM     93  O   UNL A   1      43.427  37.525  26.847  1.00  0.00    -0.237 OA
ATOM     94  O   UNL A   1      45.278  38.789  27.857  1.00  0.00    -0.744 OA
ENDBRANCH  88  91
ENDBRANCH  61  84
ENDBRANCH  35  36
ENDBRANCH  28  30
ENDBRANCH  27  28
ENDBRANCH  26  27
ENDBRANCH   1  26
TORSDOF 18
ENDMDL
MODEL 2
REMARK VINA RESULT:     -11.5      5.626     12.062
REMARK SMILES CC[N@@H+](C)Cc1cc2c(cc1Cl)C=C(C(=O)OCCOC(=O)c1ccc(-c3c4nc(c(-c5cccc(S(=O)(=O)[O-])c5F)c5ccc([nH]5)c(-c5cccc(S(=O)(=O)[O-])c5F)c5nc(c(-c6cccc(S(=O)(=O)[O-])c6F)c6ccc3[nH]6)C=C5)C=C4)cc1)[C@@H](C(F)(F)F)O2
REMARK SMILES IDX 18 1 17 2 15 3 16 4 14 5 6 6 7 7 11 8 8 9 10 10 12 11 9 12
REMARK SMILES IDX 91 13 13 14 86 15 5 16 3 17 4 18 2 20 1 21 87 22 88 23 89 24
REMARK SMILES IDX 90 25 19 26 20 27 21 28 22 29 23 30 24 31 85 32 25 33 84 34
REMARK SMILES IDX 26 35 27 36 28 37 78 38 29 39 83 40 77 41 79 42 30 43 82 44
REMARK SMILES IDX 76 45 75 46 31 48 63 49 43 50 62 51 44 52 47 53 61 54 80 55
REMARK SMILES IDX 45 56 46 57 60 59 81 60 48 61 32 62 33 63 41 64 34 65 36 66
REMARK SMILES IDX 42 67 35 68 37 69 38 70 39 71 40 72 64 73 65 74 73 75 66 76
REMARK SMILES IDX 68 77 74 78 67 79 69 80 70 81 71 82 72 83 49 84 50 85 58 86
REMARK SMILES IDX 51 87 53 88 59 89 52 90 54 91 55 92 56 93 57 94
REMARK H PARENT 3 19 79 47 47 58
REMARK Flexibility Score: inf
ROOT
ATOM      1  C   UNL A   1      32.947  34.313  28.188  1.00  0.00     0.275 C 
ENDROOT
BRANCH   1   2
ATOM      2  O   UNL A   1      33.843  33.830  29.212  1.00  0.00    -0.459 OA
BRANCH   2   3
ATOM      3  C   UNL A   1      33.800  34.496  30.389  1.00  0.00     0.338 C 
ATOM      4  O   UNL A   1      32.803  34.939  30.938  1.00  0.00    -0.246 OA
BRANCH   3   5
ATOM      5  C   UNL A   1      35.150  34.584  30.976  1.00  0.00     0.087 C 
ATOM      6  C   UNL A   1      40.101  34.227  31.719  1.00  0.00     0.029 A 
ATOM      7  C   UNL A   1      38.987  34.406  32.569  1.00  0.00     0.058 A 
ATOM      8  C   UNL A   1      39.911  34.367  30.336  1.00  0.00     0.050 A 
ATOM      9  C   UNL A   1      37.704  34.554  32.055  1.00  0.00     0.128 A 
ATOM     10  C   UNL A   1      38.629  34.544  29.821  1.00  0.00     0.033 A 
ATOM     11  Cl  UNL A   1      41.209  34.297  29.200  1.00  0.00    -0.084 Cl
ATOM     12  C   UNL A   1      37.528  34.582  30.681  1.00  0.00     0.019 A 
ATOM     13  O   UNL A   1      36.678  34.640  32.955  1.00  0.00    -0.475 OA
ATOM     14  C   UNL A   1      36.190  34.593  30.138  1.00  0.00     0.027 C 
ATOM     15  C   UNL A   1      35.308  34.529  32.467  1.00  0.00     0.316 C 
BRANCH   6  16
ATOM     16  C   UNL A   1      41.426  33.801  32.322  1.00  0.00     0.300 C 
BRANCH  16  17
ATOM     17  N   UNL A   1      42.412  34.882  32.550  1.00  0.00    -0.334 N 
ATOM     18  C   UNL A   1      43.790  34.421  32.347  1.00  0.00     0.333 C 
ATOM     19  H   UNL A   1      42.170  35.571  31.837  1.00  0.00     0.348 HD
BRANCH  17  20
ATOM     20  C   UNL A   1      42.299  35.592  33.828  1.00  0.00     0.258 C 
ATOM     21  C   UNL A   1      42.958  36.967  33.819  1.00  0.00     0.071 C 
ENDBRANCH  17  20
ENDBRANCH  16  17
ENDBRANCH   6  16
BRANCH  15  22
ATOM     22  C   UNL A   1      34.686  33.241  33.033  1.00  0.00     0.430 C 
ATOM     23  F   UNL A   1      35.404  32.764  34.080  1.00  0.00    -0.167 F 
ATOM     24  F   UNL A   1      33.431  33.456  33.499  1.00  0.00    -0.167 F 
ATOM     25  F   UNL A   1      34.612  32.254  32.112  1.00  0.00    -0.167 F 
ENDBRANCH  15  22
ENDBRANCH   3   5
ENDBRANCH   2   3
ENDBRANCH   1   2
BRANCH   1  26
ATOM     26  C   UNL A   1      32.549  33.194  27.225  1.00  0.00     0.275 C 
BRANCH  26  27
ATOM     27  O   UNL A   1      32.815  31.906  27.808  1.00  0.00    -0.458 OA
BRANCH  27  28
ATOM     28  C   UNL A   1      33.417  31.016  26.987  1.00  0.00     0.338 C 
ATOM     29  O   UNL A   1      32.989  30.575  25.934  1.00  0.00    -0.246 OA
BRANCH  28  30
ATOM     30  C   UNL A   1      34.768  30.725  27.485  1.00  0.00     0.060 A 
ATOM     31  C   UNL A   1      35.698  31.727  27.726  1.00  0.00     0.016 A 
ATOM     32  C   UNL A   1      35.041  29.422  27.875  1.00  0.00     0.016 A 
ATOM     33  C   UNL A   1      36.906  31.394  28.353  1.00  0.00     0.010 A 
ATOM     34  C   UNL A   1      36.147  29.133  28.665  1.00  0.00     0.010 A 
ATOM     35  C   UNL A   1      37.131  30.100  28.876  1.00  0.00    -0.014 A 
BRANCH  35  36
ATOM     36  C   UNL A   1      38.383  29.754  29.615  1.00  0.00     0.031 A 
ATOM     37  C   UNL A   1      38.568  30.131  31.073  1.00  0.00     0.074 A 
ATOM     38  C   UNL A   1      39.389  29.128  28.967  1.00  0.00     0.049 A 
ATOM     39  N   UNL A   1      39.579  29.872  31.865  1.00  0.00    -0.248 NA
ATOM     40  C   UNL A   1      37.515  30.934  31.722  1.00  0.00     0.031 C 
ATOM     41  C   UNL A   1      39.417  28.828  27.533  1.00  0.00     0.029 A 
ATOM     42  N   UNL A   1      40.578  28.618  29.429  1.00  0.00    -0.354 N 
ATOM     43  C   UNL A   1      39.303  30.515  33.068  1.00  0.00     0.074 A 
ATOM     44  C   UNL A   1      38.061  31.226  32.893  1.00  0.00     0.031 C 
ATOM     45  C   UNL A   1      40.519  28.118  27.249  1.00  0.00     0.029 A 
ATOM     46  C   UNL A   1      41.299  27.943  28.470  1.00  0.00     0.049 A 
ATOM     47  H   UNL A   1      40.885  28.727  30.357  1.00  0.00     0.167 HD
ATOM     48  C   UNL A   1      39.984  30.474  34.237  1.00  0.00     0.034 A 
ATOM     49  C   UNL A   1      42.442  27.237  28.560  1.00  0.00     0.034 A 
ATOM     50  C   UNL A   1      41.160  29.681  34.453  1.00  0.00     0.049 A 
ATOM     51  C   UNL A   1      43.118  27.101  29.894  1.00  0.00     0.074 A 
ATOM     52  C   UNL A   1      41.854  29.479  35.632  1.00  0.00     0.029 A 
ATOM     53  N   UNL A   1      41.803  28.944  33.474  1.00  0.00    -0.354 N 
ATOM     54  N   UNL A   1      42.757  27.605  31.049  1.00  0.00    -0.248 NA
ATOM     55  C   UNL A   1      44.335  26.279  29.949  1.00  0.00     0.031 C 
ATOM     56  C   UNL A   1      42.921  28.618  35.365  1.00  0.00     0.029 A 
ATOM     57  C   UNL A   1      42.881  28.276  34.023  1.00  0.00     0.049 A 
ATOM     58  H   UNL A   1      41.533  28.901  32.528  1.00  0.00     0.167 HD
ATOM     59  C   UNL A   1      43.689  27.146  31.971  1.00  0.00     0.074 A 
ATOM     60  C   UNL A   1      44.621  26.309  31.244  1.00  0.00     0.031 C 
ATOM     61  C   UNL A   1      43.768  27.406  33.298  1.00  0.00     0.034 A 
BRANCH  48  62
ATOM     62  C   UNL A   1      39.419  31.220  35.418  1.00  0.00     0.023 A 
ATOM     63  C   UNL A   1      38.340  30.659  36.130  1.00  0.00     0.012 A 
ATOM     64  C   UNL A   1      40.014  32.408  35.885  1.00  0.00     0.148 A 
ATOM     65  C   UNL A   1      37.847  31.277  37.278  1.00  0.00     0.002 A 
ATOM     66  C   UNL A   1      39.541  33.000  37.051  1.00  0.00     0.091 A 
ATOM     67  F   UNL A   1      41.035  32.927  35.188  1.00  0.00    -0.205 F 
ATOM     68  C   UNL A   1      38.454  32.440  37.743  1.00  0.00     0.022 A 
BRANCH  66  69
ATOM     69  S   UNL A   1      40.287  34.465  37.775  1.00  0.00     0.127 S 
ATOM     70  O   UNL A   1      39.832  34.373  39.163  1.00  0.00    -0.237 OA
ATOM     71  O   UNL A   1      41.714  34.206  37.585  1.00  0.00    -0.237 OA
ATOM     72  O   UNL A   1      39.762  35.599  37.029  1.00  0.00    -0.744 OA
ENDBRANCH  66  69
ENDBRANCH  48  62
BRANCH  49  73
ATOM     73  C   UNL A   1      42.948  26.514  27.361  1.00  0.00     0.023 A 
ATOM     74  C   UNL A   1      43.871  27.156  26.512  1.00  0.00     0.012 A 
ATOM     75  C   UNL A   1      42.592  25.175  27.108  1.00  0.00     0.148 A 
ATOM     76  C   UNL A   1      44.428  26.479  25.428  1.00  0.00     0.002 A 
ATOM     77  C   UNL A   1      43.181  24.495  26.050  1.00  0.00     0.091 A 
ATOM     78  F   UNL A   1      41.713  24.589  27.933  1.00  0.00    -0.205 F 
ATOM     79  C   UNL A   1      44.092  25.147  25.202  1.00  0.00     0.022 A 
BRANCH  77  80
ATOM     80  S   UNL A   1      42.895  22.748  25.740  1.00  0.00     0.127 S 
ATOM     81  O   UNL A   1      41.444  22.653  25.886  1.00  0.00    -0.237 OA
ATOM     82  O   UNL A   1      43.387  22.604  24.370  1.00  0.00    -0.237 OA
ATOM     83  O   UNL A   1      43.673  22.035  26.742  1.00  0.00    -0.744 OA
ENDBRANCH  77  80
ENDBRANCH  49  73
BRANCH  61  84
ATOM     84  C   UNL A   1      44.882  26.770  34.080  1.00  0.00     0.023 A 
ATOM     85  C   UNL A   1      46.148  27.385  34.106  1.00  0.00     0.012 A 
ATOM     86  C   UNL A   1      44.632  25.647  34.890  1.00  0.00     0.148 A 
ATOM     87  C   UNL A   1      47.157  26.882  34.926  1.00  0.00     0.002 A 
ATOM     88  C   UNL A   1      45.630  25.172  35.730  1.00  0.00     0.091 A 
ATOM     89  F   UNL A   1      43.418  25.080  34.837  1.00  0.00    -0.205 F 
ATOM     90  C   UNL A   1      46.894  25.786  35.746  1.00  0.00     0.022 A 
BRANCH  88  91
ATOM     91  S   UNL A   1      45.366  23.817  36.878  1.00  0.00     0.127 S 
ATOM     92  O   UNL A   1      44.478  24.431  37.863  1.00  0.00    -0.237 OA
ATOM     93  O   UNL A   1      44.731  22.810  36.027  1.00  0.00    -0.237 OA
ATOM     94  O   UNL A   1      46.684  23.447  37.377  1.00  0.00    -0.744 OA
ENDBRANCH  88  91
ENDBRANCH  61  84
ENDBRANCH  35  36
ENDBRANCH  28  30
ENDBRANCH  27  28
ENDBRANCH  26  27
ENDBRANCH   1  26
TORSDOF 18
ENDMDL
MODEL 3
REMARK VINA RESULT:     -11.3      5.916     10.522
REMARK SMILES CC[N@@H+](C)Cc1cc2c(cc1Cl)C=C(C(=O)OCCOC(=O)c1ccc(-c3c4nc(c(-c5cccc(S(=O)(=O)[O-])c5F)c5ccc([nH]5)c(-c5cccc(S(=O)(=O)[O-])c5F)c5nc(c(-c6cccc(S(=O)(=O)[O-])c6F)c6ccc3[nH]6)C=C5)C=C4)cc1)[C@@H](C(F)(F)F)O2
REMARK SMILES IDX 18 1 17 2 15 3 16 4 14 5 6 6 7 7 11 8 8 9 10 10 12 11 9 12
REMARK SMILES IDX 91 13 13 14 86 15 5 16 3 17 4 18 2 20 1 21 87 22 88 23 89 24
REMARK SMILES IDX 90 25 19 26 20 27 21 28 22 29 23 30 24 31 85 32 25 33 84 34
REMARK SMILES IDX 26 35 27 36 28 37 78 38 29 39 83 40 77 41 79 42 30 43 82 44
REMARK SMILES IDX 76 45 75 46 31 48 63 49 43 50 62 51 44 52 47 53 61 54 80 55
REMARK SMILES IDX 45 56 46 57 60 59 81 60 48 61 32 62 33 63 41 64 34 65 36 66
REMARK SMILES IDX 42 67 35 68 37 69 38 70 39 71 40 72 64 73 65 74 73 75 66 76
REMARK SMILES IDX 68 77 74 78 67 79 69 80 70 81 71 82 72 83 49 84 50 85 58 86
REMARK SMILES IDX 51 87 53 88 59 89 52 90 54 91 55 92 56 93 57 94
REMARK H PARENT 3 19 79 47 47 58
REMARK Flexibility Score: inf
ROOT
ATOM      1  C   UNL A   1      33.950  34.699  29.258  1.00  0.00     0.275 C 
ENDROOT
BRANCH   1   2
ATOM      2  O   UNL A   1      34.450  33.948  30.386  1.00  0.00    -0.459 OA
BRANCH   2   3
ATOM      3  C   UNL A   1      34.590  34.645  31.537  1.00  0.00     0.338 C 
ATOM      4  O   UNL A   1      33.693  35.145  32.198  1.00  0.00    -0.246 OA
BRANCH   3   5
ATOM      5  C   UNL A   1      36.009  34.691  31.937  1.00  0.00     0.087 C 
ATOM      6  C   UNL A   1      40.944  33.834  32.251  1.00  0.00     0.029 A 
ATOM      7  C   UNL A   1      39.983  34.390  33.123  1.00  0.00     0.058 A 
ATOM      8  C   UNL A   1      40.585  33.628  30.910  1.00  0.00     0.050 A 
ATOM      9  C   UNL A   1      38.666  34.580  32.720  1.00  0.00     0.128 A 
ATOM     10  C   UNL A   1      39.272  33.845  30.498  1.00  0.00     0.033 A 
ATOM     11  Cl  UNL A   1      41.700  33.073  29.716  1.00  0.00    -0.084 Cl
ATOM     12  C   UNL A   1      38.309  34.267  31.418  1.00  0.00     0.019 A 
ATOM     13  O   UNL A   1      37.789  35.048  33.658  1.00  0.00    -0.475 OA
ATOM     14  C   UNL A   1      36.920  34.326  31.030  1.00  0.00     0.027 C 
ATOM     15  C   UNL A   1      36.361  35.010  33.361  1.00  0.00     0.316 C 
BRANCH   6  16
ATOM     16  C   UNL A   1      42.283  33.396  32.813  1.00  0.00     0.300 C 
BRANCH  16  17
ATOM     17  N   UNL A   1      43.202  34.484  33.219  1.00  0.00    -0.334 N 
ATOM     18  C   UNL A   1      43.353  35.497  32.169  1.00  0.00     0.333 C 
ATOM     19  H   UNL A   1      42.734  34.894  34.028  1.00  0.00     0.348 HD
BRANCH  17  20
ATOM     20  C   UNL A   1      44.519  34.061  33.707  1.00  0.00     0.258 C 
ATOM     21  C   UNL A   1      44.681  32.546  33.780  1.00  0.00     0.071 C 
ENDBRANCH  17  20
ENDBRANCH  16  17
ENDBRANCH   6  16
BRANCH  15  22
ATOM     22  C   UNL A   1      35.683  34.022  34.324  1.00  0.00     0.430 C 
ATOM     23  F   UNL A   1      36.577  33.481  35.188  1.00  0.00    -0.167 F 
ATOM     24  F   UNL A   1      34.741  34.634  35.085  1.00  0.00    -0.167 F 
ATOM     25  F   UNL A   1      35.079  33.000  33.677  1.00  0.00    -0.167 F 
ENDBRANCH  15  22
ENDBRANCH   3   5
ENDBRANCH   2   3
ENDBRANCH   1   2
BRANCH   1  26
ATOM     26  C   UNL A   1      32.991  33.860  28.413  1.00  0.00     0.275 C 
BRANCH  26  27
ATOM     27  O   UNL A   1      33.692  33.235  27.323  1.00  0.00    -0.458 OA
BRANCH  27  28
ATOM     28  C   UNL A   1      33.670  31.882  27.325  1.00  0.00     0.338 C 
ATOM     29  O   UNL A   1      32.803  31.156  26.870  1.00  0.00    -0.246 OA
BRANCH  28  30
ATOM     30  C   UNL A   1      34.938  31.373  27.864  1.00  0.00     0.060 A 
ATOM     31  C   UNL A   1      36.069  32.171  27.971  1.00  0.00     0.016 A 
ATOM     32  C   UNL A   1      34.932  30.104  28.427  1.00  0.00     0.016 A 
ATOM     33  C   UNL A   1      37.192  31.668  28.642  1.00  0.00     0.010 A 
ATOM     34  C   UNL A   1      35.969  29.689  29.253  1.00  0.00     0.010 A 
ATOM     35  C   UNL A   1      37.144  30.437  29.335  1.00  0.00    -0.014 A 
BRANCH  35  36
ATOM     36  C   UNL A   1      38.310  29.927  30.120  1.00  0.00     0.031 A 
ATOM     37  C   UNL A   1      39.329  28.990  29.500  1.00  0.00     0.074 A 
ATOM     38  C   UNL A   1      38.442  30.273  31.419  1.00  0.00     0.049 A 
ATOM     39  N   UNL A   1      40.415  28.488  30.036  1.00  0.00    -0.248 NA
ATOM     40  C   UNL A   1      39.091  28.516  28.124  1.00  0.00     0.031 C 
ATOM     41  C   UNL A   1      37.470  31.050  32.193  1.00  0.00     0.029 A 
ATOM     42  N   UNL A   1      39.453  30.030  32.317  1.00  0.00    -0.354 N 
ATOM     43  C   UNL A   1      40.946  27.617  29.090  1.00  0.00     0.074 A 
ATOM     44  C   UNL A   1      40.042  27.607  27.967  1.00  0.00     0.031 C 
ATOM     45  C   UNL A   1      37.966  31.289  33.416  1.00  0.00     0.029 A 
ATOM     46  C   UNL A   1      39.273  30.652  33.532  1.00  0.00     0.049 A 
ATOM     47  H   UNL A   1      40.231  29.464  32.111  1.00  0.00     0.167 HD
ATOM     48  C   UNL A   1      42.112  26.929  29.118  1.00  0.00     0.034 A 
ATOM     49  C   UNL A   1      40.076  30.730  34.610  1.00  0.00     0.034 A 
ATOM     50  C   UNL A   1      43.071  27.019  30.182  1.00  0.00     0.049 A 
ATOM     51  C   UNL A   1      41.420  30.061  34.574  1.00  0.00     0.074 A 
ATOM     52  C   UNL A   1      44.332  26.456  30.250  1.00  0.00     0.029 A 
ATOM     53  N   UNL A   1      42.882  27.732  31.354  1.00  0.00    -0.354 N 
ATOM     54  N   UNL A   1      41.959  29.359  33.608  1.00  0.00    -0.248 NA
ATOM     55  C   UNL A   1      42.279  30.219  35.756  1.00  0.00     0.031 C 
ATOM     56  C   UNL A   1      44.908  26.828  31.467  1.00  0.00     0.029 A 
ATOM     57  C   UNL A   1      44.008  27.633  32.148  1.00  0.00     0.049 A 
ATOM     58  H   UNL A   1      42.068  28.235  31.586  1.00  0.00     0.167 HD
ATOM     59  C   UNL A   1      43.226  29.007  34.055  1.00  0.00     0.074 A 
ATOM     60  C   UNL A   1      43.382  29.588  35.373  1.00  0.00     0.031 C 
ATOM     61  C   UNL A   1      44.168  28.259  33.433  1.00  0.00     0.034 A 
BRANCH  48  62
ATOM     62  C   UNL A   1      42.481  26.101  27.915  1.00  0.00     0.023 A 
ATOM     63  C   UNL A   1      43.393  26.624  26.976  1.00  0.00     0.012 A 
ATOM     64  C   UNL A   1      42.016  24.779  27.767  1.00  0.00     0.148 A 
ATOM     65  C   UNL A   1      43.823  25.854  25.897  1.00  0.00     0.002 A 
ATOM     66  C   UNL A   1      42.477  24.005  26.709  1.00  0.00     0.091 A 
ATOM     67  F   UNL A   1      41.144  24.305  28.668  1.00  0.00    -0.205 F 
ATOM     68  C   UNL A   1      43.374  24.542  25.770  1.00  0.00     0.022 A 
BRANCH  66  69
ATOM     69  S   UNL A   1      42.013  22.284  26.482  1.00  0.00     0.127 S 
ATOM     70  O   UNL A   1      40.562  22.386  26.330  1.00  0.00    -0.237 OA
ATOM     71  O   UNL A   1      42.731  21.933  25.256  1.00  0.00    -0.237 OA
ATOM     72  O   UNL A   1      42.459  21.583  27.678  1.00  0.00    -0.744 OA
ENDBRANCH  66  69
ENDBRANCH  48  62
BRANCH  49  73
ATOM     73  C   UNL A   1      39.663  31.571  35.766  1.00  0.00     0.023 A 
ATOM     74  C   UNL A   1      40.145  32.892  35.860  1.00  0.00     0.012 A 
ATOM     75  C   UNL A   1      38.735  31.107  36.717  1.00  0.00     0.148 A 
ATOM     76  C   UNL A   1      39.713  33.735  36.884  1.00  0.00     0.002 A 
ATOM     77  C   UNL A   1      38.279  31.964  37.711  1.00  0.00     0.091 A 
ATOM     78  F   UNL A   1      38.292  29.847  36.603  1.00  0.00    -0.205 F 
ATOM     79  C   UNL A   1      38.773  33.275  37.803  1.00  0.00     0.022 A 
BRANCH  77  80
ATOM     80  S   UNL A   1      36.992  31.501  38.876  1.00  0.00     0.127 S 
ATOM     81  O   UNL A   1      37.737  31.437  40.133  1.00  0.00    -0.237 OA
ATOM     82  O   UNL A   1      36.069  32.630  38.764  1.00  0.00    -0.237 OA
ATOM     83  O   UNL A   1      36.461  30.233  38.399  1.00  0.00    -0.744 OA
ENDBRANCH  77  80
ENDBRANCH  49  73
BRANCH  61  84
ATOM     84  C   UNL A   1      45.474  28.031  34.140  1.00  0.00     0.023 A 
ATOM     85  C   UNL A   1      46.514  28.967  33.990  1.00  0.00     0.012 A 
ATOM     86  C   UNL A   1      45.614  26.968  35.051  1.00  0.00     0.148 A 
ATOM     87  C   UNL A   1      47.685  28.842  34.736  1.00  0.00     0.002 A 
ATOM     88  C   UNL A   1      46.768  26.869  35.816  1.00  0.00     0.091 A 
ATOM     89  F   UNL A   1      44.608  26.089  35.166  1.00  0.00    -0.205 F 
ATOM     90  C   UNL A   1      47.806  27.803  35.657  1.00  0.00     0.022 A 
BRANCH  88  91
ATOM     91  S   UNL A   1      46.985  25.613  37.081  1.00  0.00     0.127 S 
ATOM     92  O   UNL A   1      45.827  25.853  37.940  1.00  0.00    -0.237 OA
ATOM     93  O   UNL A   1      46.924  24.376  36.303  1.00  0.00    -0.237 OA
ATOM     94  O   UNL A   1      48.279  25.880  37.697  1.00  0.00    -0.744 OA
ENDBRANCH  88  91
ENDBRANCH  61  84
ENDBRANCH  35  36
ENDBRANCH  28  30
ENDBRANCH  27  28
ENDBRANCH  26  27
ENDBRANCH   1  26
TORSDOF 18
ENDMDL
