MODEL 1
REMARK VINA RESULT:     -12.1      0.000      0.000
REMARK SMILES Cc1ccc(-c2cc(Cl)ccc2Cl)c(C(=O)OCCOC(=O)c2ccc(-c3c4nc(c(-c5cccc(S(=O)(=O)[O-])c5F)c5ccc([nH]5)c(-c5cccc(S(=O)(=O)[O-])c5F)c5nc(c(-c6cccc(S(=O)(=O)[O-])c6F)c6ccc3[nH]6)C=C5)C=C4)cc2)c1
REMARK SMILES IDX 19 1 18 2 17 3 15 4 16 5 14 6 1 7 2 8 3 9 86 10 4 11 5 12
REMARK SMILES IDX 6 13 7 14 12 15 8 16 11 17 13 18 9 19 10 20 20 21 21 22
REMARK SMILES IDX 22 23 23 24 24 25 85 26 25 27 84 28 26 29 27 30 28 31 78 32
REMARK SMILES IDX 29 33 83 34 77 35 79 36 30 37 82 38 76 39 75 40 31 42 63 43
REMARK SMILES IDX 43 44 62 45 44 46 47 47 61 48 80 49 45 50 46 51 60 53 81 54
REMARK SMILES IDX 48 55 32 56 33 57 41 58 34 59 36 60 42 61 35 62 37 63 38 64
REMARK SMILES IDX 39 65 40 66 64 67 65 68 73 69 66 70 68 71 74 72 67 73 69 74
REMARK SMILES IDX 70 75 71 76 72 77 49 78 50 79 58 80 51 81 53 82 59 83 52 84
REMARK SMILES IDX 54 85 55 86 56 87 57 88
REMARK H PARENT 79 41 47 52
REMARK Flexibility Score: inf
ROOT
ATOM      1  C   UNL A   1      33.494  30.359  26.844  1.00  0.00     0.275 C 
ENDROOT
BRANCH   1   2
ATOM      2  C   UNL A   1      33.919  28.941  26.419  1.00  0.00     0.275 C 
BRANCH   2   3
ATOM      3  O   UNL A   1      33.341  27.791  27.066  1.00  0.00    -0.458 OA
BRANCH   3   4
ATOM      4  C   UNL A   1      32.004  27.580  27.079  1.00  0.00     0.338 C 
ATOM      5  O   UNL A   1      31.236  27.974  27.940  1.00  0.00    -0.246 OA
BRANCH   4   6
ATOM      6  C   UNL A   1      31.578  27.018  25.759  1.00  0.00     0.068 A 
ATOM      7  C   UNL A   1      29.612  28.730  22.933  1.00  0.00     0.044 C 
ATOM      8  C   UNL A   1      30.274  27.684  23.776  1.00  0.00    -0.050 A 
ATOM      9  C   UNL A   1      30.219  26.351  23.416  1.00  0.00     0.004 A 
ATOM     10  C   UNL A   1      30.906  28.000  24.973  1.00  0.00     0.019 A 
ATOM     11  C   UNL A   1      30.850  25.374  24.201  1.00  0.00     0.010 A 
ATOM     12  C   UNL A   1      31.646  25.654  25.336  1.00  0.00    -0.002 A 
BRANCH  12  13
ATOM     13  C   UNL A   1      32.553  24.554  25.887  1.00  0.00     0.003 A 
ATOM     14  C   UNL A   1      33.960  24.640  25.788  1.00  0.00     0.030 A 
ATOM     15  C   UNL A   1      32.087  23.330  26.474  1.00  0.00     0.049 A 
ATOM     16  C   UNL A   1      34.814  23.563  26.099  1.00  0.00     0.041 A 
ATOM     17  C   UNL A   1      32.945  22.235  26.711  1.00  0.00     0.023 A 
ATOM     18  Cl  UNL A   1      30.481  23.021  27.080  1.00  0.00    -0.084 Cl
ATOM     19  Cl  UNL A   1      36.525  23.759  26.039  1.00  0.00    -0.084 Cl
ATOM     20  C   UNL A   1      34.306  22.338  26.493  1.00  0.00     0.022 A 
ENDBRANCH  12  13
ENDBRANCH   4   6
ENDBRANCH   3   4
ENDBRANCH   2   3
ENDBRANCH   1   2
BRANCH   1  21
ATOM     21  O   UNL A   1      34.035  31.044  28.005  1.00  0.00    -0.458 OA
BRANCH  21  22
ATOM     22  C   UNL A   1      35.213  31.708  28.004  1.00  0.00     0.338 C 
ATOM     23  O   UNL A   1      35.380  32.817  27.519  1.00  0.00    -0.246 OA
BRANCH  22  24
ATOM     24  C   UNL A   1      36.331  30.856  28.390  1.00  0.00     0.060 A 
ATOM     25  C   UNL A   1      36.295  30.152  29.602  1.00  0.00     0.016 A 
ATOM     26  C   UNL A   1      37.354  30.689  27.459  1.00  0.00     0.016 A 
ATOM     27  C   UNL A   1      37.252  29.187  29.861  1.00  0.00     0.010 A 
ATOM     28  C   UNL A   1      38.283  29.715  27.697  1.00  0.00     0.010 A 
ATOM     29  C   UNL A   1      38.258  29.016  28.922  1.00  0.00    -0.014 A 
BRANCH  29  30
ATOM     30  C   UNL A   1      39.546  28.452  29.276  1.00  0.00     0.031 A 
ATOM     31  C   UNL A   1      39.892  27.054  29.032  1.00  0.00     0.074 A 
ATOM     32  C   UNL A   1      40.441  29.456  29.398  1.00  0.00     0.049 A 
ATOM     33  N   UNL A   1      41.070  26.589  29.252  1.00  0.00    -0.248 NA
ATOM     34  C   UNL A   1      38.943  26.044  28.575  1.00  0.00     0.031 C 
ATOM     35  C   UNL A   1      41.814  29.532  28.953  1.00  0.00     0.029 A 
ATOM     36  N   UNL A   1      40.201  30.699  29.995  1.00  0.00    -0.354 N 
ATOM     37  C   UNL A   1      41.128  25.343  28.673  1.00  0.00     0.074 A 
ATOM     38  C   UNL A   1      39.753  24.986  28.427  1.00  0.00     0.031 C 
ATOM     39  C   UNL A   1      42.361  30.653  29.461  1.00  0.00     0.029 A 
ATOM     40  C   UNL A   1      41.426  31.180  30.452  1.00  0.00     0.049 A 
ATOM     41  H   UNL A   1      39.329  31.149  30.078  1.00  0.00     0.167 HD
ATOM     42  C   UNL A   1      42.356  24.877  28.311  1.00  0.00     0.034 A 
ATOM     43  C   UNL A   1      41.692  31.372  31.782  1.00  0.00     0.034 A 
ATOM     44  C   UNL A   1      43.409  25.767  28.844  1.00  0.00     0.049 A 
ATOM     45  C   UNL A   1      42.814  30.450  32.239  1.00  0.00     0.074 A 
ATOM     46  C   UNL A   1      44.139  26.788  28.259  1.00  0.00     0.029 A 
ATOM     47  N   UNL A   1      43.575  25.907  30.223  1.00  0.00    -0.354 N 
ATOM     48  N   UNL A   1      43.272  29.450  31.541  1.00  0.00    -0.248 NA
ATOM     49  C   UNL A   1      43.438  30.542  33.554  1.00  0.00     0.031 C 
ATOM     50  C   UNL A   1      44.646  27.615  29.300  1.00  0.00     0.029 A 
ATOM     51  C   UNL A   1      44.276  27.072  30.520  1.00  0.00     0.049 A 
ATOM     52  H   UNL A   1      43.242  25.269  30.894  1.00  0.00     0.167 HD
ATOM     53  C   UNL A   1      44.094  28.685  32.313  1.00  0.00     0.074 A 
ATOM     54  C   UNL A   1      44.231  29.457  33.539  1.00  0.00     0.031 C 
ATOM     55  C   UNL A   1      44.531  27.453  31.910  1.00  0.00     0.034 A 
BRANCH  42  56
ATOM     56  C   UNL A   1      42.649  23.816  27.254  1.00  0.00     0.023 A 
ATOM     57  C   UNL A   1      43.288  24.265  26.074  1.00  0.00     0.012 A 
ATOM     58  C   UNL A   1      42.258  22.452  27.254  1.00  0.00     0.148 A 
ATOM     59  C   UNL A   1      43.482  23.445  24.955  1.00  0.00     0.002 A 
ATOM     60  C   UNL A   1      42.486  21.619  26.150  1.00  0.00     0.091 A 
ATOM     61  F   UNL A   1      41.608  21.936  28.296  1.00  0.00    -0.205 F 
ATOM     62  C   UNL A   1      43.082  22.119  24.992  1.00  0.00     0.022 A 
BRANCH  60  63
ATOM     63  S   UNL A   1      42.025  19.872  26.133  1.00  0.00     0.127 S 
ATOM     64  O   UNL A   1      40.570  19.939  25.995  1.00  0.00    -0.237 OA
ATOM     65  O   UNL A   1      42.725  19.375  24.949  1.00  0.00    -0.237 OA
ATOM     66  O   UNL A   1      42.498  19.307  27.392  1.00  0.00    -0.744 OA
ENDBRANCH  60  63
ENDBRANCH  42  56
BRANCH  43  67
ATOM     67  C   UNL A   1      40.457  31.598  32.620  1.00  0.00     0.023 A 
ATOM     68  C   UNL A   1      39.867  30.487  33.278  1.00  0.00     0.012 A 
ATOM     69  C   UNL A   1      40.266  32.876  33.161  1.00  0.00     0.148 A 
ATOM     70  C   UNL A   1      39.310  30.633  34.553  1.00  0.00     0.002 A 
ATOM     71  C   UNL A   1      39.788  33.000  34.453  1.00  0.00     0.091 A 
ATOM     72  F   UNL A   1      40.663  33.957  32.477  1.00  0.00    -0.205 F 
ATOM     73  C   UNL A   1      39.332  31.883  35.165  1.00  0.00     0.022 A 
BRANCH  71  74
ATOM     74  S   UNL A   1      40.104  34.545  35.306  1.00  0.00     0.127 S 
ATOM     75  O   UNL A   1      41.479  34.824  34.910  1.00  0.00    -0.237 OA
ATOM     76  O   UNL A   1      39.139  35.466  34.721  1.00  0.00    -0.237 OA
ATOM     77  O   UNL A   1      39.912  34.172  36.701  1.00  0.00    -0.744 OA
ENDBRANCH  71  74
ENDBRANCH  43  67
BRANCH  55  78
ATOM     78  C   UNL A   1      45.278  26.501  32.810  1.00  0.00     0.023 A 
ATOM     79  C   UNL A   1      46.683  26.499  32.901  1.00  0.00     0.012 A 
ATOM     80  C   UNL A   1      44.574  25.647  33.693  1.00  0.00     0.148 A 
ATOM     81  C   UNL A   1      47.364  25.614  33.740  1.00  0.00     0.002 A 
ATOM     82  C   UNL A   1      45.253  24.858  34.614  1.00  0.00     0.091 A 
ATOM     83  F   UNL A   1      43.236  25.575  33.629  1.00  0.00    -0.205 F 
ATOM     84  C   UNL A   1      46.649  24.803  34.609  1.00  0.00     0.022 A 
BRANCH  82  85
ATOM     85  S   UNL A   1      44.364  24.007  35.922  1.00  0.00     0.127 S 
ATOM     86  O   UNL A   1      43.537  23.067  35.169  1.00  0.00    -0.237 OA
ATOM     87  O   UNL A   1      45.447  23.384  36.687  1.00  0.00    -0.237 OA
ATOM     88  O   UNL A   1      43.655  25.055  36.643  1.00  0.00    -0.744 OA
ENDBRANCH  82  85
ENDBRANCH  55  78
ENDBRANCH  29  30
ENDBRANCH  22  24
ENDBRANCH  21  22
ENDBRANCH   1  21
TORSDOF 15
ENDMDL
MODEL 2
REMARK VINA RESULT:     -12.0      4.197      9.792
REMARK SMILES Cc1ccc(-c2cc(Cl)ccc2Cl)c(C(=O)OCCOC(=O)c2ccc(-c3c4nc(c(-c5cccc(S(=O)(=O)[O-])c5F)c5ccc([nH]5)c(-c5cccc(S(=O)(=O)[O-])c5F)c5nc(c(-c6cccc(S(=O)(=O)[O-])c6F)c6ccc3[nH]6)C=C5)C=C4)cc2)c1
REMARK SMILES IDX 19 1 18 2 17 3 15 4 16 5 14 6 1 7 2 8 3 9 86 10 4 11 5 12
REMARK SMILES IDX 6 13 7 14 12 15 8 16 11 17 13 18 9 19 10 20 20 21 21 22
REMARK SMILES IDX 22 23 23 24 24 25 85 26 25 27 84 28 26 29 27 30 28 31 78 32
REMARK SMILES IDX 29 33 83 34 77 35 79 36 30 37 82 38 76 39 75 40 31 42 63 43
REMARK SMILES IDX 43 44 62 45 44 46 47 47 61 48 80 49 45 50 46 51 60 53 81 54
REMARK SMILES IDX 48 55 32 56 33 57 41 58 34 59 36 60 42 61 35 62 37 63 38 64
REMARK SMILES IDX 39 65 40 66 64 67 65 68 73 69 66 70 68 71 74 72 67 73 69 74
REMARK SMILES IDX 70 75 71 76 72 77 49 78 50 79 58 80 51 81 53 82 59 83 52 84
REMARK SMILES IDX 54 85 55 86 56 87 57 88
REMARK H PARENT 79 41 47 52
REMARK Flexibility Score: inf
ROOT
ATOM      1  C   UNL A   1      38.533  21.494  25.544  1.00  0.00     0.275 C 
ENDROOT
BRANCH   1   2
ATOM      2  C   UNL A   1      37.254  21.623  24.695  1.00  0.00     0.275 C 
BRANCH   2   3
ATOM      3  O   UNL A   1      36.255  20.585  24.734  1.00  0.00    -0.458 OA
BRANCH   3   4
ATOM      4  C   UNL A   1      35.067  20.764  25.357  1.00  0.00     0.338 C 
ATOM      5  O   UNL A   1      34.850  21.570  26.245  1.00  0.00    -0.246 OA
BRANCH   4   6
ATOM      6  C   UNL A   1      34.004  20.012  24.620  1.00  0.00     0.068 A 
ATOM      7  C   UNL A   1      33.875  16.276  23.722  1.00  0.00     0.044 C 
ATOM      8  C   UNL A   1      33.569  17.741  23.765  1.00  0.00    -0.050 A 
ATOM      9  C   UNL A   1      32.562  18.273  22.982  1.00  0.00     0.004 A 
ATOM     10  C   UNL A   1      34.317  18.623  24.536  1.00  0.00     0.019 A 
ATOM     11  C   UNL A   1      32.268  19.645  23.034  1.00  0.00     0.010 A 
ATOM     12  C   UNL A   1      32.884  20.559  23.920  1.00  0.00    -0.002 A 
BRANCH  12  13
ATOM     13  C   UNL A   1      32.240  21.930  24.124  1.00  0.00     0.003 A 
ATOM     14  C   UNL A   1      31.500  22.232  25.290  1.00  0.00     0.030 A 
ATOM     15  C   UNL A   1      32.254  22.991  23.157  1.00  0.00     0.049 A 
ATOM     16  C   UNL A   1      30.728  23.404  25.422  1.00  0.00     0.041 A 
ATOM     17  C   UNL A   1      31.421  24.124  23.270  1.00  0.00     0.023 A 
ATOM     18  Cl  UNL A   1      33.331  23.129  21.792  1.00  0.00    -0.084 Cl
ATOM     19  Cl  UNL A   1      29.919  23.753  26.902  1.00  0.00    -0.084 Cl
ATOM     20  C   UNL A   1      30.631  24.317  24.388  1.00  0.00     0.022 A 
ENDBRANCH  12  13
ENDBRANCH   4   6
ENDBRANCH   3   4
ENDBRANCH   2   3
ENDBRANCH   1   2
BRANCH   1  21
ATOM     21  O   UNL A   1      38.929  22.462  26.550  1.00  0.00    -0.458 OA
BRANCH  21  22
ATOM     22  C   UNL A   1      40.207  22.857  26.751  1.00  0.00     0.338 C 
ATOM     23  O   UNL A   1      41.158  22.095  26.840  1.00  0.00    -0.246 OA
BRANCH  22  24
ATOM     24  C   UNL A   1      40.302  24.260  27.130  1.00  0.00     0.060 A 
ATOM     25  C   UNL A   1      40.856  25.194  26.243  1.00  0.00     0.016 A 
ATOM     26  C   UNL A   1      39.718  24.634  28.339  1.00  0.00     0.016 A 
ATOM     27  C   UNL A   1      40.749  26.546  26.518  1.00  0.00     0.010 A 
ATOM     28  C   UNL A   1      39.582  25.969  28.599  1.00  0.00     0.010 A 
ATOM     29  C   UNL A   1      40.152  26.910  27.716  1.00  0.00    -0.014 A 
BRANCH  29  30
ATOM     30  C   UNL A   1      40.424  28.185  28.349  1.00  0.00     0.031 A 
ATOM     31  C   UNL A   1      39.490  29.306  28.307  1.00  0.00     0.074 A 
ATOM     32  C   UNL A   1      41.367  28.005  29.300  1.00  0.00     0.049 A 
ATOM     33  N   UNL A   1      39.692  30.395  28.958  1.00  0.00    -0.248 NA
ATOM     34  C   UNL A   1      38.278  29.331  27.493  1.00  0.00     0.031 C 
ATOM     35  C   UNL A   1      41.453  28.553  30.635  1.00  0.00     0.029 A 
ATOM     36  N   UNL A   1      42.501  27.193  29.185  1.00  0.00    -0.354 N 
ATOM     37  C   UNL A   1      38.520  31.114  28.920  1.00  0.00     0.074 A 
ATOM     38  C   UNL A   1      37.747  30.503  27.868  1.00  0.00     0.031 C 
ATOM     39  C   UNL A   1      42.661  28.240  31.142  1.00  0.00     0.029 A 
ATOM     40  C   UNL A   1      43.467  27.710  30.046  1.00  0.00     0.049 A 
ATOM     41  H   UNL A   1      42.599  26.404  28.604  1.00  0.00     0.167 HD
ATOM     42  C   UNL A   1      38.300  32.008  29.925  1.00  0.00     0.034 A 
ATOM     43  C   UNL A   1      44.650  28.233  29.595  1.00  0.00     0.034 A 
ATOM     44  C   UNL A   1      39.524  32.158  30.740  1.00  0.00     0.049 A 
ATOM     45  C   UNL A   1      44.738  29.715  29.930  1.00  0.00     0.074 A 
ATOM     46  C   UNL A   1      39.902  31.600  31.950  1.00  0.00     0.029 A 
ATOM     47  N   UNL A   1      40.685  32.682  30.170  1.00  0.00    -0.354 N 
ATOM     48  N   UNL A   1      43.735  30.434  30.347  1.00  0.00    -0.248 NA
ATOM     49  C   UNL A   1      45.947  30.508  29.736  1.00  0.00     0.031 C 
ATOM     50  C   UNL A   1      41.320  31.685  32.045  1.00  0.00     0.029 A 
ATOM     51  C   UNL A   1      41.803  32.343  30.925  1.00  0.00     0.049 A 
ATOM     52  H   UNL A   1      40.710  33.218  29.345  1.00  0.00     0.167 HD
ATOM     53  C   UNL A   1      44.072  31.754  30.327  1.00  0.00     0.074 A 
ATOM     54  C   UNL A   1      45.494  31.742  30.017  1.00  0.00     0.031 C 
ATOM     55  C   UNL A   1      43.143  32.745  30.495  1.00  0.00     0.034 A 
BRANCH  42  56
ATOM     56  C   UNL A   1      36.946  32.539  30.387  1.00  0.00     0.023 A 
ATOM     57  C   UNL A   1      36.511  32.119  31.666  1.00  0.00     0.012 A 
ATOM     58  C   UNL A   1      36.014  33.312  29.649  1.00  0.00     0.148 A 
ATOM     59  C   UNL A   1      35.230  32.395  32.161  1.00  0.00     0.002 A 
ATOM     60  C   UNL A   1      34.745  33.622  30.158  1.00  0.00     0.091 A 
ATOM     61  F   UNL A   1      36.303  33.722  28.414  1.00  0.00    -0.205 F 
ATOM     62  C   UNL A   1      34.345  33.149  31.407  1.00  0.00     0.022 A 
BRANCH  60  63
ATOM     63  S   UNL A   1      33.549  34.628  29.253  1.00  0.00     0.127 S 
ATOM     64  O   UNL A   1      32.580  34.966  30.295  1.00  0.00    -0.237 OA
ATOM     65  O   UNL A   1      34.366  35.753  28.796  1.00  0.00    -0.237 OA
ATOM     66  O   UNL A   1      33.029  33.788  28.179  1.00  0.00    -0.744 OA
ENDBRANCH  60  63
ENDBRANCH  42  56
BRANCH  43  67
ATOM     67  C   UNL A   1      45.079  27.694  28.252  1.00  0.00     0.023 A 
ATOM     68  C   UNL A   1      44.932  28.522  27.108  1.00  0.00     0.012 A 
ATOM     69  C   UNL A   1      46.064  26.698  28.238  1.00  0.00     0.148 A 
ATOM     70  C   UNL A   1      45.893  28.500  26.090  1.00  0.00     0.002 A 
ATOM     71  C   UNL A   1      47.053  26.737  27.271  1.00  0.00     0.091 A 
ATOM     72  F   UNL A   1      46.115  25.796  29.226  1.00  0.00    -0.205 F 
ATOM     73  C   UNL A   1      46.989  27.649  26.210  1.00  0.00     0.022 A 
BRANCH  71  74
ATOM     74  S   UNL A   1      48.574  25.852  27.610  1.00  0.00     0.127 S 
ATOM     75  O   UNL A   1      48.144  24.465  27.477  1.00  0.00    -0.237 OA
ATOM     76  O   UNL A   1      49.468  26.282  26.544  1.00  0.00    -0.237 OA
ATOM     77  O   UNL A   1      48.889  26.288  28.964  1.00  0.00    -0.744 OA
ENDBRANCH  71  74
ENDBRANCH  43  67
BRANCH  55  78
ATOM     78  C   UNL A   1      43.443  34.209  30.288  1.00  0.00     0.023 A 
ATOM     79  C   UNL A   1      43.875  35.042  31.337  1.00  0.00     0.012 A 
ATOM     80  C   UNL A   1      43.410  34.771  28.989  1.00  0.00     0.148 A 
ATOM     81  C   UNL A   1      44.151  36.396  31.134  1.00  0.00     0.002 A 
ATOM     82  C   UNL A   1      43.807  36.086  28.772  1.00  0.00     0.091 A 
ATOM     83  F   UNL A   1      42.971  34.040  27.954  1.00  0.00    -0.205 F 
ATOM     84  C   UNL A   1      44.132  36.916  29.847  1.00  0.00     0.022 A 
BRANCH  82  85
ATOM     85  S   UNL A   1      44.049  36.705  27.104  1.00  0.00     0.127 S 
ATOM     86  O   UNL A   1      42.690  36.681  26.568  1.00  0.00    -0.237 OA
ATOM     87  O   UNL A   1      44.584  38.048  27.340  1.00  0.00    -0.237 OA
ATOM     88  O   UNL A   1      45.000  35.787  26.493  1.00  0.00    -0.744 OA
ENDBRANCH  82  85
ENDBRANCH  55  78
ENDBRANCH  29  30
ENDBRANCH  22  24
ENDBRANCH  21  22
ENDBRANCH   1  21
TORSDOF 15
ENDMDL
MODEL 3
REMARK VINA RESULT:     -12.0      1.317      2.824
REMARK SMILES Cc1ccc(-c2cc(Cl)ccc2Cl)c(C(=O)OCCOC(=O)c2ccc(-c3c4nc(c(-c5cccc(S(=O)(=O)[O-])c5F)c5ccc([nH]5)c(-c5cccc(S(=O)(=O)[O-])c5F)c5nc(c(-c6cccc(S(=O)(=O)[O-])c6F)c6ccc3[nH]6)C=C5)C=C4)cc2)c1
REMARK SMILES IDX 19 1 18 2 17 3 15 4 16 5 14 6 1 7 2 8 3 9 86 10 4 11 5 12
REMARK SMILES IDX 6 13 7 14 12 15 8 16 11 17 13 18 9 19 10 20 20 21 21 22
REMARK SMILES IDX 22 23 23 24 24 25 85 26 25 27 84 28 26 29 27 30 28 31 78 32
REMARK SMILES IDX 29 33 83 34 77 35 79 36 30 37 82 38 76 39 75 40 31 42 63 43
REMARK SMILES IDX 43 44 62 45 44 46 47 47 61 48 80 49 45 50 46 51 60 53 81 54
REMARK SMILES IDX 48 55 32 56 33 57 41 58 34 59 36 60 42 61 35 62 37 63 38 64
REMARK SMILES IDX 39 65 40 66 64 67 65 68 73 69 66 70 68 71 74 72 67 73 69 74
REMARK SMILES IDX 70 75 71 76 72 77 49 78 50 79 58 80 51 81 53 82 59 83 52 84
REMARK SMILES IDX 54 85 55 86 56 87 57 88
REMARK H PARENT 79 41 47 52
REMARK Flexibility Score: inf
ROOT
ATOM      1  C   UNL A   1      33.955  29.753  26.704  1.00  0.00     0.275 C 
ENDROOT
BRANCH   1   2
ATOM      2  C   UNL A   1      33.619  28.282  27.014  1.00  0.00     0.275 C 
BRANCH   2   3
ATOM      3  O   UNL A   1      32.822  27.516  26.092  1.00  0.00    -0.458 OA
BRANCH   3   4
ATOM      4  C   UNL A   1      31.687  26.889  26.482  1.00  0.00     0.338 C 
ATOM      5  O   UNL A   1      30.996  27.210  27.433  1.00  0.00    -0.246 OA
BRANCH   4   6
ATOM      6  C   UNL A   1      31.273  25.912  25.427  1.00  0.00     0.068 A 
ATOM      7  C   UNL A   1      31.309  22.069  25.550  1.00  0.00     0.044 C 
ATOM      8  C   UNL A   1      31.225  23.477  25.046  1.00  0.00    -0.050 A 
ATOM      9  C   UNL A   1      31.038  23.733  23.701  1.00  0.00     0.004 A 
ATOM     10  C   UNL A   1      31.396  24.569  25.889  1.00  0.00     0.019 A 
ATOM     11  C   UNL A   1      30.947  25.053  23.232  1.00  0.00     0.010 A 
ATOM     12  C   UNL A   1      30.947  26.196  24.064  1.00  0.00    -0.002 A 
BRANCH  12  13
ATOM     13  C   UNL A   1      30.495  27.532  23.476  1.00  0.00     0.003 A 
ATOM     14  C   UNL A   1      29.138  27.929  23.501  1.00  0.00     0.030 A 
ATOM     15  C   UNL A   1      31.355  28.457  22.793  1.00  0.00     0.049 A 
ATOM     16  C   UNL A   1      28.656  29.049  22.795  1.00  0.00     0.041 A 
ATOM     17  C   UNL A   1      30.851  29.533  22.031  1.00  0.00     0.023 A 
ATOM     18  Cl  UNL A   1      33.097  28.494  22.868  1.00  0.00    -0.084 Cl
ATOM     19  Cl  UNL A   1      27.008  29.528  22.938  1.00  0.00    -0.084 Cl
ATOM     20  C   UNL A   1      29.497  29.811  22.004  1.00  0.00     0.022 A 
ENDBRANCH  12  13
ENDBRANCH   4   6
ENDBRANCH   3   4
ENDBRANCH   2   3
ENDBRANCH   1   2
BRANCH   1  21
ATOM     21  O   UNL A   1      34.130  30.769  27.726  1.00  0.00    -0.458 OA
BRANCH  21  22
ATOM     22  C   UNL A   1      35.267  31.483  27.889  1.00  0.00     0.338 C 
ATOM     23  O   UNL A   1      35.414  32.639  27.519  1.00  0.00    -0.246 OA
BRANCH  22  24
ATOM     24  C   UNL A   1      36.391  30.652  28.298  1.00  0.00     0.060 A 
ATOM     25  C   UNL A   1      36.380  30.015  29.547  1.00  0.00     0.016 A 
ATOM     26  C   UNL A   1      37.396  30.433  27.357  1.00  0.00     0.016 A 
ATOM     27  C   UNL A   1      37.341  29.064  29.839  1.00  0.00     0.010 A 
ATOM     28  C   UNL A   1      38.329  29.472  27.629  1.00  0.00     0.010 A 
ATOM     29  C   UNL A   1      38.329  28.840  28.890  1.00  0.00    -0.014 A 
BRANCH  29  30
ATOM     30  C   UNL A   1      39.623  28.294  29.248  1.00  0.00     0.031 A 
ATOM     31  C   UNL A   1      39.995  26.906  28.991  1.00  0.00     0.074 A 
ATOM     32  C   UNL A   1      40.499  29.312  29.389  1.00  0.00     0.049 A 
ATOM     33  N   UNL A   1      41.178  26.459  29.214  1.00  0.00    -0.248 NA
ATOM     34  C   UNL A   1      39.067  25.885  28.513  1.00  0.00     0.031 C 
ATOM     35  C   UNL A   1      41.875  29.417  28.956  1.00  0.00     0.029 A 
ATOM     36  N   UNL A   1      40.233  30.543  29.999  1.00  0.00    -0.354 N 
ATOM     37  C   UNL A   1      41.263  25.221  28.622  1.00  0.00     0.074 A 
ATOM     38  C   UNL A   1      39.896  24.843  28.360  1.00  0.00     0.031 C 
ATOM     39  C   UNL A   1      42.398  30.541  29.483  1.00  0.00     0.029 A 
ATOM     40  C   UNL A   1      41.446  31.040  30.472  1.00  0.00     0.049 A 
ATOM     41  H   UNL A   1      39.353  30.978  30.080  1.00  0.00     0.167 HD
ATOM     42  C   UNL A   1      42.502  24.780  28.265  1.00  0.00     0.034 A 
ATOM     43  C   UNL A   1      41.697  31.220  31.807  1.00  0.00     0.034 A 
ATOM     44  C   UNL A   1      43.535  25.681  28.817  1.00  0.00     0.049 A 
ATOM     45  C   UNL A   1      42.831  30.313  32.261  1.00  0.00     0.074 A 
ATOM     46  C   UNL A   1      44.252  26.721  28.249  1.00  0.00     0.029 A 
ATOM     47  N   UNL A   1      43.687  25.808  30.198  1.00  0.00    -0.354 N 
ATOM     48  N   UNL A   1      43.312  29.329  31.556  1.00  0.00    -0.248 NA
ATOM     49  C   UNL A   1      43.443  30.400  33.583  1.00  0.00     0.031 C 
ATOM     50  C   UNL A   1      44.736  27.544  29.305  1.00  0.00     0.029 A 
ATOM     51  C   UNL A   1      44.366  26.981  30.515  1.00  0.00     0.049 A 
ATOM     52  H   UNL A   1      43.360  25.156  30.859  1.00  0.00     0.167 HD
ATOM     53  C   UNL A   1      44.141  28.569  32.325  1.00  0.00     0.074 A 
ATOM     54  C   UNL A   1      44.255  29.329  33.562  1.00  0.00     0.031 C 
ATOM     55  C   UNL A   1      44.603  27.350  31.912  1.00  0.00     0.034 A 
BRANCH  42  56
ATOM     56  C   UNL A   1      42.821  23.737  27.197  1.00  0.00     0.023 A 
ATOM     57  C   UNL A   1      43.465  24.211  26.030  1.00  0.00     0.012 A 
ATOM     58  C   UNL A   1      42.451  22.367  27.177  1.00  0.00     0.148 A 
ATOM     59  C   UNL A   1      43.683  23.408  24.903  1.00  0.00     0.002 A 
ATOM     60  C   UNL A   1      42.703  21.552  26.065  1.00  0.00     0.091 A 
ATOM     61  F   UNL A   1      41.799  21.828  28.206  1.00  0.00    -0.205 F 
ATOM     62  C   UNL A   1      43.302  22.075  24.919  1.00  0.00     0.022 A 
BRANCH  60  63
ATOM     63  S   UNL A   1      42.270  19.798  26.022  1.00  0.00     0.127 S 
ATOM     64  O   UNL A   1      40.811  19.845  25.920  1.00  0.00    -0.237 OA
ATOM     65  O   UNL A   1      42.948  19.337  24.811  1.00  0.00    -0.237 OA
ATOM     66  O   UNL A   1      42.782  19.215  27.257  1.00  0.00    -0.744 OA
ENDBRANCH  60  63
ENDBRANCH  42  56
BRANCH  43  67
ATOM     67  C   UNL A   1      40.452  31.415  32.637  1.00  0.00     0.023 A 
ATOM     68  C   UNL A   1      39.924  30.304  33.345  1.00  0.00     0.012 A 
ATOM     69  C   UNL A   1      40.191  32.704  33.120  1.00  0.00     0.148 A 
ATOM     70  C   UNL A   1      39.360  30.476  34.614  1.00  0.00     0.002 A 
ATOM     71  C   UNL A   1      39.707  32.860  34.407  1.00  0.00     0.091 A 
ATOM     72  F   UNL A   1      40.527  33.773  32.388  1.00  0.00    -0.205 F 
ATOM     73  C   UNL A   1      39.314  31.752  35.169  1.00  0.00     0.022 A 
BRANCH  71  74
ATOM     74  S   UNL A   1      39.937  34.457  35.189  1.00  0.00     0.127 S 
ATOM     75  O   UNL A   1      39.027  35.295  34.417  1.00  0.00    -0.237 OA
ATOM     76  O   UNL A   1      39.495  34.237  36.558  1.00  0.00    -0.237 OA
ATOM     77  O   UNL A   1      41.357  34.702  34.975  1.00  0.00    -0.744 OA
ENDBRANCH  71  74
ENDBRANCH  43  67
BRANCH  55  78
ATOM     78  C   UNL A   1      45.358  26.400  32.807  1.00  0.00     0.023 A 
ATOM     79  C   UNL A   1      46.765  26.378  32.862  1.00  0.00     0.012 A 
ATOM     80  C   UNL A   1      44.665  25.569  33.720  1.00  0.00     0.148 A 
ATOM     81  C   UNL A   1      47.455  25.495  33.695  1.00  0.00     0.002 A 
ATOM     82  C   UNL A   1      45.357  24.785  34.635  1.00  0.00     0.091 A 
ATOM     83  F   UNL A   1      43.325  25.517  33.692  1.00  0.00    -0.205 F 
ATOM     84  C   UNL A   1      46.750  24.708  34.595  1.00  0.00     0.022 A 
BRANCH  82  85
ATOM     85  S   UNL A   1      44.489  23.966  35.979  1.00  0.00     0.127 S 
ATOM     86  O   UNL A   1      45.589  23.393  36.750  1.00  0.00    -0.237 OA
ATOM     87  O   UNL A   1      43.802  25.081  36.636  1.00  0.00    -0.237 OA
ATOM     88  O   UNL A   1      43.593  23.018  35.330  1.00  0.00    -0.744 OA
ENDBRANCH  82  85
ENDBRANCH  55  78
ENDBRANCH  29  30
ENDBRANCH  22  24
ENDBRANCH  21  22
ENDBRANCH   1  21
TORSDOF 15
ENDMDL
