MODEL 1
REMARK VINA RESULT:     -12.8      0.000      0.000
REMARK SMILES O=C(OCCOC(=O)c1ccc2c(c1O)C(=O)c1ccccc1C2=O)c1ccc(-c2c3nc(c(-c4cccc(S(=O)(=O)[O-])c4F)c4ccc([nH]4)c(-c4cccc(S(=O)(=O)[O-])c4F)c4nc(c(-c5cccc(S(=O)(=O)[O-])c5F)c5ccc2[nH]5)C=C4)C=C3)cc1
REMARK SMILES IDX 4 1 3 2 2 3 1 4 26 5 27 6 88 7 28 8 87 9 29 10 30 11 31 12
REMARK SMILES IDX 81 13 32 14 86 15 80 16 82 17 33 18 85 19 79 20 78 21 34 23
REMARK SMILES IDX 66 24 46 25 65 26 47 27 50 28 64 29 83 30 48 31 49 32 63 34
REMARK SMILES IDX 84 35 51 36 35 37 36 38 44 39 37 40 39 41 45 42 38 43 40 44
REMARK SMILES IDX 41 45 42 46 43 47 67 48 68 49 76 50 69 51 71 52 77 53 70 54
REMARK SMILES IDX 72 55 73 56 74 57 75 58 52 59 53 60 61 61 54 62 56 63 62 64
REMARK SMILES IDX 55 65 57 66 58 67 59 68 60 69 5 70 6 71 7 72 8 73 9 74 10 75
REMARK SMILES IDX 14 76 11 77 13 78 12 79 16 80 24 81 17 82 18 83 23 84 25 85
REMARK SMILES IDX 19 86 22 87 20 88 21 89 15 90
REMARK H PARENT 82 22 50 33 15 91
REMARK Flexibility Score: inf
ROOT
ATOM      1  C   UNL A   1      36.842  20.742  24.830  1.00  0.00     0.275 C 
ENDROOT
BRANCH   1   2
ATOM      2  O   UNL A   1      37.563  21.274  25.955  1.00  0.00    -0.458 OA
BRANCH   2   3
ATOM      3  C   UNL A   1      38.898  21.449  26.103  1.00  0.00     0.338 C 
ATOM      4  O   UNL A   1      39.640  20.473  26.016  1.00  0.00    -0.246 OA
BRANCH   3   5
ATOM      5  C   UNL A   1      39.490  22.746  26.553  1.00  0.00     0.060 A 
ATOM      6  C   UNL A   1      39.086  24.018  26.136  1.00  0.00     0.016 A 
ATOM      7  C   UNL A   1      40.558  22.655  27.461  1.00  0.00     0.016 A 
ATOM      8  C   UNL A   1      39.663  25.173  26.672  1.00  0.00     0.010 A 
ATOM      9  C   UNL A   1      41.139  23.804  28.002  1.00  0.00     0.010 A 
ATOM     10  C   UNL A   1      40.695  25.075  27.605  1.00  0.00    -0.014 A 
BRANCH  10  11
ATOM     11  C   UNL A   1      41.508  26.267  27.954  1.00  0.00     0.031 A 
ATOM     12  C   UNL A   1      40.755  27.394  28.608  1.00  0.00     0.074 A 
ATOM     13  C   UNL A   1      42.834  26.326  27.707  1.00  0.00     0.049 A 
ATOM     14  N   UNL A   1      41.135  28.612  28.863  1.00  0.00    -0.248 NA
ATOM     15  C   UNL A   1      39.372  27.097  29.047  1.00  0.00     0.031 C 
ATOM     16  C   UNL A   1      43.650  25.216  27.220  1.00  0.00     0.029 A 
ATOM     17  N   UNL A   1      43.730  27.368  27.777  1.00  0.00    -0.354 N 
ATOM     18  C   UNL A   1      40.055  29.215  29.501  1.00  0.00     0.074 A 
ATOM     19  C   UNL A   1      38.973  28.265  29.522  1.00  0.00     0.031 C 
ATOM     20  C   UNL A   1      44.894  25.653  26.942  1.00  0.00     0.029 A 
ATOM     21  C   UNL A   1      44.957  27.082  27.191  1.00  0.00     0.049 A 
ATOM     22  H   UNL A   1      43.523  28.231  28.202  1.00  0.00     0.167 HD
ATOM     23  C   UNL A   1      40.004  30.439  30.071  1.00  0.00     0.034 A 
ATOM     24  C   UNL A   1      45.960  27.915  26.824  1.00  0.00     0.034 A 
ATOM     25  C   UNL A   1      41.120  31.336  30.027  1.00  0.00     0.049 A 
ATOM     26  C   UNL A   1      45.734  29.383  27.198  1.00  0.00     0.074 A 
ATOM     27  C   UNL A   1      41.257  32.585  30.591  1.00  0.00     0.029 A 
ATOM     28  N   UNL A   1      42.303  31.056  29.352  1.00  0.00    -0.354 N 
ATOM     29  N   UNL A   1      44.752  29.917  27.898  1.00  0.00    -0.248 NA
ATOM     30  C   UNL A   1      46.740  30.364  26.767  1.00  0.00     0.031 C 
ATOM     31  C   UNL A   1      42.517  33.076  30.227  1.00  0.00     0.029 A 
ATOM     32  C   UNL A   1      43.173  32.117  29.462  1.00  0.00     0.049 A 
ATOM     33  H   UNL A   1      42.491  30.220  28.865  1.00  0.00     0.167 HD
ATOM     34  C   UNL A   1      45.101  31.247  28.113  1.00  0.00     0.074 A 
ATOM     35  C   UNL A   1      46.345  31.462  27.403  1.00  0.00     0.031 C 
ATOM     36  C   UNL A   1      44.477  32.204  28.847  1.00  0.00     0.034 A 
BRANCH  23  37
ATOM     37  C   UNL A   1      38.742  30.814  30.803  1.00  0.00     0.023 A 
ATOM     38  C   UNL A   1      38.584  30.427  32.153  1.00  0.00     0.012 A 
ATOM     39  C   UNL A   1      37.694  31.502  30.163  1.00  0.00     0.148 A 
ATOM     40  C   UNL A   1      37.388  30.665  32.832  1.00  0.00     0.002 A 
ATOM     41  C   UNL A   1      36.519  31.771  30.859  1.00  0.00     0.091 A 
ATOM     42  F   UNL A   1      37.845  31.843  28.876  1.00  0.00    -0.205 F 
ATOM     43  C   UNL A   1      36.358  31.339  32.186  1.00  0.00     0.022 A 
BRANCH  41  44
ATOM     44  S   UNL A   1      35.151  32.683  30.133  1.00  0.00     0.127 S 
ATOM     45  O   UNL A   1      34.716  31.771  29.076  1.00  0.00    -0.237 OA
ATOM     46  O   UNL A   1      34.223  32.797  31.259  1.00  0.00    -0.237 OA
ATOM     47  O   UNL A   1      35.713  33.948  29.682  1.00  0.00    -0.744 OA
ENDBRANCH  41  44
ENDBRANCH  23  37
BRANCH  24  48
ATOM     48  C   UNL A   1      47.198  27.500  26.040  1.00  0.00     0.023 A 
ATOM     49  C   UNL A   1      48.415  27.286  26.714  1.00  0.00     0.012 A 
ATOM     50  C   UNL A   1      47.264  27.479  24.626  1.00  0.00     0.148 A 
ATOM     51  C   UNL A   1      49.638  27.212  26.021  1.00  0.00     0.002 A 
ATOM     52  C   UNL A   1      48.478  27.482  23.940  1.00  0.00     0.091 A 
ATOM     53  F   UNL A   1      46.150  27.364  23.910  1.00  0.00    -0.205 F 
ATOM     54  C   UNL A   1      49.675  27.361  24.638  1.00  0.00     0.022 A 
BRANCH  52  55
ATOM     55  S   UNL A   1      48.510  27.829  22.169  1.00  0.00     0.127 S 
ATOM     56  O   UNL A   1      47.308  28.645  21.979  1.00  0.00    -0.237 OA
ATOM     57  O   UNL A   1      49.767  28.554  22.010  1.00  0.00    -0.237 OA
ATOM     58  O   UNL A   1      48.429  26.515  21.542  1.00  0.00    -0.744 OA
ENDBRANCH  52  55
ENDBRANCH  24  48
BRANCH  36  59
ATOM     59  C   UNL A   1      45.217  33.487  29.105  1.00  0.00     0.023 A 
ATOM     60  C   UNL A   1      46.162  33.575  30.140  1.00  0.00     0.012 A 
ATOM     61  C   UNL A   1      45.099  34.536  28.168  1.00  0.00     0.148 A 
ATOM     62  C   UNL A   1      46.985  34.696  30.238  1.00  0.00     0.002 A 
ATOM     63  C   UNL A   1      45.962  35.617  28.237  1.00  0.00     0.091 A 
ATOM     64  F   UNL A   1      44.175  34.427  27.201  1.00  0.00    -0.205 F 
ATOM     65  C   UNL A   1      46.901  35.704  29.276  1.00  0.00     0.022 A 
BRANCH  63  66
ATOM     66  S   UNL A   1      46.016  36.878  26.957  1.00  0.00     0.127 S 
ATOM     67  O   UNL A   1      47.046  37.779  27.471  1.00  0.00    -0.237 OA
ATOM     68  O   UNL A   1      46.410  36.106  25.778  1.00  0.00    -0.237 OA
ATOM     69  O   UNL A   1      44.673  37.439  26.889  1.00  0.00    -0.744 OA
ENDBRANCH  63  66
ENDBRANCH  36  59
ENDBRANCH  10  11
ENDBRANCH   3   5
ENDBRANCH   2   3
ENDBRANCH   1   2
BRANCH   1  70
ATOM     70  C   UNL A   1      35.434  21.315  24.626  1.00  0.00     0.275 C 
BRANCH  70  71
ATOM     71  O   UNL A   1      35.328  22.718  24.918  1.00  0.00    -0.458 OA
BRANCH  71  72
ATOM     72  C   UNL A   1      35.219  23.520  23.823  1.00  0.00     0.342 C 
ATOM     73  O   UNL A   1      35.686  23.292  22.718  1.00  0.00    -0.246 OA
BRANCH  72  74
ATOM     74  C   UNL A   1      34.309  24.653  24.108  1.00  0.00     0.102 A 
ATOM     75  C   UNL A   1      34.413  25.219  25.384  1.00  0.00     0.020 A 
ATOM     76  C   UNL A   1      33.406  25.192  23.178  1.00  0.00     0.142 A 
ATOM     77  C   UNL A   1      33.648  26.333  25.725  1.00  0.00     0.014 A 
ATOM     78  C   UNL A   1      32.600  26.300  23.539  1.00  0.00     0.076 A 
ATOM     79  C   UNL A   1      32.741  26.874  24.806  1.00  0.00     0.037 A 
ATOM     80  C   UNL A   1      31.596  26.888  22.627  1.00  0.00     0.198 C 
ATOM     81  C   UNL A   1      31.967  28.072  25.208  1.00  0.00     0.194 C 
ATOM     82  O   UNL A   1      31.216  26.251  21.656  1.00  0.00    -0.288 OA
ATOM     83  C   UNL A   1      30.998  28.209  22.951  1.00  0.00     0.034 A 
ATOM     84  C   UNL A   1      31.096  28.734  24.227  1.00  0.00     0.034 A 
ATOM     85  O   UNL A   1      32.093  28.531  26.337  1.00  0.00    -0.289 OA
ATOM     86  C   UNL A   1      30.280  28.927  21.999  1.00  0.00     0.013 A 
ATOM     87  C   UNL A   1      30.394  29.903  24.569  1.00  0.00     0.013 A 
ATOM     88  C   UNL A   1      29.560  30.075  22.321  1.00  0.00     0.001 A 
ATOM     89  C   UNL A   1      29.601  30.555  23.621  1.00  0.00     0.001 A 
BRANCH  76  90
ATOM     90  O   UNL A   1      33.316  24.660  21.919  1.00  0.00    -0.506 OA
ATOM     91  H   UNL A   1      33.957  24.045  21.624  1.00  0.00     0.293 HD
ENDBRANCH  76  90
ENDBRANCH  72  74
ENDBRANCH  71  72
ENDBRANCH  70  71
ENDBRANCH   1  70
TORSDOF 15
ENDMDL
MODEL 2
REMARK VINA RESULT:     -12.7      5.133      8.301
REMARK SMILES O=C(OCCOC(=O)c1ccc2c(c1O)C(=O)c1ccccc1C2=O)c1ccc(-c2c3nc(c(-c4cccc(S(=O)(=O)[O-])c4F)c4ccc([nH]4)c(-c4cccc(S(=O)(=O)[O-])c4F)c4nc(c(-c5cccc(S(=O)(=O)[O-])c5F)c5ccc2[nH]5)C=C4)C=C3)cc1
REMARK SMILES IDX 4 1 3 2 2 3 1 4 26 5 27 6 88 7 28 8 87 9 29 10 30 11 31 12
REMARK SMILES IDX 81 13 32 14 86 15 80 16 82 17 33 18 85 19 79 20 78 21 34 23
REMARK SMILES IDX 66 24 46 25 65 26 47 27 50 28 64 29 83 30 48 31 49 32 63 34
REMARK SMILES IDX 84 35 51 36 35 37 36 38 44 39 37 40 39 41 45 42 38 43 40 44
REMARK SMILES IDX 41 45 42 46 43 47 67 48 68 49 76 50 69 51 71 52 77 53 70 54
REMARK SMILES IDX 72 55 73 56 74 57 75 58 52 59 53 60 61 61 54 62 56 63 62 64
REMARK SMILES IDX 55 65 57 66 58 67 59 68 60 69 5 70 6 71 7 72 8 73 9 74 10 75
REMARK SMILES IDX 14 76 11 77 13 78 12 79 16 80 24 81 17 82 18 83 23 84 25 85
REMARK SMILES IDX 19 86 22 87 20 88 21 89 15 90
REMARK H PARENT 82 22 50 33 15 91
REMARK Flexibility Score: inf
ROOT
ATOM      1  C   UNL A   1      32.008  32.702  26.660  1.00  0.00     0.275 C 
ENDROOT
BRANCH   1   2
ATOM      2  O   UNL A   1      32.723  33.318  27.745  1.00  0.00    -0.458 OA
BRANCH   2   3
ATOM      3  C   UNL A   1      34.030  33.668  27.811  1.00  0.00     0.338 C 
ATOM      4  O   UNL A   1      34.401  34.699  27.254  1.00  0.00    -0.246 OA
BRANCH   3   5
ATOM      5  C   UNL A   1      35.075  32.756  28.372  1.00  0.00     0.060 A 
ATOM      6  C   UNL A   1      34.868  31.442  28.800  1.00  0.00     0.016 A 
ATOM      7  C   UNL A   1      36.366  33.295  28.489  1.00  0.00     0.016 A 
ATOM      8  C   UNL A   1      35.930  30.649  29.247  1.00  0.00     0.010 A 
ATOM      9  C   UNL A   1      37.433  32.510  28.933  1.00  0.00     0.010 A 
ATOM     10  C   UNL A   1      37.218  31.178  29.320  1.00  0.00    -0.014 A 
BRANCH  10  11
ATOM     11  C   UNL A   1      38.284  30.459  30.062  1.00  0.00     0.031 A 
ATOM     12  C   UNL A   1      38.593  30.998  31.433  1.00  0.00     0.074 A 
ATOM     13  C   UNL A   1      38.924  29.390  29.540  1.00  0.00     0.049 A 
ATOM     14  N   UNL A   1      39.572  30.709  32.240  1.00  0.00    -0.248 NA
ATOM     15  C   UNL A   1      37.650  32.003  31.975  1.00  0.00     0.031 C 
ATOM     16  C   UNL A   1      38.569  28.726  28.288  1.00  0.00     0.029 A 
ATOM     17  N   UNL A   1      40.036  28.698  29.960  1.00  0.00    -0.354 N 
ATOM     18  C   UNL A   1      39.355  31.477  33.380  1.00  0.00     0.074 A 
ATOM     19  C   UNL A   1      38.204  32.308  33.136  1.00  0.00     0.031 C 
ATOM     20  C   UNL A   1      39.495  27.794  27.990  1.00  0.00     0.029 A 
ATOM     21  C   UNL A   1      40.533  27.819  29.005  1.00  0.00     0.049 A 
ATOM     22  H   UNL A   1      40.442  28.813  30.849  1.00  0.00     0.167 HD
ATOM     23  C   UNL A   1      40.031  31.438  34.550  1.00  0.00     0.034 A 
ATOM     24  C   UNL A   1      41.732  27.193  28.941  1.00  0.00     0.034 A 
ATOM     25  C   UNL A   1      41.162  30.580  34.735  1.00  0.00     0.049 A 
ATOM     26  C   UNL A   1      42.636  27.427  30.154  1.00  0.00     0.074 A 
ATOM     27  C   UNL A   1      41.928  30.379  35.863  1.00  0.00     0.029 A 
ATOM     28  N   UNL A   1      41.691  29.779  33.729  1.00  0.00    -0.354 N 
ATOM     29  N   UNL A   1      42.369  28.071  31.273  1.00  0.00    -0.248 NA
ATOM     30  C   UNL A   1      43.985  26.845  30.128  1.00  0.00     0.031 C 
ATOM     31  C   UNL A   1      42.944  29.477  35.526  1.00  0.00     0.029 A 
ATOM     32  C   UNL A   1      42.790  29.096  34.197  1.00  0.00     0.049 A 
ATOM     33  H   UNL A   1      41.332  29.711  32.815  1.00  0.00     0.167 HD
ATOM     34  C   UNL A   1      43.445  27.843  32.125  1.00  0.00     0.074 A 
ATOM     35  C   UNL A   1      44.406  27.067  31.368  1.00  0.00     0.031 C 
ATOM     36  C   UNL A   1      43.625  28.209  33.420  1.00  0.00     0.034 A 
BRANCH  23  37
ATOM     37  C   UNL A   1      39.521  32.298  35.677  1.00  0.00     0.023 A 
ATOM     38  C   UNL A   1      38.508  31.798  36.525  1.00  0.00     0.012 A 
ATOM     39  C   UNL A   1      39.998  33.606  35.881  1.00  0.00     0.148 A 
ATOM     40  C   UNL A   1      37.938  32.602  37.513  1.00  0.00     0.002 A 
ATOM     41  C   UNL A   1      39.454  34.389  36.895  1.00  0.00     0.091 A 
ATOM     42  F   UNL A   1      40.943  34.079  35.056  1.00  0.00    -0.205 F 
ATOM     43  C   UNL A   1      38.413  33.896  37.699  1.00  0.00     0.022 A 
BRANCH  41  44
ATOM     44  S   UNL A   1      40.035  36.052  37.253  1.00  0.00     0.127 S 
ATOM     45  O   UNL A   1      39.747  36.742  35.997  1.00  0.00    -0.237 OA
ATOM     46  O   UNL A   1      39.178  36.444  38.373  1.00  0.00    -0.237 OA
ATOM     47  O   UNL A   1      41.444  35.915  37.589  1.00  0.00    -0.744 OA
ENDBRANCH  41  44
ENDBRANCH  23  37
BRANCH  24  48
ATOM     48  C   UNL A   1      42.226  26.371  27.756  1.00  0.00     0.023 A 
ATOM     49  C   UNL A   1      42.605  27.018  26.565  1.00  0.00     0.012 A 
ATOM     50  C   UNL A   1      42.170  24.958  27.700  1.00  0.00     0.148 A 
ATOM     51  C   UNL A   1      42.765  26.308  25.361  1.00  0.00     0.002 A 
ATOM     52  C   UNL A   1      42.252  24.260  26.497  1.00  0.00     0.091 A 
ATOM     53  F   UNL A   1      42.125  24.249  28.824  1.00  0.00    -0.205 F 
ATOM     54  C   UNL A   1      42.539  24.936  25.315  1.00  0.00     0.022 A 
BRANCH  52  55
ATOM     55  S   UNL A   1      41.806  22.512  26.437  1.00  0.00     0.127 S 
ATOM     56  O   UNL A   1      42.508  21.961  27.600  1.00  0.00    -0.237 OA
ATOM     57  O   UNL A   1      40.353  22.550  26.568  1.00  0.00    -0.237 OA
ATOM     58  O   UNL A   1      42.336  22.047  25.161  1.00  0.00    -0.744 OA
ENDBRANCH  52  55
ENDBRANCH  24  48
BRANCH  36  59
ATOM     59  C   UNL A   1      44.781  27.607  34.167  1.00  0.00     0.023 A 
ATOM     60  C   UNL A   1      45.982  28.318  34.327  1.00  0.00     0.012 A 
ATOM     61  C   UNL A   1      44.576  26.405  34.877  1.00  0.00     0.148 A 
ATOM     62  C   UNL A   1      46.966  27.838  35.191  1.00  0.00     0.002 A 
ATOM     63  C   UNL A   1      45.532  25.968  35.779  1.00  0.00     0.091 A 
ATOM     64  F   UNL A   1      43.424  25.741  34.689  1.00  0.00    -0.205 F 
ATOM     65  C   UNL A   1      46.732  26.679  35.932  1.00  0.00     0.022 A 
BRANCH  63  66
ATOM     66  S   UNL A   1      45.245  24.572  36.873  1.00  0.00     0.127 S 
ATOM     67  O   UNL A   1      45.099  23.473  35.920  1.00  0.00    -0.237 OA
ATOM     68  O   UNL A   1      46.476  24.538  37.662  1.00  0.00    -0.237 OA
ATOM     69  O   UNL A   1      44.048  24.899  37.637  1.00  0.00    -0.744 OA
ENDBRANCH  63  66
ENDBRANCH  36  59
ENDBRANCH  10  11
ENDBRANCH   3   5
ENDBRANCH   2   3
ENDBRANCH   1   2
BRANCH   1  70
ATOM     70  C   UNL A   1      31.701  31.211  26.843  1.00  0.00     0.275 C 
BRANCH  70  71
ATOM     71  O   UNL A   1      32.385  30.356  25.912  1.00  0.00    -0.458 OA
BRANCH  71  72
ATOM     72  C   UNL A   1      31.567  29.636  25.095  1.00  0.00     0.342 C 
ATOM     73  O   UNL A   1      30.587  30.063  24.505  1.00  0.00    -0.246 OA
BRANCH  72  74
ATOM     74  C   UNL A   1      32.121  28.279  24.886  1.00  0.00     0.102 A 
ATOM     75  C   UNL A   1      32.870  28.094  23.718  1.00  0.00     0.020 A 
ATOM     76  C   UNL A   1      31.969  27.217  25.792  1.00  0.00     0.142 A 
ATOM     77  C   UNL A   1      33.491  26.872  23.466  1.00  0.00     0.014 A 
ATOM     78  C   UNL A   1      32.567  25.963  25.514  1.00  0.00     0.076 A 
ATOM     79  C   UNL A   1      33.341  25.806  24.360  1.00  0.00     0.037 A 
ATOM     80  C   UNL A   1      32.410  24.789  26.400  1.00  0.00     0.198 C 
ATOM     81  C   UNL A   1      34.038  24.534  24.058  1.00  0.00     0.194 C 
ATOM     82  O   UNL A   1      31.513  24.776  27.230  1.00  0.00    -0.288 OA
ATOM     83  C   UNL A   1      33.287  23.605  26.209  1.00  0.00     0.034 A 
ATOM     84  C   UNL A   1      33.998  23.436  25.034  1.00  0.00     0.034 A 
ATOM     85  O   UNL A   1      34.683  24.420  23.022  1.00  0.00    -0.289 OA
ATOM     86  C   UNL A   1      33.375  22.611  27.179  1.00  0.00     0.013 A 
ATOM     87  C   UNL A   1      34.697  22.241  24.794  1.00  0.00     0.013 A 
ATOM     88  C   UNL A   1      34.044  21.410  26.953  1.00  0.00     0.001 A 
ATOM     89  C   UNL A   1      34.693  21.216  25.743  1.00  0.00     0.001 A 
BRANCH  76  90
ATOM     90  O   UNL A   1      31.259  27.396  26.949  1.00  0.00    -0.506 OA
ATOM     91  H   UNL A   1      30.413  27.798  26.922  1.00  0.00     0.293 HD
ENDBRANCH  76  90
ENDBRANCH  72  74
ENDBRANCH  71  72
ENDBRANCH  70  71
ENDBRANCH   1  70
TORSDOF 15
ENDMDL
MODEL 3
REMARK VINA RESULT:     -12.7      5.246     10.416
REMARK SMILES O=C(OCCOC(=O)c1ccc2c(c1O)C(=O)c1ccccc1C2=O)c1ccc(-c2c3nc(c(-c4cccc(S(=O)(=O)[O-])c4F)c4ccc([nH]4)c(-c4cccc(S(=O)(=O)[O-])c4F)c4nc(c(-c5cccc(S(=O)(=O)[O-])c5F)c5ccc2[nH]5)C=C4)C=C3)cc1
REMARK SMILES IDX 4 1 3 2 2 3 1 4 26 5 27 6 88 7 28 8 87 9 29 10 30 11 31 12
REMARK SMILES IDX 81 13 32 14 86 15 80 16 82 17 33 18 85 19 79 20 78 21 34 23
REMARK SMILES IDX 66 24 46 25 65 26 47 27 50 28 64 29 83 30 48 31 49 32 63 34
REMARK SMILES IDX 84 35 51 36 35 37 36 38 44 39 37 40 39 41 45 42 38 43 40 44
REMARK SMILES IDX 41 45 42 46 43 47 67 48 68 49 76 50 69 51 71 52 77 53 70 54
REMARK SMILES IDX 72 55 73 56 74 57 75 58 52 59 53 60 61 61 54 62 56 63 62 64
REMARK SMILES IDX 55 65 57 66 58 67 59 68 60 69 5 70 6 71 7 72 8 73 9 74 10 75
REMARK SMILES IDX 14 76 11 77 13 78 12 79 16 80 24 81 17 82 18 83 23 84 25 85
REMARK SMILES IDX 19 86 22 87 20 88 21 89 15 90
REMARK H PARENT 82 22 50 33 15 91
REMARK Flexibility Score: inf
ROOT
ATOM      1  C   UNL A   1      31.768  29.537  25.857  1.00  0.00     0.275 C 
ENDROOT
BRANCH   1   2
ATOM      2  O   UNL A   1      32.846  30.487  25.883  1.00  0.00    -0.458 OA
BRANCH   2   3
ATOM      3  C   UNL A   1      33.342  31.181  26.937  1.00  0.00     0.338 C 
ATOM      4  O   UNL A   1      32.796  32.231  27.269  1.00  0.00    -0.246 OA
BRANCH   3   5
ATOM      5  C   UNL A   1      34.637  30.823  27.592  1.00  0.00     0.060 A 
ATOM      6  C   UNL A   1      35.009  29.546  28.026  1.00  0.00     0.016 A 
ATOM      7  C   UNL A   1      35.537  31.880  27.801  1.00  0.00     0.016 A 
ATOM      8  C   UNL A   1      36.275  29.304  28.567  1.00  0.00     0.010 A 
ATOM      9  C   UNL A   1      36.804  31.647  28.341  1.00  0.00     0.010 A 
ATOM     10  C   UNL A   1      37.180  30.353  28.732  1.00  0.00    -0.014 A 
BRANCH  10  11
ATOM     11  C   UNL A   1      38.394  30.173  29.567  1.00  0.00     0.031 A 
ATOM     12  C   UNL A   1      39.351  29.112  29.095  1.00  0.00     0.074 A 
ATOM     13  C   UNL A   1      38.623  30.920  30.669  1.00  0.00     0.049 A 
ATOM     14  N   UNL A   1      40.389  28.602  29.692  1.00  0.00    -0.248 NA
ATOM     15  C   UNL A   1      39.104  28.552  27.747  1.00  0.00     0.031 C 
ATOM     16  C   UNL A   1      37.817  32.063  31.093  1.00  0.00     0.029 A 
ATOM     17  N   UNL A   1      39.562  30.810  31.667  1.00  0.00    -0.354 N 
ATOM     18  C   UNL A   1      40.922  27.683  28.793  1.00  0.00     0.074 A 
ATOM     19  C   UNL A   1      40.054  27.637  27.645  1.00  0.00     0.031 C 
ATOM     20  C   UNL A   1      38.229  32.486  32.303  1.00  0.00     0.029 A 
ATOM     21  C   UNL A   1      39.301  31.622  32.764  1.00  0.00     0.049 A 
ATOM     22  H   UNL A   1      40.344  30.214  31.611  1.00  0.00     0.167 HD
ATOM     23  C   UNL A   1      42.076  26.987  28.902  1.00  0.00     0.034 A 
ATOM     24  C   UNL A   1      39.820  31.587  34.014  1.00  0.00     0.034 A 
ATOM     25  C   UNL A   1      42.905  27.084  30.066  1.00  0.00     0.049 A 
ATOM     26  C   UNL A   1      40.927  30.547  34.213  1.00  0.00     0.074 A 
ATOM     27  C   UNL A   1      44.122  26.491  30.321  1.00  0.00     0.029 A 
ATOM     28  N   UNL A   1      42.569  27.836  31.187  1.00  0.00    -0.354 N 
ATOM     29  N   UNL A   1      41.492  29.759  33.320  1.00  0.00    -0.248 NA
ATOM     30  C   UNL A   1      41.489  30.392  35.562  1.00  0.00     0.031 C 
ATOM     31  C   UNL A   1      44.507  26.861  31.615  1.00  0.00     0.029 A 
ATOM     32  C   UNL A   1      43.542  27.707  32.151  1.00  0.00     0.049 A 
ATOM     33  H   UNL A   1      41.753  28.380  31.277  1.00  0.00     0.167 HD
ATOM     34  C   UNL A   1      42.559  29.139  33.962  1.00  0.00     0.074 A 
ATOM     35  C   UNL A   1      42.516  29.579  35.341  1.00  0.00     0.031 C 
ATOM     36  C   UNL A   1      43.509  28.304  33.466  1.00  0.00     0.034 A 
BRANCH  23  37
ATOM     37  C   UNL A   1      42.489  26.136  27.729  1.00  0.00     0.023 A 
ATOM     38  C   UNL A   1      43.257  26.713  26.692  1.00  0.00     0.012 A 
ATOM     39  C   UNL A   1      42.091  24.791  27.618  1.00  0.00     0.148 A 
ATOM     40  C   UNL A   1      43.569  25.986  25.543  1.00  0.00     0.002 A 
ATOM     41  C   UNL A   1      42.442  24.060  26.486  1.00  0.00     0.091 A 
ATOM     42  F   UNL A   1      41.344  24.260  28.596  1.00  0.00    -0.205 F 
ATOM     43  C   UNL A   1      43.164  24.660  25.441  1.00  0.00     0.022 A 
BRANCH  41  44
ATOM     44  S   UNL A   1      42.015  22.326  26.283  1.00  0.00     0.127 S 
ATOM     45  O   UNL A   1      42.654  22.012  25.006  1.00  0.00    -0.237 OA
ATOM     46  O   UNL A   1      42.652  21.712  27.449  1.00  0.00    -0.237 OA
ATOM     47  O   UNL A   1      40.560  22.271  26.291  1.00  0.00    -0.744 OA
ENDBRANCH  41  44
ENDBRANCH  23  37
BRANCH  24  48
ATOM     48  C   UNL A   1      39.337  32.434  35.185  1.00  0.00     0.023 A 
ATOM     49  C   UNL A   1      39.996  33.637  35.498  1.00  0.00     0.012 A 
ATOM     50  C   UNL A   1      38.358  32.007  36.114  1.00  0.00     0.148 A 
ATOM     51  C   UNL A   1      39.798  34.286  36.731  1.00  0.00     0.002 A 
ATOM     52  C   UNL A   1      38.215  32.602  37.366  1.00  0.00     0.091 A 
ATOM     53  F   UNL A   1      37.480  31.069  35.772  1.00  0.00    -0.205 F 
ATOM     54  C   UNL A   1      38.946  33.741  37.687  1.00  0.00     0.022 A 
BRANCH  52  55
ATOM     55  S   UNL A   1      37.223  31.793  38.640  1.00  0.00     0.127 S 
ATOM     56  O   UNL A   1      38.018  32.010  39.852  1.00  0.00    -0.237 OA
ATOM     57  O   UNL A   1      35.972  32.543  38.593  1.00  0.00    -0.237 OA
ATOM     58  O   UNL A   1      37.166  30.398  38.220  1.00  0.00    -0.744 OA
ENDBRANCH  52  55
ENDBRANCH  24  48
BRANCH  36  59
ATOM     59  C   UNL A   1      44.690  27.986  34.339  1.00  0.00     0.023 A 
ATOM     60  C   UNL A   1      45.777  28.870  34.428  1.00  0.00     0.012 A 
ATOM     61  C   UNL A   1      44.603  26.888  35.222  1.00  0.00     0.148 A 
ATOM     62  C   UNL A   1      46.765  28.666  35.391  1.00  0.00     0.002 A 
ATOM     63  C   UNL A   1      45.555  26.728  36.214  1.00  0.00     0.091 A 
ATOM     64  F   UNL A   1      43.559  26.053  35.100  1.00  0.00    -0.205 F 
ATOM     65  C   UNL A   1      46.643  27.611  36.296  1.00  0.00     0.022 A 
BRANCH  63  66
ATOM     66  S   UNL A   1      45.390  25.487  37.504  1.00  0.00     0.127 S 
ATOM     67  O   UNL A   1      46.686  25.582  38.175  1.00  0.00    -0.237 OA
ATOM     68  O   UNL A   1      44.260  25.996  38.281  1.00  0.00    -0.237 OA
ATOM     69  O   UNL A   1      45.132  24.227  36.819  1.00  0.00    -0.744 OA
ENDBRANCH  63  66
ENDBRANCH  36  59
ENDBRANCH  10  11
ENDBRANCH   3   5
ENDBRANCH   2   3
ENDBRANCH   1   2
BRANCH   1  70
ATOM     70  C   UNL A   1      31.208  29.221  24.464  1.00  0.00     0.275 C 
BRANCH  70  71
ATOM     71  O   UNL A   1      30.529  27.958  24.382  1.00  0.00    -0.458 OA
BRANCH  71  72
ATOM     72  C   UNL A   1      30.763  27.261  23.236  1.00  0.00     0.342 C 
ATOM     73  O   UNL A   1      30.619  27.681  22.099  1.00  0.00    -0.246 OA
BRANCH  72  74
ATOM     74  C   UNL A   1      31.381  25.952  23.552  1.00  0.00     0.102 A 
ATOM     75  C   UNL A   1      30.590  24.824  23.306  1.00  0.00     0.020 A 
ATOM     76  C   UNL A   1      32.691  25.795  24.032  1.00  0.00     0.142 A 
ATOM     77  C   UNL A   1      31.107  23.545  23.506  1.00  0.00     0.014 A 
ATOM     78  C   UNL A   1      33.201  24.495  24.274  1.00  0.00     0.076 A 
ATOM     79  C   UNL A   1      32.410  23.378  23.990  1.00  0.00     0.037 A 
ATOM     80  C   UNL A   1      34.554  24.257  24.823  1.00  0.00     0.198 C 
ATOM     81  C   UNL A   1      32.921  21.998  24.165  1.00  0.00     0.194 C 
ATOM     82  O   UNL A   1      35.151  25.171  25.371  1.00  0.00    -0.288 OA
ATOM     83  C   UNL A   1      35.131  22.889  24.780  1.00  0.00     0.034 A 
ATOM     84  C   UNL A   1      34.322  21.789  24.558  1.00  0.00     0.034 A 
ATOM     85  O   UNL A   1      32.190  21.041  23.937  1.00  0.00    -0.289 OA
ATOM     86  C   UNL A   1      36.485  22.672  25.013  1.00  0.00     0.013 A 
ATOM     87  C   UNL A   1      34.843  20.489  24.677  1.00  0.00     0.013 A 
ATOM     88  C   UNL A   1      37.018  21.393  25.156  1.00  0.00     0.001 A 
ATOM     89  C   UNL A   1      36.187  20.293  25.007  1.00  0.00     0.001 A 
BRANCH  76  90
ATOM     90  O   UNL A   1      33.480  26.892  24.252  1.00  0.00    -0.506 OA
ATOM     91  H   UNL A   1      33.089  27.737  24.357  1.00  0.00     0.293 HD
ENDBRANCH  76  90
ENDBRANCH  72  74
ENDBRANCH  71  72
ENDBRANCH  70  71
ENDBRANCH   1  70
TORSDOF 15
ENDMDL
