MODEL 1
REMARK VINA RESULT:     -10.5      0.000      0.000
REMARK SMILES O=C(OCCOC(=O)[C@H](CO)NC(=O)[C@H]1CC(=O)N(CC(F)(F)F)C1)c1ccc(-c2c3nc(c(-c4cccc(S(=O)(=O)[O-])c4F)c4ccc([nH]4)c(-c4cccc(S(=O)(=O)[O-])c4F)c4nc(c(-c5cccc(S(=O)(=O)[O-])c5F)c5ccc2[nH]5)C=C4)C=C3)cc1
REMARK SMILES IDX 5 1 4 2 3 3 2 4 1 5 26 6 27 7 88 8 28 9 87 10 29 11 30 12
REMARK SMILES IDX 31 13 81 14 32 15 86 16 80 17 82 18 33 19 85 20 79 21 78 22
REMARK SMILES IDX 34 24 66 25 46 26 65 27 47 28 50 29 64 30 83 31 48 32 49 33
REMARK SMILES IDX 63 35 84 36 51 37 35 38 36 39 44 40 37 41 39 42 45 43 38 44
REMARK SMILES IDX 40 45 41 46 42 47 43 48 67 49 68 50 76 51 69 52 71 53 77 54
REMARK SMILES IDX 70 55 72 56 73 57 74 58 75 59 52 60 53 61 61 62 54 63 56 64
REMARK SMILES IDX 62 65 55 66 57 67 58 68 59 69 60 70 6 71 7 72 8 73 9 74
REMARK SMILES IDX 12 75 13 76 14 78 15 79 16 80 25 81 17 82 19 83 18 84 20 85
REMARK SMILES IDX 21 86 22 87 23 88 24 89 10 90 11 91
REMARK H PARENT 82 23 50 34 12 77 11 92
REMARK Flexibility Score: inf
ROOT
ATOM      1  C   UNL A   1      41.906  18.968  26.200  1.00  0.00     0.274 C 
ENDROOT
BRANCH   1   2
ATOM      2  C   UNL A   1      41.458  20.241  26.939  1.00  0.00     0.275 C 
BRANCH   2   3
ATOM      3  O   UNL A   1      40.074  20.520  26.740  1.00  0.00    -0.458 OA
BRANCH   3   4
ATOM      4  C   UNL A   1      39.557  21.713  26.374  1.00  0.00     0.338 C 
ATOM      5  O   UNL A   1      38.883  21.746  25.345  1.00  0.00    -0.246 OA
BRANCH   4   6
ATOM      6  C   UNL A   1      39.771  23.008  27.119  1.00  0.00     0.060 A 
ATOM      7  C   UNL A   1      40.755  23.348  28.067  1.00  0.00     0.016 A 
ATOM      8  C   UNL A   1      38.960  24.041  26.680  1.00  0.00     0.016 A 
ATOM      9  C   UNL A   1      41.069  24.687  28.389  1.00  0.00     0.010 A 
ATOM     10  C   UNL A   1      39.244  25.353  27.048  1.00  0.00     0.010 A 
ATOM     11  C   UNL A   1      40.378  25.732  27.799  1.00  0.00    -0.014 A 
BRANCH  11  12
ATOM     12  C   UNL A   1      40.773  27.191  27.904  1.00  0.00     0.031 A 
ATOM     13  C   UNL A   1      42.130  27.593  27.375  1.00  0.00     0.074 A 
ATOM     14  C   UNL A   1      40.100  28.115  28.641  1.00  0.00     0.049 A 
ATOM     15  N   UNL A   1      42.879  28.616  27.685  1.00  0.00    -0.248 NA
ATOM     16  C   UNL A   1      42.771  26.636  26.459  1.00  0.00     0.031 C 
ATOM     17  C   UNL A   1      38.806  27.941  29.303  1.00  0.00     0.029 A 
ATOM     18  N   UNL A   1      40.474  29.393  29.032  1.00  0.00    -0.354 N 
ATOM     19  C   UNL A   1      44.111  28.344  27.109  1.00  0.00     0.074 A 
ATOM     20  C   UNL A   1      44.034  27.001  26.580  1.00  0.00     0.031 C 
ATOM     21  C   UNL A   1      38.538  29.013  30.073  1.00  0.00     0.029 A 
ATOM     22  C   UNL A   1      39.629  29.973  29.964  1.00  0.00     0.049 A 
ATOM     23  H   UNL A   1      41.272  29.848  28.677  1.00  0.00     0.167 HD
ATOM     24  C   UNL A   1      45.180  29.154  26.918  1.00  0.00     0.034 A 
ATOM     25  C   UNL A   1      39.714  31.135  30.655  1.00  0.00     0.034 A 
ATOM     26  C   UNL A   1      45.187  30.544  27.265  1.00  0.00     0.049 A 
ATOM     27  C   UNL A   1      40.841  32.093  30.351  1.00  0.00     0.074 A 
ATOM     28  C   UNL A   1      46.104  31.516  26.915  1.00  0.00     0.029 A 
ATOM     29  N   UNL A   1      44.212  31.163  28.028  1.00  0.00    -0.354 N 
ATOM     30  N   UNL A   1      41.906  31.901  29.612  1.00  0.00    -0.248 NA
ATOM     31  C   UNL A   1      40.735  33.461  30.894  1.00  0.00     0.031 C 
ATOM     32  C   UNL A   1      45.685  32.728  27.471  1.00  0.00     0.029 A 
ATOM     33  C   UNL A   1      44.491  32.511  28.141  1.00  0.00     0.049 A 
ATOM     34  H   UNL A   1      43.436  30.710  28.430  1.00  0.00     0.167 HD
ATOM     35  C   UNL A   1      42.545  33.136  29.530  1.00  0.00     0.074 A 
ATOM     36  C   UNL A   1      41.766  34.067  30.317  1.00  0.00     0.031 C 
ATOM     37  C   UNL A   1      43.666  33.461  28.841  1.00  0.00     0.034 A 
BRANCH  24  38
ATOM     38  C   UNL A   1      46.363  28.565  26.191  1.00  0.00     0.023 A 
ATOM     39  C   UNL A   1      46.260  28.270  24.812  1.00  0.00     0.012 A 
ATOM     40  C   UNL A   1      47.555  28.258  26.870  1.00  0.00     0.148 A 
ATOM     41  C   UNL A   1      47.261  27.559  24.157  1.00  0.00     0.002 A 
ATOM     42  C   UNL A   1      48.585  27.622  26.188  1.00  0.00     0.091 A 
ATOM     43  F   UNL A   1      47.651  28.558  28.174  1.00  0.00    -0.205 F 
ATOM     44  C   UNL A   1      48.424  27.237  24.846  1.00  0.00     0.022 A 
BRANCH  42  45
ATOM     45  S   UNL A   1      50.182  27.291  26.934  1.00  0.00     0.127 S 
ATOM     46  O   UNL A   1      50.600  28.628  27.352  1.00  0.00    -0.237 OA
ATOM     47  O   UNL A   1      49.823  26.396  28.037  1.00  0.00    -0.237 OA
ATOM     48  O   UNL A   1      50.992  26.670  25.896  1.00  0.00    -0.744 OA
ENDBRANCH  42  45
ENDBRANCH  24  38
BRANCH  25  49
ATOM     49  C   UNL A   1      38.625  31.552  31.599  1.00  0.00     0.023 A 
ATOM     50  C   UNL A   1      38.777  31.272  32.973  1.00  0.00     0.012 A 
ATOM     51  C   UNL A   1      37.444  32.187  31.162  1.00  0.00     0.148 A 
ATOM     52  C   UNL A   1      37.769  31.580  33.888  1.00  0.00     0.002 A 
ATOM     53  C   UNL A   1      36.455  32.527  32.086  1.00  0.00     0.091 A 
ATOM     54  F   UNL A   1      37.301  32.434  29.852  1.00  0.00    -0.205 F 
ATOM     55  C   UNL A   1      36.611  32.211  33.446  1.00  0.00     0.022 A 
BRANCH  53  56
ATOM     56  S   UNL A   1      34.947  33.408  31.652  1.00  0.00     0.127 S 
ATOM     57  O   UNL A   1      33.932  32.647  32.379  1.00  0.00    -0.237 OA
ATOM     58  O   UNL A   1      35.217  34.740  32.196  1.00  0.00    -0.237 OA
ATOM     59  O   UNL A   1      34.848  33.347  30.202  1.00  0.00    -0.744 OA
ENDBRANCH  53  56
ENDBRANCH  25  49
BRANCH  37  60
ATOM     60  C   UNL A   1      44.092  34.902  28.769  1.00  0.00     0.023 A 
ATOM     61  C   UNL A   1      43.533  35.770  27.812  1.00  0.00     0.012 A 
ATOM     62  C   UNL A   1      44.922  35.428  29.781  1.00  0.00     0.148 A 
ATOM     63  C   UNL A   1      43.794  37.139  27.866  1.00  0.00     0.002 A 
ATOM     64  C   UNL A   1      45.136  36.797  29.860  1.00  0.00     0.091 A 
ATOM     65  F   UNL A   1      45.458  34.577  30.671  1.00  0.00    -0.205 F 
ATOM     66  C   UNL A   1      44.578  37.654  28.899  1.00  0.00     0.022 A 
BRANCH  64  67
ATOM     67  S   UNL A   1      46.034  37.559  31.218  1.00  0.00     0.127 S 
ATOM     68  O   UNL A   1      46.233  38.919  30.718  1.00  0.00    -0.237 OA
ATOM     69  O   UNL A   1      45.079  37.448  32.319  1.00  0.00    -0.237 OA
ATOM     70  O   UNL A   1      47.253  36.780  31.389  1.00  0.00    -0.744 OA
ENDBRANCH  64  67
ENDBRANCH  37  60
ENDBRANCH  11  12
ENDBRANCH   4   6
ENDBRANCH   3   4
ENDBRANCH   2   3
ENDBRANCH   1   2
BRANCH   1  71
ATOM     71  O   UNL A   1      42.704  19.245  25.016  1.00  0.00    -0.460 OA
BRANCH  71  72
ATOM     72  C   UNL A   1      44.015  18.877  25.063  1.00  0.00     0.331 C 
ATOM     73  O   UNL A   1      44.457  18.104  25.912  1.00  0.00    -0.250 OA
BRANCH  72  74
ATOM     74  C   UNL A   1      44.931  19.557  23.998  1.00  0.00     0.218 C 
BRANCH  74  75
ATOM     75  N   UNL A   1      44.797  21.018  23.807  1.00  0.00    -0.341 N 
ATOM     76  C   UNL A   1      44.240  21.839  24.771  1.00  0.00     0.226 C 
ATOM     77  H   UNL A   1      45.112  21.419  22.965  1.00  0.00     0.164 HD
ATOM     78  O   UNL A   1      43.103  22.253  24.578  1.00  0.00    -0.275 OA
BRANCH  76  79
ATOM     79  C   UNL A   1      45.067  22.263  25.970  1.00  0.00     0.107 C 
ATOM     80  C   UNL A   1      46.136  23.287  25.579  1.00  0.00     0.115 C 
ATOM     81  C   UNL A   1      44.328  23.119  27.006  1.00  0.00     0.133 C 
ATOM     82  C   UNL A   1      46.548  23.847  26.898  1.00  0.00     0.223 C 
ATOM     83  N   UNL A   1      45.421  23.789  27.698  1.00  0.00    -0.333 N 
ATOM     84  O   UNL A   1      47.639  24.300  27.194  1.00  0.00    -0.275 OA
BRANCH  83  85
ATOM     85  C   UNL A   1      45.279  24.747  28.789  1.00  0.00     0.234 C 
BRANCH  85  86
ATOM     86  C   UNL A   1      44.650  24.173  30.068  1.00  0.00     0.406 C 
ATOM     87  F   UNL A   1      45.361  24.539  31.158  1.00  0.00    -0.169 F 
ATOM     88  F   UNL A   1      43.394  24.659  30.227  1.00  0.00    -0.169 F 
ATOM     89  F   UNL A   1      44.567  22.829  30.058  1.00  0.00    -0.169 F 
ENDBRANCH  85  86
ENDBRANCH  83  85
ENDBRANCH  76  79
ENDBRANCH  74  75
BRANCH  74  90
ATOM     90  C   UNL A   1      46.375  19.209  24.435  1.00  0.00     0.193 C 
BRANCH  90  91
ATOM     91  O   UNL A   1      47.311  20.242  24.126  1.00  0.00    -0.394 OA
ATOM     92  H   UNL A   1      47.874  20.411  24.898  1.00  0.00     0.210 HD
ENDBRANCH  90  91
ENDBRANCH  74  90
ENDBRANCH  72  74
ENDBRANCH  71  72
ENDBRANCH   1  71
TORSDOF 20
ENDMDL
MODEL 2
REMARK VINA RESULT:     -10.2      6.111     10.030
REMARK SMILES O=C(OCCOC(=O)[C@H](CO)NC(=O)[C@H]1CC(=O)N(CC(F)(F)F)C1)c1ccc(-c2c3nc(c(-c4cccc(S(=O)(=O)[O-])c4F)c4ccc([nH]4)c(-c4cccc(S(=O)(=O)[O-])c4F)c4nc(c(-c5cccc(S(=O)(=O)[O-])c5F)c5ccc2[nH]5)C=C4)C=C3)cc1
REMARK SMILES IDX 5 1 4 2 3 3 2 4 1 5 26 6 27 7 88 8 28 9 87 10 29 11 30 12
REMARK SMILES IDX 31 13 81 14 32 15 86 16 80 17 82 18 33 19 85 20 79 21 78 22
REMARK SMILES IDX 34 24 66 25 46 26 65 27 47 28 50 29 64 30 83 31 48 32 49 33
REMARK SMILES IDX 63 35 84 36 51 37 35 38 36 39 44 40 37 41 39 42 45 43 38 44
REMARK SMILES IDX 40 45 41 46 42 47 43 48 67 49 68 50 76 51 69 52 71 53 77 54
REMARK SMILES IDX 70 55 72 56 73 57 74 58 75 59 52 60 53 61 61 62 54 63 56 64
REMARK SMILES IDX 62 65 55 66 57 67 58 68 59 69 60 70 6 71 7 72 8 73 9 74
REMARK SMILES IDX 12 75 13 76 14 78 15 79 16 80 25 81 17 82 19 83 18 84 20 85
REMARK SMILES IDX 21 86 22 87 23 88 24 89 10 90 11 91
REMARK H PARENT 82 23 50 34 12 77 11 92
REMARK Flexibility Score: inf
ROOT
ATOM      1  C   UNL A   1      32.845  29.051  25.018  1.00  0.00     0.274 C 
ENDROOT
BRANCH   1   2
ATOM      2  C   UNL A   1      31.811  29.813  25.867  1.00  0.00     0.275 C 
BRANCH   2   3
ATOM      3  O   UNL A   1      32.342  30.217  27.127  1.00  0.00    -0.458 OA
BRANCH   3   4
ATOM      4  C   UNL A   1      33.142  31.285  27.337  1.00  0.00     0.338 C 
ATOM      5  O   UNL A   1      32.622  32.399  27.288  1.00  0.00    -0.246 OA
BRANCH   4   6
ATOM      6  C   UNL A   1      34.627  31.209  27.598  1.00  0.00     0.060 A 
ATOM      7  C   UNL A   1      35.571  32.246  27.724  1.00  0.00     0.016 A 
ATOM      8  C   UNL A   1      35.073  29.933  27.899  1.00  0.00     0.016 A 
ATOM      9  C   UNL A   1      36.828  32.056  28.340  1.00  0.00     0.010 A 
ATOM     10  C   UNL A   1      36.336  29.750  28.454  1.00  0.00     0.010 A 
ATOM     11  C   UNL A   1      37.197  30.809  28.816  1.00  0.00    -0.014 A 
BRANCH  11  12
ATOM     12  C   UNL A   1      38.414  30.544  29.678  1.00  0.00     0.031 A 
ATOM     13  C   UNL A   1      39.434  29.553  29.170  1.00  0.00     0.074 A 
ATOM     14  C   UNL A   1      38.544  30.955  30.968  1.00  0.00     0.049 A 
ATOM     15  N   UNL A   1      40.310  28.842  29.828  1.00  0.00    -0.248 NA
ATOM     16  C   UNL A   1      39.365  29.238  27.734  1.00  0.00     0.031 C 
ATOM     17  C   UNL A   1      37.653  31.860  31.697  1.00  0.00     0.029 A 
ATOM     18  N   UNL A   1      39.460  30.580  31.940  1.00  0.00    -0.354 N 
ATOM     19  C   UNL A   1      40.784  27.918  28.908  1.00  0.00     0.074 A 
ATOM     20  C   UNL A   1      39.982  28.071  27.716  1.00  0.00     0.031 C 
ATOM     21  C   UNL A   1      38.007  31.901  32.996  1.00  0.00     0.029 A 
ATOM     22  C   UNL A   1      39.162  31.038  33.212  1.00  0.00     0.049 A 
ATOM     23  H   UNL A   1      40.255  30.035  31.741  1.00  0.00     0.167 HD
ATOM     24  C   UNL A   1      41.857  27.094  28.978  1.00  0.00     0.034 A 
ATOM     25  C   UNL A   1      39.737  30.798  34.414  1.00  0.00     0.034 A 
ATOM     26  C   UNL A   1      42.771  27.082  30.080  1.00  0.00     0.049 A 
ATOM     27  C   UNL A   1      41.005  29.979  34.473  1.00  0.00     0.074 A 
ATOM     28  C   UNL A   1      44.009  26.473  30.168  1.00  0.00     0.029 A 
ATOM     29  N   UNL A   1      42.551  27.729  31.283  1.00  0.00    -0.354 N 
ATOM     30  N   UNL A   1      41.577  29.280  33.524  1.00  0.00    -0.248 NA
ATOM     31  C   UNL A   1      41.763  29.990  35.738  1.00  0.00     0.031 C 
ATOM     32  C   UNL A   1      44.539  26.752  31.431  1.00  0.00     0.029 A 
ATOM     33  C   UNL A   1      43.641  27.557  32.114  1.00  0.00     0.049 A 
ATOM     34  H   UNL A   1      41.740  28.237  31.513  1.00  0.00     0.167 HD
ATOM     35  C   UNL A   1      42.793  28.845  34.045  1.00  0.00     0.074 A 
ATOM     36  C   UNL A   1      42.868  29.333  35.404  1.00  0.00     0.031 C 
ATOM     37  C   UNL A   1      43.764  28.124  33.432  1.00  0.00     0.034 A 
BRANCH  24  38
ATOM     38  C   UNL A   1      42.146  26.245  27.764  1.00  0.00     0.023 A 
ATOM     39  C   UNL A   1      42.744  26.832  26.626  1.00  0.00     0.012 A 
ATOM     40  C   UNL A   1      41.787  24.886  27.726  1.00  0.00     0.148 A 
ATOM     41  C   UNL A   1      42.852  26.126  25.432  1.00  0.00     0.002 A 
ATOM     42  C   UNL A   1      41.976  24.163  26.554  1.00  0.00     0.091 A 
ATOM     43  F   UNL A   1      41.237  24.332  28.816  1.00  0.00    -0.205 F 
ATOM     44  C   UNL A   1      42.469  24.791  25.398  1.00  0.00     0.022 A 
BRANCH  42  45
ATOM     45  S   UNL A   1      41.657  22.401  26.440  1.00  0.00     0.127 S 
ATOM     46  O   UNL A   1      42.290  22.064  25.166  1.00  0.00    -0.237 OA
ATOM     47  O   UNL A   1      42.358  21.888  27.619  1.00  0.00    -0.237 OA
ATOM     48  O   UNL A   1      40.210  22.250  26.488  1.00  0.00    -0.744 OA
ENDBRANCH  42  45
ENDBRANCH  24  38
BRANCH  25  49
ATOM     49  C   UNL A   1      39.227  31.459  35.660  1.00  0.00     0.023 A 
ATOM     50  C   UNL A   1      38.195  30.828  36.386  1.00  0.00     0.012 A 
ATOM     51  C   UNL A   1      39.720  32.699  36.117  1.00  0.00     0.148 A 
ATOM     52  C   UNL A   1      37.638  31.428  37.517  1.00  0.00     0.002 A 
ATOM     53  C   UNL A   1      39.186  33.276  37.270  1.00  0.00     0.091 A 
ATOM     54  F   UNL A   1      40.689  33.298  35.412  1.00  0.00    -0.205 F 
ATOM     55  C   UNL A   1      38.136  32.648  37.961  1.00  0.00     0.022 A 
BRANCH  53  56
ATOM     56  S   UNL A   1      39.791  34.812  37.987  1.00  0.00     0.127 S 
ATOM     57  O   UNL A   1      39.631  35.748  36.876  1.00  0.00    -0.237 OA
ATOM     58  O   UNL A   1      38.852  35.011  39.092  1.00  0.00    -0.237 OA
ATOM     59  O   UNL A   1      41.165  34.554  38.390  1.00  0.00    -0.744 OA
ENDBRANCH  53  56
ENDBRANCH  25  49
BRANCH  37  60
ATOM     60  C   UNL A   1      45.071  27.900  34.142  1.00  0.00     0.023 A 
ATOM     61  C   UNL A   1      46.100  28.857  34.072  1.00  0.00     0.012 A 
ATOM     62  C   UNL A   1      45.197  26.808  35.027  1.00  0.00     0.148 A 
ATOM     63  C   UNL A   1      47.234  28.731  34.874  1.00  0.00     0.002 A 
ATOM     64  C   UNL A   1      46.304  26.716  35.859  1.00  0.00     0.091 A 
ATOM     65  F   UNL A   1      44.210  25.899  35.061  1.00  0.00    -0.205 F 
ATOM     66  C   UNL A   1      47.328  27.673  35.780  1.00  0.00     0.022 A 
BRANCH  64  67
ATOM     67  S   UNL A   1      46.454  25.458  37.134  1.00  0.00     0.127 S 
ATOM     68  O   UNL A   1      47.716  25.828  37.772  1.00  0.00    -0.237 OA
ATOM     69  O   UNL A   1      45.264  25.701  37.948  1.00  0.00    -0.237 OA
ATOM     70  O   UNL A   1      46.465  24.176  36.441  1.00  0.00    -0.744 OA
ENDBRANCH  64  67
ENDBRANCH  37  60
ENDBRANCH  11  12
ENDBRANCH   4   6
ENDBRANCH   3   4
ENDBRANCH   2   3
ENDBRANCH   1   2
BRANCH   1  71
ATOM     71  O   UNL A   1      32.724  29.319  23.594  1.00  0.00    -0.460 OA
BRANCH  71  72
ATOM     72  C   UNL A   1      32.370  28.269  22.801  1.00  0.00     0.331 C 
ATOM     73  O   UNL A   1      33.192  27.617  22.158  1.00  0.00    -0.250 OA
BRANCH  72  74
ATOM     74  C   UNL A   1      30.837  27.991  22.719  1.00  0.00     0.218 C 
BRANCH  74  75
ATOM     75  N   UNL A   1      30.169  27.454  23.925  1.00  0.00    -0.341 N 
ATOM     76  C   UNL A   1      29.520  26.232  23.924  1.00  0.00     0.226 C 
ATOM     77  H   UNL A   1      30.185  27.984  24.754  1.00  0.00     0.164 HD
ATOM     78  O   UNL A   1      28.294  26.241  23.908  1.00  0.00    -0.275 OA
BRANCH  76  79
ATOM     79  C   UNL A   1      30.323  24.950  24.030  1.00  0.00     0.107 C 
ATOM     80  C   UNL A   1      31.248  24.767  22.824  1.00  0.00     0.115 C 
ATOM     81  C   UNL A   1      31.401  24.942  25.122  1.00  0.00     0.133 C 
ATOM     82  C   UNL A   1      32.192  23.714  23.295  1.00  0.00     0.223 C 
ATOM     83  N   UNL A   1      32.306  23.897  24.661  1.00  0.00    -0.333 N 
ATOM     84  O   UNL A   1      32.774  22.892  22.610  1.00  0.00    -0.275 OA
BRANCH  83  85
ATOM     85  C   UNL A   1      33.531  23.475  25.331  1.00  0.00     0.234 C 
BRANCH  85  86
ATOM     86  C   UNL A   1      34.705  24.458  25.197  1.00  0.00     0.406 C 
ATOM     87  F   UNL A   1      35.181  24.466  23.932  1.00  0.00    -0.169 F 
ATOM     88  F   UNL A   1      34.289  25.718  25.477  1.00  0.00    -0.169 F 
ATOM     89  F   UNL A   1      35.728  24.175  26.026  1.00  0.00    -0.169 F 
ENDBRANCH  85  86
ENDBRANCH  83  85
ENDBRANCH  76  79
ENDBRANCH  74  75
BRANCH  74  90
ATOM     90  C   UNL A   1      30.207  29.350  22.324  1.00  0.00     0.193 C 
BRANCH  90  91
ATOM     91  O   UNL A   1      30.999  30.075  21.383  1.00  0.00    -0.394 OA
ATOM     92  H   UNL A   1      31.937  29.870  21.524  1.00  0.00     0.210 HD
ENDBRANCH  90  91
ENDBRANCH  74  90
ENDBRANCH  72  74
ENDBRANCH  71  72
ENDBRANCH   1  71
TORSDOF 20
ENDMDL
MODEL 3
REMARK VINA RESULT:     -10.2      4.504     10.443
REMARK SMILES O=C(OCCOC(=O)[C@H](CO)NC(=O)[C@H]1CC(=O)N(CC(F)(F)F)C1)c1ccc(-c2c3nc(c(-c4cccc(S(=O)(=O)[O-])c4F)c4ccc([nH]4)c(-c4cccc(S(=O)(=O)[O-])c4F)c4nc(c(-c5cccc(S(=O)(=O)[O-])c5F)c5ccc2[nH]5)C=C4)C=C3)cc1
REMARK SMILES IDX 5 1 4 2 3 3 2 4 1 5 26 6 27 7 88 8 28 9 87 10 29 11 30 12
REMARK SMILES IDX 31 13 81 14 32 15 86 16 80 17 82 18 33 19 85 20 79 21 78 22
REMARK SMILES IDX 34 24 66 25 46 26 65 27 47 28 50 29 64 30 83 31 48 32 49 33
REMARK SMILES IDX 63 35 84 36 51 37 35 38 36 39 44 40 37 41 39 42 45 43 38 44
REMARK SMILES IDX 40 45 41 46 42 47 43 48 67 49 68 50 76 51 69 52 71 53 77 54
REMARK SMILES IDX 70 55 72 56 73 57 74 58 75 59 52 60 53 61 61 62 54 63 56 64
REMARK SMILES IDX 62 65 55 66 57 67 58 68 59 69 60 70 6 71 7 72 8 73 9 74
REMARK SMILES IDX 12 75 13 76 14 78 15 79 16 80 25 81 17 82 19 83 18 84 20 85
REMARK SMILES IDX 21 86 22 87 23 88 24 89 10 90 11 91
REMARK H PARENT 82 23 50 34 12 77 11 92
REMARK Flexibility Score: inf
ROOT
ATOM      1  C   UNL A   1      36.235  21.946  24.311  1.00  0.00     0.274 C 
ENDROOT
BRANCH   1   2
ATOM      2  C   UNL A   1      36.896  20.802  25.102  1.00  0.00     0.275 C 
BRANCH   2   3
ATOM      3  O   UNL A   1      38.277  20.652  24.778  1.00  0.00    -0.458 OA
BRANCH   3   4
ATOM      4  C   UNL A   1      39.281  20.494  25.667  1.00  0.00     0.338 C 
ATOM      5  O   UNL A   1      39.787  19.375  25.755  1.00  0.00    -0.246 OA
BRANCH   4   6
ATOM      6  C   UNL A   1      39.802  21.579  26.577  1.00  0.00     0.060 A 
ATOM      7  C   UNL A   1      40.757  21.504  27.609  1.00  0.00     0.016 A 
ATOM      8  C   UNL A   1      39.374  22.848  26.228  1.00  0.00     0.016 A 
ATOM      9  C   UNL A   1      41.423  22.644  28.110  1.00  0.00     0.010 A 
ATOM     10  C   UNL A   1      39.999  23.967  26.770  1.00  0.00     0.010 A 
ATOM     11  C   UNL A   1      41.125  23.905  27.619  1.00  0.00    -0.014 A 
BRANCH  11  12
ATOM     12  C   UNL A   1      41.923  25.156  27.925  1.00  0.00     0.031 A 
ATOM     13  C   UNL A   1      41.194  26.318  28.558  1.00  0.00     0.074 A 
ATOM     14  C   UNL A   1      43.182  25.393  27.467  1.00  0.00     0.049 A 
ATOM     15  N   UNL A   1      41.484  27.592  28.549  1.00  0.00    -0.248 NA
ATOM     16  C   UNL A   1      39.898  26.002  29.179  1.00  0.00     0.031 C 
ATOM     17  C   UNL A   1      44.058  24.449  26.771  1.00  0.00     0.029 A 
ATOM     18  N   UNL A   1      43.921  26.568  27.448  1.00  0.00    -0.354 N 
ATOM     19  C   UNL A   1      40.348  28.219  29.039  1.00  0.00     0.074 A 
ATOM     20  C   UNL A   1      39.335  27.197  29.175  1.00  0.00     0.031 C 
ATOM     21  C   UNL A   1      45.156  25.088  26.325  1.00  0.00     0.029 A 
ATOM     22  C   UNL A   1      45.088  26.494  26.706  1.00  0.00     0.049 A 
ATOM     23  H   UNL A   1      43.640  27.383  27.922  1.00  0.00     0.167 HD
ATOM     24  C   UNL A   1      40.171  29.496  29.456  1.00  0.00     0.034 A 
ATOM     25  C   UNL A   1      45.998  27.436  26.364  1.00  0.00     0.034 A 
ATOM     26  C   UNL A   1      41.228  30.462  29.507  1.00  0.00     0.049 A 
ATOM     27  C   UNL A   1      45.866  28.829  26.932  1.00  0.00     0.074 A 
ATOM     28  C   UNL A   1      41.236  31.699  30.121  1.00  0.00     0.029 A 
ATOM     29  N   UNL A   1      42.476  30.283  28.937  1.00  0.00    -0.354 N 
ATOM     30  N   UNL A   1      44.867  29.353  27.598  1.00  0.00    -0.248 NA
ATOM     31  C   UNL A   1      47.021  29.735  26.788  1.00  0.00     0.031 C 
ATOM     32  C   UNL A   1      42.494  32.275  29.918  1.00  0.00     0.029 A 
ATOM     33  C   UNL A   1      43.274  31.379  29.203  1.00  0.00     0.049 A 
ATOM     34  H   UNL A   1      42.754  29.494  28.419  1.00  0.00     0.167 HD
ATOM     35  C   UNL A   1      45.303  30.605  28.024  1.00  0.00     0.074 A 
ATOM     36  C   UNL A   1      46.647  30.778  27.519  1.00  0.00     0.031 C 
ATOM     37  C   UNL A   1      44.645  31.513  28.787  1.00  0.00     0.034 A 
BRANCH  24  38
ATOM     38  C   UNL A   1      38.811  29.854  30.003  1.00  0.00     0.023 A 
ATOM     39  C   UNL A   1      38.473  29.495  31.328  1.00  0.00     0.012 A 
ATOM     40  C   UNL A   1      37.852  30.499  29.201  1.00  0.00     0.148 A 
ATOM     41  C   UNL A   1      37.172  29.643  31.798  1.00  0.00     0.002 A 
ATOM     42  C   UNL A   1      36.577  30.719  29.708  1.00  0.00     0.091 A 
ATOM     43  F   UNL A   1      38.187  30.853  27.952  1.00  0.00    -0.205 F 
ATOM     44  C   UNL A   1      36.225  30.257  30.987  1.00  0.00     0.022 A 
BRANCH  42  45
ATOM     45  S   UNL A   1      35.322  31.632  28.808  1.00  0.00     0.127 S 
ATOM     46  O   UNL A   1      36.128  32.602  28.070  1.00  0.00    -0.237 OA
ATOM     47  O   UNL A   1      34.722  30.586  27.977  1.00  0.00    -0.237 OA
ATOM     48  O   UNL A   1      34.428  32.187  29.814  1.00  0.00    -0.744 OA
ENDBRANCH  42  45
ENDBRANCH  24  38
BRANCH  25  49
ATOM     49  C   UNL A   1      47.215  27.078  25.563  1.00  0.00     0.023 A 
ATOM     50  C   UNL A   1      48.240  26.333  26.184  1.00  0.00     0.012 A 
ATOM     51  C   UNL A   1      47.387  27.483  24.223  1.00  0.00     0.148 A 
ATOM     52  C   UNL A   1      49.422  26.027  25.507  1.00  0.00     0.002 A 
ATOM     53  C   UNL A   1      48.554  27.141  23.538  1.00  0.00     0.091 A 
ATOM     54  F   UNL A   1      46.416  28.204  23.646  1.00  0.00    -0.205 F 
ATOM     55  C   UNL A   1      49.576  26.427  24.184  1.00  0.00     0.022 A 
BRANCH  53  56
ATOM     56  S   UNL A   1      48.844  27.535  21.806  1.00  0.00     0.127 S 
ATOM     57  O   UNL A   1      47.498  27.864  21.341  1.00  0.00    -0.237 OA
ATOM     58  O   UNL A   1      49.750  28.680  21.911  1.00  0.00    -0.237 OA
ATOM     59  O   UNL A   1      49.431  26.342  21.215  1.00  0.00    -0.744 OA
ENDBRANCH  53  56
ENDBRANCH  25  49
BRANCH  37  60
ATOM     60  C   UNL A   1      45.375  32.741  29.259  1.00  0.00     0.023 A 
ATOM     61  C   UNL A   1      46.158  32.707  30.427  1.00  0.00     0.012 A 
ATOM     62  C   UNL A   1      45.415  33.881  28.428  1.00  0.00     0.148 A 
ATOM     63  C   UNL A   1      46.973  33.790  30.759  1.00  0.00     0.002 A 
ATOM     64  C   UNL A   1      46.267  34.933  28.737  1.00  0.00     0.091 A 
ATOM     65  F   UNL A   1      44.644  33.897  27.330  1.00  0.00    -0.205 F 
ATOM     66  C   UNL A   1      47.042  34.893  29.907  1.00  0.00     0.022 A 
BRANCH  64  67
ATOM     67  S   UNL A   1      46.506  36.337  27.641  1.00  0.00     0.127 S 
ATOM     68  O   UNL A   1      46.945  35.683  26.410  1.00  0.00    -0.237 OA
ATOM     69  O   UNL A   1      45.164  36.913  27.580  1.00  0.00    -0.237 OA
ATOM     70  O   UNL A   1      47.504  37.186  28.279  1.00  0.00    -0.744 OA
ENDBRANCH  64  67
ENDBRANCH  37  60
ENDBRANCH  11  12
ENDBRANCH   4   6
ENDBRANCH   3   4
ENDBRANCH   2   3
ENDBRANCH   1   2
BRANCH   1  71
ATOM     71  O   UNL A   1      34.935  22.328  24.840  1.00  0.00    -0.460 OA
BRANCH  71  72
ATOM     72  C   UNL A   1      34.926  23.281  25.813  1.00  0.00     0.331 C 
ATOM     73  O   UNL A   1      35.898  23.999  26.047  1.00  0.00    -0.250 OA
BRANCH  72  74
ATOM     74  C   UNL A   1      33.614  23.355  26.654  1.00  0.00     0.218 C 
BRANCH  74  75
ATOM     75  N   UNL A   1      32.361  23.693  25.945  1.00  0.00    -0.341 N 
ATOM     76  C   UNL A   1      31.598  24.796  26.283  1.00  0.00     0.226 C 
ATOM     77  H   UNL A   1      32.058  23.112  25.209  1.00  0.00     0.164 HD
ATOM     78  O   UNL A   1      30.560  24.600  26.904  1.00  0.00    -0.275 OA
BRANCH  76  79
ATOM     79  C   UNL A   1      32.014  26.176  25.809  1.00  0.00     0.107 C 
ATOM     80  C   UNL A   1      32.817  26.102  24.507  1.00  0.00     0.115 C 
ATOM     81  C   UNL A   1      30.873  27.065  25.300  1.00  0.00     0.133 C 
ATOM     82  C   UNL A   1      32.782  27.512  24.024  1.00  0.00     0.223 C 
ATOM     83  N   UNL A   1      31.576  28.029  24.462  1.00  0.00    -0.333 N 
ATOM     84  O   UNL A   1      33.622  28.076  23.346  1.00  0.00    -0.275 OA
BRANCH  83  85
ATOM     85  C   UNL A   1      30.957  29.114  23.710  1.00  0.00     0.234 C 
BRANCH  85  86
ATOM     86  C   UNL A   1      29.981  28.659  22.614  1.00  0.00     0.406 C 
ATOM     87  F   UNL A   1      29.868  29.602  21.651  1.00  0.00    -0.169 F 
ATOM     88  F   UNL A   1      30.444  27.532  22.019  1.00  0.00    -0.169 F 
ATOM     89  F   UNL A   1      28.747  28.394  23.083  1.00  0.00    -0.169 F 
ENDBRANCH  85  86
ENDBRANCH  83  85
ENDBRANCH  76  79
ENDBRANCH  74  75
BRANCH  74  90
ATOM     90  C   UNL A   1      33.489  21.962  27.319  1.00  0.00     0.193 C 
BRANCH  90  91
ATOM     91  O   UNL A   1      34.754  21.392  27.654  1.00  0.00    -0.394 OA
ATOM     92  H   UNL A   1      35.403  22.101  27.786  1.00  0.00     0.210 HD
ENDBRANCH  90  91
ENDBRANCH  74  90
ENDBRANCH  72  74
ENDBRANCH  71  72
ENDBRANCH   1  71
TORSDOF 20
ENDMDL
