MODEL 1
REMARK VINA RESULT:     -11.3      0.000      0.000
REMARK SMILES CCOc1ccc(-c2ccc(=O)n(CC(=O)OCCOC(=O)c3ccc(-c4c5nc(c(-c6cccc(S(=O)(=O)[O-])c6F)c6ccc([nH]6)c(-c6cccc(S(=O)(=O)[O-])c6F)c6nc(c(-c7cccc(S(=O)(=O)[O-])c7F)c7ccc4[nH]7)C=C6)C=C5)cc3)n2)cc1
REMARK SMILES IDX 18 1 17 2 15 3 16 4 14 5 13 6 8 7 9 8 86 9 10 10 11 11 12 12
REMARK SMILES IDX 7 13 4 14 5 15 88 16 6 17 87 18 3 19 2 20 1 21 19 22 20 23
REMARK SMILES IDX 21 24 22 25 23 26 24 27 85 28 25 29 84 30 26 31 27 32 28 33
REMARK SMILES IDX 78 34 29 35 83 36 77 37 79 38 30 39 82 40 76 41 75 42 31 44
REMARK SMILES IDX 63 45 43 46 62 47 44 48 47 49 61 50 80 51 45 52 46 53 60 55
REMARK SMILES IDX 81 56 48 57 32 58 33 59 41 60 34 61 36 62 42 63 35 64 37 65
REMARK SMILES IDX 38 66 39 67 40 68 64 69 65 70 73 71 66 72 68 73 74 74 67 75
REMARK SMILES IDX 69 76 70 77 71 78 72 79 49 80 50 81 58 82 51 83 53 84 59 85
REMARK SMILES IDX 52 86 54 87 55 88 56 89 57 90
REMARK H PARENT 79 43 47 54
REMARK Flexibility Score: inf
ROOT
ATOM      1  C   UNL A   1      31.057  29.537  24.533  1.00  0.00     0.274 C 
ENDROOT
BRANCH   1   2
ATOM      2  O   UNL A   1      30.887  28.162  24.141  1.00  0.00    -0.461 OA
BRANCH   2   3
ATOM      3  C   UNL A   1      30.943  27.907  22.805  1.00  0.00     0.328 C 
ATOM      4  O   UNL A   1      30.068  28.220  22.003  1.00  0.00    -0.250 OA
BRANCH   3   5
ATOM      5  C   UNL A   1      32.192  27.156  22.377  1.00  0.00     0.270 C 
BRANCH   5   6
ATOM      6  N   UNL A   1      32.738  26.242  23.370  1.00  0.00    -0.218 N 
ATOM      7  C   UNL A   1      32.886  24.085  24.073  1.00  0.00     0.091 A 
ATOM      8  C   UNL A   1      33.783  24.419  25.192  1.00  0.00     0.036 A 
ATOM      9  N   UNL A   1      32.354  24.933  23.254  1.00  0.00    -0.169 NA
ATOM     10  C   UNL A   1      34.203  25.685  25.232  1.00  0.00     0.075 A 
ATOM     11  C   UNL A   1      33.749  26.661  24.221  1.00  0.00     0.267 A 
ATOM     12  O   UNL A   1      34.279  27.765  24.185  1.00  0.00    -0.268 OA
BRANCH   7  13
ATOM     13  C   UNL A   1      32.682  22.659  23.793  1.00  0.00     0.002 A 
ATOM     14  C   UNL A   1      32.467  19.930  23.398  1.00  0.00     0.119 A 
ATOM     15  C   UNL A   1      32.001  20.812  22.417  1.00  0.00     0.047 A 
ATOM     16  C   UNL A   1      33.076  20.406  24.555  1.00  0.00     0.047 A 
ATOM     17  C   UNL A   1      32.099  22.192  22.616  1.00  0.00     0.014 A 
ATOM     18  C   UNL A   1      33.174  21.774  24.759  1.00  0.00     0.014 A 
BRANCH  14  19
ATOM     19  O   UNL A   1      32.411  18.586  23.152  1.00  0.00    -0.494 OA
BRANCH  19  20
ATOM     20  C   UNL A   1      33.315  17.842  23.978  1.00  0.00     0.226 C 
ATOM     21  C   UNL A   1      34.027  16.744  23.204  1.00  0.00     0.049 C 
ENDBRANCH  19  20
ENDBRANCH  14  19
ENDBRANCH   7  13
ENDBRANCH   5   6
ENDBRANCH   3   5
ENDBRANCH   2   3
ENDBRANCH   1   2
BRANCH   1  22
ATOM     22  C   UNL A   1      31.620  29.601  25.947  1.00  0.00     0.275 C 
BRANCH  22  23
ATOM     23  O   UNL A   1      32.915  30.223  25.904  1.00  0.00    -0.458 OA
BRANCH  23  24
ATOM     24  C   UNL A   1      33.157  31.140  26.871  1.00  0.00     0.338 C 
ATOM     25  O   UNL A   1      32.445  32.074  27.199  1.00  0.00    -0.246 OA
BRANCH  24  26
ATOM     26  C   UNL A   1      34.481  30.869  27.458  1.00  0.00     0.060 A 
ATOM     27  C   UNL A   1      34.874  29.558  27.727  1.00  0.00     0.016 A 
ATOM     28  C   UNL A   1      35.297  31.937  27.824  1.00  0.00     0.016 A 
ATOM     29  C   UNL A   1      36.036  29.313  28.452  1.00  0.00     0.010 A 
ATOM     30  C   UNL A   1      36.514  31.684  28.461  1.00  0.00     0.010 A 
ATOM     31  C   UNL A   1      36.878  30.372  28.814  1.00  0.00    -0.014 A 
BRANCH  31  32
ATOM     32  C   UNL A   1      38.134  30.107  29.561  1.00  0.00     0.031 A 
ATOM     33  C   UNL A   1      39.190  29.201  28.987  1.00  0.00     0.074 A 
ATOM     34  C   UNL A   1      38.316  30.664  30.775  1.00  0.00     0.049 A 
ATOM     35  N   UNL A   1      40.294  28.768  29.541  1.00  0.00    -0.248 NA
ATOM     36  C   UNL A   1      38.970  28.705  27.620  1.00  0.00     0.031 C 
ATOM     37  C   UNL A   1      37.360  31.546  31.449  1.00  0.00     0.029 A 
ATOM     38  N   UNL A   1      39.353  30.555  31.666  1.00  0.00    -0.354 N 
ATOM     39  C   UNL A   1      40.873  27.910  28.613  1.00  0.00     0.074 A 
ATOM     40  C   UNL A   1      39.994  27.877  27.464  1.00  0.00     0.031 C 
ATOM     41  C   UNL A   1      37.854  31.898  32.645  1.00  0.00     0.029 A 
ATOM     42  C   UNL A   1      39.133  31.226  32.846  1.00  0.00     0.049 A 
ATOM     43  H   UNL A   1      40.175  30.046  31.478  1.00  0.00     0.167 HD
ATOM     44  C   UNL A   1      42.041  27.227  28.702  1.00  0.00     0.034 A 
ATOM     45  C   UNL A   1      39.862  31.274  33.977  1.00  0.00     0.034 A 
ATOM     46  C   UNL A   1      42.941  27.305  29.822  1.00  0.00     0.049 A 
ATOM     47  C   UNL A   1      41.165  30.530  34.040  1.00  0.00     0.074 A 
ATOM     48  C   UNL A   1      44.170  26.690  29.984  1.00  0.00     0.029 A 
ATOM     49  N   UNL A   1      42.715  28.050  30.970  1.00  0.00    -0.354 N 
ATOM     50  N   UNL A   1      41.739  29.795  33.119  1.00  0.00    -0.248 NA
ATOM     51  C   UNL A   1      41.933  30.643  35.287  1.00  0.00     0.031 C 
ATOM     52  C   UNL A   1      44.685  27.058  31.232  1.00  0.00     0.029 A 
ATOM     53  C   UNL A   1      43.781  27.910  31.846  1.00  0.00     0.049 A 
ATOM     54  H   UNL A   1      41.915  28.597  31.138  1.00  0.00     0.167 HD
ATOM     55  C   UNL A   1      42.940  29.364  33.669  1.00  0.00     0.074 A 
ATOM     56  C   UNL A   1      43.028  29.955  34.990  1.00  0.00     0.031 C 
ATOM     57  C   UNL A   1      43.873  28.534  33.140  1.00  0.00     0.034 A 
BRANCH  44  58
ATOM     58  C   UNL A   1      42.434  26.368  27.528  1.00  0.00     0.023 A 
ATOM     59  C   UNL A   1      43.173  26.938  26.471  1.00  0.00     0.012 A 
ATOM     60  C   UNL A   1      42.115  24.997  27.487  1.00  0.00     0.148 A 
ATOM     61  C   UNL A   1      43.561  26.165  25.377  1.00  0.00     0.002 A 
ATOM     62  C   UNL A   1      42.539  24.223  26.411  1.00  0.00     0.091 A 
ATOM     63  F   UNL A   1      41.389  24.477  28.487  1.00  0.00    -0.205 F 
ATOM     64  C   UNL A   1      43.253  24.807  25.352  1.00  0.00     0.022 A 
BRANCH  62  65
ATOM     65  S   UNL A   1      42.248  22.452  26.329  1.00  0.00     0.127 S 
ATOM     66  O   UNL A   1      42.893  21.989  27.556  1.00  0.00    -0.237 OA
ATOM     67  O   UNL A   1      40.786  22.372  26.343  1.00  0.00    -0.237 OA
ATOM     68  O   UNL A   1      42.862  22.008  25.085  1.00  0.00    -0.744 OA
ENDBRANCH  62  65
ENDBRANCH  44  58
BRANCH  45  69
ATOM     69  C   UNL A   1      39.376  32.090  35.123  1.00  0.00     0.023 A 
ATOM     70  C   UNL A   1      38.547  31.495  36.093  1.00  0.00     0.012 A 
ATOM     71  C   UNL A   1      39.789  33.426  35.296  1.00  0.00     0.148 A 
ATOM     72  C   UNL A   1      38.127  32.222  37.208  1.00  0.00     0.002 A 
ATOM     73  C   UNL A   1      39.415  34.124  36.438  1.00  0.00     0.091 A 
ATOM     74  F   UNL A   1      40.562  33.980  34.351  1.00  0.00    -0.205 F 
ATOM     75  C   UNL A   1      38.573  33.529  37.388  1.00  0.00     0.022 A 
BRANCH  73  76
ATOM     76  S   UNL A   1      40.063  35.757  36.816  1.00  0.00     0.127 S 
ATOM     77  O   UNL A   1      41.500  35.506  36.856  1.00  0.00    -0.237 OA
ATOM     78  O   UNL A   1      39.607  36.542  35.669  1.00  0.00    -0.237 OA
ATOM     79  O   UNL A   1      39.447  36.137  38.081  1.00  0.00    -0.744 OA
ENDBRANCH  73  76
ENDBRANCH  45  69
BRANCH  57  80
ATOM     80  C   UNL A   1      45.069  28.211  33.996  1.00  0.00     0.023 A 
ATOM     81  C   UNL A   1      46.204  29.045  33.938  1.00  0.00     0.012 A 
ATOM     82  C   UNL A   1      45.056  27.123  34.889  1.00  0.00     0.148 A 
ATOM     83  C   UNL A   1      47.321  28.781  34.729  1.00  0.00     0.002 A 
ATOM     84  C   UNL A   1      46.158  26.890  35.705  1.00  0.00     0.091 A 
ATOM     85  F   UNL A   1      43.978  26.325  34.915  1.00  0.00    -0.205 F 
ATOM     86  C   UNL A   1      47.294  27.711  35.620  1.00  0.00     0.022 A 
BRANCH  84  87
ATOM     87  S   UNL A   1      46.168  25.580  36.937  1.00  0.00     0.127 S 
ATOM     88  O   UNL A   1      46.394  24.395  36.112  1.00  0.00    -0.237 OA
ATOM     89  O   UNL A   1      47.299  25.954  37.788  1.00  0.00    -0.237 OA
ATOM     90  O   UNL A   1      44.872  25.654  37.598  1.00  0.00    -0.744 OA
ENDBRANCH  84  87
ENDBRANCH  57  80
ENDBRANCH  31  32
ENDBRANCH  24  26
ENDBRANCH  23  24
ENDBRANCH  22  23
ENDBRANCH   1  22
TORSDOF 18
ENDMDL
MODEL 2
REMARK VINA RESULT:     -11.0      4.807     10.113
REMARK SMILES CCOc1ccc(-c2ccc(=O)n(CC(=O)OCCOC(=O)c3ccc(-c4c5nc(c(-c6cccc(S(=O)(=O)[O-])c6F)c6ccc([nH]6)c(-c6cccc(S(=O)(=O)[O-])c6F)c6nc(c(-c7cccc(S(=O)(=O)[O-])c7F)c7ccc4[nH]7)C=C6)C=C5)cc3)n2)cc1
REMARK SMILES IDX 18 1 17 2 15 3 16 4 14 5 13 6 8 7 9 8 86 9 10 10 11 11 12 12
REMARK SMILES IDX 7 13 4 14 5 15 88 16 6 17 87 18 3 19 2 20 1 21 19 22 20 23
REMARK SMILES IDX 21 24 22 25 23 26 24 27 85 28 25 29 84 30 26 31 27 32 28 33
REMARK SMILES IDX 78 34 29 35 83 36 77 37 79 38 30 39 82 40 76 41 75 42 31 44
REMARK SMILES IDX 63 45 43 46 62 47 44 48 47 49 61 50 80 51 45 52 46 53 60 55
REMARK SMILES IDX 81 56 48 57 32 58 33 59 41 60 34 61 36 62 42 63 35 64 37 65
REMARK SMILES IDX 38 66 39 67 40 68 64 69 65 70 73 71 66 72 68 73 74 74 67 75
REMARK SMILES IDX 69 76 70 77 71 78 72 79 49 80 50 81 58 82 51 83 53 84 59 85
REMARK SMILES IDX 52 86 54 87 55 88 56 89 57 90
REMARK H PARENT 79 43 47 54
REMARK Flexibility Score: inf
ROOT
ATOM      1  C   UNL A   1      35.270  21.395  24.881  1.00  0.00     0.274 C 
ENDROOT
BRANCH   1   2
ATOM      2  O   UNL A   1      35.597  22.315  23.824  1.00  0.00    -0.461 OA
BRANCH   2   3
ATOM      3  C   UNL A   1      34.556  23.018  23.297  1.00  0.00     0.328 C 
ATOM      4  O   UNL A   1      34.662  24.117  22.761  1.00  0.00    -0.250 OA
BRANCH   3   5
ATOM      5  C   UNL A   1      33.210  22.332  23.460  1.00  0.00     0.270 C 
BRANCH   5   6
ATOM      6  N   UNL A   1      32.275  23.004  24.353  1.00  0.00    -0.218 N 
ATOM      7  C   UNL A   1      31.132  24.918  24.797  1.00  0.00     0.091 A 
ATOM      8  C   UNL A   1      30.455  24.344  25.972  1.00  0.00     0.036 A 
ATOM      9  N   UNL A   1      32.019  24.318  24.071  1.00  0.00    -0.169 NA
ATOM     10  C   UNL A   1      30.661  23.042  26.173  1.00  0.00     0.075 A 
ATOM     11  C   UNL A   1      31.544  22.270  25.274  1.00  0.00     0.267 A 
ATOM     12  O   UNL A   1      31.581  21.051  25.385  1.00  0.00    -0.268 OA
BRANCH   7  13
ATOM     13  C   UNL A   1      30.667  26.234  24.343  1.00  0.00     0.002 A 
ATOM     14  C   UNL A   1      29.935  28.802  23.625  1.00  0.00     0.119 A 
ATOM     15  C   UNL A   1      29.020  27.753  23.479  1.00  0.00     0.047 A 
ATOM     16  C   UNL A   1      31.198  28.578  24.166  1.00  0.00     0.047 A 
ATOM     17  C   UNL A   1      29.388  26.452  23.832  1.00  0.00     0.014 A 
ATOM     18  C   UNL A   1      31.570  27.289  24.515  1.00  0.00     0.014 A 
BRANCH  14  19
ATOM     19  O   UNL A   1      29.529  30.073  23.327  1.00  0.00    -0.494 OA
BRANCH  19  20
ATOM     20  C   UNL A   1      28.106  30.170  23.178  1.00  0.00     0.226 C 
ATOM     21  C   UNL A   1      27.635  31.615  23.109  1.00  0.00     0.049 C 
ENDBRANCH  19  20
ENDBRANCH  14  19
ENDBRANCH   7  13
ENDBRANCH   5   6
ENDBRANCH   3   5
ENDBRANCH   2   3
ENDBRANCH   1   2
BRANCH   1  22
ATOM     22  C   UNL A   1      36.499  20.569  25.241  1.00  0.00     0.275 C 
BRANCH  22  23
ATOM     23  O   UNL A   1      37.674  21.367  25.023  1.00  0.00    -0.458 OA
BRANCH  23  24
ATOM     24  C   UNL A   1      38.748  21.049  25.786  1.00  0.00     0.338 C 
ATOM     25  O   UNL A   1      39.158  19.934  26.056  1.00  0.00    -0.246 OA
BRANCH  24  26
ATOM     26  C   UNL A   1      39.340  22.294  26.307  1.00  0.00     0.060 A 
ATOM     27  C   UNL A   1      38.804  23.530  25.947  1.00  0.00     0.016 A 
ATOM     28  C   UNL A   1      40.493  22.227  27.086  1.00  0.00     0.016 A 
ATOM     29  C   UNL A   1      39.473  24.704  26.281  1.00  0.00     0.010 A 
ATOM     30  C   UNL A   1      41.107  23.408  27.506  1.00  0.00     0.010 A 
ATOM     31  C   UNL A   1      40.624  24.658  27.078  1.00  0.00    -0.014 A 
BRANCH  31  32
ATOM     32  C   UNL A   1      41.320  25.913  27.459  1.00  0.00     0.031 A 
ATOM     33  C   UNL A   1      40.616  26.961  28.279  1.00  0.00     0.074 A 
ATOM     34  C   UNL A   1      42.585  26.124  27.044  1.00  0.00     0.049 A 
ATOM     35  N   UNL A   1      41.024  28.160  28.610  1.00  0.00    -0.248 NA
ATOM     36  C   UNL A   1      39.274  26.624  28.778  1.00  0.00     0.031 C 
ATOM     37  C   UNL A   1      43.371  25.194  26.230  1.00  0.00     0.029 A 
ATOM     38  N   UNL A   1      43.424  27.193  27.231  1.00  0.00    -0.354 N 
ATOM     39  C   UNL A   1      39.972  28.739  29.310  1.00  0.00     0.074 A 
ATOM     40  C   UNL A   1      38.904  27.763  29.348  1.00  0.00     0.031 C 
ATOM     41  C   UNL A   1      44.575  25.732  25.987  1.00  0.00     0.029 A 
ATOM     42  C   UNL A   1      44.628  27.063  26.580  1.00  0.00     0.049 A 
ATOM     43  H   UNL A   1      43.186  27.978  27.777  1.00  0.00     0.167 HD
ATOM     44  C   UNL A   1      39.909  29.965  29.886  1.00  0.00     0.034 A 
ATOM     45  C   UNL A   1      45.652  27.928  26.448  1.00  0.00     0.034 A 
ATOM     46  C   UNL A   1      40.992  30.912  29.896  1.00  0.00     0.049 A 
ATOM     47  C   UNL A   1      45.568  29.270  27.118  1.00  0.00     0.074 A 
ATOM     48  C   UNL A   1      41.042  32.158  30.494  1.00  0.00     0.029 A 
ATOM     49  N   UNL A   1      42.222  30.715  29.284  1.00  0.00    -0.354 N 
ATOM     50  N   UNL A   1      44.601  29.765  27.850  1.00  0.00    -0.248 NA
ATOM     51  C   UNL A   1      46.726  30.160  26.967  1.00  0.00     0.031 C 
ATOM     52  C   UNL A   1      42.299  32.718  30.240  1.00  0.00     0.029 A 
ATOM     53  C   UNL A   1      43.037  31.818  29.490  1.00  0.00     0.049 A 
ATOM     54  H   UNL A   1      42.478  29.911  28.778  1.00  0.00     0.167 HD
ATOM     55  C   UNL A   1      45.035  31.021  28.256  1.00  0.00     0.074 A 
ATOM     56  C   UNL A   1      46.370  31.193  27.719  1.00  0.00     0.031 C 
ATOM     57  C   UNL A   1      44.378  31.959  28.983  1.00  0.00     0.034 A 
BRANCH  44  58
ATOM     58  C   UNL A   1      38.633  30.333  30.598  1.00  0.00     0.023 A 
ATOM     59  C   UNL A   1      38.444  29.923  31.934  1.00  0.00     0.012 A 
ATOM     60  C   UNL A   1      37.645  31.114  29.968  1.00  0.00     0.148 A 
ATOM     61  C   UNL A   1      37.278  30.259  32.622  1.00  0.00     0.002 A 
ATOM     62  C   UNL A   1      36.502  31.477  30.674  1.00  0.00     0.091 A 
ATOM     63  F   UNL A   1      37.828  31.472  28.690  1.00  0.00    -0.205 F 
ATOM     64  C   UNL A   1      36.313  31.043  31.996  1.00  0.00     0.022 A 
BRANCH  62  65
ATOM     65  S   UNL A   1      35.239  32.545  29.970  1.00  0.00     0.127 S 
ATOM     66  O   UNL A   1      34.733  31.722  28.873  1.00  0.00    -0.237 OA
ATOM     67  O   UNL A   1      34.307  32.708  31.087  1.00  0.00    -0.237 OA
ATOM     68  O   UNL A   1      35.928  33.767  29.580  1.00  0.00    -0.744 OA
ENDBRANCH  62  65
ENDBRANCH  44  58
BRANCH  45  69
ATOM     69  C   UNL A   1      46.855  27.520  25.671  1.00  0.00     0.023 A 
ATOM     70  C   UNL A   1      46.907  27.783  24.289  1.00  0.00     0.012 A 
ATOM     71  C   UNL A   1      47.973  26.943  26.305  1.00  0.00     0.148 A 
ATOM     72  C   UNL A   1      48.047  27.466  23.550  1.00  0.00     0.002 A 
ATOM     73  C   UNL A   1      49.126  26.683  25.574  1.00  0.00     0.091 A 
ATOM     74  F   UNL A   1      47.896  26.683  27.618  1.00  0.00    -0.205 F 
ATOM     75  C   UNL A   1      49.160  26.931  24.194  1.00  0.00     0.022 A 
BRANCH  73  76
ATOM     76  S   UNL A   1      50.649  26.133  26.352  1.00  0.00     0.127 S 
ATOM     77  O   UNL A   1      51.613  26.289  25.267  1.00  0.00    -0.237 OA
ATOM     78  O   UNL A   1      50.796  27.090  27.449  1.00  0.00    -0.237 OA
ATOM     79  O   UNL A   1      50.393  24.765  26.784  1.00  0.00    -0.744 OA
ENDBRANCH  73  76
ENDBRANCH  45  69
BRANCH  57  80
ATOM     80  C   UNL A   1      45.095  33.258  29.236  1.00  0.00     0.023 A 
ATOM     81  C   UNL A   1      45.881  33.397  30.399  1.00  0.00     0.012 A 
ATOM     82  C   UNL A   1      45.037  34.317  28.311  1.00  0.00     0.148 A 
ATOM     83  C   UNL A   1      46.569  34.583  30.653  1.00  0.00     0.002 A 
ATOM     84  C   UNL A   1      45.759  35.481  28.551  1.00  0.00     0.091 A 
ATOM     85  F   UNL A   1      44.266  34.178  27.222  1.00  0.00    -0.205 F 
ATOM     86  C   UNL A   1      46.517  35.620  29.725  1.00  0.00     0.022 A 
BRANCH  84  87
ATOM     87  S   UNL A   1      45.808  36.831  27.365  1.00  0.00     0.127 S 
ATOM     88  O   UNL A   1      46.771  37.740  27.985  1.00  0.00    -0.237 OA
ATOM     89  O   UNL A   1      46.289  36.170  26.151  1.00  0.00    -0.237 OA
ATOM     90  O   UNL A   1      44.439  37.323  27.275  1.00  0.00    -0.744 OA
ENDBRANCH  84  87
ENDBRANCH  57  80
ENDBRANCH  31  32
ENDBRANCH  24  26
ENDBRANCH  23  24
ENDBRANCH  22  23
ENDBRANCH   1  22
TORSDOF 18
ENDMDL
MODEL 3
REMARK VINA RESULT:     -11.0      1.551      2.004
REMARK SMILES CCOc1ccc(-c2ccc(=O)n(CC(=O)OCCOC(=O)c3ccc(-c4c5nc(c(-c6cccc(S(=O)(=O)[O-])c6F)c6ccc([nH]6)c(-c6cccc(S(=O)(=O)[O-])c6F)c6nc(c(-c7cccc(S(=O)(=O)[O-])c7F)c7ccc4[nH]7)C=C6)C=C5)cc3)n2)cc1
REMARK SMILES IDX 18 1 17 2 15 3 16 4 14 5 13 6 8 7 9 8 86 9 10 10 11 11 12 12
REMARK SMILES IDX 7 13 4 14 5 15 88 16 6 17 87 18 3 19 2 20 1 21 19 22 20 23
REMARK SMILES IDX 21 24 22 25 23 26 24 27 85 28 25 29 84 30 26 31 27 32 28 33
REMARK SMILES IDX 78 34 29 35 83 36 77 37 79 38 30 39 82 40 76 41 75 42 31 44
REMARK SMILES IDX 63 45 43 46 62 47 44 48 47 49 61 50 80 51 45 52 46 53 60 55
REMARK SMILES IDX 81 56 48 57 32 58 33 59 41 60 34 61 36 62 42 63 35 64 37 65
REMARK SMILES IDX 38 66 39 67 40 68 64 69 65 70 73 71 66 72 68 73 74 74 67 75
REMARK SMILES IDX 69 76 70 77 71 78 72 79 49 80 50 81 58 82 51 83 53 84 59 85
REMARK SMILES IDX 52 86 54 87 55 88 56 89 57 90
REMARK H PARENT 79 43 47 54
REMARK Flexibility Score: inf
ROOT
ATOM      1  C   UNL A   1      31.642  29.009  25.893  1.00  0.00     0.274 C 
ENDROOT
BRANCH   1   2
ATOM      2  O   UNL A   1      32.691  28.127  26.334  1.00  0.00    -0.461 OA
BRANCH   2   3
ATOM      3  C   UNL A   1      32.681  26.873  25.804  1.00  0.00     0.328 C 
ATOM      4  O   UNL A   1      31.799  26.043  26.003  1.00  0.00    -0.250 OA
BRANCH   3   5
ATOM      5  C   UNL A   1      33.899  26.559  24.951  1.00  0.00     0.270 C 
BRANCH   5   6
ATOM      6  N   UNL A   1      33.690  25.557  23.915  1.00  0.00    -0.218 N 
ATOM      7  C   UNL A   1      33.672  23.342  23.407  1.00  0.00     0.091 A 
ATOM      8  C   UNL A   1      33.257  23.576  22.013  1.00  0.00     0.036 A 
ATOM      9  N   UNL A   1      33.926  24.260  24.282  1.00  0.00    -0.169 NA
ATOM     10  C   UNL A   1      32.958  24.839  21.708  1.00  0.00     0.075 A 
ATOM     11  C   UNL A   1      33.079  25.908  22.721  1.00  0.00     0.267 A 
ATOM     12  O   UNL A   1      32.640  27.021  22.461  1.00  0.00    -0.268 OA
BRANCH   7  13
ATOM     13  C   UNL A   1      33.673  21.949  23.871  1.00  0.00     0.002 A 
ATOM     14  C   UNL A   1      33.457  19.336  24.752  1.00  0.00     0.119 A 
ATOM     15  C   UNL A   1      34.628  20.060  25.004  1.00  0.00     0.047 A 
ATOM     16  C   UNL A   1      32.380  19.928  24.098  1.00  0.00     0.047 A 
ATOM     17  C   UNL A   1      34.746  21.377  24.553  1.00  0.00     0.014 A 
ATOM     18  C   UNL A   1      32.491  21.233  23.645  1.00  0.00     0.014 A 
BRANCH  14  19
ATOM     19  O   UNL A   1      33.347  18.070  25.255  1.00  0.00    -0.494 OA
BRANCH  19  20
ATOM     20  C   UNL A   1      33.004  17.110  24.247  1.00  0.00     0.226 C 
ATOM     21  C   UNL A   1      34.060  17.025  23.155  1.00  0.00     0.049 C 
ENDBRANCH  19  20
ENDBRANCH  14  19
ENDBRANCH   7  13
ENDBRANCH   5   6
ENDBRANCH   3   5
ENDBRANCH   2   3
ENDBRANCH   1   2
BRANCH   1  22
ATOM     22  C   UNL A   1      31.987  30.445  26.270  1.00  0.00     0.275 C 
BRANCH  22  23
ATOM     23  O   UNL A   1      33.412  30.557  26.417  1.00  0.00    -0.458 OA
BRANCH  23  24
ATOM     24  C   UNL A   1      33.838  31.468  27.325  1.00  0.00     0.338 C 
ATOM     25  O   UNL A   1      33.278  32.499  27.655  1.00  0.00    -0.246 OA
BRANCH  24  26
ATOM     26  C   UNL A   1      35.153  31.045  27.838  1.00  0.00     0.060 A 
ATOM     27  C   UNL A   1      35.361  29.721  28.224  1.00  0.00     0.016 A 
ATOM     28  C   UNL A   1      36.154  31.996  28.017  1.00  0.00     0.016 A 
ATOM     29  C   UNL A   1      36.533  29.363  28.883  1.00  0.00     0.010 A 
ATOM     30  C   UNL A   1      37.370  31.613  28.586  1.00  0.00     0.010 A 
ATOM     31  C   UNL A   1      37.559  30.302  29.058  1.00  0.00    -0.014 A 
BRANCH  31  32
ATOM     32  C   UNL A   1      38.822  29.912  29.734  1.00  0.00     0.031 A 
ATOM     33  C   UNL A   1      39.735  28.885  29.118  1.00  0.00     0.074 A 
ATOM     34  C   UNL A   1      39.138  30.464  30.922  1.00  0.00     0.049 A 
ATOM     35  N   UNL A   1      40.818  28.342  29.614  1.00  0.00    -0.248 NA
ATOM     36  C   UNL A   1      39.378  28.396  27.777  1.00  0.00     0.031 C 
ATOM     37  C   UNL A   1      38.329  31.456  31.632  1.00  0.00     0.029 A 
ATOM     38  N   UNL A   1      40.211  30.255  31.751  1.00  0.00    -0.354 N 
ATOM     39  C   UNL A   1      41.241  27.411  28.673  1.00  0.00     0.074 A 
ATOM     40  C   UNL A   1      40.294  27.458  27.579  1.00  0.00     0.031 C 
ATOM     41  C   UNL A   1      38.931  31.769  32.789  1.00  0.00     0.029 A 
ATOM     42  C   UNL A   1      40.139  30.964  32.927  1.00  0.00     0.049 A 
ATOM     43  H   UNL A   1      40.959  29.655  31.527  1.00  0.00     0.167 HD
ATOM     44  C   UNL A   1      42.330  26.605  28.707  1.00  0.00     0.034 A 
ATOM     45  C   UNL A   1      40.938  30.949  34.012  1.00  0.00     0.034 A 
ATOM     46  C   UNL A   1      43.302  26.600  29.768  1.00  0.00     0.049 A 
ATOM     47  C   UNL A   1      42.153  30.066  34.013  1.00  0.00     0.074 A 
ATOM     48  C   UNL A   1      44.464  25.856  29.870  1.00  0.00     0.029 A 
ATOM     49  N   UNL A   1      43.230  27.383  30.911  1.00  0.00    -0.354 N 
ATOM     50  N   UNL A   1      42.585  29.258  33.075  1.00  0.00    -0.248 NA
ATOM     51  C   UNL A   1      43.005  30.113  35.208  1.00  0.00     0.031 C 
ATOM     52  C   UNL A   1      45.092  26.185  31.077  1.00  0.00     0.029 A 
ATOM     53  C   UNL A   1      44.326  27.140  31.724  1.00  0.00     0.049 A 
ATOM     54  H   UNL A   1      42.507  28.018  31.115  1.00  0.00     0.167 HD
ATOM     55  C   UNL A   1      43.764  28.706  33.562  1.00  0.00     0.074 A 
ATOM     56  C   UNL A   1      43.997  29.304  34.862  1.00  0.00     0.031 C 
ATOM     57  C   UNL A   1      44.566  27.770  32.996  1.00  0.00     0.034 A 
BRANCH  44  58
ATOM     58  C   UNL A   1      42.554  25.690  27.531  1.00  0.00     0.023 A 
ATOM     59  C   UNL A   1      43.284  26.158  26.419  1.00  0.00     0.012 A 
ATOM     60  C   UNL A   1      42.085  24.362  27.539  1.00  0.00     0.148 A 
ATOM     61  C   UNL A   1      43.517  25.330  25.321  1.00  0.00     0.002 A 
ATOM     62  C   UNL A   1      42.355  23.530  26.456  1.00  0.00     0.091 A 
ATOM     63  F   UNL A   1      41.371  23.940  28.592  1.00  0.00    -0.205 F 
ATOM     64  C   UNL A   1      43.061  24.015  25.344  1.00  0.00     0.022 A 
BRANCH  62  65
ATOM     65  S   UNL A   1      41.868  21.800  26.432  1.00  0.00     0.127 S 
ATOM     66  O   UNL A   1      40.426  21.901  26.218  1.00  0.00    -0.237 OA
ATOM     67  O   UNL A   1      42.617  21.279  25.287  1.00  0.00    -0.237 OA
ATOM     68  O   UNL A   1      42.281  21.255  27.718  1.00  0.00    -0.744 OA
ENDBRANCH  62  65
ENDBRANCH  44  58
BRANCH  45  69
ATOM     69  C   UNL A   1      40.616  31.831  35.167  1.00  0.00     0.023 A 
ATOM     70  C   UNL A   1      41.430  32.950  35.430  1.00  0.00     0.012 A 
ATOM     71  C   UNL A   1      39.471  31.612  35.957  1.00  0.00     0.148 A 
ATOM     72  C   UNL A   1      41.115  33.826  36.469  1.00  0.00     0.002 A 
ATOM     73  C   UNL A   1      39.132  32.520  36.953  1.00  0.00     0.091 A 
ATOM     74  F   UNL A   1      38.720  30.530  35.703  1.00  0.00    -0.205 F 
ATOM     75  C   UNL A   1      39.960  33.620  37.219  1.00  0.00     0.022 A 
BRANCH  73  76
ATOM     76  S   UNL A   1      37.588  32.409  37.864  1.00  0.00     0.127 S 
ATOM     77  O   UNL A   1      37.851  33.281  39.006  1.00  0.00    -0.237 OA
ATOM     78  O   UNL A   1      36.623  32.934  36.898  1.00  0.00    -0.237 OA
ATOM     79  O   UNL A   1      37.417  30.995  38.170  1.00  0.00    -0.744 OA
ENDBRANCH  73  76
ENDBRANCH  45  69
BRANCH  57  80
ATOM     80  C   UNL A   1      45.770  27.331  33.786  1.00  0.00     0.023 A 
ATOM     81  C   UNL A   1      46.994  28.008  33.611  1.00  0.00     0.012 A 
ATOM     82  C   UNL A   1      45.685  26.291  34.731  1.00  0.00     0.148 A 
ATOM     83  C   UNL A   1      48.123  27.634  34.339  1.00  0.00     0.002 A 
ATOM     84  C   UNL A   1      46.804  25.951  35.483  1.00  0.00     0.091 A 
ATOM     85  F   UNL A   1      44.520  25.640  34.868  1.00  0.00    -0.205 F 
ATOM     86  C   UNL A   1      48.025  26.614  35.282  1.00  0.00     0.022 A 
BRANCH  84  87
ATOM     87  S   UNL A   1      46.739  24.701  36.774  1.00  0.00     0.127 S 
ATOM     88  O   UNL A   1      46.443  23.493  36.007  1.00  0.00    -0.237 OA
ATOM     89  O   UNL A   1      48.090  24.753  37.334  1.00  0.00    -0.237 OA
ATOM     90  O   UNL A   1      45.695  25.141  37.692  1.00  0.00    -0.744 OA
ENDBRANCH  84  87
ENDBRANCH  57  80
ENDBRANCH  31  32
ENDBRANCH  24  26
ENDBRANCH  23  24
ENDBRANCH  22  23
ENDBRANCH   1  22
TORSDOF 18
ENDMDL
