MODEL 1
REMARK VINA RESULT:     -10.2      0.000      0.000
REMARK SMILES O=C(/C=C/c1ccc(O)c(O)c1)OCCOC(=O)c1ccc(-c2c3nc(c(-c4cccc(S(=O)(=O)[O-])c4F)c4ccc([nH]4)c(-c4cccc(S(=O)(=O)[O-])c4F)c4nc(c(-c5cccc(S(=O)(=O)[O-])c5F)c5ccc2[nH]5)C=C4)C=C3)cc1
REMARK SMILES IDX 15 1 14 2 13 3 2 4 1 5 3 6 4 7 5 8 6 9 12 10 7 11 10 12 8 13
REMARK SMILES IDX 11 14 9 16 16 18 17 19 18 20 19 21 20 22 81 23 21 24 80 25
REMARK SMILES IDX 22 26 23 27 24 28 74 29 25 30 79 31 73 32 75 33 26 34 78 35
REMARK SMILES IDX 72 36 71 37 27 39 59 40 39 41 58 42 40 43 43 44 57 45 76 46
REMARK SMILES IDX 41 47 42 48 56 50 77 51 44 52 28 53 29 54 37 55 30 56 32 57
REMARK SMILES IDX 38 58 31 59 33 60 34 61 35 62 36 63 60 64 61 65 69 66 62 67
REMARK SMILES IDX 64 68 70 69 63 70 65 71 66 72 67 73 68 74 45 75 46 76 54 77
REMARK SMILES IDX 47 78 49 79 55 80 48 81 50 82 51 83 52 84 53 85
REMARK H PARENT 11 15 9 17 75 38 43 49
REMARK Flexibility Score: inf
ROOT
ATOM      1  C   UNL A   1      42.870  19.308  26.044  1.00  0.00     0.275 C 
ENDROOT
BRANCH   1   2
ATOM      2  C   UNL A   1      43.800  18.893  24.899  1.00  0.00     0.275 C 
BRANCH   2   3
ATOM      3  O   UNL A   1      45.210  18.905  25.200  1.00  0.00    -0.459 OA
BRANCH   3   4
ATOM      4  C   UNL A   1      46.137  19.836  24.879  1.00  0.00     0.330 C 
ATOM      5  O   UNL A   1      47.329  19.538  24.853  1.00  0.00    -0.247 OA
BRANCH   4   6
ATOM      6  C   UNL A   1      45.776  21.257  24.739  1.00  0.00     0.094 C 
ATOM      7  C   UNL A   1      45.308  22.102  25.667  1.00  0.00     0.016 C 
BRANCH   7   8
ATOM      8  C   UNL A   1      45.191  23.546  25.424  1.00  0.00    -0.021 A 
ATOM      9  C   UNL A   1      46.304  24.396  25.347  1.00  0.00     0.012 A 
ATOM     10  C   UNL A   1      43.904  24.083  25.270  1.00  0.00     0.058 A 
ATOM     11  C   UNL A   1      46.138  25.769  25.123  1.00  0.00     0.051 A 
ATOM     12  C   UNL A   1      43.749  25.445  25.052  1.00  0.00     0.157 A 
ATOM     13  C   UNL A   1      44.856  26.283  24.975  1.00  0.00     0.157 A 
BRANCH  12  14
ATOM     14  O   UNL A   1      42.491  25.959  24.924  1.00  0.00    -0.504 OA
ATOM     15  H   UNL A   1      41.877  25.879  25.628  1.00  0.00     0.293 HD
ENDBRANCH  12  14
BRANCH  13  16
ATOM     16  O   UNL A   1      44.628  27.612  24.750  1.00  0.00    -0.504 OA
ATOM     17  H   UNL A   1      44.774  27.974  23.898  1.00  0.00     0.293 HD
ENDBRANCH  13  16
ENDBRANCH   7   8
ENDBRANCH   4   6
ENDBRANCH   3   4
ENDBRANCH   2   3
ENDBRANCH   1   2
BRANCH   1  18
ATOM     18  O   UNL A   1      42.212  20.560  25.815  1.00  0.00    -0.458 OA
BRANCH  18  19
ATOM     19  C   UNL A   1      41.160  20.799  26.639  1.00  0.00     0.338 C 
ATOM     20  O   UNL A   1      40.253  20.022  26.892  1.00  0.00    -0.246 OA
BRANCH  19  21
ATOM     21  C   UNL A   1      41.315  22.104  27.322  1.00  0.00     0.060 A 
ATOM     22  C   UNL A   1      40.568  23.180  26.825  1.00  0.00     0.016 A 
ATOM     23  C   UNL A   1      42.184  22.295  28.401  1.00  0.00     0.016 A 
ATOM     24  C   UNL A   1      40.737  24.458  27.360  1.00  0.00     0.010 A 
ATOM     25  C   UNL A   1      42.343  23.577  28.944  1.00  0.00     0.010 A 
ATOM     26  C   UNL A   1      41.660  24.675  28.393  1.00  0.00    -0.014 A 
BRANCH  26  27
ATOM     27  C   UNL A   1      42.015  26.071  28.763  1.00  0.00     0.031 A 
ATOM     28  C   UNL A   1      43.461  26.494  28.731  1.00  0.00     0.074 A 
ATOM     29  C   UNL A   1      41.067  26.975  29.079  1.00  0.00     0.049 A 
ATOM     30  N   UNL A   1      43.982  27.681  28.909  1.00  0.00    -0.248 NA
ATOM     31  C   UNL A   1      44.453  25.438  28.464  1.00  0.00     0.031 C 
ATOM     32  C   UNL A   1      39.634  26.706  29.164  1.00  0.00     0.029 A 
ATOM     33  N   UNL A   1      41.179  28.308  29.389  1.00  0.00    -0.354 N 
ATOM     34  C   UNL A   1      45.357  27.514  28.796  1.00  0.00     0.074 A 
ATOM     35  C   UNL A   1      45.593  26.106  28.562  1.00  0.00     0.031 C 
ATOM     36  C   UNL A   1      38.998  27.840  29.508  1.00  0.00     0.029 A 
ATOM     37  C   UNL A   1      39.977  28.913  29.673  1.00  0.00     0.049 A 
ATOM     38  H   UNL A   1      42.039  28.787  29.406  1.00  0.00     0.167 HD
ATOM     39  C   UNL A   1      46.338  28.445  28.855  1.00  0.00     0.034 A 
ATOM     40  C   UNL A   1      39.699  30.187  30.019  1.00  0.00     0.034 A 
ATOM     41  C   UNL A   1      46.115  29.850  29.065  1.00  0.00     0.049 A 
ATOM     42  C   UNL A   1      40.810  31.206  30.080  1.00  0.00     0.074 A 
ATOM     43  C   UNL A   1      47.044  30.876  29.080  1.00  0.00     0.029 A 
ATOM     44  N   UNL A   1      44.880  30.428  29.311  1.00  0.00    -0.354 N 
ATOM     45  N   UNL A   1      42.086  31.058  29.822  1.00  0.00    -0.248 NA
ATOM     46  C   UNL A   1      40.430  32.583  30.436  1.00  0.00     0.031 C 
ATOM     47  C   UNL A   1      46.375  32.070  29.370  1.00  0.00     0.029 A 
ATOM     48  C   UNL A   1      45.023  31.793  29.493  1.00  0.00     0.049 A 
ATOM     49  H   UNL A   1      44.026  29.939  29.351  1.00  0.00     0.167 HD
ATOM     50  C   UNL A   1      42.649  32.327  29.928  1.00  0.00     0.074 A 
ATOM     51  C   UNL A   1      41.573  33.234  30.266  1.00  0.00     0.031 C 
ATOM     52  C   UNL A   1      43.942  32.704  29.765  1.00  0.00     0.034 A 
BRANCH  39  53
ATOM     53  C   UNL A   1      47.756  27.974  28.666  1.00  0.00     0.023 A 
ATOM     54  C   UNL A   1      48.498  27.521  29.777  1.00  0.00     0.012 A 
ATOM     55  C   UNL A   1      48.337  27.931  27.384  1.00  0.00     0.148 A 
ATOM     56  C   UNL A   1      49.807  27.069  29.620  1.00  0.00     0.002 A 
ATOM     57  C   UNL A   1      49.625  27.435  27.228  1.00  0.00     0.091 A 
ATOM     58  F   UNL A   1      47.624  28.387  26.344  1.00  0.00    -0.205 F 
ATOM     59  C   UNL A   1      50.366  27.016  28.345  1.00  0.00     0.022 A 
BRANCH  57  60
ATOM     60  S   UNL A   1      50.399  27.248  25.619  1.00  0.00     0.127 S 
ATOM     61  O   UNL A   1      51.741  26.797  25.988  1.00  0.00    -0.237 OA
ATOM     62  O   UNL A   1      49.564  26.225  24.991  1.00  0.00    -0.237 OA
ATOM     63  O   UNL A   1      50.332  28.558  24.987  1.00  0.00    -0.744 OA
ENDBRANCH  57  60
ENDBRANCH  39  53
BRANCH  40  64
ATOM     64  C   UNL A   1      38.290  30.600  30.281  1.00  0.00     0.023 A 
ATOM     65  C   UNL A   1      37.785  30.563  31.596  1.00  0.00     0.012 A 
ATOM     66  C   UNL A   1      37.447  31.015  29.233  1.00  0.00     0.148 A 
ATOM     67  C   UNL A   1      36.455  30.892  31.857  1.00  0.00     0.002 A 
ATOM     68  C   UNL A   1      36.139  31.394  29.507  1.00  0.00     0.091 A 
ATOM     69  F   UNL A   1      37.943  31.028  27.987  1.00  0.00    -0.205 F 
ATOM     70  C   UNL A   1      35.635  31.315  30.815  1.00  0.00     0.022 A 
BRANCH  68  71
ATOM     71  S   UNL A   1      35.052  32.069  28.247  1.00  0.00     0.127 S 
ATOM     72  O   UNL A   1      35.898  33.092  27.638  1.00  0.00    -0.237 OA
ATOM     73  O   UNL A   1      34.799  30.895  27.409  1.00  0.00    -0.237 OA
ATOM     74  O   UNL A   1      33.880  32.559  28.961  1.00  0.00    -0.744 OA
ENDBRANCH  68  71
ENDBRANCH  40  64
BRANCH  52  75
ATOM     75  C   UNL A   1      44.272  34.172  29.879  1.00  0.00     0.023 A 
ATOM     76  C   UNL A   1      44.632  34.726  31.123  1.00  0.00     0.012 A 
ATOM     77  C   UNL A   1      44.291  34.990  28.731  1.00  0.00     0.148 A 
ATOM     78  C   UNL A   1      44.962  36.078  31.231  1.00  0.00     0.002 A 
ATOM     79  C   UNL A   1      44.673  36.323  28.836  1.00  0.00     0.091 A 
ATOM     80  F   UNL A   1      43.929  34.454  27.556  1.00  0.00    -0.205 F 
ATOM     81  C   UNL A   1      44.995  36.872  30.087  1.00  0.00     0.022 A 
BRANCH  79  82
ATOM     82  S   UNL A   1      44.840  37.389  27.399  1.00  0.00     0.127 S 
ATOM     83  O   UNL A   1      43.466  37.438  26.902  1.00  0.00    -0.237 OA
ATOM     84  O   UNL A   1      45.319  38.639  27.991  1.00  0.00    -0.237 OA
ATOM     85  O   UNL A   1      45.802  36.731  26.525  1.00  0.00    -0.744 OA
ENDBRANCH  79  82
ENDBRANCH  52  75
ENDBRANCH  26  27
ENDBRANCH  19  21
ENDBRANCH  18  19
ENDBRANCH   1  18
TORSDOF 17
ENDMDL
MODEL 2
REMARK VINA RESULT:     -10.0      5.258     11.923
REMARK SMILES O=C(/C=C/c1ccc(O)c(O)c1)OCCOC(=O)c1ccc(-c2c3nc(c(-c4cccc(S(=O)(=O)[O-])c4F)c4ccc([nH]4)c(-c4cccc(S(=O)(=O)[O-])c4F)c4nc(c(-c5cccc(S(=O)(=O)[O-])c5F)c5ccc2[nH]5)C=C4)C=C3)cc1
REMARK SMILES IDX 15 1 14 2 13 3 2 4 1 5 3 6 4 7 5 8 6 9 12 10 7 11 10 12 8 13
REMARK SMILES IDX 11 14 9 16 16 18 17 19 18 20 19 21 20 22 81 23 21 24 80 25
REMARK SMILES IDX 22 26 23 27 24 28 74 29 25 30 79 31 73 32 75 33 26 34 78 35
REMARK SMILES IDX 72 36 71 37 27 39 59 40 39 41 58 42 40 43 43 44 57 45 76 46
REMARK SMILES IDX 41 47 42 48 56 50 77 51 44 52 28 53 29 54 37 55 30 56 32 57
REMARK SMILES IDX 38 58 31 59 33 60 34 61 35 62 36 63 60 64 61 65 69 66 62 67
REMARK SMILES IDX 64 68 70 69 63 70 65 71 66 72 67 73 68 74 45 75 46 76 54 77
REMARK SMILES IDX 47 78 49 79 55 80 48 81 50 82 51 83 52 84 53 85
REMARK H PARENT 11 15 9 17 75 38 43 49
REMARK Flexibility Score: inf
ROOT
ATOM      1  C   UNL A   1      33.381  34.196  28.463  1.00  0.00     0.275 C 
ENDROOT
BRANCH   1   2
ATOM      2  C   UNL A   1      33.628  35.596  29.032  1.00  0.00     0.275 C 
BRANCH   2   3
ATOM      3  O   UNL A   1      34.035  35.648  30.415  1.00  0.00    -0.459 OA
BRANCH   3   4
ATOM      4  C   UNL A   1      33.584  34.917  31.459  1.00  0.00     0.330 C 
ATOM      5  O   UNL A   1      32.525  35.210  32.007  1.00  0.00    -0.247 OA
BRANCH   4   6
ATOM      6  C   UNL A   1      34.424  33.880  32.085  1.00  0.00     0.094 C 
ATOM      7  C   UNL A   1      34.816  32.701  31.586  1.00  0.00     0.016 C 
BRANCH   7   8
ATOM      8  C   UNL A   1      35.825  31.865  32.250  1.00  0.00    -0.021 A 
ATOM      9  C   UNL A   1      36.182  30.591  31.785  1.00  0.00     0.012 A 
ATOM     10  C   UNL A   1      36.446  32.375  33.400  1.00  0.00     0.058 A 
ATOM     11  C   UNL A   1      37.144  29.829  32.460  1.00  0.00     0.051 A 
ATOM     12  C   UNL A   1      37.395  31.612  34.065  1.00  0.00     0.157 A 
ATOM     13  C   UNL A   1      37.746  30.350  33.598  1.00  0.00     0.157 A 
BRANCH  12  14
ATOM     14  O   UNL A   1      37.977  32.111  35.195  1.00  0.00    -0.504 OA
ATOM     15  H   UNL A   1      38.058  31.572  35.957  1.00  0.00     0.293 HD
ENDBRANCH  12  14
BRANCH  13  16
ATOM     16  O   UNL A   1      38.695  29.659  34.299  1.00  0.00    -0.504 OA
ATOM     17  H   UNL A   1      38.534  29.414  35.189  1.00  0.00     0.293 HD
ENDBRANCH  13  16
ENDBRANCH   7   8
ENDBRANCH   4   6
ENDBRANCH   3   4
ENDBRANCH   2   3
ENDBRANCH   1   2
BRANCH   1  18
ATOM     18  O   UNL A   1      34.552  33.601  27.890  1.00  0.00    -0.458 OA
BRANCH  18  19
ATOM     19  C   UNL A   1      34.562  32.244  27.915  1.00  0.00     0.338 C 
ATOM     20  O   UNL A   1      33.618  31.513  27.659  1.00  0.00    -0.246 OA
BRANCH  19  21
ATOM     21  C   UNL A   1      35.929  31.734  28.165  1.00  0.00     0.060 A 
ATOM     22  C   UNL A   1      36.152  30.367  27.954  1.00  0.00     0.016 A 
ATOM     23  C   UNL A   1      36.969  32.549  28.622  1.00  0.00     0.016 A 
ATOM     24  C   UNL A   1      37.391  29.803  28.261  1.00  0.00     0.010 A 
ATOM     25  C   UNL A   1      38.216  31.982  28.919  1.00  0.00     0.010 A 
ATOM     26  C   UNL A   1      38.418  30.597  28.789  1.00  0.00    -0.014 A 
BRANCH  26  27
ATOM     27  C   UNL A   1      39.625  29.936  29.352  1.00  0.00     0.031 A 
ATOM     28  C   UNL A   1      40.253  30.496  30.602  1.00  0.00     0.074 A 
ATOM     29  C   UNL A   1      40.138  28.821  28.796  1.00  0.00     0.049 A 
ATOM     30  N   UNL A   1      41.237  30.019  31.321  1.00  0.00    -0.248 NA
ATOM     31  C   UNL A   1      39.699  31.762  31.110  1.00  0.00     0.031 C 
ATOM     32  C   UNL A   1      39.645  28.176  27.581  1.00  0.00     0.029 A 
ATOM     33  N   UNL A   1      41.195  28.037  29.188  1.00  0.00    -0.354 N 
ATOM     34  C   UNL A   1      41.434  30.932  32.350  1.00  0.00     0.074 A 
ATOM     35  C   UNL A   1      40.486  32.007  32.147  1.00  0.00     0.031 C 
ATOM     36  C   UNL A   1      40.402  27.094  27.324  1.00  0.00     0.029 A 
ATOM     37  C   UNL A   1      41.436  26.973  28.351  1.00  0.00     0.049 A 
ATOM     38  H   UNL A   1      41.731  28.219  29.994  1.00  0.00     0.167 HD
ATOM     39  C   UNL A   1      42.304  30.877  33.387  1.00  0.00     0.034 A 
ATOM     40  C   UNL A   1      42.377  26.008  28.411  1.00  0.00     0.034 A 
ATOM     41  C   UNL A   1      43.235  29.805  33.611  1.00  0.00     0.049 A 
ATOM     42  C   UNL A   1      43.337  25.970  29.574  1.00  0.00     0.074 A 
ATOM     43  C   UNL A   1      44.113  29.636  34.667  1.00  0.00     0.029 A 
ATOM     44  N   UNL A   1      43.422  28.728  32.761  1.00  0.00    -0.354 N 
ATOM     45  N   UNL A   1      43.407  26.760  30.618  1.00  0.00    -0.248 NA
ATOM     46  C   UNL A   1      44.319  24.873  29.590  1.00  0.00     0.031 C 
ATOM     47  C   UNL A   1      44.856  28.473  34.438  1.00  0.00     0.029 A 
ATOM     48  C   UNL A   1      44.410  27.896  33.260  1.00  0.00     0.049 A 
ATOM     49  H   UNL A   1      42.925  28.576  31.925  1.00  0.00     0.167 HD
ATOM     50  C   UNL A   1      44.398  26.226  31.438  1.00  0.00     0.074 A 
ATOM     51  C   UNL A   1      44.894  25.039  30.774  1.00  0.00     0.031 C 
ATOM     52  C   UNL A   1      44.857  26.681  32.630  1.00  0.00     0.034 A 
BRANCH  39  53
ATOM     53  C   UNL A   1      42.274  32.009  34.380  1.00  0.00     0.023 A 
ATOM     54  C   UNL A   1      42.834  33.257  34.037  1.00  0.00     0.012 A 
ATOM     55  C   UNL A   1      41.648  31.854  35.632  1.00  0.00     0.148 A 
ATOM     56  C   UNL A   1      42.804  34.321  34.938  1.00  0.00     0.002 A 
ATOM     57  C   UNL A   1      41.580  32.931  36.506  1.00  0.00     0.091 A 
ATOM     58  F   UNL A   1      41.141  30.653  35.948  1.00  0.00    -0.205 F 
ATOM     59  C   UNL A   1      42.168  34.161  36.167  1.00  0.00     0.022 A 
BRANCH  57  60
ATOM     60  S   UNL A   1      40.710  32.848  38.074  1.00  0.00     0.127 S 
ATOM     61  O   UNL A   1      41.574  31.954  38.843  1.00  0.00    -0.237 OA
ATOM     62  O   UNL A   1      40.733  34.243  38.514  1.00  0.00    -0.237 OA
ATOM     63  O   UNL A   1      39.384  32.330  37.771  1.00  0.00    -0.744 OA
ENDBRANCH  57  60
ENDBRANCH  39  53
BRANCH  40  64
ATOM     64  C   UNL A   1      42.430  24.950  27.363  1.00  0.00     0.023 A 
ATOM     65  C   UNL A   1      43.317  25.086  26.277  1.00  0.00     0.012 A 
ATOM     66  C   UNL A   1      41.597  23.817  27.430  1.00  0.00     0.148 A 
ATOM     67  C   UNL A   1      43.345  24.135  25.256  1.00  0.00     0.002 A 
ATOM     68  C   UNL A   1      41.668  22.846  26.439  1.00  0.00     0.091 A 
ATOM     69  F   UNL A   1      40.749  23.714  28.464  1.00  0.00    -0.205 F 
ATOM     70  C   UNL A   1      42.527  23.012  25.341  1.00  0.00     0.022 A 
BRANCH  68  71
ATOM     71  S   UNL A   1      40.742  21.310  26.533  1.00  0.00     0.127 S 
ATOM     72  O   UNL A   1      41.544  20.425  25.691  1.00  0.00    -0.237 OA
ATOM     73  O   UNL A   1      40.793  21.016  27.966  1.00  0.00    -0.237 OA
ATOM     74  O   UNL A   1      39.410  21.623  26.032  1.00  0.00    -0.744 OA
ENDBRANCH  68  71
ENDBRANCH  40  64
BRANCH  52  75
ATOM     75  C   UNL A   1      45.907  25.865  33.344  1.00  0.00     0.023 A 
ATOM     76  C   UNL A   1      47.275  26.107  33.113  1.00  0.00     0.012 A 
ATOM     77  C   UNL A   1      45.532  24.900  34.301  1.00  0.00     0.148 A 
ATOM     78  C   UNL A   1      48.251  25.373  33.788  1.00  0.00     0.002 A 
ATOM     79  C   UNL A   1      46.510  24.210  35.009  1.00  0.00     0.091 A 
ATOM     80  F   UNL A   1      44.226  24.667  34.498  1.00  0.00    -0.205 F 
ATOM     81  C   UNL A   1      47.870  24.434  34.743  1.00  0.00     0.022 A 
BRANCH  79  82
ATOM     82  S   UNL A   1      46.105  23.059  36.328  1.00  0.00     0.127 S 
ATOM     83  O   UNL A   1      45.335  22.043  35.613  1.00  0.00    -0.237 OA
ATOM     84  O   UNL A   1      47.428  22.618  36.775  1.00  0.00    -0.237 OA
ATOM     85  O   UNL A   1      45.364  23.830  37.317  1.00  0.00    -0.744 OA
ENDBRANCH  79  82
ENDBRANCH  52  75
ENDBRANCH  26  27
ENDBRANCH  19  21
ENDBRANCH  18  19
ENDBRANCH   1  18
TORSDOF 17
ENDMDL
MODEL 3
REMARK VINA RESULT:      -9.9      3.115      5.277
REMARK SMILES O=C(/C=C/c1ccc(O)c(O)c1)OCCOC(=O)c1ccc(-c2c3nc(c(-c4cccc(S(=O)(=O)[O-])c4F)c4ccc([nH]4)c(-c4cccc(S(=O)(=O)[O-])c4F)c4nc(c(-c5cccc(S(=O)(=O)[O-])c5F)c5ccc2[nH]5)C=C4)C=C3)cc1
REMARK SMILES IDX 15 1 14 2 13 3 2 4 1 5 3 6 4 7 5 8 6 9 12 10 7 11 10 12 8 13
REMARK SMILES IDX 11 14 9 16 16 18 17 19 18 20 19 21 20 22 81 23 21 24 80 25
REMARK SMILES IDX 22 26 23 27 24 28 74 29 25 30 79 31 73 32 75 33 26 34 78 35
REMARK SMILES IDX 72 36 71 37 27 39 59 40 39 41 58 42 40 43 43 44 57 45 76 46
REMARK SMILES IDX 41 47 42 48 56 50 77 51 44 52 28 53 29 54 37 55 30 56 32 57
REMARK SMILES IDX 38 58 31 59 33 60 34 61 35 62 36 63 60 64 61 65 69 66 62 67
REMARK SMILES IDX 64 68 70 69 63 70 65 71 66 72 67 73 68 74 45 75 46 76 54 77
REMARK SMILES IDX 47 78 49 79 55 80 48 81 50 82 51 83 52 84 53 85
REMARK H PARENT 11 15 9 17 75 38 43 49
REMARK Flexibility Score: inf
ROOT
ATOM      1  C   UNL A   1      36.861  20.584  25.127  1.00  0.00     0.275 C 
ENDROOT
BRANCH   1   2
ATOM      2  C   UNL A   1      35.558  21.338  25.408  1.00  0.00     0.275 C 
BRANCH   2   3
ATOM      3  O   UNL A   1      34.587  21.333  24.341  1.00  0.00    -0.459 OA
BRANCH   3   4
ATOM      4  C   UNL A   1      33.698  22.293  24.000  1.00  0.00     0.330 C 
ATOM      5  O   UNL A   1      32.795  22.045  23.204  1.00  0.00    -0.247 OA
BRANCH   4   6
ATOM      6  C   UNL A   1      33.889  23.694  24.415  1.00  0.00     0.094 C 
ATOM      7  C   UNL A   1      33.676  24.815  23.715  1.00  0.00     0.016 C 
BRANCH   7   8
ATOM      8  C   UNL A   1      33.715  26.146  24.337  1.00  0.00    -0.021 A 
ATOM      9  C   UNL A   1      33.764  26.334  25.726  1.00  0.00     0.012 A 
ATOM     10  C   UNL A   1      33.696  27.266  23.492  1.00  0.00     0.058 A 
ATOM     11  C   UNL A   1      33.791  27.625  26.270  1.00  0.00     0.051 A 
ATOM     12  C   UNL A   1      33.719  28.540  24.040  1.00  0.00     0.157 A 
ATOM     13  C   UNL A   1      33.770  28.721  25.418  1.00  0.00     0.157 A 
BRANCH  12  14
ATOM     14  O   UNL A   1      33.680  29.623  23.208  1.00  0.00    -0.504 OA
ATOM     15  H   UNL A   1      34.366  29.760  22.585  1.00  0.00     0.293 HD
ENDBRANCH  12  14
BRANCH  13  16
ATOM     16  O   UNL A   1      33.798  30.005  25.886  1.00  0.00    -0.504 OA
ATOM     17  H   UNL A   1      33.204  30.643  25.541  1.00  0.00     0.293 HD
ENDBRANCH  13  16
ENDBRANCH   7   8
ENDBRANCH   4   6
ENDBRANCH   3   4
ENDBRANCH   2   3
ENDBRANCH   1   2
BRANCH   1  18
ATOM     18  O   UNL A   1      37.998  21.445  24.991  1.00  0.00    -0.458 OA
BRANCH  18  19
ATOM     19  C   UNL A   1      39.038  21.133  25.804  1.00  0.00     0.338 C 
ATOM     20  O   UNL A   1      39.600  20.050  25.871  1.00  0.00    -0.246 OA
BRANCH  19  21
ATOM     21  C   UNL A   1      39.516  22.333  26.528  1.00  0.00     0.060 A 
ATOM     22  C   UNL A   1      38.928  23.560  26.195  1.00  0.00     0.016 A 
ATOM     23  C   UNL A   1      40.531  22.282  27.489  1.00  0.00     0.016 A 
ATOM     24  C   UNL A   1      39.397  24.741  26.770  1.00  0.00     0.010 A 
ATOM     25  C   UNL A   1      40.992  23.469  28.073  1.00  0.00     0.010 A 
ATOM     26  C   UNL A   1      40.463  24.710  27.679  1.00  0.00    -0.014 A 
BRANCH  26  27
ATOM     27  C   UNL A   1      41.115  25.988  28.072  1.00  0.00     0.031 A 
ATOM     28  C   UNL A   1      42.518  26.272  27.600  1.00  0.00     0.074 A 
ATOM     29  C   UNL A   1      40.461  26.915  28.798  1.00  0.00     0.049 A 
ATOM     30  N   UNL A   1      43.233  27.360  27.732  1.00  0.00    -0.248 NA
ATOM     31  C   UNL A   1      43.208  25.185  26.886  1.00  0.00     0.031 C 
ATOM     32  C   UNL A   1      39.108  26.772  29.333  1.00  0.00     0.029 A 
ATOM     33  N   UNL A   1      40.856  28.164  29.210  1.00  0.00    -0.354 N 
ATOM     34  C   UNL A   1      44.459  27.084  27.138  1.00  0.00     0.074 A 
ATOM     35  C   UNL A   1      44.402  25.716  26.670  1.00  0.00     0.031 C 
ATOM     36  C   UNL A   1      38.787  27.892  30.007  1.00  0.00     0.029 A 
ATOM     37  C   UNL A   1      39.911  28.826  29.957  1.00  0.00     0.049 A 
ATOM     38  H   UNL A   1      41.735  28.551  28.991  1.00  0.00     0.167 HD
ATOM     39  C   UNL A   1      45.530  27.897  26.971  1.00  0.00     0.034 A 
ATOM     40  C   UNL A   1      39.945  30.048  30.528  1.00  0.00     0.034 A 
ATOM     41  C   UNL A   1      45.590  29.263  27.413  1.00  0.00     0.049 A 
ATOM     42  C   UNL A   1      41.150  30.933  30.330  1.00  0.00     0.074 A 
ATOM     43  C   UNL A   1      46.611  30.180  27.234  1.00  0.00     0.029 A 
ATOM     44  N   UNL A   1      44.597  29.908  28.132  1.00  0.00    -0.354 N 
ATOM     45  N   UNL A   1      42.239  30.709  29.636  1.00  0.00    -0.248 NA
ATOM     46  C   UNL A   1      41.107  32.264  30.958  1.00  0.00     0.031 C 
ATOM     47  C   UNL A   1      46.250  31.370  27.876  1.00  0.00     0.029 A 
ATOM     48  C   UNL A   1      44.986  31.206  28.418  1.00  0.00     0.049 A 
ATOM     49  H   UNL A   1      43.741  29.502  28.401  1.00  0.00     0.167 HD
ATOM     50  C   UNL A   1      42.982  31.885  29.697  1.00  0.00     0.074 A 
ATOM     51  C   UNL A   1      42.215  32.823  30.488  1.00  0.00     0.031 C 
ATOM     52  C   UNL A   1      44.193  32.159  29.150  1.00  0.00     0.034 A 
BRANCH  39  53
ATOM     53  C   UNL A   1      46.728  27.330  26.255  1.00  0.00     0.023 A 
ATOM     54  C   UNL A   1      46.850  27.488  24.860  1.00  0.00     0.012 A 
ATOM     55  C   UNL A   1      47.757  26.686  26.971  1.00  0.00     0.148 A 
ATOM     56  C   UNL A   1      47.958  26.982  24.182  1.00  0.00     0.002 A 
ATOM     57  C   UNL A   1      48.880  26.227  26.295  1.00  0.00     0.091 A 
ATOM     58  F   UNL A   1      47.612  26.527  28.294  1.00  0.00    -0.205 F 
ATOM     59  C   UNL A   1      48.977  26.361  24.900  1.00  0.00     0.022 A 
BRANCH  57  60
ATOM     60  S   UNL A   1      50.281  25.491  27.143  1.00  0.00     0.127 S 
ATOM     61  O   UNL A   1      51.221  25.291  26.040  1.00  0.00    -0.237 OA
ATOM     62  O   UNL A   1      50.662  26.545  28.083  1.00  0.00    -0.237 OA
ATOM     63  O   UNL A   1      49.780  24.274  27.765  1.00  0.00    -0.744 OA
ENDBRANCH  57  60
ENDBRANCH  39  53
BRANCH  40  64
ATOM     64  C   UNL A   1      38.771  30.544  31.302  1.00  0.00     0.023 A 
ATOM     65  C   UNL A   1      38.721  30.349  32.697  1.00  0.00     0.012 A 
ATOM     66  C   UNL A   1      37.700  31.196  30.661  1.00  0.00     0.148 A 
ATOM     67  C   UNL A   1      37.608  30.756  33.433  1.00  0.00     0.002 A 
ATOM     68  C   UNL A   1      36.620  31.648  31.409  1.00  0.00     0.091 A 
ATOM     69  F   UNL A   1      37.761  31.359  29.332  1.00  0.00    -0.205 F 
ATOM     70  C   UNL A   1      36.562  31.412  32.791  1.00  0.00     0.022 A 
BRANCH  68  71
ATOM     71  S   UNL A   1      35.289  32.611  30.684  1.00  0.00     0.127 S 
ATOM     72  O   UNL A   1      34.905  31.782  29.545  1.00  0.00    -0.237 OA
ATOM     73  O   UNL A   1      34.316  32.650  31.777  1.00  0.00    -0.237 OA
ATOM     74  O   UNL A   1      35.873  33.905  30.356  1.00  0.00    -0.744 OA
ENDBRANCH  68  71
ENDBRANCH  40  64
BRANCH  52  75
ATOM     75  C   UNL A   1      44.749  33.551  29.321  1.00  0.00     0.023 A 
ATOM     76  C   UNL A   1      45.550  33.866  30.437  1.00  0.00     0.012 A 
ATOM     77  C   UNL A   1      44.531  34.533  28.333  1.00  0.00     0.148 A 
ATOM     78  C   UNL A   1      46.087  35.145  30.588  1.00  0.00     0.002 A 
ATOM     79  C   UNL A   1      45.115  35.789  28.463  1.00  0.00     0.091 A 
ATOM     80  F   UNL A   1      43.753  34.226  27.285  1.00  0.00    -0.205 F 
ATOM     81  C   UNL A   1      45.880  36.101  29.597  1.00  0.00     0.022 A 
BRANCH  79  82
ATOM     82  S   UNL A   1      44.983  37.044  27.184  1.00  0.00     0.127 S 
ATOM     83  O   UNL A   1      45.950  36.569  26.197  1.00  0.00    -0.237 OA
ATOM     84  O   UNL A   1      43.583  36.924  26.772  1.00  0.00    -0.237 OA
ATOM     85  O   UNL A   1      45.312  38.307  27.830  1.00  0.00    -0.744 OA
ENDBRANCH  79  82
ENDBRANCH  52  75
ENDBRANCH  26  27
ENDBRANCH  19  21
ENDBRANCH  18  19
ENDBRANCH   1  18
TORSDOF 17
ENDMDL
