MODEL 1
REMARK VINA RESULT:     -13.9      0.000      0.000
REMARK SMILES Cc1c(C(=O)OCCOC(=O)c2ccc(-c3c4nc(c(-c5cccc(S(=O)(=O)[O-])c5F)c5ccc([nH]5)c(-c5cccc(S(=O)(=O)[O-])c5F)c5nc(c(-c6cccc(S(=O)(=O)[O-])c6F)c6ccc3[nH]6)C=C5)C=C4)cc2)cccc1-n1c(C)cc(/C=C2/C(=O)NC(=S)N=C2O)c1C
REMARK SMILES IDX 7 1 6 2 4 3 5 4 3 5 1 6 2 7 78 8 75 9 77 10 76 11 79 12
REMARK SMILES IDX 80 13 94 14 81 15 82 16 83 17 95 18 84 19 85 20 86 21 92 22
REMARK SMILES IDX 87 23 88 24 91 25 89 26 90 28 93 29 8 31 9 32 10 33 11 34
REMARK SMILES IDX 12 35 13 36 74 37 14 38 73 39 15 40 16 41 17 42 67 43 18 44
REMARK SMILES IDX 72 45 66 46 68 47 19 48 71 49 65 50 64 51 20 53 52 54 32 55
REMARK SMILES IDX 51 56 33 57 36 58 50 59 69 60 34 61 35 62 49 64 70 65 37 66
REMARK SMILES IDX 21 67 22 68 30 69 23 70 25 71 31 72 24 73 26 74 27 75 28 76
REMARK SMILES IDX 29 77 53 78 54 79 62 80 55 81 57 82 63 83 56 84 58 85 59 86
REMARK SMILES IDX 60 87 61 88 38 89 39 90 47 91 40 92 42 93 48 94 41 95 43 96
REMARK SMILES IDX 44 97 45 98 46 99
REMARK H PARENT 88 27 93 30 68 52 36 63
REMARK Flexibility Score: inf
ROOT
ATOM      1  C   UNL A   1      32.661  30.603  26.418  1.00  0.00     0.275 C 
ENDROOT
BRANCH   1   2
ATOM      2  O   UNL A   1      31.732  29.863  25.641  1.00  0.00    -0.458 OA
BRANCH   2   3
ATOM      3  C   UNL A   1      32.249  29.127  24.640  1.00  0.00     0.338 C 
ATOM      4  O   UNL A   1      33.049  29.495  23.795  1.00  0.00    -0.246 OA
BRANCH   3   5
ATOM      5  C   UNL A   1      31.683  27.771  24.736  1.00  0.00     0.065 A 
ATOM      6  C   UNL A   1      33.977  26.821  25.282  1.00  0.00     0.047 C 
ATOM      7  C   UNL A   1      32.518  26.660  24.943  1.00  0.00    -0.012 A 
ATOM      8  C   UNL A   1      31.929  25.389  24.803  1.00  0.00     0.049 A 
ATOM      9  C   UNL A   1      30.310  27.620  24.494  1.00  0.00     0.016 A 
ATOM     10  C   UNL A   1      30.543  25.232  24.637  1.00  0.00     0.027 A 
ATOM     11  C   UNL A   1      29.730  26.354  24.518  1.00  0.00     0.003 A 
BRANCH   8  12
ATOM     12  N   UNL A   1      32.726  24.356  24.253  1.00  0.00    -0.318 N 
ATOM     13  C   UNL A   1      32.897  24.045  22.922  1.00  0.00     0.020 A 
ATOM     14  C   UNL A   1      33.329  23.376  25.045  1.00  0.00     0.027 A 
ATOM     15  C   UNL A   1      32.248  24.795  21.810  1.00  0.00     0.065 C 
ATOM     16  C   UNL A   1      33.717  22.932  22.867  1.00  0.00     0.031 A 
ATOM     17  C   UNL A   1      34.021  22.530  24.196  1.00  0.00    -0.003 A 
ATOM     18  C   UNL A   1      33.142  23.362  26.532  1.00  0.00     0.065 C 
BRANCH  17  19
ATOM     19  C   UNL A   1      34.748  21.348  24.539  1.00  0.00     0.029 C 
ATOM     20  C   UNL A   1      34.321  20.129  24.921  1.00  0.00     0.102 C 
ATOM     21  C   UNL A   1      35.341  19.054  24.941  1.00  0.00     0.262 C 
ATOM     22  C   UNL A   1      32.964  19.649  25.196  1.00  0.00     0.226 C 
ATOM     23  O   UNL A   1      36.553  19.234  24.988  1.00  0.00    -0.269 OA
ATOM     24  N   UNL A   1      34.812  17.793  24.841  1.00  0.00    -0.297 N 
ATOM     25  N   UNL A   1      32.558  18.431  25.159  1.00  0.00    -0.184 NA
ATOM     26  C   UNL A   1      33.479  17.462  24.861  1.00  0.00     0.203 C 
ATOM     27  H   UNL A   1      35.451  17.052  24.745  1.00  0.00     0.172 HD
ATOM     28  S   UNL A   1      33.076  15.857  24.584  1.00  0.00    -0.038 S 
BRANCH  22  29
ATOM     29  O   UNL A   1      32.082  20.570  25.592  1.00  0.00    -0.493 OA
ATOM     30  H   UNL A   1      31.493  20.951  24.970  1.00  0.00     0.295 HD
ENDBRANCH  22  29
ENDBRANCH  17  19
ENDBRANCH   8  12
ENDBRANCH   3   5
ENDBRANCH   2   3
ENDBRANCH   1   2
BRANCH   1  31
ATOM     31  C   UNL A   1      33.649  29.793  27.278  1.00  0.00     0.275 C 
BRANCH  31  32
ATOM     32  O   UNL A   1      35.088  29.985  27.165  1.00  0.00    -0.458 OA
BRANCH  32  33
ATOM     33  C   UNL A   1      36.019  30.376  28.073  1.00  0.00     0.338 C 
ATOM     34  O   UNL A   1      35.795  31.264  28.886  1.00  0.00    -0.246 OA
BRANCH  33  35
ATOM     35  C   UNL A   1      37.284  29.636  28.111  1.00  0.00     0.060 A 
ATOM     36  C   UNL A   1      38.155  29.676  27.010  1.00  0.00     0.016 A 
ATOM     37  C   UNL A   1      37.642  28.992  29.286  1.00  0.00     0.016 A 
ATOM     38  C   UNL A   1      39.449  29.173  27.130  1.00  0.00     0.010 A 
ATOM     39  C   UNL A   1      38.950  28.609  29.453  1.00  0.00     0.010 A 
ATOM     40  C   UNL A   1      39.836  28.647  28.361  1.00  0.00    -0.014 A 
BRANCH  40  41
ATOM     41  C   UNL A   1      40.926  27.694  28.499  1.00  0.00     0.031 A 
ATOM     42  C   UNL A   1      40.822  26.253  28.272  1.00  0.00     0.074 A 
ATOM     43  C   UNL A   1      42.095  28.296  28.811  1.00  0.00     0.049 A 
ATOM     44  N   UNL A   1      41.555  25.404  28.908  1.00  0.00    -0.248 NA
ATOM     45  C   UNL A   1      39.892  25.642  27.330  1.00  0.00     0.031 C 
ATOM     46  C   UNL A   1      43.455  27.811  28.729  1.00  0.00     0.029 A 
ATOM     47  N   UNL A   1      42.210  29.551  29.432  1.00  0.00    -0.354 N 
ATOM     48  C   UNL A   1      41.405  24.196  28.269  1.00  0.00     0.074 A 
ATOM     49  C   UNL A   1      40.270  24.356  27.387  1.00  0.00     0.031 C 
ATOM     50  C   UNL A   1      44.228  28.615  29.485  1.00  0.00     0.029 A 
ATOM     51  C   UNL A   1      43.339  29.498  30.237  1.00  0.00     0.049 A 
ATOM     52  H   UNL A   1      41.606  30.319  29.318  1.00  0.00     0.167 HD
ATOM     53  C   UNL A   1      42.392  23.262  28.359  1.00  0.00     0.034 A 
ATOM     54  C   UNL A   1      43.250  29.628  31.595  1.00  0.00     0.034 A 
ATOM     55  C   UNL A   1      43.548  23.790  29.093  1.00  0.00     0.049 A 
ATOM     56  C   UNL A   1      43.823  28.425  32.313  1.00  0.00     0.074 A 
ATOM     57  C   UNL A   1      44.722  24.395  28.669  1.00  0.00     0.029 A 
ATOM     58  N   UNL A   1      43.457  24.046  30.452  1.00  0.00    -0.354 N 
ATOM     59  N   UNL A   1      44.160  27.314  31.724  1.00  0.00    -0.248 NA
ATOM     60  C   UNL A   1      43.939  28.346  33.764  1.00  0.00     0.031 C 
ATOM     61  C   UNL A   1      45.353  24.992  29.791  1.00  0.00     0.029 A 
ATOM     62  C   UNL A   1      44.571  24.743  30.902  1.00  0.00     0.049 A 
ATOM     63  H   UNL A   1      42.703  23.771  31.021  1.00  0.00     0.167 HD
ATOM     64  C   UNL A   1      44.418  26.354  32.664  1.00  0.00     0.074 A 
ATOM     65  C   UNL A   1      44.267  27.054  33.930  1.00  0.00     0.031 C 
ATOM     66  C   UNL A   1      44.684  25.057  32.320  1.00  0.00     0.034 A 
BRANCH  53  67
ATOM     67  C   UNL A   1      42.469  22.069  27.427  1.00  0.00     0.023 A 
ATOM     68  C   UNL A   1      41.550  21.017  27.633  1.00  0.00     0.012 A 
ATOM     69  C   UNL A   1      43.418  21.887  26.396  1.00  0.00     0.148 A 
ATOM     70  C   UNL A   1      41.630  19.804  26.948  1.00  0.00     0.002 A 
ATOM     71  C   UNL A   1      43.530  20.654  25.740  1.00  0.00     0.091 A 
ATOM     72  F   UNL A   1      44.198  22.918  26.036  1.00  0.00    -0.205 F 
ATOM     73  C   UNL A   1      42.642  19.610  26.024  1.00  0.00     0.022 A 
BRANCH  71  74
ATOM     74  S   UNL A   1      44.872  20.272  24.601  1.00  0.00     0.127 S 
ATOM     75  O   UNL A   1      46.055  20.639  25.383  1.00  0.00    -0.237 OA
ATOM     76  O   UNL A   1      44.709  18.836  24.389  1.00  0.00    -0.237 OA
ATOM     77  O   UNL A   1      44.652  21.117  23.434  1.00  0.00    -0.744 OA
ENDBRANCH  71  74
ENDBRANCH  53  67
BRANCH  54  78
ATOM     78  C   UNL A   1      42.049  30.388  32.097  1.00  0.00     0.023 A 
ATOM     79  C   UNL A   1      41.932  31.766  31.782  1.00  0.00     0.012 A 
ATOM     80  C   UNL A   1      40.909  29.730  32.595  1.00  0.00     0.148 A 
ATOM     81  C   UNL A   1      40.702  32.431  31.870  1.00  0.00     0.002 A 
ATOM     82  C   UNL A   1      39.690  30.403  32.690  1.00  0.00     0.091 A 
ATOM     83  F   UNL A   1      40.989  28.433  32.917  1.00  0.00    -0.205 F 
ATOM     84  C   UNL A   1      39.575  31.744  32.309  1.00  0.00     0.022 A 
BRANCH  82  85
ATOM     85  S   UNL A   1      38.220  29.497  33.186  1.00  0.00     0.127 S 
ATOM     86  O   UNL A   1      37.148  30.155  32.439  1.00  0.00    -0.237 OA
ATOM     87  O   UNL A   1      38.498  28.138  32.742  1.00  0.00    -0.237 OA
ATOM     88  O   UNL A   1      38.193  29.732  34.627  1.00  0.00    -0.744 OA
ENDBRANCH  82  85
ENDBRANCH  54  78
BRANCH  66  89
ATOM     89  C   UNL A   1      45.057  23.957  33.294  1.00  0.00     0.023 A 
ATOM     90  C   UNL A   1      44.095  23.068  33.807  1.00  0.00     0.012 A 
ATOM     91  C   UNL A   1      46.371  23.835  33.819  1.00  0.00     0.148 A 
ATOM     92  C   UNL A   1      44.437  22.026  34.673  1.00  0.00     0.002 A 
ATOM     93  C   UNL A   1      46.703  22.826  34.714  1.00  0.00     0.091 A 
ATOM     94  F   UNL A   1      47.312  24.723  33.488  1.00  0.00    -0.205 F 
ATOM     95  C   UNL A   1      45.744  21.895  35.116  1.00  0.00     0.022 A 
BRANCH  93  96
ATOM     96  S   UNL A   1      48.342  22.680  35.439  1.00  0.00     0.127 S 
ATOM     97  O   UNL A   1      48.478  23.972  36.111  1.00  0.00    -0.237 OA
ATOM     98  O   UNL A   1      48.171  21.539  36.338  1.00  0.00    -0.237 OA
ATOM     99  O   UNL A   1      49.264  22.456  34.335  1.00  0.00    -0.744 OA
ENDBRANCH  93  96
ENDBRANCH  66  89
ENDBRANCH  40  41
ENDBRANCH  33  35
ENDBRANCH  32  33
ENDBRANCH  31  32
ENDBRANCH   1  31
TORSDOF 17
ENDMDL
MODEL 2
REMARK VINA RESULT:     -13.7      1.942      2.540
REMARK SMILES Cc1c(C(=O)OCCOC(=O)c2ccc(-c3c4nc(c(-c5cccc(S(=O)(=O)[O-])c5F)c5ccc([nH]5)c(-c5cccc(S(=O)(=O)[O-])c5F)c5nc(c(-c6cccc(S(=O)(=O)[O-])c6F)c6ccc3[nH]6)C=C5)C=C4)cc2)cccc1-n1c(C)cc(/C=C2/C(=O)NC(=S)N=C2O)c1C
REMARK SMILES IDX 7 1 6 2 4 3 5 4 3 5 1 6 2 7 78 8 75 9 77 10 76 11 79 12
REMARK SMILES IDX 80 13 94 14 81 15 82 16 83 17 95 18 84 19 85 20 86 21 92 22
REMARK SMILES IDX 87 23 88 24 91 25 89 26 90 28 93 29 8 31 9 32 10 33 11 34
REMARK SMILES IDX 12 35 13 36 74 37 14 38 73 39 15 40 16 41 17 42 67 43 18 44
REMARK SMILES IDX 72 45 66 46 68 47 19 48 71 49 65 50 64 51 20 53 52 54 32 55
REMARK SMILES IDX 51 56 33 57 36 58 50 59 69 60 34 61 35 62 49 64 70 65 37 66
REMARK SMILES IDX 21 67 22 68 30 69 23 70 25 71 31 72 24 73 26 74 27 75 28 76
REMARK SMILES IDX 29 77 53 78 54 79 62 80 55 81 57 82 63 83 56 84 58 85 59 86
REMARK SMILES IDX 60 87 61 88 38 89 39 90 47 91 40 92 42 93 48 94 41 95 43 96
REMARK SMILES IDX 44 97 45 98 46 99
REMARK H PARENT 88 27 93 30 68 52 36 63
REMARK Flexibility Score: inf
ROOT
ATOM      1  C   UNL A   1      32.148  30.847  26.461  1.00  0.00     0.275 C 
ENDROOT
BRANCH   1   2
ATOM      2  O   UNL A   1      31.378  29.812  25.867  1.00  0.00    -0.458 OA
BRANCH   2   3
ATOM      3  C   UNL A   1      31.939  29.183  24.817  1.00  0.00     0.338 C 
ATOM      4  O   UNL A   1      32.755  29.644  24.035  1.00  0.00    -0.246 OA
BRANCH   3   5
ATOM      5  C   UNL A   1      31.400  27.814  24.769  1.00  0.00     0.065 A 
ATOM      6  C   UNL A   1      33.643  26.874  25.510  1.00  0.00     0.047 C 
ATOM      7  C   UNL A   1      32.235  26.707  25.001  1.00  0.00    -0.012 A 
ATOM      8  C   UNL A   1      31.697  25.437  24.721  1.00  0.00     0.049 A 
ATOM      9  C   UNL A   1      30.066  27.653  24.367  1.00  0.00     0.016 A 
ATOM     10  C   UNL A   1      30.342  25.265  24.394  1.00  0.00     0.027 A 
ATOM     11  C   UNL A   1      29.518  26.378  24.251  1.00  0.00     0.003 A 
BRANCH   8  12
ATOM     12  N   UNL A   1      32.574  24.455  24.204  1.00  0.00    -0.318 N 
ATOM     13  C   UNL A   1      32.869  24.203  22.882  1.00  0.00     0.020 A 
ATOM     14  C   UNL A   1      33.144  23.463  25.006  1.00  0.00     0.027 A 
ATOM     15  C   UNL A   1      32.289  24.977  21.747  1.00  0.00     0.065 C 
ATOM     16  C   UNL A   1      33.731  23.122  22.855  1.00  0.00     0.031 A 
ATOM     17  C   UNL A   1      33.937  22.677  24.189  1.00  0.00    -0.003 A 
ATOM     18  C   UNL A   1      32.834  23.383  26.470  1.00  0.00     0.065 C 
BRANCH  17  19
ATOM     19  C   UNL A   1      34.675  21.507  24.548  1.00  0.00     0.029 C 
ATOM     20  C   UNL A   1      34.260  20.275  24.900  1.00  0.00     0.102 C 
ATOM     21  C   UNL A   1      35.302  19.222  24.949  1.00  0.00     0.262 C 
ATOM     22  C   UNL A   1      32.904  19.763  25.116  1.00  0.00     0.226 C 
ATOM     23  O   UNL A   1      36.506  19.427  25.046  1.00  0.00    -0.269 OA
ATOM     24  N   UNL A   1      34.804  17.951  24.814  1.00  0.00    -0.297 N 
ATOM     25  N   UNL A   1      32.527  18.537  25.050  1.00  0.00    -0.184 NA
ATOM     26  C   UNL A   1      33.480  17.591  24.778  1.00  0.00     0.203 C 
ATOM     27  H   UNL A   1      35.463  17.225  24.736  1.00  0.00     0.172 HD
ATOM     28  S   UNL A   1      33.124  15.981  24.468  1.00  0.00    -0.038 S 
BRANCH  22  29
ATOM     29  O   UNL A   1      31.987  20.660  25.485  1.00  0.00    -0.493 OA
ATOM     30  H   UNL A   1      31.948  20.949  26.376  1.00  0.00     0.295 HD
ENDBRANCH  22  29
ENDBRANCH  17  19
ENDBRANCH   8  12
ENDBRANCH   3   5
ENDBRANCH   2   3
ENDBRANCH   1   2
BRANCH   1  31
ATOM     31  C   UNL A   1      33.366  30.413  27.298  1.00  0.00     0.275 C 
BRANCH  31  32
ATOM     32  O   UNL A   1      34.349  31.381  27.763  1.00  0.00    -0.458 OA
BRANCH  32  33
ATOM     33  C   UNL A   1      35.078  31.446  28.908  1.00  0.00     0.338 C 
ATOM     34  O   UNL A   1      34.684  32.062  29.890  1.00  0.00    -0.246 OA
BRANCH  33  35
ATOM     35  C   UNL A   1      36.323  30.675  28.965  1.00  0.00     0.060 A 
ATOM     36  C   UNL A   1      36.627  29.912  30.105  1.00  0.00     0.016 A 
ATOM     37  C   UNL A   1      37.131  30.632  27.838  1.00  0.00     0.016 A 
ATOM     38  C   UNL A   1      37.681  29.003  30.071  1.00  0.00     0.010 A 
ATOM     39  C   UNL A   1      38.088  29.652  27.752  1.00  0.00     0.010 A 
ATOM     40  C   UNL A   1      38.402  28.878  28.885  1.00  0.00    -0.014 A 
BRANCH  40  41
ATOM     41  C   UNL A   1      39.759  28.358  28.841  1.00  0.00     0.031 A 
ATOM     42  C   UNL A   1      40.124  26.975  28.536  1.00  0.00     0.074 A 
ATOM     43  C   UNL A   1      40.683  29.320  29.061  1.00  0.00     0.049 A 
ATOM     44  N   UNL A   1      41.175  26.418  29.032  1.00  0.00    -0.248 NA
ATOM     45  C   UNL A   1      39.347  26.101  27.664  1.00  0.00     0.031 C 
ATOM     46  C   UNL A   1      42.105  29.336  28.799  1.00  0.00     0.029 A 
ATOM     47  N   UNL A   1      40.441  30.523  29.744  1.00  0.00    -0.354 N 
ATOM     48  C   UNL A   1      41.367  25.246  28.337  1.00  0.00     0.074 A 
ATOM     49  C   UNL A   1      40.143  25.024  27.597  1.00  0.00     0.031 C 
ATOM     50  C   UNL A   1      42.646  30.340  29.515  1.00  0.00     0.029 A 
ATOM     51  C   UNL A   1      41.612  30.846  30.415  1.00  0.00     0.049 A 
ATOM     52  H   UNL A   1      39.602  31.038  29.746  1.00  0.00     0.167 HD
ATOM     53  C   UNL A   1      42.615  24.709  28.259  1.00  0.00     0.034 A 
ATOM     54  C   UNL A   1      41.654  30.907  31.780  1.00  0.00     0.034 A 
ATOM     55  C   UNL A   1      43.605  25.587  28.894  1.00  0.00     0.049 A 
ATOM     56  C   UNL A   1      42.687  29.960  32.353  1.00  0.00     0.074 A 
ATOM     57  C   UNL A   1      44.440  26.569  28.382  1.00  0.00     0.029 A 
ATOM     58  N   UNL A   1      43.603  25.766  30.268  1.00  0.00    -0.354 N 
ATOM     59  N   UNL A   1      43.306  29.047  31.661  1.00  0.00    -0.248 NA
ATOM     60  C   UNL A   1      43.004  29.895  33.775  1.00  0.00     0.031 C 
ATOM     61  C   UNL A   1      44.966  27.323  29.464  1.00  0.00     0.029 A 
ATOM     62  C   UNL A   1      44.460  26.795  30.637  1.00  0.00     0.049 A 
ATOM     63  H   UNL A   1      43.065  25.235  30.898  1.00  0.00     0.167 HD
ATOM     64  C   UNL A   1      43.990  28.215  32.504  1.00  0.00     0.074 A 
ATOM     65  C   UNL A   1      43.769  28.792  33.820  1.00  0.00     0.031 C 
ATOM     66  C   UNL A   1      44.637  27.097  32.050  1.00  0.00     0.034 A 
BRANCH  53  67
ATOM     67  C   UNL A   1      42.976  23.637  27.250  1.00  0.00     0.023 A 
ATOM     68  C   UNL A   1      43.678  24.037  26.092  1.00  0.00     0.012 A 
ATOM     69  C   UNL A   1      42.624  22.271  27.336  1.00  0.00     0.148 A 
ATOM     70  C   UNL A   1      43.919  23.173  25.023  1.00  0.00     0.002 A 
ATOM     71  C   UNL A   1      42.822  21.414  26.246  1.00  0.00     0.091 A 
ATOM     72  F   UNL A   1      42.116  21.798  28.485  1.00  0.00    -0.205 F 
ATOM     73  C   UNL A   1      43.461  21.869  25.086  1.00  0.00     0.022 A 
BRANCH  71  74
ATOM     74  S   UNL A   1      42.173  19.735  26.192  1.00  0.00     0.127 S 
ATOM     75  O   UNL A   1      40.731  19.964  26.078  1.00  0.00    -0.237 OA
ATOM     76  O   UNL A   1      42.796  19.192  24.988  1.00  0.00    -0.237 OA
ATOM     77  O   UNL A   1      42.572  19.117  27.450  1.00  0.00    -0.744 OA
ENDBRANCH  71  74
ENDBRANCH  53  67
BRANCH  54  78
ATOM     78  C   UNL A   1      40.339  31.194  32.458  1.00  0.00     0.023 A 
ATOM     79  C   UNL A   1      39.651  30.129  33.092  1.00  0.00     0.012 A 
ATOM     80  C   UNL A   1      39.925  32.508  32.749  1.00  0.00     0.148 A 
ATOM     81  C   UNL A   1      38.656  30.372  34.048  1.00  0.00     0.002 A 
ATOM     82  C   UNL A   1      38.925  32.741  33.694  1.00  0.00     0.091 A 
ATOM     83  F   UNL A   1      40.544  33.536  32.156  1.00  0.00    -0.205 F 
ATOM     84  C   UNL A   1      38.304  31.680  34.362  1.00  0.00     0.022 A 
BRANCH  82  85
ATOM     85  S   UNL A   1      38.524  34.431  34.153  1.00  0.00     0.127 S 
ATOM     86  O   UNL A   1      37.656  34.268  35.320  1.00  0.00    -0.237 OA
ATOM     87  O   UNL A   1      39.823  35.012  34.463  1.00  0.00    -0.237 OA
ATOM     88  O   UNL A   1      37.849  34.916  32.953  1.00  0.00    -0.744 OA
ENDBRANCH  82  85
ENDBRANCH  54  78
BRANCH  66  89
ATOM     89  C   UNL A   1      45.480  26.173  32.906  1.00  0.00     0.023 A 
ATOM     90  C   UNL A   1      46.864  26.031  32.695  1.00  0.00     0.012 A 
ATOM     91  C   UNL A   1      44.903  25.327  33.890  1.00  0.00     0.148 A 
ATOM     92  C   UNL A   1      47.656  25.212  33.505  1.00  0.00     0.002 A 
ATOM     93  C   UNL A   1      45.683  24.482  34.666  1.00  0.00     0.091 A 
ATOM     94  F   UNL A   1      43.578  25.302  34.059  1.00  0.00    -0.205 F 
ATOM     95  C   UNL A   1      47.069  24.448  34.501  1.00  0.00     0.022 A 
BRANCH  93  96
ATOM     96  S   UNL A   1      44.974  23.359  35.880  1.00  0.00     0.127 S 
ATOM     97  O   UNL A   1      44.036  22.597  35.056  1.00  0.00    -0.237 OA
ATOM     98  O   UNL A   1      46.152  22.609  36.317  1.00  0.00    -0.237 OA
ATOM     99  O   UNL A   1      44.364  24.191  36.906  1.00  0.00    -0.744 OA
ENDBRANCH  93  96
ENDBRANCH  66  89
ENDBRANCH  40  41
ENDBRANCH  33  35
ENDBRANCH  32  33
ENDBRANCH  31  32
ENDBRANCH   1  31
TORSDOF 17
ENDMDL
MODEL 3
REMARK VINA RESULT:     -13.1      1.630      2.192
REMARK SMILES Cc1c(C(=O)OCCOC(=O)c2ccc(-c3c4nc(c(-c5cccc(S(=O)(=O)[O-])c5F)c5ccc([nH]5)c(-c5cccc(S(=O)(=O)[O-])c5F)c5nc(c(-c6cccc(S(=O)(=O)[O-])c6F)c6ccc3[nH]6)C=C5)C=C4)cc2)cccc1-n1c(C)cc(/C=C2/C(=O)NC(=S)N=C2O)c1C
REMARK SMILES IDX 7 1 6 2 4 3 5 4 3 5 1 6 2 7 78 8 75 9 77 10 76 11 79 12
REMARK SMILES IDX 80 13 94 14 81 15 82 16 83 17 95 18 84 19 85 20 86 21 92 22
REMARK SMILES IDX 87 23 88 24 91 25 89 26 90 28 93 29 8 31 9 32 10 33 11 34
REMARK SMILES IDX 12 35 13 36 74 37 14 38 73 39 15 40 16 41 17 42 67 43 18 44
REMARK SMILES IDX 72 45 66 46 68 47 19 48 71 49 65 50 64 51 20 53 52 54 32 55
REMARK SMILES IDX 51 56 33 57 36 58 50 59 69 60 34 61 35 62 49 64 70 65 37 66
REMARK SMILES IDX 21 67 22 68 30 69 23 70 25 71 31 72 24 73 26 74 27 75 28 76
REMARK SMILES IDX 29 77 53 78 54 79 62 80 55 81 57 82 63 83 56 84 58 85 59 86
REMARK SMILES IDX 60 87 61 88 38 89 39 90 47 91 40 92 42 93 48 94 41 95 43 96
REMARK SMILES IDX 44 97 45 98 46 99
REMARK H PARENT 88 27 93 30 68 52 36 63
REMARK Flexibility Score: inf
ROOT
ATOM      1  C   UNL A   1      32.637  30.299  26.025  1.00  0.00     0.275 C 
ENDROOT
BRANCH   1   2
ATOM      2  O   UNL A   1      31.779  29.181  26.199  1.00  0.00    -0.458 OA
BRANCH   2   3
ATOM      3  C   UNL A   1      31.567  28.421  25.108  1.00  0.00     0.338 C 
ATOM      4  O   UNL A   1      30.740  28.609  24.231  1.00  0.00    -0.246 OA
BRANCH   3   5
ATOM      5  C   UNL A   1      32.523  27.301  25.144  1.00  0.00     0.065 A 
ATOM      6  C   UNL A   1      31.158  26.042  23.409  1.00  0.00     0.047 C 
ATOM      7  C   UNL A   1      32.278  26.127  24.412  1.00  0.00    -0.012 A 
ATOM      8  C   UNL A   1      33.121  25.030  24.672  1.00  0.00     0.049 A 
ATOM      9  C   UNL A   1      33.611  27.403  26.023  1.00  0.00     0.016 A 
ATOM     10  C   UNL A   1      34.256  25.149  25.491  1.00  0.00     0.027 A 
ATOM     11  C   UNL A   1      34.518  26.352  26.139  1.00  0.00     0.003 A 
BRANCH   8  12
ATOM     12  N   UNL A   1      32.548  23.737  24.616  1.00  0.00    -0.318 N 
ATOM     13  C   UNL A   1      31.643  23.180  25.493  1.00  0.00     0.020 A 
ATOM     14  C   UNL A   1      32.983  22.765  23.713  1.00  0.00     0.027 A 
ATOM     15  C   UNL A   1      31.098  23.897  26.681  1.00  0.00     0.065 C 
ATOM     16  C   UNL A   1      31.410  21.884  25.069  1.00  0.00     0.031 A 
ATOM     17  C   UNL A   1      32.219  21.631  23.929  1.00  0.00    -0.003 A 
ATOM     18  C   UNL A   1      34.105  23.044  22.760  1.00  0.00     0.065 C 
BRANCH  17  19
ATOM     19  C   UNL A   1      32.337  20.361  23.284  1.00  0.00     0.029 C 
ATOM     20  C   UNL A   1      32.796  19.179  23.738  1.00  0.00     0.102 C 
ATOM     21  C   UNL A   1      32.525  17.999  22.883  1.00  0.00     0.262 C 
ATOM     22  C   UNL A   1      33.413  18.838  25.023  1.00  0.00     0.226 C 
ATOM     23  O   UNL A   1      32.252  18.042  21.689  1.00  0.00    -0.269 OA
ATOM     24  N   UNL A   1      32.547  16.810  23.567  1.00  0.00    -0.297 N 
ATOM     25  N   UNL A   1      33.463  17.675  25.566  1.00  0.00    -0.184 NA
ATOM     26  C   UNL A   1      32.914  16.627  24.877  1.00  0.00     0.203 C 
ATOM     27  H   UNL A   1      32.271  16.008  23.067  1.00  0.00     0.172 HD
ATOM     28  S   UNL A   1      32.725  15.091  25.526  1.00  0.00    -0.038 S 
BRANCH  22  29
ATOM     29  O   UNL A   1      34.045  19.830  25.655  1.00  0.00    -0.493 OA
ATOM     30  H   UNL A   1      33.552  20.488  26.104  1.00  0.00     0.295 HD
ENDBRANCH  22  29
ENDBRANCH  17  19
ENDBRANCH   8  12
ENDBRANCH   3   5
ENDBRANCH   2   3
ENDBRANCH   1   2
BRANCH   1  31
ATOM     31  C   UNL A   1      33.417  30.776  27.264  1.00  0.00     0.275 C 
BRANCH  31  32
ATOM     32  O   UNL A   1      34.808  30.401  27.474  1.00  0.00    -0.458 OA
BRANCH  32  33
ATOM     33  C   UNL A   1      35.633  30.562  28.542  1.00  0.00     0.338 C 
ATOM     34  O   UNL A   1      35.295  31.203  29.529  1.00  0.00    -0.246 OA
BRANCH  33  35
ATOM     35  C   UNL A   1      36.922  29.865  28.515  1.00  0.00     0.060 A 
ATOM     36  C   UNL A   1      37.685  29.841  27.335  1.00  0.00     0.016 A 
ATOM     37  C   UNL A   1      37.413  29.329  29.697  1.00  0.00     0.016 A 
ATOM     38  C   UNL A   1      39.001  29.388  27.368  1.00  0.00     0.010 A 
ATOM     39  C   UNL A   1      38.744  29.000  29.766  1.00  0.00     0.010 A 
ATOM     40  C   UNL A   1      39.521  28.975  28.594  1.00  0.00    -0.014 A 
BRANCH  40  41
ATOM     41  C   UNL A   1      40.654  28.069  28.700  1.00  0.00     0.031 A 
ATOM     42  C   UNL A   1      40.626  26.641  28.385  1.00  0.00     0.074 A 
ATOM     43  C   UNL A   1      41.785  28.707  29.074  1.00  0.00     0.049 A 
ATOM     44  N   UNL A   1      41.387  25.792  28.986  1.00  0.00    -0.248 NA
ATOM     45  C   UNL A   1      39.746  26.044  27.387  1.00  0.00     0.031 C 
ATOM     46  C   UNL A   1      43.170  28.294  28.993  1.00  0.00     0.029 A 
ATOM     47  N   UNL A   1      41.826  29.926  29.770  1.00  0.00    -0.354 N 
ATOM     48  C   UNL A   1      41.310  24.618  28.273  1.00  0.00     0.074 A 
ATOM     49  C   UNL A   1      40.186  24.777  27.376  1.00  0.00     0.031 C 
ATOM     50  C   UNL A   1      43.886  29.087  29.814  1.00  0.00     0.029 A 
ATOM     51  C   UNL A   1      42.940  29.879  30.596  1.00  0.00     0.049 A 
ATOM     52  H   UNL A   1      41.187  30.670  29.688  1.00  0.00     0.167 HD
ATOM     53  C   UNL A   1      42.340  23.729  28.330  1.00  0.00     0.034 A 
ATOM     54  C   UNL A   1      42.818  29.922  31.957  1.00  0.00     0.034 A 
ATOM     55  C   UNL A   1      43.453  24.267  29.121  1.00  0.00     0.049 A 
ATOM     56  C   UNL A   1      43.435  28.707  32.615  1.00  0.00     0.074 A 
ATOM     57  C   UNL A   1      44.604  24.952  28.759  1.00  0.00     0.029 A 
ATOM     58  N   UNL A   1      43.323  24.436  30.489  1.00  0.00    -0.354 N 
ATOM     59  N   UNL A   1      43.838  27.650  31.969  1.00  0.00    -0.248 NA
ATOM     60  C   UNL A   1      43.527  28.546  34.062  1.00  0.00     0.031 C 
ATOM     61  C   UNL A   1      45.183  25.509  29.929  1.00  0.00     0.029 A 
ATOM     62  C   UNL A   1      44.392  25.157  31.006  1.00  0.00     0.049 A 
ATOM     63  H   UNL A   1      42.572  24.091  31.025  1.00  0.00     0.167 HD
ATOM     64  C   UNL A   1      44.125  26.650  32.856  1.00  0.00     0.074 A 
ATOM     65  C   UNL A   1      43.914  27.264  34.158  1.00  0.00     0.031 C 
ATOM     66  C   UNL A   1      44.462  25.390  32.442  1.00  0.00     0.034 A 
BRANCH  53  67
ATOM     67  C   UNL A   1      42.494  22.600  27.331  1.00  0.00     0.023 A 
ATOM     68  C   UNL A   1      41.707  21.444  27.524  1.00  0.00     0.012 A 
ATOM     69  C   UNL A   1      43.399  22.576  26.246  1.00  0.00     0.148 A 
ATOM     70  C   UNL A   1      41.881  20.282  26.770  1.00  0.00     0.002 A 
ATOM     71  C   UNL A   1      43.608  21.397  25.518  1.00  0.00     0.091 A 
ATOM     72  F   UNL A   1      44.042  23.704  25.905  1.00  0.00    -0.205 F 
ATOM     73  C   UNL A   1      42.855  20.248  25.788  1.00  0.00     0.022 A 
BRANCH  71  74
ATOM     74  S   UNL A   1      44.918  21.223  24.295  1.00  0.00     0.127 S 
ATOM     75  O   UNL A   1      44.735  19.842  23.841  1.00  0.00    -0.237 OA
ATOM     76  O   UNL A   1      44.566  22.236  23.305  1.00  0.00    -0.237 OA
ATOM     77  O   UNL A   1      46.165  21.444  25.018  1.00  0.00    -0.744 OA
ENDBRANCH  71  74
ENDBRANCH  53  67
BRANCH  54  78
ATOM     78  C   UNL A   1      41.571  30.592  32.476  1.00  0.00     0.023 A 
ATOM     79  C   UNL A   1      40.454  29.787  32.816  1.00  0.00     0.012 A 
ATOM     80  C   UNL A   1      41.576  31.928  32.919  1.00  0.00     0.148 A 
ATOM     81  C   UNL A   1      39.434  30.271  33.644  1.00  0.00     0.002 A 
ATOM     82  C   UNL A   1      40.549  32.405  33.735  1.00  0.00     0.091 A 
ATOM     83  F   UNL A   1      42.608  32.719  32.603  1.00  0.00    -0.205 F 
ATOM     84  C   UNL A   1      39.489  31.577  34.119  1.00  0.00     0.022 A 
BRANCH  82  85
ATOM     85  S   UNL A   1      40.659  34.067  34.408  1.00  0.00     0.127 S 
ATOM     86  O   UNL A   1      41.975  34.087  35.049  1.00  0.00    -0.237 OA
ATOM     87  O   UNL A   1      40.570  34.914  33.226  1.00  0.00    -0.237 OA
ATOM     88  O   UNL A   1      39.529  34.094  35.331  1.00  0.00    -0.744 OA
ENDBRANCH  82  85
ENDBRANCH  54  78
BRANCH  66  89
ATOM     89  C   UNL A   1      44.869  24.252  33.357  1.00  0.00     0.023 A 
ATOM     90  C   UNL A   1      43.930  23.327  33.848  1.00  0.00     0.012 A 
ATOM     91  C   UNL A   1      46.195  24.125  33.850  1.00  0.00     0.148 A 
ATOM     92  C   UNL A   1      44.303  22.252  34.659  1.00  0.00     0.002 A 
ATOM     93  C   UNL A   1      46.558  23.081  34.691  1.00  0.00     0.091 A 
ATOM     94  F   UNL A   1      47.117  25.041  33.541  1.00  0.00    -0.205 F 
ATOM     95  C   UNL A   1      45.620  22.119  35.069  1.00  0.00     0.022 A 
BRANCH  93  96
ATOM     96  S   UNL A   1      48.214  22.926  35.376  1.00  0.00     0.127 S 
ATOM     97  O   UNL A   1      48.334  24.175  36.129  1.00  0.00    -0.237 OA
ATOM     98  O   UNL A   1      48.084  21.726  36.201  1.00  0.00    -0.237 OA
ATOM     99  O   UNL A   1      49.119  22.795  34.244  1.00  0.00    -0.744 OA
ENDBRANCH  93  96
ENDBRANCH  66  89
ENDBRANCH  40  41
ENDBRANCH  33  35
ENDBRANCH  32  33
ENDBRANCH  31  32
ENDBRANCH   1  31
TORSDOF 17
ENDMDL
