MODEL 1
REMARK VINA RESULT:     -11.7      0.000      0.000
REMARK SMILES O=C(OCCOC(=O)[C@H]1C[C@H]2CCCC[C@@H]2[N@@H+]1C1CCSCC1)c1ccc(-c2c3nc(c(-c4cccc(S(=O)(=O)[O-])c4F)c4ccc([nH]4)c(-c4cccc(S(=O)(=O)[O-])c4F)c4nc(c(-c5cccc(S(=O)(=O)[O-])c5F)c5ccc2[nH]5)C=C4)C=C3)cc1
REMARK SMILES IDX 4 1 3 2 2 3 1 4 24 5 25 6 86 7 26 8 85 9 27 10 28 11 29 12
REMARK SMILES IDX 79 13 30 14 84 15 78 16 80 17 31 18 83 19 77 20 76 21 32 23
REMARK SMILES IDX 64 24 44 25 63 26 45 27 48 28 62 29 81 30 46 31 47 32 61 34
REMARK SMILES IDX 82 35 49 36 33 37 34 38 42 39 35 40 37 41 43 42 36 43 38 44
REMARK SMILES IDX 39 45 40 46 41 47 65 48 66 49 74 50 67 51 69 52 75 53 68 54
REMARK SMILES IDX 70 55 71 56 72 57 73 58 50 59 51 60 59 61 52 62 54 63 60 64
REMARK SMILES IDX 53 65 55 66 56 67 57 68 58 69 5 70 6 71 7 72 8 73 9 74 10 75
REMARK SMILES IDX 17 76 11 77 16 78 12 80 15 81 13 82 14 83 18 84 19 85 23 86
REMARK SMILES IDX 20 87 22 88 21 89
REMARK H PARENT 80 22 48 33 17 79
REMARK Flexibility Score: inf
ROOT
ATOM      1  C   UNL A   1      31.810  30.858  26.821  1.00  0.00     0.275 C 
ENDROOT
BRANCH   1   2
ATOM      2  O   UNL A   1      32.908  31.754  26.663  1.00  0.00    -0.458 OA
BRANCH   2   3
ATOM      3  C   UNL A   1      33.716  32.251  27.626  1.00  0.00     0.338 C 
ATOM      4  O   UNL A   1      33.435  33.352  28.099  1.00  0.00    -0.246 OA
BRANCH   3   5
ATOM      5  C   UNL A   1      35.007  31.602  28.046  1.00  0.00     0.060 A 
ATOM      6  C   UNL A   1      36.273  32.188  28.214  1.00  0.00     0.016 A 
ATOM      7  C   UNL A   1      34.887  30.259  28.395  1.00  0.00     0.016 A 
ATOM      8  C   UNL A   1      37.334  31.520  28.859  1.00  0.00     0.010 A 
ATOM      9  C   UNL A   1      35.921  29.614  29.064  1.00  0.00     0.010 A 
ATOM     10  C   UNL A   1      37.159  30.232  29.339  1.00  0.00    -0.014 A 
BRANCH  10  11
ATOM     11  C   UNL A   1      38.192  29.426  30.072  1.00  0.00     0.031 A 
ATOM     12  C   UNL A   1      38.585  29.956  31.429  1.00  0.00     0.074 A 
ATOM     13  C   UNL A   1      38.958  28.475  29.484  1.00  0.00     0.049 A 
ATOM     14  N   UNL A   1      39.732  29.900  32.046  1.00  0.00    -0.248 NA
ATOM     15  C   UNL A   1      37.580  30.814  32.089  1.00  0.00     0.031 C 
ATOM     16  C   UNL A   1      38.782  27.914  28.142  1.00  0.00     0.029 A 
ATOM     17  N   UNL A   1      40.159  27.927  29.908  1.00  0.00    -0.354 N 
ATOM     18  C   UNL A   1      39.607  30.792  33.103  1.00  0.00     0.074 A 
ATOM     19  C   UNL A   1      38.355  31.490  32.919  1.00  0.00     0.031 C 
ATOM     20  C   UNL A   1      39.879  27.204  27.808  1.00  0.00     0.029 A 
ATOM     21  C   UNL A   1      40.856  27.296  28.890  1.00  0.00     0.049 A 
ATOM     22  H   UNL A   1      40.483  27.981  30.835  1.00  0.00     0.167 HD
ATOM     23  C   UNL A   1      40.394  30.948  34.193  1.00  0.00     0.034 A 
ATOM     24  C   UNL A   1      42.155  26.927  28.808  1.00  0.00     0.034 A 
ATOM     25  C   UNL A   1      41.547  30.135  34.430  1.00  0.00     0.049 A 
ATOM     26  C   UNL A   1      43.036  27.065  30.026  1.00  0.00     0.074 A 
ATOM     27  C   UNL A   1      42.274  29.977  35.593  1.00  0.00     0.029 A 
ATOM     28  N   UNL A   1      42.130  29.326  33.469  1.00  0.00    -0.354 N 
ATOM     29  N   UNL A   1      42.807  27.712  31.141  1.00  0.00    -0.248 NA
ATOM     30  C   UNL A   1      44.318  26.339  30.010  1.00  0.00     0.031 C 
ATOM     31  C   UNL A   1      43.309  29.072  35.331  1.00  0.00     0.029 A 
ATOM     32  C   UNL A   1      43.200  28.650  34.014  1.00  0.00     0.049 A 
ATOM     33  H   UNL A   1      41.824  29.245  32.537  1.00  0.00     0.167 HD
ATOM     34  C   UNL A   1      43.850  27.372  31.998  1.00  0.00     0.074 A 
ATOM     35  C   UNL A   1      44.748  26.518  31.253  1.00  0.00     0.031 C 
ATOM     36  C   UNL A   1      44.019  27.707  33.299  1.00  0.00     0.034 A 
BRANCH  23  37
ATOM     37  C   UNL A   1      39.932  31.928  35.243  1.00  0.00     0.023 A 
ATOM     38  C   UNL A   1      40.495  33.225  35.277  1.00  0.00     0.012 A 
ATOM     39  C   UNL A   1      38.983  31.570  36.215  1.00  0.00     0.148 A 
ATOM     40  C   UNL A   1      40.231  34.094  36.331  1.00  0.00     0.002 A 
ATOM     41  C   UNL A   1      38.659  32.478  37.219  1.00  0.00     0.091 A 
ATOM     42  F   UNL A   1      38.444  30.344  36.171  1.00  0.00    -0.205 F 
ATOM     43  C   UNL A   1      39.310  33.720  37.301  1.00  0.00     0.022 A 
BRANCH  41  44
ATOM     44  S   UNL A   1      37.384  32.154  38.439  1.00  0.00     0.127 S 
ATOM     45  O   UNL A   1      37.977  32.733  39.646  1.00  0.00    -0.237 OA
ATOM     46  O   UNL A   1      36.249  32.909  37.899  1.00  0.00    -0.237 OA
ATOM     47  O   UNL A   1      37.199  30.715  38.456  1.00  0.00    -0.744 OA
ENDBRANCH  41  44
ENDBRANCH  23  37
BRANCH  24  48
ATOM     48  C   UNL A   1      42.734  26.334  27.563  1.00  0.00     0.023 A 
ATOM     49  C   UNL A   1      43.317  27.189  26.607  1.00  0.00     0.012 A 
ATOM     50  C   UNL A   1      42.621  24.959  27.269  1.00  0.00     0.148 A 
ATOM     51  C   UNL A   1      43.738  26.697  25.370  1.00  0.00     0.002 A 
ATOM     52  C   UNL A   1      43.077  24.469  26.047  1.00  0.00     0.091 A 
ATOM     53  F   UNL A   1      42.043  24.160  28.174  1.00  0.00    -0.205 F 
ATOM     54  C   UNL A   1      43.619  25.340  25.089  1.00  0.00     0.022 A 
BRANCH  52  55
ATOM     55  S   UNL A   1      43.018  22.726  25.602  1.00  0.00     0.127 S 
ATOM     56  O   UNL A   1      43.919  22.131  26.588  1.00  0.00    -0.237 OA
ATOM     57  O   UNL A   1      41.600  22.424  25.802  1.00  0.00    -0.237 OA
ATOM     58  O   UNL A   1      43.473  22.653  24.222  1.00  0.00    -0.744 OA
ENDBRANCH  52  55
ENDBRANCH  24  48
BRANCH  36  59
ATOM     59  C   UNL A   1      45.085  27.014  34.099  1.00  0.00     0.023 A 
ATOM     60  C   UNL A   1      46.364  27.575  34.249  1.00  0.00     0.012 A 
ATOM     61  C   UNL A   1      44.724  25.881  34.859  1.00  0.00     0.148 A 
ATOM     62  C   UNL A   1      47.268  27.020  35.156  1.00  0.00     0.002 A 
ATOM     63  C   UNL A   1      45.606  25.371  35.800  1.00  0.00     0.091 A 
ATOM     64  F   UNL A   1      43.505  25.353  34.675  1.00  0.00    -0.205 F 
ATOM     65  C   UNL A   1      46.882  25.935  35.945  1.00  0.00     0.022 A 
BRANCH  63  66
ATOM     66  S   UNL A   1      45.140  24.067  36.945  1.00  0.00     0.127 S 
ATOM     67  O   UNL A   1      46.380  23.870  37.693  1.00  0.00    -0.237 OA
ATOM     68  O   UNL A   1      44.062  24.698  37.705  1.00  0.00    -0.237 OA
ATOM     69  O   UNL A   1      44.725  22.935  36.126  1.00  0.00    -0.744 OA
ENDBRANCH  63  66
ENDBRANCH  36  59
ENDBRANCH  10  11
ENDBRANCH   3   5
ENDBRANCH   2   3
ENDBRANCH   1   2
BRANCH   1  70
ATOM     70  C   UNL A   1      31.941  29.512  26.088  1.00  0.00     0.274 C 
BRANCH  70  71
ATOM     71  O   UNL A   1      32.334  28.366  26.885  1.00  0.00    -0.458 OA
BRANCH  71  72
ATOM     72  C   UNL A   1      31.865  27.170  26.433  1.00  0.00     0.365 C 
ATOM     73  O   UNL A   1      30.848  26.652  26.898  1.00  0.00    -0.245 OA
BRANCH  72  74
ATOM     74  C   UNL A   1      32.652  26.469  25.307  1.00  0.00     0.296 C 
ATOM     75  C   UNL A   1      34.085  26.144  25.726  1.00  0.00     0.087 C 
ATOM     76  N   UNL A   1      32.088  25.226  24.702  1.00  0.00    -0.318 N 
ATOM     77  C   UNL A   1      34.466  24.993  24.816  1.00  0.00     0.054 C 
ATOM     78  C   UNL A   1      33.169  24.201  24.737  1.00  0.00     0.188 C 
ATOM     79  H   UNL A   1      31.292  24.941  25.271  1.00  0.00     0.349 HD
ATOM     80  C   UNL A   1      35.648  24.133  25.263  1.00  0.00     0.010 C 
ATOM     81  C   UNL A   1      33.373  23.077  23.715  1.00  0.00     0.065 C 
ATOM     82  C   UNL A   1      35.786  22.832  24.462  1.00  0.00     0.001 C 
ATOM     83  C   UNL A   1      34.465  22.113  24.189  1.00  0.00     0.006 C 
BRANCH  76  84
ATOM     84  C   UNL A   1      31.354  25.336  23.415  1.00  0.00     0.186 C 
ATOM     85  C   UNL A   1      29.822  25.400  23.572  1.00  0.00     0.076 C 
ATOM     86  C   UNL A   1      31.786  26.381  22.367  1.00  0.00     0.076 C 
ATOM     87  C   UNL A   1      29.212  26.756  23.911  1.00  0.00     0.075 C 
ATOM     88  C   UNL A   1      31.513  27.831  22.697  1.00  0.00     0.075 C 
ATOM     89  S   UNL A   1      29.741  28.175  22.903  1.00  0.00    -0.162 SA
ENDBRANCH  76  84
ENDBRANCH  72  74
ENDBRANCH  71  72
ENDBRANCH  70  71
ENDBRANCH   1  70
TORSDOF 15
ENDMDL
MODEL 2
REMARK VINA RESULT:     -11.7      1.763      8.306
REMARK SMILES O=C(OCCOC(=O)[C@H]1C[C@H]2CCCC[C@@H]2[N@@H+]1C1CCSCC1)c1ccc(-c2c3nc(c(-c4cccc(S(=O)(=O)[O-])c4F)c4ccc([nH]4)c(-c4cccc(S(=O)(=O)[O-])c4F)c4nc(c(-c5cccc(S(=O)(=O)[O-])c5F)c5ccc2[nH]5)C=C4)C=C3)cc1
REMARK SMILES IDX 4 1 3 2 2 3 1 4 24 5 25 6 86 7 26 8 85 9 27 10 28 11 29 12
REMARK SMILES IDX 79 13 30 14 84 15 78 16 80 17 31 18 83 19 77 20 76 21 32 23
REMARK SMILES IDX 64 24 44 25 63 26 45 27 48 28 62 29 81 30 46 31 47 32 61 34
REMARK SMILES IDX 82 35 49 36 33 37 34 38 42 39 35 40 37 41 43 42 36 43 38 44
REMARK SMILES IDX 39 45 40 46 41 47 65 48 66 49 74 50 67 51 69 52 75 53 68 54
REMARK SMILES IDX 70 55 71 56 72 57 73 58 50 59 51 60 59 61 52 62 54 63 60 64
REMARK SMILES IDX 53 65 55 66 56 67 57 68 58 69 5 70 6 71 7 72 8 73 9 74 10 75
REMARK SMILES IDX 17 76 11 77 16 78 12 80 15 81 13 82 14 83 18 84 19 85 23 86
REMARK SMILES IDX 20 87 22 88 21 89
REMARK H PARENT 80 22 48 33 17 79
REMARK Flexibility Score: inf
ROOT
ATOM      1  C   UNL A   1      31.733  28.556  27.203  1.00  0.00     0.275 C 
ENDROOT
BRANCH   1   2
ATOM      2  O   UNL A   1      32.829  29.303  26.679  1.00  0.00    -0.458 OA
BRANCH   2   3
ATOM      3  C   UNL A   1      33.334  30.468  27.142  1.00  0.00     0.338 C 
ATOM      4  O   UNL A   1      32.603  31.459  27.122  1.00  0.00    -0.246 OA
BRANCH   3   5
ATOM      5  C   UNL A   1      34.771  30.651  27.547  1.00  0.00     0.060 A 
ATOM      6  C   UNL A   1      35.519  31.837  27.626  1.00  0.00     0.016 A 
ATOM      7  C   UNL A   1      35.397  29.485  27.980  1.00  0.00     0.016 A 
ATOM      8  C   UNL A   1      36.774  31.896  28.266  1.00  0.00     0.010 A 
ATOM      9  C   UNL A   1      36.618  29.550  28.644  1.00  0.00     0.010 A 
ATOM     10  C   UNL A   1      37.325  30.756  28.829  1.00  0.00    -0.014 A 
BRANCH  10  11
ATOM     11  C   UNL A   1      38.632  30.691  29.565  1.00  0.00     0.031 A 
ATOM     12  C   UNL A   1      39.607  29.653  29.067  1.00  0.00     0.074 A 
ATOM     13  C   UNL A   1      38.847  31.278  30.768  1.00  0.00     0.049 A 
ATOM     14  N   UNL A   1      40.489  28.953  29.723  1.00  0.00    -0.248 NA
ATOM     15  C   UNL A   1      39.423  29.236  27.661  1.00  0.00     0.031 C 
ATOM     16  C   UNL A   1      37.966  32.232  31.447  1.00  0.00     0.029 A 
ATOM     17  N   UNL A   1      39.827  31.015  31.713  1.00  0.00    -0.354 N 
ATOM     18  C   UNL A   1      40.884  27.961  28.835  1.00  0.00     0.074 A 
ATOM     19  C   UNL A   1      40.012  28.053  27.687  1.00  0.00     0.031 C 
ATOM     20  C   UNL A   1      38.372  32.383  32.724  1.00  0.00     0.029 A 
ATOM     21  C   UNL A   1      39.513  31.504  32.970  1.00  0.00     0.049 A 
ATOM     22  H   UNL A   1      40.659  30.530  31.511  1.00  0.00     0.167 HD
ATOM     23  C   UNL A   1      41.941  27.118  28.903  1.00  0.00     0.034 A 
ATOM     24  C   UNL A   1      40.020  31.200  34.187  1.00  0.00     0.034 A 
ATOM     25  C   UNL A   1      42.881  27.152  29.980  1.00  0.00     0.049 A 
ATOM     26  C   UNL A   1      41.220  30.288  34.275  1.00  0.00     0.074 A 
ATOM     27  C   UNL A   1      44.134  26.574  30.059  1.00  0.00     0.029 A 
ATOM     28  N   UNL A   1      42.666  27.825  31.170  1.00  0.00    -0.354 N 
ATOM     29  N   UNL A   1      41.750  29.529  33.348  1.00  0.00    -0.248 NA
ATOM     30  C   UNL A   1      41.951  30.265  35.553  1.00  0.00     0.031 C 
ATOM     31  C   UNL A   1      44.674  26.893  31.309  1.00  0.00     0.029 A 
ATOM     32  C   UNL A   1      43.767  27.694  31.988  1.00  0.00     0.049 A 
ATOM     33  H   UNL A   1      41.848  28.324  31.398  1.00  0.00     0.167 HD
ATOM     34  C   UNL A   1      42.935  29.040  33.890  1.00  0.00     0.074 A 
ATOM     35  C   UNL A   1      43.014  29.531  35.247  1.00  0.00     0.031 C 
ATOM     36  C   UNL A   1      43.890  28.287  33.293  1.00  0.00     0.034 A 
BRANCH  23  37
ATOM     37  C   UNL A   1      42.183  26.219  27.716  1.00  0.00     0.023 A 
ATOM     38  C   UNL A   1      42.784  26.753  26.552  1.00  0.00     0.012 A 
ATOM     39  C   UNL A   1      41.790  24.870  27.724  1.00  0.00     0.148 A 
ATOM     40  C   UNL A   1      42.861  26.009  25.379  1.00  0.00     0.002 A 
ATOM     41  C   UNL A   1      41.949  24.107  26.572  1.00  0.00     0.091 A 
ATOM     42  F   UNL A   1      41.233  24.367  28.834  1.00  0.00    -0.205 F 
ATOM     43  C   UNL A   1      42.445  24.684  25.391  1.00  0.00     0.022 A 
BRANCH  41  44
ATOM     44  S   UNL A   1      41.577  22.352  26.517  1.00  0.00     0.127 S 
ATOM     45  O   UNL A   1      42.279  21.940  25.299  1.00  0.00    -0.237 OA
ATOM     46  O   UNL A   1      42.189  21.874  27.760  1.00  0.00    -0.237 OA
ATOM     47  O   UNL A   1      40.130  22.249  26.476  1.00  0.00    -0.744 OA
ENDBRANCH  41  44
ENDBRANCH  23  37
BRANCH  24  48
ATOM     48  C   UNL A   1      39.466  31.786  35.446  1.00  0.00     0.023 A 
ATOM     49  C   UNL A   1      38.424  31.109  36.111  1.00  0.00     0.012 A 
ATOM     50  C   UNL A   1      39.883  33.042  35.932  1.00  0.00     0.148 A 
ATOM     51  C   UNL A   1      37.779  31.689  37.206  1.00  0.00     0.002 A 
ATOM     52  C   UNL A   1      39.259  33.598  37.048  1.00  0.00     0.091 A 
ATOM     53  F   UNL A   1      40.856  33.687  35.278  1.00  0.00    -0.205 F 
ATOM     54  C   UNL A   1      38.196  32.931  37.674  1.00  0.00     0.022 A 
BRANCH  52  55
ATOM     55  S   UNL A   1      39.751  35.173  37.767  1.00  0.00     0.127 S 
ATOM     56  O   UNL A   1      39.386  36.115  36.710  1.00  0.00    -0.237 OA
ATOM     57  O   UNL A   1      38.903  35.225  38.958  1.00  0.00    -0.237 OA
ATOM     58  O   UNL A   1      41.177  35.061  38.032  1.00  0.00    -0.744 OA
ENDBRANCH  52  55
ENDBRANCH  24  48
BRANCH  36  59
ATOM     59  C   UNL A   1      45.207  28.093  33.989  1.00  0.00     0.023 A 
ATOM     60  C   UNL A   1      46.220  29.064  33.916  1.00  0.00     0.012 A 
ATOM     61  C   UNL A   1      45.343  27.005  34.877  1.00  0.00     0.148 A 
ATOM     62  C   UNL A   1      47.349  28.957  34.729  1.00  0.00     0.002 A 
ATOM     63  C   UNL A   1      46.439  26.938  35.725  1.00  0.00     0.091 A 
ATOM     64  F   UNL A   1      44.370  26.082  34.906  1.00  0.00    -0.205 F 
ATOM     65  C   UNL A   1      47.448  27.910  35.647  1.00  0.00     0.022 A 
BRANCH  63  66
ATOM     66  S   UNL A   1      46.576  25.702  37.021  1.00  0.00     0.127 S 
ATOM     67  O   UNL A   1      46.601  24.461  36.248  1.00  0.00    -0.237 OA
ATOM     68  O   UNL A   1      47.850  26.056  37.647  1.00  0.00    -0.237 OA
ATOM     69  O   UNL A   1      45.410  25.876  37.876  1.00  0.00    -0.744 OA
ENDBRANCH  63  66
ENDBRANCH  36  59
ENDBRANCH  10  11
ENDBRANCH   3   5
ENDBRANCH   2   3
ENDBRANCH   1   2
BRANCH   1  70
ATOM     70  C   UNL A   1      31.775  27.041  26.935  1.00  0.00     0.274 C 
BRANCH  70  71
ATOM     71  O   UNL A   1      30.508  26.385  26.674  1.00  0.00    -0.458 OA
BRANCH  71  72
ATOM     72  C   UNL A   1      30.485  25.617  25.549  1.00  0.00     0.365 C 
ATOM     73  O   UNL A   1      30.721  24.408  25.583  1.00  0.00    -0.245 OA
BRANCH  72  74
ATOM     74  C   UNL A   1      30.152  26.309  24.213  1.00  0.00     0.296 C 
ATOM     75  C   UNL A   1      28.678  26.703  24.122  1.00  0.00     0.087 C 
ATOM     76  N   UNL A   1      30.944  27.508  23.806  1.00  0.00    -0.318 N 
ATOM     77  C   UNL A   1      28.676  27.836  23.116  1.00  0.00     0.054 C 
ATOM     78  C   UNL A   1      29.962  28.574  23.459  1.00  0.00     0.188 C 
ATOM     79  H   UNL A   1      31.517  27.782  24.603  1.00  0.00     0.349 HD
ATOM     80  C   UNL A   1      27.455  28.755  23.126  1.00  0.00     0.010 C 
ATOM     81  C   UNL A   1      30.163  29.670  22.406  1.00  0.00     0.065 C 
ATOM     82  C   UNL A   1      27.653  30.033  22.299  1.00  0.00     0.001 C 
ATOM     83  C   UNL A   1      29.023  30.690  22.470  1.00  0.00     0.006 C 
BRANCH  76  84
ATOM     84  C   UNL A   1      32.057  27.326  22.841  1.00  0.00     0.186 C 
ATOM     85  C   UNL A   1      33.456  27.334  23.490  1.00  0.00     0.076 C 
ATOM     86  C   UNL A   1      32.002  26.187  21.803  1.00  0.00     0.076 C 
ATOM     87  C   UNL A   1      33.937  26.034  24.123  1.00  0.00     0.075 C 
ATOM     88  C   UNL A   1      32.169  24.779  22.329  1.00  0.00     0.075 C 
ATOM     89  S   UNL A   1      33.781  24.521  23.126  1.00  0.00    -0.162 SA
ENDBRANCH  76  84
ENDBRANCH  72  74
ENDBRANCH  71  72
ENDBRANCH  70  71
ENDBRANCH   1  70
TORSDOF 15
ENDMDL
MODEL 3
REMARK VINA RESULT:     -11.4      5.156     10.326
REMARK SMILES O=C(OCCOC(=O)[C@H]1C[C@H]2CCCC[C@@H]2[N@@H+]1C1CCSCC1)c1ccc(-c2c3nc(c(-c4cccc(S(=O)(=O)[O-])c4F)c4ccc([nH]4)c(-c4cccc(S(=O)(=O)[O-])c4F)c4nc(c(-c5cccc(S(=O)(=O)[O-])c5F)c5ccc2[nH]5)C=C4)C=C3)cc1
REMARK SMILES IDX 4 1 3 2 2 3 1 4 24 5 25 6 86 7 26 8 85 9 27 10 28 11 29 12
REMARK SMILES IDX 79 13 30 14 84 15 78 16 80 17 31 18 83 19 77 20 76 21 32 23
REMARK SMILES IDX 64 24 44 25 63 26 45 27 48 28 62 29 81 30 46 31 47 32 61 34
REMARK SMILES IDX 82 35 49 36 33 37 34 38 42 39 35 40 37 41 43 42 36 43 38 44
REMARK SMILES IDX 39 45 40 46 41 47 65 48 66 49 74 50 67 51 69 52 75 53 68 54
REMARK SMILES IDX 70 55 71 56 72 57 73 58 50 59 51 60 59 61 52 62 54 63 60 64
REMARK SMILES IDX 53 65 55 66 56 67 57 68 58 69 5 70 6 71 7 72 8 73 9 74 10 75
REMARK SMILES IDX 17 76 11 77 16 78 12 80 15 81 13 82 14 83 18 84 19 85 23 86
REMARK SMILES IDX 20 87 22 88 21 89
REMARK H PARENT 80 22 48 33 17 79
REMARK Flexibility Score: inf
ROOT
ATOM      1  C   UNL A   1      37.306  20.648  25.264  1.00  0.00     0.275 C 
ENDROOT
BRANCH   1   2
ATOM      2  O   UNL A   1      38.500  21.427  25.261  1.00  0.00    -0.458 OA
BRANCH   2   3
ATOM      3  C   UNL A   1      39.371  21.612  26.278  1.00  0.00     0.338 C 
ATOM      4  O   UNL A   1      39.793  20.613  26.861  1.00  0.00    -0.246 OA
BRANCH   3   5
ATOM      5  C   UNL A   1      39.742  22.965  26.822  1.00  0.00     0.060 A 
ATOM      6  C   UNL A   1      40.689  23.288  27.808  1.00  0.00     0.016 A 
ATOM      7  C   UNL A   1      39.111  24.031  26.186  1.00  0.00     0.016 A 
ATOM      8  C   UNL A   1      41.118  24.611  28.037  1.00  0.00     0.010 A 
ATOM      9  C   UNL A   1      39.562  25.332  26.385  1.00  0.00     0.010 A 
ATOM     10  C   UNL A   1      40.593  25.654  27.292  1.00  0.00    -0.014 A 
BRANCH  10  11
ATOM     11  C   UNL A   1      40.988  27.098  27.412  1.00  0.00     0.031 A 
ATOM     12  C   UNL A   1      42.443  27.396  27.148  1.00  0.00     0.074 A 
ATOM     13  C   UNL A   1      40.214  28.041  28.002  1.00  0.00     0.049 A 
ATOM     14  N   UNL A   1      43.216  28.306  27.670  1.00  0.00    -0.248 NA
ATOM     15  C   UNL A   1      43.148  26.409  26.304  1.00  0.00     0.031 C 
ATOM     16  C   UNL A   1      38.816  27.896  28.415  1.00  0.00     0.029 A 
ATOM     17  N   UNL A   1      40.571  29.283  28.506  1.00  0.00    -0.354 N 
ATOM     18  C   UNL A   1      44.501  27.936  27.294  1.00  0.00     0.074 A 
ATOM     19  C   UNL A   1      44.398  26.636  26.670  1.00  0.00     0.031 C 
ATOM     20  C   UNL A   1      38.471  28.936  29.199  1.00  0.00     0.029 A 
ATOM     21  C   UNL A   1      39.635  29.801  29.386  1.00  0.00     0.049 A 
ATOM     22  H   UNL A   1      41.404  29.747  28.264  1.00  0.00     0.167 HD
ATOM     23  C   UNL A   1      45.652  28.645  27.353  1.00  0.00     0.034 A 
ATOM     24  C   UNL A   1      39.738  30.789  30.303  1.00  0.00     0.034 A 
ATOM     25  C   UNL A   1      45.700  29.991  27.834  1.00  0.00     0.049 A 
ATOM     26  C   UNL A   1      41.004  31.611  30.358  1.00  0.00     0.074 A 
ATOM     27  C   UNL A   1      46.708  30.926  27.701  1.00  0.00     0.029 A 
ATOM     28  N   UNL A   1      44.670  30.596  28.535  1.00  0.00    -0.354 N 
ATOM     29  N   UNL A   1      42.161  31.382  29.788  1.00  0.00    -0.248 NA
ATOM     30  C   UNL A   1      40.948  32.879  31.105  1.00  0.00     0.031 C 
ATOM     31  C   UNL A   1      46.287  32.101  28.334  1.00  0.00     0.029 A 
ATOM     32  C   UNL A   1      45.008  31.899  28.830  1.00  0.00     0.049 A 
ATOM     33  H   UNL A   1      43.824  30.160  28.784  1.00  0.00     0.167 HD
ATOM     34  C   UNL A   1      42.923  32.528  30.004  1.00  0.00     0.074 A 
ATOM     35  C   UNL A   1      42.124  33.420  30.814  1.00  0.00     0.031 C 
ATOM     36  C   UNL A   1      44.157  32.823  29.532  1.00  0.00     0.034 A 
BRANCH  23  37
ATOM     37  C   UNL A   1      46.883  28.013  26.753  1.00  0.00     0.023 A 
ATOM     38  C   UNL A   1      47.861  27.451  27.607  1.00  0.00     0.012 A 
ATOM     39  C   UNL A   1      47.102  28.004  25.365  1.00  0.00     0.148 A 
ATOM     40  C   UNL A   1      49.087  27.022  27.107  1.00  0.00     0.002 A 
ATOM     41  C   UNL A   1      48.296  27.494  24.866  1.00  0.00     0.091 A 
ATOM     42  F   UNL A   1      46.167  28.527  24.560  1.00  0.00    -0.205 F 
ATOM     43  C   UNL A   1      49.303  27.041  25.736  1.00  0.00     0.022 A 
BRANCH  41  44
ATOM     44  S   UNL A   1      48.622  27.341  23.108  1.00  0.00     0.127 S 
ATOM     45  O   UNL A   1      49.990  27.857  23.016  1.00  0.00    -0.237 OA
ATOM     46  O   UNL A   1      48.506  25.895  22.903  1.00  0.00    -0.237 OA
ATOM     47  O   UNL A   1      47.605  28.131  22.440  1.00  0.00    -0.744 OA
ENDBRANCH  41  44
ENDBRANCH  23  37
BRANCH  24  48
ATOM     48  C   UNL A   1      38.616  31.134  31.229  1.00  0.00     0.023 A 
ATOM     49  C   UNL A   1      38.658  30.661  32.556  1.00  0.00     0.012 A 
ATOM     50  C   UNL A   1      37.470  31.827  30.788  1.00  0.00     0.148 A 
ATOM     51  C   UNL A   1      37.567  30.834  33.412  1.00  0.00     0.002 A 
ATOM     52  C   UNL A   1      36.400  32.029  31.659  1.00  0.00     0.091 A 
ATOM     53  F   UNL A   1      37.431  32.250  29.519  1.00  0.00    -0.205 F 
ATOM     54  C   UNL A   1      36.440  31.517  32.964  1.00  0.00     0.022 A 
BRANCH  52  55
ATOM     55  S   UNL A   1      34.917  32.940  31.201  1.00  0.00     0.127 S 
ATOM     56  O   UNL A   1      34.050  32.706  32.355  1.00  0.00    -0.237 OA
ATOM     57  O   UNL A   1      35.438  34.302  31.089  1.00  0.00    -0.237 OA
ATOM     58  O   UNL A   1      34.460  32.352  29.951  1.00  0.00    -0.744 OA
ENDBRANCH  52  55
ENDBRANCH  24  48
BRANCH  36  59
ATOM     59  C   UNL A   1      44.679  34.225  29.679  1.00  0.00     0.023 A 
ATOM     60  C   UNL A   1      45.455  34.601  30.787  1.00  0.00     0.012 A 
ATOM     61  C   UNL A   1      44.537  35.110  28.590  1.00  0.00     0.148 A 
ATOM     62  C   UNL A   1      46.094  35.842  30.803  1.00  0.00     0.002 A 
ATOM     63  C   UNL A   1      45.222  36.316  28.587  1.00  0.00     0.091 A 
ATOM     64  F   UNL A   1      43.768  34.732  27.558  1.00  0.00    -0.205 F 
ATOM     65  C   UNL A   1      45.996  36.688  29.696  1.00  0.00     0.022 A 
BRANCH  63  66
ATOM     66  S   UNL A   1      45.256  37.397  27.152  1.00  0.00     0.127 S 
ATOM     67  O   UNL A   1      45.939  36.563  26.166  1.00  0.00    -0.237 OA
ATOM     68  O   UNL A   1      43.832  37.607  26.894  1.00  0.00    -0.237 OA
ATOM     69  O   UNL A   1      45.982  38.593  27.560  1.00  0.00    -0.744 OA
ENDBRANCH  63  66
ENDBRANCH  36  59
ENDBRANCH  10  11
ENDBRANCH   3   5
ENDBRANCH   2   3
ENDBRANCH   1   2
BRANCH   1  70
ATOM     70  C   UNL A   1      36.009  21.420  24.964  1.00  0.00     0.274 C 
BRANCH  70  71
ATOM     71  O   UNL A   1      36.052  22.861  25.125  1.00  0.00    -0.458 OA
BRANCH  71  72
ATOM     72  C   UNL A   1      35.207  23.550  24.309  1.00  0.00     0.365 C 
ATOM     73  O   UNL A   1      35.416  23.659  23.099  1.00  0.00    -0.245 OA
BRANCH  72  74
ATOM     74  C   UNL A   1      33.964  24.202  24.946  1.00  0.00     0.296 C 
ATOM     75  C   UNL A   1      34.315  25.476  25.715  1.00  0.00     0.087 C 
ATOM     76  N   UNL A   1      32.798  24.532  24.074  1.00  0.00    -0.318 N 
ATOM     77  C   UNL A   1      33.013  26.252  25.724  1.00  0.00     0.054 C 
ATOM     78  C   UNL A   1      32.452  25.957  24.340  1.00  0.00     0.188 C 
ATOM     79  H   UNL A   1      33.091  24.399  23.107  1.00  0.00     0.349 HD
ATOM     80  C   UNL A   1      33.115  27.751  26.005  1.00  0.00     0.010 C 
ATOM     81  C   UNL A   1      31.047  26.567  24.271  1.00  0.00     0.065 C 
ATOM     82  C   UNL A   1      31.815  28.511  25.709  1.00  0.00     0.001 C 
ATOM     83  C   UNL A   1      31.116  28.090  24.417  1.00  0.00     0.006 C 
BRANCH  76  84
ATOM     84  C   UNL A   1      31.650  23.591  24.043  1.00  0.00     0.186 C 
ATOM     85  C   UNL A   1      31.730  22.544  22.915  1.00  0.00     0.076 C 
ATOM     86  C   UNL A   1      31.191  22.888  25.336  1.00  0.00     0.076 C 
ATOM     87  C   UNL A   1      32.592  21.312  23.168  1.00  0.00     0.075 C 
ATOM     88  C   UNL A   1      32.106  21.822  25.893  1.00  0.00     0.075 C 
ATOM     89  S   UNL A   1      32.340  20.436  24.741  1.00  0.00    -0.162 SA
ENDBRANCH  76  84
ENDBRANCH  72  74
ENDBRANCH  71  72
ENDBRANCH  70  71
ENDBRANCH   1  70
TORSDOF 15
ENDMDL
