MODEL 1
REMARK VINA RESULT:     -10.0      0.000      0.000
REMARK SMILES CN(CC(=O)OCCOC(=O)c1ccc(-c2c3nc(c(-c4cccc(S(=O)(=O)[O-])c4F)c4ccc([nH]4)c(-c4cccc(S(=O)(=O)[O-])c4F)c4nc(c(-c5cccc(S(=O)(=O)[O-])c5F)c5ccc2[nH]5)C=C4)C=C3)cc1)C(=O)c1ccccn1
REMARK SMILES IDX 7 1 6 2 4 3 5 4 3 5 2 6 1 7 75 8 76 9 77 10 78 11 82 12
REMARK SMILES IDX 79 13 81 14 80 15 8 16 9 17 10 18 11 19 12 20 13 21 74 22
REMARK SMILES IDX 14 23 73 24 15 25 16 26 17 27 67 28 18 29 72 30 66 31 68 32
REMARK SMILES IDX 19 33 71 34 65 35 64 36 20 38 52 39 32 40 51 41 33 42 36 43
REMARK SMILES IDX 50 44 69 45 34 46 35 47 49 49 70 50 37 51 21 52 22 53 30 54
REMARK SMILES IDX 23 55 25 56 31 57 24 58 26 59 27 60 28 61 29 62 53 63 54 64
REMARK SMILES IDX 62 65 55 66 57 67 63 68 56 69 58 70 59 71 60 72 61 73 38 74
REMARK SMILES IDX 39 75 47 76 40 77 42 78 48 79 41 80 43 81 44 82 45 83 46 84
REMARK H PARENT 68 37 36 48
REMARK Flexibility Score: inf
ROOT
ATOM      1  C   UNL A   1      34.360  34.492  28.438  1.00  0.00     0.274 C 
ENDROOT
BRANCH   1   2
ATOM      2  O   UNL A   1      33.411  34.757  29.500  1.00  0.00    -0.461 OA
BRANCH   2   3
ATOM      3  C   UNL A   1      32.905  36.021  29.536  1.00  0.00     0.325 C 
ATOM      4  O   UNL A   1      32.098  36.455  28.716  1.00  0.00    -0.250 OA
BRANCH   3   5
ATOM      5  C   UNL A   1      33.287  36.829  30.786  1.00  0.00     0.242 C 
BRANCH   5   6
ATOM      6  N   UNL A   1      33.073  36.255  32.118  1.00  0.00    -0.329 N 
ATOM      7  C   UNL A   1      31.689  36.051  32.503  1.00  0.00     0.147 C 
BRANCH   6   8
ATOM      8  C   UNL A   1      34.073  35.810  32.992  1.00  0.00     0.272 C 
ATOM      9  O   UNL A   1      34.403  36.453  33.992  1.00  0.00    -0.267 OA
BRANCH   8  10
ATOM     10  C   UNL A   1      34.813  34.541  32.737  1.00  0.00     0.128 A 
ATOM     11  C   UNL A   1      36.182  34.529  32.989  1.00  0.00     0.034 A 
ATOM     12  N   UNL A   1      34.101  33.455  32.329  1.00  0.00    -0.251 NA
ATOM     13  C   UNL A   1      36.886  33.353  32.745  1.00  0.00     0.004 A 
ATOM     14  C   UNL A   1      34.820  32.326  32.122  1.00  0.00     0.112 A 
ATOM     15  C   UNL A   1      36.195  32.230  32.299  1.00  0.00     0.020 A 
ENDBRANCH   8  10
ENDBRANCH   6   8
ENDBRANCH   5   6
ENDBRANCH   3   5
ENDBRANCH   2   3
ENDBRANCH   1   2
BRANCH   1  16
ATOM     16  C   UNL A   1      35.000  33.093  28.520  1.00  0.00     0.275 C 
BRANCH  16  17
ATOM     17  O   UNL A   1      34.756  32.274  27.355  1.00  0.00    -0.458 OA
BRANCH  17  18
ATOM     18  C   UNL A   1      34.602  30.974  27.671  1.00  0.00     0.338 C 
ATOM     19  O   UNL A   1      33.551  30.358  27.587  1.00  0.00    -0.246 OA
BRANCH  18  20
ATOM     20  C   UNL A   1      35.815  30.277  28.097  1.00  0.00     0.060 A 
ATOM     21  C   UNL A   1      35.830  29.706  29.373  1.00  0.00     0.016 A 
ATOM     22  C   UNL A   1      36.998  30.447  27.378  1.00  0.00     0.016 A 
ATOM     23  C   UNL A   1      37.039  29.328  29.950  1.00  0.00     0.010 A 
ATOM     24  C   UNL A   1      38.209  30.036  27.945  1.00  0.00     0.010 A 
ATOM     25  C   UNL A   1      38.236  29.488  29.238  1.00  0.00    -0.014 A 
BRANCH  25  26
ATOM     26  C   UNL A   1      39.490  28.943  29.802  1.00  0.00     0.031 A 
ATOM     27  C   UNL A   1      40.139  29.529  31.018  1.00  0.00     0.074 A 
ATOM     28  C   UNL A   1      40.040  27.891  29.168  1.00  0.00     0.049 A 
ATOM     29  N   UNL A   1      41.232  29.149  31.625  1.00  0.00    -0.248 NA
ATOM     30  C   UNL A   1      39.479  30.687  31.640  1.00  0.00     0.031 C 
ATOM     31  C   UNL A   1      39.486  27.259  27.968  1.00  0.00     0.029 A 
ATOM     32  N   UNL A   1      41.186  27.186  29.423  1.00  0.00    -0.354 N 
ATOM     33  C   UNL A   1      41.400  30.016  32.696  1.00  0.00     0.074 A 
ATOM     34  C   UNL A   1      40.295  30.953  32.653  1.00  0.00     0.031 C 
ATOM     35  C   UNL A   1      40.303  26.273  27.578  1.00  0.00     0.029 A 
ATOM     36  C   UNL A   1      41.448  26.222  28.480  1.00  0.00     0.049 A 
ATOM     37  H   UNL A   1      41.762  27.352  30.203  1.00  0.00     0.167 HD
ATOM     38  C   UNL A   1      42.379  30.016  33.633  1.00  0.00     0.034 A 
ATOM     39  C   UNL A   1      42.504  25.399  28.343  1.00  0.00     0.034 A 
ATOM     40  C   UNL A   1      43.470  29.075  33.662  1.00  0.00     0.049 A 
ATOM     41  C   UNL A   1      43.583  25.434  29.382  1.00  0.00     0.074 A 
ATOM     42  C   UNL A   1      44.493  28.968  34.590  1.00  0.00     0.029 A 
ATOM     43  N   UNL A   1      43.688  28.085  32.714  1.00  0.00    -0.354 N 
ATOM     44  N   UNL A   1      43.661  26.181  30.457  1.00  0.00    -0.248 NA
ATOM     45  C   UNL A   1      44.699  24.497  29.214  1.00  0.00     0.031 C 
ATOM     46  C   UNL A   1      45.333  27.919  34.195  1.00  0.00     0.029 A 
ATOM     47  C   UNL A   1      44.833  27.372  33.025  1.00  0.00     0.049 A 
ATOM     48  H   UNL A   1      43.111  27.915  31.934  1.00  0.00     0.167 HD
ATOM     49  C   UNL A   1      44.827  25.796  31.104  1.00  0.00     0.074 A 
ATOM     50  C   UNL A   1      45.409  24.730  30.311  1.00  0.00     0.031 C 
ATOM     51  C   UNL A   1      45.376  26.291  32.239  1.00  0.00     0.034 A 
BRANCH  38  52
ATOM     52  C   UNL A   1      42.296  31.032  34.740  1.00  0.00     0.023 A 
ATOM     53  C   UNL A   1      41.652  30.681  35.944  1.00  0.00     0.012 A 
ATOM     54  C   UNL A   1      42.917  32.292  34.630  1.00  0.00     0.148 A 
ATOM     55  C   UNL A   1      41.620  31.571  37.018  1.00  0.00     0.002 A 
ATOM     56  C   UNL A   1      42.901  33.165  35.715  1.00  0.00     0.091 A 
ATOM     57  F   UNL A   1      43.498  32.620  33.469  1.00  0.00    -0.205 F 
ATOM     58  C   UNL A   1      42.252  32.807  36.908  1.00  0.00     0.022 A 
BRANCH  56  59
ATOM     59  S   UNL A   1      43.735  34.756  35.675  1.00  0.00     0.127 S 
ATOM     60  O   UNL A   1      43.461  35.267  37.016  1.00  0.00    -0.237 OA
ATOM     61  O   UNL A   1      45.129  34.377  35.440  1.00  0.00    -0.237 OA
ATOM     62  O   UNL A   1      43.121  35.493  34.579  1.00  0.00    -0.744 OA
ENDBRANCH  56  59
ENDBRANCH  38  52
BRANCH  39  63
ATOM     63  C   UNL A   1      42.529  24.451  27.198  1.00  0.00     0.023 A 
ATOM     64  C   UNL A   1      43.254  24.783  26.040  1.00  0.00     0.012 A 
ATOM     65  C   UNL A   1      41.944  23.174  27.303  1.00  0.00     0.148 A 
ATOM     66  C   UNL A   1      43.398  23.857  25.006  1.00  0.00     0.002 A 
ATOM     67  C   UNL A   1      42.142  22.236  26.296  1.00  0.00     0.091 A 
ATOM     68  F   UNL A   1      41.236  22.881  28.404  1.00  0.00    -0.205 F 
ATOM     69  C   UNL A   1      42.859  22.579  25.141  1.00  0.00     0.022 A 
BRANCH  67  70
ATOM     70  S   UNL A   1      41.618  20.529  26.503  1.00  0.00     0.127 S 
ATOM     71  O   UNL A   1      40.167  20.642  26.386  1.00  0.00    -0.237 OA
ATOM     72  O   UNL A   1      42.276  19.856  25.380  1.00  0.00    -0.237 OA
ATOM     73  O   UNL A   1      42.135  20.138  27.809  1.00  0.00    -0.744 OA
ENDBRANCH  67  70
ENDBRANCH  39  63
BRANCH  51  74
ATOM     74  C   UNL A   1      46.681  25.692  32.682  1.00  0.00     0.023 A 
ATOM     75  C   UNL A   1      47.884  26.214  32.168  1.00  0.00     0.012 A 
ATOM     76  C   UNL A   1      46.724  24.653  33.629  1.00  0.00     0.148 A 
ATOM     77  C   UNL A   1      49.112  25.695  32.574  1.00  0.00     0.002 A 
ATOM     78  C   UNL A   1      47.954  24.162  34.055  1.00  0.00     0.091 A 
ATOM     79  F   UNL A   1      45.568  24.148  34.085  1.00  0.00    -0.205 F 
ATOM     80  C   UNL A   1      49.147  24.677  33.524  1.00  0.00     0.022 A 
BRANCH  78  81
ATOM     81  S   UNL A   1      48.069  22.899  35.328  1.00  0.00     0.127 S 
ATOM     82  O   UNL A   1      47.390  21.771  34.694  1.00  0.00    -0.237 OA
ATOM     83  O   UNL A   1      49.514  22.731  35.484  1.00  0.00    -0.237 OA
ATOM     84  O   UNL A   1      47.407  23.469  36.494  1.00  0.00    -0.744 OA
ENDBRANCH  78  81
ENDBRANCH  51  74
ENDBRANCH  25  26
ENDBRANCH  18  20
ENDBRANCH  17  18
ENDBRANCH  16  17
ENDBRANCH   1  16
TORSDOF 17
ENDMDL
MODEL 2
REMARK VINA RESULT:     -10.0      0.381      8.092
REMARK SMILES CN(CC(=O)OCCOC(=O)c1ccc(-c2c3nc(c(-c4cccc(S(=O)(=O)[O-])c4F)c4ccc([nH]4)c(-c4cccc(S(=O)(=O)[O-])c4F)c4nc(c(-c5cccc(S(=O)(=O)[O-])c5F)c5ccc2[nH]5)C=C4)C=C3)cc1)C(=O)c1ccccn1
REMARK SMILES IDX 7 1 6 2 4 3 5 4 3 5 2 6 1 7 75 8 76 9 77 10 78 11 82 12
REMARK SMILES IDX 79 13 81 14 80 15 8 16 9 17 10 18 11 19 12 20 13 21 74 22
REMARK SMILES IDX 14 23 73 24 15 25 16 26 17 27 67 28 18 29 72 30 66 31 68 32
REMARK SMILES IDX 19 33 71 34 65 35 64 36 20 38 52 39 32 40 51 41 33 42 36 43
REMARK SMILES IDX 50 44 69 45 34 46 35 47 49 49 70 50 37 51 21 52 22 53 30 54
REMARK SMILES IDX 23 55 25 56 31 57 24 58 26 59 27 60 28 61 29 62 53 63 54 64
REMARK SMILES IDX 62 65 55 66 57 67 63 68 56 69 58 70 59 71 60 72 61 73 38 74
REMARK SMILES IDX 39 75 47 76 40 77 42 78 48 79 41 80 43 81 44 82 45 83 46 84
REMARK H PARENT 68 37 36 48
REMARK Flexibility Score: inf
ROOT
ATOM      1  C   UNL A   1      33.679  34.222  28.394  1.00  0.00     0.274 C 
ENDROOT
BRANCH   1   2
ATOM      2  O   UNL A   1      33.999  35.217  29.398  1.00  0.00    -0.461 OA
BRANCH   2   3
ATOM      3  C   UNL A   1      33.083  36.213  29.552  1.00  0.00     0.325 C 
ATOM      4  O   UNL A   1      32.156  36.412  28.770  1.00  0.00    -0.250 OA
BRANCH   3   5
ATOM      5  C   UNL A   1      33.188  36.980  30.879  1.00  0.00     0.242 C 
BRANCH   5   6
ATOM      6  N   UNL A   1      33.041  36.261  32.149  1.00  0.00    -0.329 N 
ATOM      7  C   UNL A   1      31.683  35.919  32.528  1.00  0.00     0.147 C 
BRANCH   6   8
ATOM      8  C   UNL A   1      34.087  35.806  32.962  1.00  0.00     0.272 C 
ATOM      9  O   UNL A   1      34.429  36.403  33.986  1.00  0.00    -0.267 OA
BRANCH   8  10
ATOM     10  C   UNL A   1      34.864  34.584  32.607  1.00  0.00     0.128 A 
ATOM     11  C   UNL A   1      36.249  34.700  32.519  1.00  0.00     0.034 A 
ATOM     12  N   UNL A   1      34.184  33.416  32.448  1.00  0.00    -0.251 NA
ATOM     13  C   UNL A   1      36.984  33.568  32.179  1.00  0.00     0.004 A 
ATOM     14  C   UNL A   1      34.938  32.334  32.138  1.00  0.00     0.112 A 
ATOM     15  C   UNL A   1      36.318  32.363  31.980  1.00  0.00     0.020 A 
ENDBRANCH   8  10
ENDBRANCH   6   8
ENDBRANCH   5   6
ENDBRANCH   3   5
ENDBRANCH   2   3
ENDBRANCH   1   2
BRANCH   1  16
ATOM     16  C   UNL A   1      34.287  32.836  28.686  1.00  0.00     0.275 C 
BRANCH  16  17
ATOM     17  O   UNL A   1      34.784  32.161  27.509  1.00  0.00    -0.458 OA
BRANCH  17  18
ATOM     18  C   UNL A   1      34.669  30.822  27.605  1.00  0.00     0.338 C 
ATOM     19  O   UNL A   1      33.655  30.192  27.348  1.00  0.00    -0.246 OA
BRANCH  18  20
ATOM     20  C   UNL A   1      35.881  30.109  28.004  1.00  0.00     0.060 A 
ATOM     21  C   UNL A   1      35.976  29.665  29.326  1.00  0.00     0.016 A 
ATOM     22  C   UNL A   1      37.008  30.147  27.182  1.00  0.00     0.016 A 
ATOM     23  C   UNL A   1      37.210  29.282  29.842  1.00  0.00     0.010 A 
ATOM     24  C   UNL A   1      38.242  29.731  27.692  1.00  0.00     0.010 A 
ATOM     25  C   UNL A   1      38.351  29.311  29.028  1.00  0.00    -0.014 A 
BRANCH  25  26
ATOM     26  C   UNL A   1      39.622  28.759  29.545  1.00  0.00     0.031 A 
ATOM     27  C   UNL A   1      40.297  27.581  28.912  1.00  0.00     0.074 A 
ATOM     28  C   UNL A   1      40.155  29.356  30.627  1.00  0.00     0.049 A 
ATOM     29  N   UNL A   1      41.416  26.998  29.254  1.00  0.00    -0.248 NA
ATOM     30  C   UNL A   1      39.639  26.979  27.742  1.00  0.00     0.031 C 
ATOM     31  C   UNL A   1      39.563  30.503  31.320  1.00  0.00     0.029 A 
ATOM     32  N   UNL A   1      41.287  29.076  31.343  1.00  0.00    -0.354 N 
ATOM     33  C   UNL A   1      41.601  25.959  28.351  1.00  0.00     0.074 A 
ATOM     34  C   UNL A   1      40.469  25.986  27.445  1.00  0.00     0.031 C 
ATOM     35  C   UNL A   1      40.326  30.817  32.375  1.00  0.00     0.029 A 
ATOM     36  C   UNL A   1      41.440  29.879  32.448  1.00  0.00     0.049 A 
ATOM     37  H   UNL A   1      41.927  28.372  31.092  1.00  0.00     0.167 HD
ATOM     38  C   UNL A   1      42.628  25.079  28.281  1.00  0.00     0.034 A 
ATOM     39  C   UNL A   1      42.365  29.852  33.425  1.00  0.00     0.034 A 
ATOM     40  C   UNL A   1      43.747  25.069  29.189  1.00  0.00     0.049 A 
ATOM     41  C   UNL A   1      43.479  28.854  33.335  1.00  0.00     0.074 A 
ATOM     42  C   UNL A   1      44.857  24.241  29.181  1.00  0.00     0.029 A 
ATOM     43  N   UNL A   1      43.893  25.919  30.276  1.00  0.00    -0.354 N 
ATOM     44  N   UNL A   1      43.702  27.958  32.403  1.00  0.00    -0.248 NA
ATOM     45  C   UNL A   1      44.485  28.881  34.402  1.00  0.00     0.031 C 
ATOM     46  C   UNL A   1      45.668  24.586  30.269  1.00  0.00     0.029 A 
ATOM     47  C   UNL A   1      45.065  25.629  30.953  1.00  0.00     0.049 A 
ATOM     48  H   UNL A   1      43.256  26.626  30.528  1.00  0.00     0.167 HD
ATOM     49  C   UNL A   1      44.881  27.322  32.763  1.00  0.00     0.074 A 
ATOM     50  C   UNL A   1      45.339  27.955  33.985  1.00  0.00     0.031 C 
ATOM     51  C   UNL A   1      45.519  26.295  32.149  1.00  0.00     0.034 A 
BRANCH  38  52
ATOM     52  C   UNL A   1      42.625  24.080  27.155  1.00  0.00     0.023 A 
ATOM     53  C   UNL A   1      43.290  24.400  25.955  1.00  0.00     0.012 A 
ATOM     54  C   UNL A   1      42.046  22.805  27.305  1.00  0.00     0.148 A 
ATOM     55  C   UNL A   1      43.372  23.470  24.918  1.00  0.00     0.002 A 
ATOM     56  C   UNL A   1      42.151  21.874  26.275  1.00  0.00     0.091 A 
ATOM     57  F   UNL A   1      41.392  22.528  28.442  1.00  0.00    -0.205 F 
ATOM     58  C   UNL A   1      42.812  22.205  25.080  1.00  0.00     0.022 A 
BRANCH  56  59
ATOM     59  S   UNL A   1      41.503  20.205  26.424  1.00  0.00     0.127 S 
ATOM     60  O   UNL A   1      42.181  19.525  25.322  1.00  0.00    -0.237 OA
ATOM     61  O   UNL A   1      41.957  19.806  27.757  1.00  0.00    -0.237 OA
ATOM     62  O   UNL A   1      40.058  20.333  26.295  1.00  0.00    -0.744 OA
ENDBRANCH  56  59
ENDBRANCH  38  52
BRANCH  39  63
ATOM     63  C   UNL A   1      42.274  30.849  34.524  1.00  0.00     0.023 A 
ATOM     64  C   UNL A   1      41.667  30.487  35.740  1.00  0.00     0.012 A 
ATOM     65  C   UNL A   1      42.897  32.107  34.413  1.00  0.00     0.148 A 
ATOM     66  C   UNL A   1      41.685  31.360  36.828  1.00  0.00     0.002 A 
ATOM     67  C   UNL A   1      42.963  32.948  35.518  1.00  0.00     0.091 A 
ATOM     68  F   UNL A   1      43.451  32.447  33.239  1.00  0.00    -0.205 F 
ATOM     69  C   UNL A   1      42.347  32.582  36.724  1.00  0.00     0.022 A 
BRANCH  67  70
ATOM     70  S   UNL A   1      43.952  34.448  35.484  1.00  0.00     0.127 S 
ATOM     71  O   UNL A   1      43.261  35.244  34.474  1.00  0.00    -0.237 OA
ATOM     72  O   UNL A   1      43.823  34.946  36.855  1.00  0.00    -0.237 OA
ATOM     73  O   UNL A   1      45.297  33.998  35.145  1.00  0.00    -0.744 OA
ENDBRANCH  67  70
ENDBRANCH  39  63
BRANCH  51  74
ATOM     74  C   UNL A   1      46.773  25.785  32.801  1.00  0.00     0.023 A 
ATOM     75  C   UNL A   1      48.016  26.313  32.403  1.00  0.00     0.012 A 
ATOM     76  C   UNL A   1      46.722  24.826  33.830  1.00  0.00     0.148 A 
ATOM     77  C   UNL A   1      49.195  25.876  33.004  1.00  0.00     0.002 A 
ATOM     78  C   UNL A   1      47.900  24.419  34.447  1.00  0.00     0.091 A 
ATOM     79  F   UNL A   1      45.532  24.313  34.175  1.00  0.00    -0.205 F 
ATOM     80  C   UNL A   1      49.137  24.938  34.031  1.00  0.00     0.022 A 
BRANCH  78  81
ATOM     81  S   UNL A   1      47.886  23.266  35.825  1.00  0.00     0.127 S 
ATOM     82  O   UNL A   1      47.350  22.059  35.201  1.00  0.00    -0.237 OA
ATOM     83  O   UNL A   1      49.301  23.184  36.190  1.00  0.00    -0.237 OA
ATOM     84  O   UNL A   1      47.044  23.888  36.838  1.00  0.00    -0.744 OA
ENDBRANCH  78  81
ENDBRANCH  51  74
ENDBRANCH  25  26
ENDBRANCH  18  20
ENDBRANCH  17  18
ENDBRANCH  16  17
ENDBRANCH   1  16
TORSDOF 17
ENDMDL
MODEL 3
REMARK VINA RESULT:      -9.9      6.183     12.185
REMARK SMILES CN(CC(=O)OCCOC(=O)c1ccc(-c2c3nc(c(-c4cccc(S(=O)(=O)[O-])c4F)c4ccc([nH]4)c(-c4cccc(S(=O)(=O)[O-])c4F)c4nc(c(-c5cccc(S(=O)(=O)[O-])c5F)c5ccc2[nH]5)C=C4)C=C3)cc1)C(=O)c1ccccn1
REMARK SMILES IDX 7 1 6 2 4 3 5 4 3 5 2 6 1 7 75 8 76 9 77 10 78 11 82 12
REMARK SMILES IDX 79 13 81 14 80 15 8 16 9 17 10 18 11 19 12 20 13 21 74 22
REMARK SMILES IDX 14 23 73 24 15 25 16 26 17 27 67 28 18 29 72 30 66 31 68 32
REMARK SMILES IDX 19 33 71 34 65 35 64 36 20 38 52 39 32 40 51 41 33 42 36 43
REMARK SMILES IDX 50 44 69 45 34 46 35 47 49 49 70 50 37 51 21 52 22 53 30 54
REMARK SMILES IDX 23 55 25 56 31 57 24 58 26 59 27 60 28 61 29 62 53 63 54 64
REMARK SMILES IDX 62 65 55 66 57 67 63 68 56 69 58 70 59 71 60 72 61 73 38 74
REMARK SMILES IDX 39 75 47 76 40 77 42 78 48 79 41 80 43 81 44 82 45 83 46 84
REMARK H PARENT 68 37 36 48
REMARK Flexibility Score: inf
ROOT
ATOM      1  C   UNL A   1      38.566  20.984  25.505  1.00  0.00     0.274 C 
ENDROOT
BRANCH   1   2
ATOM      2  O   UNL A   1      37.143  20.781  25.320  1.00  0.00    -0.461 OA
BRANCH   2   3
ATOM      3  C   UNL A   1      36.371  21.899  25.412  1.00  0.00     0.325 C 
ATOM      4  O   UNL A   1      36.807  23.002  25.736  1.00  0.00    -0.250 OA
BRANCH   3   5
ATOM      5  C   UNL A   1      34.928  21.724  24.915  1.00  0.00     0.242 C 
BRANCH   5   6
ATOM      6  N   UNL A   1      33.930  21.094  25.785  1.00  0.00    -0.329 N 
ATOM      7  C   UNL A   1      33.992  21.461  27.187  1.00  0.00     0.147 C 
BRANCH   6   8
ATOM      8  C   UNL A   1      32.885  20.259  25.367  1.00  0.00     0.272 C 
ATOM      9  O   UNL A   1      31.731  20.674  25.227  1.00  0.00    -0.267 OA
BRANCH   8  10
ATOM     10  C   UNL A   1      33.114  18.811  25.099  1.00  0.00     0.128 A 
ATOM     11  C   UNL A   1      34.188  18.466  24.282  1.00  0.00     0.034 A 
ATOM     12  N   UNL A   1      32.300  17.909  25.713  1.00  0.00    -0.251 NA
ATOM     13  C   UNL A   1      34.406  17.117  24.017  1.00  0.00     0.004 A 
ATOM     14  C   UNL A   1      32.559  16.607  25.444  1.00  0.00     0.112 A 
ATOM     15  C   UNL A   1      33.575  16.168  24.604  1.00  0.00     0.020 A 
ENDBRANCH   8  10
ENDBRANCH   6   8
ENDBRANCH   5   6
ENDBRANCH   3   5
ENDBRANCH   2   3
ENDBRANCH   1   2
BRANCH   1  16
ATOM     16  C   UNL A   1      39.385  19.680  25.459  1.00  0.00     0.275 C 
BRANCH  16  17
ATOM     17  O   UNL A   1      40.266  19.508  26.591  1.00  0.00    -0.458 OA
BRANCH  17  18
ATOM     18  C   UNL A   1      41.563  19.646  26.252  1.00  0.00     0.338 C 
ATOM     19  O   UNL A   1      42.249  18.764  25.759  1.00  0.00    -0.246 OA
BRANCH  18  20
ATOM     20  C   UNL A   1      42.136  20.974  26.464  1.00  0.00     0.060 A 
ATOM     21  C   UNL A   1      42.257  21.434  27.778  1.00  0.00     0.016 A 
ATOM     22  C   UNL A   1      42.266  21.851  25.386  1.00  0.00     0.016 A 
ATOM     23  C   UNL A   1      42.481  22.786  28.022  1.00  0.00     0.010 A 
ATOM     24  C   UNL A   1      42.524  23.203  25.631  1.00  0.00     0.010 A 
ATOM     25  C   UNL A   1      42.618  23.679  26.950  1.00  0.00    -0.014 A 
BRANCH  25  26
ATOM     26  C   UNL A   1      43.006  25.080  27.221  1.00  0.00     0.031 A 
ATOM     27  C   UNL A   1      44.359  25.617  26.866  1.00  0.00     0.074 A 
ATOM     28  C   UNL A   1      42.090  25.865  27.817  1.00  0.00     0.049 A 
ATOM     29  N   UNL A   1      44.830  26.824  27.038  1.00  0.00    -0.248 NA
ATOM     30  C   UNL A   1      45.305  24.687  26.231  1.00  0.00     0.031 C 
ATOM     31  C   UNL A   1      40.749  25.427  28.211  1.00  0.00     0.029 A 
ATOM     32  N   UNL A   1      42.147  27.175  28.212  1.00  0.00    -0.354 N 
ATOM     33  C   UNL A   1      46.127  26.805  26.541  1.00  0.00     0.074 A 
ATOM     34  C   UNL A   1      46.373  25.458  26.064  1.00  0.00     0.031 C 
ATOM     35  C   UNL A   1      40.117  26.443  28.812  1.00  0.00     0.029 A 
ATOM     36  C   UNL A   1      41.015  27.591  28.870  1.00  0.00     0.049 A 
ATOM     37  H   UNL A   1      42.921  27.759  28.042  1.00  0.00     0.167 HD
ATOM     38  C   UNL A   1      47.019  27.824  26.477  1.00  0.00     0.034 A 
ATOM     39  C   UNL A   1      40.736  28.761  29.472  1.00  0.00     0.034 A 
ATOM     40  C   UNL A   1      46.756  29.158  26.954  1.00  0.00     0.049 A 
ATOM     41  C   UNL A   1      41.747  29.865  29.405  1.00  0.00     0.074 A 
ATOM     42  C   UNL A   1      47.579  30.270  26.902  1.00  0.00     0.029 A 
ATOM     43  N   UNL A   1      45.585  29.559  27.582  1.00  0.00    -0.354 N 
ATOM     44  N   UNL A   1      42.922  29.864  28.821  1.00  0.00    -0.248 NA
ATOM     45  C   UNL A   1      41.389  31.136  30.044  1.00  0.00     0.031 C 
ATOM     46  C   UNL A   1      46.908  31.340  27.508  1.00  0.00     0.029 A 
ATOM     47  C   UNL A   1      45.667  30.895  27.934  1.00  0.00     0.049 A 
ATOM     48  H   UNL A   1      44.808  28.978  27.750  1.00  0.00     0.167 HD
ATOM     49  C   UNL A   1      43.440  31.137  29.009  1.00  0.00     0.074 A 
ATOM     50  C   UNL A   1      42.438  31.890  29.739  1.00  0.00     0.031 C 
ATOM     51  C   UNL A   1      44.643  31.634  28.630  1.00  0.00     0.034 A 
BRANCH  38  52
ATOM     52  C   UNL A   1      48.348  27.558  25.824  1.00  0.00     0.023 A 
ATOM     53  C   UNL A   1      49.437  27.161  26.625  1.00  0.00     0.012 A 
ATOM     54  C   UNL A   1      48.504  27.617  24.425  1.00  0.00     0.148 A 
ATOM     55  C   UNL A   1      50.664  26.835  26.046  1.00  0.00     0.002 A 
ATOM     56  C   UNL A   1      49.725  27.267  23.853  1.00  0.00     0.091 A 
ATOM     57  F   UNL A   1      47.467  28.025  23.681  1.00  0.00    -0.205 F 
ATOM     58  C   UNL A   1      50.805  26.878  24.662  1.00  0.00     0.022 A 
BRANCH  56  59
ATOM     59  S   UNL A   1      49.976  27.246  22.074  1.00  0.00     0.127 S 
ATOM     60  O   UNL A   1      48.935  26.318  21.639  1.00  0.00    -0.237 OA
ATOM     61  O   UNL A   1      49.741  28.643  21.704  1.00  0.00    -0.237 OA
ATOM     62  O   UNL A   1      51.348  26.797  21.877  1.00  0.00    -0.744 OA
ENDBRANCH  56  59
ENDBRANCH  38  52
BRANCH  39  63
ATOM     63  C   UNL A   1      39.413  28.930  30.129  1.00  0.00     0.023 A 
ATOM     64  C   UNL A   1      39.197  28.374  31.402  1.00  0.00     0.012 A 
ATOM     65  C   UNL A   1      38.418  29.744  29.555  1.00  0.00     0.148 A 
ATOM     66  C   UNL A   1      38.011  28.627  32.094  1.00  0.00     0.002 A 
ATOM     67  C   UNL A   1      37.265  30.041  30.274  1.00  0.00     0.091 A 
ATOM     68  F   UNL A   1      38.630  30.249  28.330  1.00  0.00    -0.205 F 
ATOM     69  C   UNL A   1      37.054  29.474  31.539  1.00  0.00     0.022 A 
BRANCH  67  70
ATOM     70  S   UNL A   1      36.089  31.262  29.676  1.00  0.00     0.127 S 
ATOM     71  O   UNL A   1      36.971  32.317  29.186  1.00  0.00    -0.237 OA
ATOM     72  O   UNL A   1      35.369  30.527  28.635  1.00  0.00    -0.237 OA
ATOM     73  O   UNL A   1      35.272  31.590  30.839  1.00  0.00    -0.744 OA
ENDBRANCH  67  70
ENDBRANCH  39  63
BRANCH  51  74
ATOM     74  C   UNL A   1      44.943  33.056  29.013  1.00  0.00     0.023 A 
ATOM     75  C   UNL A   1      45.515  33.321  30.272  1.00  0.00     0.012 A 
ATOM     76  C   UNL A   1      44.706  34.118  28.120  1.00  0.00     0.148 A 
ATOM     77  C   UNL A   1      45.825  34.626  30.648  1.00  0.00     0.002 A 
ATOM     78  C   UNL A   1      45.048  35.414  28.490  1.00  0.00     0.091 A 
ATOM     79  F   UNL A   1      44.133  33.850  26.937  1.00  0.00    -0.205 F 
ATOM     80  C   UNL A   1      45.602  35.671  29.755  1.00  0.00     0.022 A 
BRANCH  78  81
ATOM     81  S   UNL A   1      44.850  36.795  27.357  1.00  0.00     0.127 S 
ATOM     82  O   UNL A   1      43.489  36.590  26.869  1.00  0.00    -0.237 OA
ATOM     83  O   UNL A   1      45.014  37.956  28.233  1.00  0.00    -0.237 OA
ATOM     84  O   UNL A   1      45.912  36.638  26.372  1.00  0.00    -0.744 OA
ENDBRANCH  78  81
ENDBRANCH  51  74
ENDBRANCH  25  26
ENDBRANCH  18  20
ENDBRANCH  17  18
ENDBRANCH  16  17
ENDBRANCH   1  16
TORSDOF 17
ENDMDL
