MODEL 1
REMARK VINA RESULT:     -12.2      0.000      0.000
REMARK SMILES C[C@@H](C(=O)OCCOC(=O)c1ccc(-c2c3nc(c(-c4cccc(S(=O)(=O)[O-])c4F)c4ccc([nH]4)c(-c4cccc(S(=O)(=O)[O-])c4F)c4nc(c(-c5cccc(S(=O)(=O)[O-])c5F)c5ccc2[nH]5)C=C4)C=C3)cc1)c1ccc(-c2ccccc2)cc1
REMARK SMILES IDX 7 1 6 2 5 3 3 4 4 5 2 6 1 7 74 8 75 9 85 10 76 11 84 12
REMARK SMILES IDX 77 13 78 14 79 15 83 16 80 17 82 18 81 19 8 20 9 21 10 22
REMARK SMILES IDX 11 23 12 24 73 25 13 26 72 27 14 28 15 29 16 30 66 31 17 32
REMARK SMILES IDX 71 33 65 34 67 35 18 36 70 37 64 38 63 39 19 41 51 42 31 43
REMARK SMILES IDX 50 44 32 45 35 46 49 47 68 48 33 49 34 50 48 52 69 53 36 54
REMARK SMILES IDX 20 55 21 56 29 57 22 58 24 59 30 60 23 61 25 62 26 63 27 64
REMARK SMILES IDX 28 65 52 66 53 67 61 68 54 69 56 70 62 71 55 72 57 73 58 74
REMARK SMILES IDX 59 75 60 76 37 77 38 78 46 79 39 80 41 81 47 82 40 83 42 84
REMARK SMILES IDX 43 85 44 86 45 87
REMARK H PARENT 67 40 35 51
REMARK Flexibility Score: inf
ROOT
ATOM      1  C   UNL A   1      36.416  20.359  25.002  1.00  0.00     0.275 C 
ENDROOT
BRANCH   1   2
ATOM      2  C   UNL A   1      34.986  20.706  25.397  1.00  0.00     0.274 C 
BRANCH   2   3
ATOM      3  O   UNL A   1      34.091  20.451  24.294  1.00  0.00    -0.462 OA
BRANCH   3   4
ATOM      4  C   UNL A   1      32.766  20.324  24.589  1.00  0.00     0.313 C 
ATOM      5  O   UNL A   1      32.315  19.496  25.373  1.00  0.00    -0.252 OA
BRANCH   4   6
ATOM      6  C   UNL A   1      31.889  21.284  23.774  1.00  0.00     0.126 C 
ATOM      7  C   UNL A   1      32.153  21.229  22.265  1.00  0.00     0.025 C 
BRANCH   6   8
ATOM      8  C   UNL A   1      31.935  22.703  24.332  1.00  0.00    -0.034 A 
ATOM      9  C   UNL A   1      31.952  22.903  25.718  1.00  0.00     0.005 A 
ATOM     10  C   UNL A   1      32.022  23.833  23.511  1.00  0.00     0.005 A 
ATOM     11  C   UNL A   1      32.078  24.190  26.265  1.00  0.00     0.009 A 
ATOM     12  C   UNL A   1      32.152  25.117  24.064  1.00  0.00     0.009 A 
ATOM     13  C   UNL A   1      32.211  25.328  25.452  1.00  0.00    -0.018 A 
BRANCH  13  14
ATOM     14  C   UNL A   1      32.488  26.673  26.024  1.00  0.00    -0.018 A 
ATOM     15  C   UNL A   1      31.504  27.375  26.749  1.00  0.00     0.009 A 
ATOM     16  C   UNL A   1      33.755  27.277  25.926  1.00  0.00     0.009 A 
ATOM     17  C   UNL A   1      31.773  28.612  27.349  1.00  0.00     0.001 A 
ATOM     18  C   UNL A   1      34.031  28.506  26.539  1.00  0.00     0.001 A 
ATOM     19  C   UNL A   1      33.041  29.173  27.251  1.00  0.00     0.000 A 
ENDBRANCH  13  14
ENDBRANCH   6   8
ENDBRANCH   4   6
ENDBRANCH   3   4
ENDBRANCH   2   3
ENDBRANCH   1   2
BRANCH   1  20
ATOM     20  O   UNL A   1      37.264  21.482  25.293  1.00  0.00    -0.458 OA
BRANCH  20  21
ATOM     21  C   UNL A   1      38.500  21.199  25.750  1.00  0.00     0.338 C 
ATOM     22  O   UNL A   1      39.087  20.123  25.684  1.00  0.00    -0.246 OA
BRANCH  21  23
ATOM     23  C   UNL A   1      39.090  22.404  26.355  1.00  0.00     0.060 A 
ATOM     24  C   UNL A   1      38.521  23.652  26.113  1.00  0.00     0.016 A 
ATOM     25  C   UNL A   1      40.283  22.304  27.072  1.00  0.00     0.016 A 
ATOM     26  C   UNL A   1      39.202  24.806  26.502  1.00  0.00     0.010 A 
ATOM     27  C   UNL A   1      40.914  23.464  27.537  1.00  0.00     0.010 A 
ATOM     28  C   UNL A   1      40.411  24.736  27.211  1.00  0.00    -0.014 A 
BRANCH  28  29
ATOM     29  C   UNL A   1      41.169  25.978  27.551  1.00  0.00     0.031 A 
ATOM     30  C   UNL A   1      40.552  27.036  28.438  1.00  0.00     0.074 A 
ATOM     31  C   UNL A   1      42.421  26.170  27.087  1.00  0.00     0.049 A 
ATOM     32  N   UNL A   1      40.973  28.248  28.698  1.00  0.00    -0.248 NA
ATOM     33  C   UNL A   1      39.278  26.699  29.098  1.00  0.00     0.031 C 
ATOM     34  C   UNL A   1      43.161  25.237  26.239  1.00  0.00     0.029 A 
ATOM     35  N   UNL A   1      43.298  27.210  27.275  1.00  0.00    -0.354 N 
ATOM     36  C   UNL A   1      39.985  28.841  29.472  1.00  0.00     0.074 A 
ATOM     37  C   UNL A   1      38.943  27.855  29.654  1.00  0.00     0.031 C 
ATOM     38  C   UNL A   1      44.398  25.711  26.036  1.00  0.00     0.029 A 
ATOM     39  C   UNL A   1      44.514  27.024  26.661  1.00  0.00     0.049 A 
ATOM     40  H   UNL A   1      43.077  28.014  27.799  1.00  0.00     0.167 HD
ATOM     41  C   UNL A   1      39.951  30.089  29.998  1.00  0.00     0.034 A 
ATOM     42  C   UNL A   1      45.598  27.822  26.585  1.00  0.00     0.034 A 
ATOM     43  C   UNL A   1      41.037  31.031  29.927  1.00  0.00     0.049 A 
ATOM     44  C   UNL A   1      45.561  29.178  27.229  1.00  0.00     0.074 A 
ATOM     45  C   UNL A   1      41.101  32.310  30.451  1.00  0.00     0.029 A 
ATOM     46  N   UNL A   1      42.260  30.784  29.325  1.00  0.00    -0.354 N 
ATOM     47  N   UNL A   1      44.616  29.719  27.960  1.00  0.00    -0.248 NA
ATOM     48  C   UNL A   1      46.738  30.037  27.036  1.00  0.00     0.031 C 
ATOM     49  C   UNL A   1      42.371  32.832  30.178  1.00  0.00     0.029 A 
ATOM     50  C   UNL A   1      43.092  31.880  29.480  1.00  0.00     0.049 A 
ATOM     51  H   UNL A   1      42.502  29.952  28.857  1.00  0.00     0.167 HD
ATOM     52  C   UNL A   1      45.076  30.985  28.297  1.00  0.00     0.074 A 
ATOM     53  C   UNL A   1      46.409  31.111  27.743  1.00  0.00     0.031 C 
ATOM     54  C   UNL A   1      44.435  31.972  28.969  1.00  0.00     0.034 A 
BRANCH  41  55
ATOM     55  C   UNL A   1      38.711  30.507  30.743  1.00  0.00     0.023 A 
ATOM     56  C   UNL A   1      38.618  30.270  32.128  1.00  0.00     0.012 A 
ATOM     57  C   UNL A   1      37.676  31.202  30.088  1.00  0.00     0.148 A 
ATOM     58  C   UNL A   1      37.503  30.702  32.846  1.00  0.00     0.002 A 
ATOM     59  C   UNL A   1      36.584  31.661  30.817  1.00  0.00     0.091 A 
ATOM     60  F   UNL A   1      37.769  31.395  28.764  1.00  0.00    -0.205 F 
ATOM     61  C   UNL A   1      36.493  31.406  32.194  1.00  0.00     0.022 A 
BRANCH  59  62
ATOM     62  S   UNL A   1      35.278  32.641  30.064  1.00  0.00     0.127 S 
ATOM     63  O   UNL A   1      34.766  31.724  29.050  1.00  0.00    -0.237 OA
ATOM     64  O   UNL A   1      34.370  32.876  31.188  1.00  0.00    -0.237 OA
ATOM     65  O   UNL A   1      35.932  33.842  29.563  1.00  0.00    -0.744 OA
ENDBRANCH  59  62
ENDBRANCH  41  55
BRANCH  42  66
ATOM     66  C   UNL A   1      46.821  27.333  25.887  1.00  0.00     0.023 A 
ATOM     67  C   UNL A   1      47.630  26.365  26.511  1.00  0.00     0.012 A 
ATOM     68  C   UNL A   1      47.143  27.755  24.582  1.00  0.00     0.148 A 
ATOM     69  C   UNL A   1      48.735  25.827  25.848  1.00  0.00     0.002 A 
ATOM     70  C   UNL A   1      48.200  27.163  23.901  1.00  0.00     0.091 A 
ATOM     71  F   UNL A   1      46.390  28.708  24.012  1.00  0.00    -0.205 F 
ATOM     72  C   UNL A   1      49.008  26.209  24.536  1.00  0.00     0.022 A 
BRANCH  70  73
ATOM     73  S   UNL A   1      48.471  27.486  22.155  1.00  0.00     0.127 S 
ATOM     74  O   UNL A   1      47.256  28.203  21.786  1.00  0.00    -0.237 OA
ATOM     75  O   UNL A   1      49.687  28.302  22.168  1.00  0.00    -0.237 OA
ATOM     76  O   UNL A   1      48.653  26.168  21.560  1.00  0.00    -0.744 OA
ENDBRANCH  70  73
ENDBRANCH  42  66
BRANCH  54  77
ATOM     77  C   UNL A   1      45.157  33.282  29.132  1.00  0.00     0.023 A 
ATOM     78  C   UNL A   1      45.986  33.471  30.254  1.00  0.00     0.012 A 
ATOM     79  C   UNL A   1      45.074  34.291  28.154  1.00  0.00     0.148 A 
ATOM     80  C   UNL A   1      46.705  34.654  30.414  1.00  0.00     0.002 A 
ATOM     81  C   UNL A   1      45.819  35.456  28.303  1.00  0.00     0.091 A 
ATOM     82  F   UNL A   1      44.261  34.103  27.105  1.00  0.00    -0.205 F 
ATOM     83  C   UNL A   1      46.630  35.642  29.435  1.00  0.00     0.022 A 
BRANCH  81  84
ATOM     84  S   UNL A   1      45.831  36.741  27.048  1.00  0.00     0.127 S 
ATOM     85  O   UNL A   1      46.405  36.037  25.904  1.00  0.00    -0.237 OA
ATOM     86  O   UNL A   1      44.411  37.069  26.913  1.00  0.00    -0.237 OA
ATOM     87  O   UNL A   1      46.642  37.819  27.601  1.00  0.00    -0.744 OA
ENDBRANCH  81  84
ENDBRANCH  54  77
ENDBRANCH  28  29
ENDBRANCH  21  23
ENDBRANCH  20  21
ENDBRANCH   1  20
TORSDOF 16
ENDMDL
MODEL 2
REMARK VINA RESULT:     -12.1      3.374      6.571
REMARK SMILES C[C@@H](C(=O)OCCOC(=O)c1ccc(-c2c3nc(c(-c4cccc(S(=O)(=O)[O-])c4F)c4ccc([nH]4)c(-c4cccc(S(=O)(=O)[O-])c4F)c4nc(c(-c5cccc(S(=O)(=O)[O-])c5F)c5ccc2[nH]5)C=C4)C=C3)cc1)c1ccc(-c2ccccc2)cc1
REMARK SMILES IDX 7 1 6 2 5 3 3 4 4 5 2 6 1 7 74 8 75 9 85 10 76 11 84 12
REMARK SMILES IDX 77 13 78 14 79 15 83 16 80 17 82 18 81 19 8 20 9 21 10 22
REMARK SMILES IDX 11 23 12 24 73 25 13 26 72 27 14 28 15 29 16 30 66 31 17 32
REMARK SMILES IDX 71 33 65 34 67 35 18 36 70 37 64 38 63 39 19 41 51 42 31 43
REMARK SMILES IDX 50 44 32 45 35 46 49 47 68 48 33 49 34 50 48 52 69 53 36 54
REMARK SMILES IDX 20 55 21 56 29 57 22 58 24 59 30 60 23 61 25 62 26 63 27 64
REMARK SMILES IDX 28 65 52 66 53 67 61 68 54 69 56 70 62 71 55 72 57 73 58 74
REMARK SMILES IDX 59 75 60 76 37 77 38 78 46 79 39 80 41 81 47 82 40 83 42 84
REMARK SMILES IDX 43 85 44 86 45 87
REMARK H PARENT 67 40 35 51
REMARK Flexibility Score: inf
ROOT
ATOM      1  C   UNL A   1      40.876  19.969  26.164  1.00  0.00     0.275 C 
ENDROOT
BRANCH   1   2
ATOM      2  C   UNL A   1      42.353  20.146  26.498  1.00  0.00     0.274 C 
BRANCH   2   3
ATOM      3  O   UNL A   1      43.102  20.428  25.296  1.00  0.00    -0.462 OA
BRANCH   3   4
ATOM      4  C   UNL A   1      43.456  21.726  25.079  1.00  0.00     0.313 C 
ATOM      5  O   UNL A   1      42.653  22.644  24.957  1.00  0.00    -0.252 OA
BRANCH   4   6
ATOM      6  C   UNL A   1      44.973  21.904  24.928  1.00  0.00     0.126 C 
ATOM      7  C   UNL A   1      45.745  20.582  24.873  1.00  0.00     0.025 C 
BRANCH   6   8
ATOM      8  C   UNL A   1      45.533  22.874  25.963  1.00  0.00    -0.034 A 
ATOM      9  C   UNL A   1      44.981  22.912  27.250  1.00  0.00     0.005 A 
ATOM     10  C   UNL A   1      46.631  23.702  25.703  1.00  0.00     0.005 A 
ATOM     11  C   UNL A   1      45.525  23.732  28.250  1.00  0.00     0.009 A 
ATOM     12  C   UNL A   1      47.174  24.518  26.709  1.00  0.00     0.009 A 
ATOM     13  C   UNL A   1      46.654  24.534  28.015  1.00  0.00    -0.018 A 
BRANCH  13  14
ATOM     14  C   UNL A   1      47.319  25.294  29.108  1.00  0.00    -0.018 A 
ATOM     15  C   UNL A   1      48.722  25.407  29.171  1.00  0.00     0.009 A 
ATOM     16  C   UNL A   1      46.583  25.986  30.088  1.00  0.00     0.009 A 
ATOM     17  C   UNL A   1      49.357  26.175  30.155  1.00  0.00     0.001 A 
ATOM     18  C   UNL A   1      47.215  26.768  31.064  1.00  0.00     0.001 A 
ATOM     19  C   UNL A   1      48.601  26.863  31.097  1.00  0.00     0.000 A 
ENDBRANCH  13  14
ENDBRANCH   6   8
ENDBRANCH   4   6
ENDBRANCH   3   4
ENDBRANCH   2   3
ENDBRANCH   1   2
BRANCH   1  20
ATOM     20  O   UNL A   1      40.100  20.805  27.037  1.00  0.00    -0.458 OA
BRANCH  20  21
ATOM     21  C   UNL A   1      39.371  21.775  26.449  1.00  0.00     0.338 C 
ATOM     22  O   UNL A   1      38.507  21.635  25.590  1.00  0.00    -0.246 OA
BRANCH  21  23
ATOM     23  C   UNL A   1      39.751  23.083  27.006  1.00  0.00     0.060 A 
ATOM     24  C   UNL A   1      39.170  24.247  26.505  1.00  0.00     0.016 A 
ATOM     25  C   UNL A   1      40.776  23.162  27.950  1.00  0.00     0.016 A 
ATOM     26  C   UNL A   1      39.686  25.488  26.877  1.00  0.00     0.010 A 
ATOM     27  C   UNL A   1      41.227  24.414  28.385  1.00  0.00     0.010 A 
ATOM     28  C   UNL A   1      40.726  25.596  27.813  1.00  0.00    -0.014 A 
BRANCH  28  29
ATOM     29  C   UNL A   1      41.322  26.927  28.141  1.00  0.00     0.031 A 
ATOM     30  C   UNL A   1      40.533  27.950  28.925  1.00  0.00     0.074 A 
ATOM     31  C   UNL A   1      42.579  27.232  27.758  1.00  0.00     0.049 A 
ATOM     32  N   UNL A   1      40.804  29.211  29.151  1.00  0.00    -0.248 NA
ATOM     33  C   UNL A   1      39.254  27.507  29.509  1.00  0.00     0.031 C 
ATOM     34  C   UNL A   1      43.475  26.347  27.014  1.00  0.00     0.029 A 
ATOM     35  N   UNL A   1      43.326  28.368  27.953  1.00  0.00    -0.354 N 
ATOM     36  C   UNL A   1      39.703  29.728  29.821  1.00  0.00     0.074 A 
ATOM     37  C   UNL A   1      38.759  28.644  29.980  1.00  0.00     0.031 C 
ATOM     38  C   UNL A   1      44.668  26.942  26.875  1.00  0.00     0.029 A 
ATOM     39  C   UNL A   1      44.598  28.287  27.438  1.00  0.00     0.049 A 
ATOM     40  H   UNL A   1      42.983  29.166  28.417  1.00  0.00     0.167 HD
ATOM     41  C   UNL A   1      39.500  30.987  30.277  1.00  0.00     0.034 A 
ATOM     42  C   UNL A   1      45.595  29.193  27.397  1.00  0.00     0.034 A 
ATOM     43  C   UNL A   1      40.483  32.036  30.234  1.00  0.00     0.049 A 
ATOM     44  C   UNL A   1      45.368  30.564  27.966  1.00  0.00     0.074 A 
ATOM     45  C   UNL A   1      40.373  33.337  30.694  1.00  0.00     0.029 A 
ATOM     46  N   UNL A   1      41.768  31.896  29.734  1.00  0.00    -0.354 N 
ATOM     47  N   UNL A   1      44.320  31.032  28.598  1.00  0.00    -0.248 NA
ATOM     48  C   UNL A   1      46.460  31.536  27.812  1.00  0.00     0.031 C 
ATOM     49  C   UNL A   1      41.599  33.980  30.486  1.00  0.00     0.029 A 
ATOM     50  C   UNL A   1      42.467  33.081  29.891  1.00  0.00     0.049 A 
ATOM     51  H   UNL A   1      42.130  31.075  29.329  1.00  0.00     0.167 HD
ATOM     52  C   UNL A   1      44.617  32.354  28.901  1.00  0.00     0.074 A 
ATOM     53  C   UNL A   1      45.968  32.598  28.437  1.00  0.00     0.031 C 
ATOM     54  C   UNL A   1      43.827  33.295  29.473  1.00  0.00     0.034 A 
BRANCH  41  55
ATOM     55  C   UNL A   1      38.170  31.301  30.910  1.00  0.00     0.023 A 
ATOM     56  C   UNL A   1      37.952  30.991  32.265  1.00  0.00     0.012 A 
ATOM     57  C   UNL A   1      37.167  31.973  30.183  1.00  0.00     0.148 A 
ATOM     58  C   UNL A   1      36.748  31.327  32.885  1.00  0.00     0.002 A 
ATOM     59  C   UNL A   1      35.983  32.336  30.817  1.00  0.00     0.091 A 
ATOM     60  F   UNL A   1      37.379  32.237  28.886  1.00  0.00    -0.205 F 
ATOM     61  C   UNL A   1      35.770  32.009  32.165  1.00  0.00     0.022 A 
BRANCH  59  62
ATOM     62  S   UNL A   1      34.705  33.284  29.979  1.00  0.00     0.127 S 
ATOM     63  O   UNL A   1      33.886  33.734  31.102  1.00  0.00    -0.237 OA
ATOM     64  O   UNL A   1      35.474  34.342  29.322  1.00  0.00    -0.237 OA
ATOM     65  O   UNL A   1      34.066  32.351  29.061  1.00  0.00    -0.744 OA
ENDBRANCH  59  62
ENDBRANCH  41  55
BRANCH  42  66
ATOM     66  C   UNL A   1      46.912  28.808  26.814  1.00  0.00     0.023 A 
ATOM     67  C   UNL A   1      48.023  28.652  27.665  1.00  0.00     0.012 A 
ATOM     68  C   UNL A   1      47.054  28.517  25.443  1.00  0.00     0.148 A 
ATOM     69  C   UNL A   1      49.248  28.212  27.160  1.00  0.00     0.002 A 
ATOM     70  C   UNL A   1      48.256  28.011  24.961  1.00  0.00     0.091 A 
ATOM     71  F   UNL A   1      46.001  28.709  24.634  1.00  0.00    -0.205 F 
ATOM     72  C   UNL A   1      49.360  27.871  25.814  1.00  0.00     0.022 A 
BRANCH  70  73
ATOM     73  S   UNL A   1      48.387  27.384  23.282  1.00  0.00     0.127 S 
ATOM     74  O   UNL A   1      49.793  27.621  22.978  1.00  0.00    -0.237 OA
ATOM     75  O   UNL A   1      48.020  25.976  23.440  1.00  0.00    -0.237 OA
ATOM     76  O   UNL A   1      47.417  28.163  22.521  1.00  0.00    -0.744 OA
ENDBRANCH  70  73
ENDBRANCH  42  66
BRANCH  54  77
ATOM     77  C   UNL A   1      44.395  34.681  29.618  1.00  0.00     0.023 A 
ATOM     78  C   UNL A   1      45.026  35.038  30.825  1.00  0.00     0.012 A 
ATOM     79  C   UNL A   1      44.367  35.600  28.551  1.00  0.00     0.148 A 
ATOM     80  C   UNL A   1      45.603  36.298  30.978  1.00  0.00     0.002 A 
ATOM     81  C   UNL A   1      44.972  36.844  28.700  1.00  0.00     0.091 A 
ATOM     82  F   UNL A   1      43.740  35.250  27.419  1.00  0.00    -0.205 F 
ATOM     83  C   UNL A   1      45.585  37.197  29.913  1.00  0.00     0.022 A 
BRANCH  81  84
ATOM     84  S   UNL A   1      45.053  38.025  27.349  1.00  0.00     0.127 S 
ATOM     85  O   UNL A   1      45.745  39.149  27.976  1.00  0.00    -0.237 OA
ATOM     86  O   UNL A   1      45.840  37.308  26.344  1.00  0.00    -0.237 OA
ATOM     87  O   UNL A   1      43.669  38.269  26.961  1.00  0.00    -0.744 OA
ENDBRANCH  81  84
ENDBRANCH  54  77
ENDBRANCH  28  29
ENDBRANCH  21  23
ENDBRANCH  20  21
ENDBRANCH   1  20
TORSDOF 16
ENDMDL
MODEL 3
REMARK VINA RESULT:     -12.0      5.209     10.309
REMARK SMILES C[C@@H](C(=O)OCCOC(=O)c1ccc(-c2c3nc(c(-c4cccc(S(=O)(=O)[O-])c4F)c4ccc([nH]4)c(-c4cccc(S(=O)(=O)[O-])c4F)c4nc(c(-c5cccc(S(=O)(=O)[O-])c5F)c5ccc2[nH]5)C=C4)C=C3)cc1)c1ccc(-c2ccccc2)cc1
REMARK SMILES IDX 7 1 6 2 5 3 3 4 4 5 2 6 1 7 74 8 75 9 85 10 76 11 84 12
REMARK SMILES IDX 77 13 78 14 79 15 83 16 80 17 82 18 81 19 8 20 9 21 10 22
REMARK SMILES IDX 11 23 12 24 73 25 13 26 72 27 14 28 15 29 16 30 66 31 17 32
REMARK SMILES IDX 71 33 65 34 67 35 18 36 70 37 64 38 63 39 19 41 51 42 31 43
REMARK SMILES IDX 50 44 32 45 35 46 49 47 68 48 33 49 34 50 48 52 69 53 36 54
REMARK SMILES IDX 20 55 21 56 29 57 22 58 24 59 30 60 23 61 25 62 26 63 27 64
REMARK SMILES IDX 28 65 52 66 53 67 61 68 54 69 56 70 62 71 55 72 57 73 58 74
REMARK SMILES IDX 59 75 60 76 37 77 38 78 46 79 39 80 41 81 47 82 40 83 42 84
REMARK SMILES IDX 43 85 44 86 45 87
REMARK H PARENT 67 40 35 51
REMARK Flexibility Score: inf
ROOT
ATOM      1  C   UNL A   1      31.393  30.079  25.180  1.00  0.00     0.275 C 
ENDROOT
BRANCH   1   2
ATOM      2  C   UNL A   1      31.139  28.675  24.642  1.00  0.00     0.274 C 
BRANCH   2   3
ATOM      3  O   UNL A   1      31.580  27.690  25.601  1.00  0.00    -0.462 OA
BRANCH   3   4
ATOM      4  C   UNL A   1      31.519  26.383  25.218  1.00  0.00     0.313 C 
ATOM      5  O   UNL A   1      30.632  25.918  24.511  1.00  0.00    -0.252 OA
BRANCH   4   6
ATOM      6  C   UNL A   1      32.642  25.538  25.832  1.00  0.00     0.126 C 
ATOM      7  C   UNL A   1      34.023  26.197  25.752  1.00  0.00     0.025 C 
BRANCH   6   8
ATOM      8  C   UNL A   1      32.635  24.111  25.292  1.00  0.00    -0.034 A 
ATOM      9  C   UNL A   1      33.415  23.789  24.173  1.00  0.00     0.005 A 
ATOM     10  C   UNL A   1      31.920  23.076  25.905  1.00  0.00     0.005 A 
ATOM     11  C   UNL A   1      33.496  22.470  23.700  1.00  0.00     0.009 A 
ATOM     12  C   UNL A   1      32.009  21.758  25.429  1.00  0.00     0.009 A 
ATOM     13  C   UNL A   1      32.820  21.415  24.334  1.00  0.00    -0.018 A 
BRANCH  13  14
ATOM     14  C   UNL A   1      33.015  19.998  23.924  1.00  0.00    -0.018 A 
ATOM     15  C   UNL A   1      33.944  19.168  24.584  1.00  0.00     0.009 A 
ATOM     16  C   UNL A   1      32.243  19.403  22.909  1.00  0.00     0.009 A 
ATOM     17  C   UNL A   1      34.089  17.815  24.252  1.00  0.00     0.001 A 
ATOM     18  C   UNL A   1      32.375  18.046  22.587  1.00  0.00     0.001 A 
ATOM     19  C   UNL A   1      33.297  17.252  23.259  1.00  0.00     0.000 A 
ENDBRANCH  13  14
ENDBRANCH   6   8
ENDBRANCH   4   6
ENDBRANCH   3   4
ENDBRANCH   2   3
ENDBRANCH   1   2
BRANCH   1  20
ATOM     20  O   UNL A   1      32.751  30.160  25.642  1.00  0.00    -0.458 OA
BRANCH  20  21
ATOM     21  C   UNL A   1      32.977  30.958  26.705  1.00  0.00     0.338 C 
ATOM     22  O   UNL A   1      32.210  31.785  27.187  1.00  0.00    -0.246 OA
BRANCH  21  23
ATOM     23  C   UNL A   1      34.318  30.688  27.248  1.00  0.00     0.060 A 
ATOM     24  C   UNL A   1      34.729  29.374  27.464  1.00  0.00     0.016 A 
ATOM     25  C   UNL A   1      35.127  31.751  27.652  1.00  0.00     0.016 A 
ATOM     26  C   UNL A   1      35.903  29.129  28.176  1.00  0.00     0.010 A 
ATOM     27  C   UNL A   1      36.348  31.494  28.286  1.00  0.00     0.010 A 
ATOM     28  C   UNL A   1      36.728  30.179  28.608  1.00  0.00    -0.014 A 
BRANCH  28  29
ATOM     29  C   UNL A   1      37.940  29.905  29.438  1.00  0.00     0.031 A 
ATOM     30  C   UNL A   1      39.071  29.064  28.892  1.00  0.00     0.074 A 
ATOM     31  C   UNL A   1      38.053  30.416  30.681  1.00  0.00     0.049 A 
ATOM     32  N   UNL A   1      40.113  28.571  29.514  1.00  0.00    -0.248 NA
ATOM     33  C   UNL A   1      39.012  28.706  27.463  1.00  0.00     0.031 C 
ATOM     34  C   UNL A   1      37.059  31.261  31.342  1.00  0.00     0.029 A 
ATOM     35  N   UNL A   1      39.062  30.309  31.607  1.00  0.00    -0.354 N 
ATOM     36  C   UNL A   1      40.778  27.781  28.584  1.00  0.00     0.074 A 
ATOM     37  C   UNL A   1      40.033  27.868  27.348  1.00  0.00     0.031 C 
ATOM     38  C   UNL A   1      37.533  31.650  32.534  1.00  0.00     0.029 A 
ATOM     39  C   UNL A   1      38.826  31.012  32.765  1.00  0.00     0.049 A 
ATOM     40  H   UNL A   1      39.878  29.779  31.457  1.00  0.00     0.167 HD
ATOM     41  C   UNL A   1      41.914  27.061  28.740  1.00  0.00     0.034 A 
ATOM     42  C   UNL A   1      39.548  31.119  33.898  1.00  0.00     0.034 A 
ATOM     43  C   UNL A   1      42.727  27.071  29.927  1.00  0.00     0.049 A 
ATOM     44  C   UNL A   1      40.837  30.360  34.024  1.00  0.00     0.074 A 
ATOM     45  C   UNL A   1      43.908  26.389  30.166  1.00  0.00     0.029 A 
ATOM     46  N   UNL A   1      42.464  27.824  31.059  1.00  0.00    -0.354 N 
ATOM     47  N   UNL A   1      41.450  29.620  33.132  1.00  0.00    -0.248 NA
ATOM     48  C   UNL A   1      41.534  30.445  35.315  1.00  0.00     0.031 C 
ATOM     49  C   UNL A   1      44.368  26.743  31.439  1.00  0.00     0.029 A 
ATOM     50  C   UNL A   1      43.470  27.639  31.994  1.00  0.00     0.049 A 
ATOM     51  H   UNL A   1      41.679  28.406  31.182  1.00  0.00     0.167 HD
ATOM     52  C   UNL A   1      42.592  29.139  33.758  1.00  0.00     0.074 A 
ATOM     53  C   UNL A   1      42.620  29.718  35.086  1.00  0.00     0.031 C 
ATOM     54  C   UNL A   1      43.513  28.261  33.290  1.00  0.00     0.034 A 
BRANCH  41  55
ATOM     55  C   UNL A   1      42.382  26.225  27.579  1.00  0.00     0.023 A 
ATOM     56  C   UNL A   1      43.295  26.765  26.654  1.00  0.00     0.012 A 
ATOM     57  C   UNL A   1      41.979  24.881  27.450  1.00  0.00     0.148 A 
ATOM     58  C   UNL A   1      43.786  25.988  25.605  1.00  0.00     0.002 A 
ATOM     59  C   UNL A   1      42.499  24.100  26.422  1.00  0.00     0.091 A 
ATOM     60  F   UNL A   1      41.088  24.389  28.323  1.00  0.00    -0.205 F 
ATOM     61  C   UNL A   1      43.398  24.654  25.496  1.00  0.00     0.022 A 
BRANCH  59  62
ATOM     62  S   UNL A   1      42.107  22.354  26.258  1.00  0.00     0.127 S 
ATOM     63  O   UNL A   1      42.871  21.989  25.068  1.00  0.00    -0.237 OA
ATOM     64  O   UNL A   1      42.623  21.795  27.509  1.00  0.00    -0.237 OA
ATOM     65  O   UNL A   1      40.658  22.289  26.128  1.00  0.00    -0.744 OA
ENDBRANCH  59  62
ENDBRANCH  41  55
BRANCH  42  66
ATOM     66  C   UNL A   1      39.067  32.010  34.992  1.00  0.00     0.023 A 
ATOM     67  C   UNL A   1      38.152  31.507  35.938  1.00  0.00     0.012 A 
ATOM     68  C   UNL A   1      39.567  33.317  35.152  1.00  0.00     0.148 A 
ATOM     69  C   UNL A   1      37.748  32.290  37.021  1.00  0.00     0.002 A 
ATOM     70  C   UNL A   1      39.215  34.063  36.271  1.00  0.00     0.091 A 
ATOM     71  F   UNL A   1      40.405  33.801  34.223  1.00  0.00    -0.205 F 
ATOM     72  C   UNL A   1      38.295  33.559  37.200  1.00  0.00     0.022 A 
BRANCH  70  73
ATOM     73  S   UNL A   1      40.036  35.619  36.638  1.00  0.00     0.127 S 
ATOM     74  O   UNL A   1      41.440  35.223  36.665  1.00  0.00    -0.237 OA
ATOM     75  O   UNL A   1      39.653  36.456  35.499  1.00  0.00    -0.237 OA
ATOM     76  O   UNL A   1      39.459  36.050  37.906  1.00  0.00    -0.744 OA
ENDBRANCH  70  73
ENDBRANCH  42  66
BRANCH  54  77
ATOM     77  C   UNL A   1      44.623  27.860  34.223  1.00  0.00     0.023 A 
ATOM     78  C   UNL A   1      45.789  28.646  34.277  1.00  0.00     0.012 A 
ATOM     79  C   UNL A   1      44.490  26.757  35.088  1.00  0.00     0.148 A 
ATOM     80  C   UNL A   1      46.819  28.330  35.162  1.00  0.00     0.002 A 
ATOM     81  C   UNL A   1      45.508  26.465  35.991  1.00  0.00     0.091 A 
ATOM     82  F   UNL A   1      43.383  26.005  35.005  1.00  0.00    -0.205 F 
ATOM     83  C   UNL A   1      46.674  27.246  36.026  1.00  0.00     0.022 A 
BRANCH  81  84
ATOM     84  S   UNL A   1      45.362  25.130  37.184  1.00  0.00     0.127 S 
ATOM     85  O   UNL A   1      46.702  25.100  37.766  1.00  0.00    -0.237 OA
ATOM     86  O   UNL A   1      44.317  25.619  38.086  1.00  0.00    -0.237 OA
ATOM     87  O   UNL A   1      44.980  23.955  36.410  1.00  0.00    -0.744 OA
ENDBRANCH  81  84
ENDBRANCH  54  77
ENDBRANCH  28  29
ENDBRANCH  21  23
ENDBRANCH  20  21
ENDBRANCH   1  20
TORSDOF 16
ENDMDL
