MODEL 1
REMARK VINA RESULT:     -11.7      0.000      0.000
REMARK SMILES CCn1nc(C(=O)OCCOC(=O)c2ccc(-c3c4nc(c(-c5cccc(S(=O)(=O)[O-])c5F)c5ccc([nH]5)c(-c5cccc(S(=O)(=O)[O-])c5F)c5nc(c(-c6cccc(S(=O)(=O)[O-])c6F)c6ccc3[nH]6)C=C5)C=C4)cc2)c2c1CC[C@H]([NH2+]Cc1nn(CC)c3ccccc13)C2
REMARK SMILES IDX 9 1 8 2 6 3 7 4 5 5 3 6 4 7 78 8 77 9 79 10 95 11 80 12
REMARK SMILES IDX 81 13 2 14 1 15 82 16 83 19 84 20 85 21 94 22 86 23 89 24
REMARK SMILES IDX 93 25 90 26 92 27 91 28 87 29 88 30 10 31 11 32 12 33 13 34
REMARK SMILES IDX 14 35 15 36 76 37 16 38 75 39 17 40 18 41 19 42 69 43 20 44
REMARK SMILES IDX 74 45 68 46 70 47 21 48 73 49 67 50 66 51 22 53 54 54 34 55
REMARK SMILES IDX 53 56 35 57 38 58 52 59 71 60 36 61 37 62 51 64 72 65 39 66
REMARK SMILES IDX 23 67 24 68 32 69 25 70 27 71 33 72 26 73 28 74 29 75 30 76
REMARK SMILES IDX 31 77 55 78 56 79 64 80 57 81 59 82 65 83 58 84 60 85 61 86
REMARK SMILES IDX 62 87 63 88 40 89 41 90 49 91 42 92 44 93 50 94 43 95 45 96
REMARK SMILES IDX 46 97 47 98 48 99
REMARK H PARENT 82 17 82 18 70 52 38 63
REMARK Flexibility Score: inf
ROOT
ATOM      1  C   UNL A   1      34.380  29.851  27.234  1.00  0.00     0.275 C 
ENDROOT
BRANCH   1   2
ATOM      2  O   UNL A   1      33.476  29.695  26.131  1.00  0.00    -0.457 OA
BRANCH   2   3
ATOM      3  C   UNL A   1      32.183  29.287  26.381  1.00  0.00     0.359 C 
ATOM      4  O   UNL A   1      31.669  29.339  27.481  1.00  0.00    -0.244 OA
BRANCH   3   5
ATOM      5  C   UNL A   1      31.521  28.797  25.153  1.00  0.00     0.174 A 
ATOM      6  N   UNL A   1      30.359  28.770  23.355  1.00  0.00    -0.269 N 
ATOM      7  N   UNL A   1      30.744  29.571  24.375  1.00  0.00    -0.165 NA
ATOM      8  C   UNL A   1      30.751  27.470  23.517  1.00  0.00     0.043 A 
ATOM      9  C   UNL A   1      31.531  27.478  24.641  1.00  0.00     0.014 A 
ATOM     10  C   UNL A   1      30.430  26.250  22.731  1.00  0.00     0.062 C 
ATOM     11  C   UNL A   1      32.061  26.269  25.279  1.00  0.00     0.105 C 
ATOM     12  C   UNL A   1      30.662  24.968  23.596  1.00  0.00     0.072 C 
ATOM     13  C   UNL A   1      31.961  24.976  24.469  1.00  0.00     0.187 C 
BRANCH   6  14
ATOM     14  C   UNL A   1      29.549  29.367  22.312  1.00  0.00     0.141 C 
ATOM     15  C   UNL A   1      28.112  29.592  22.763  1.00  0.00     0.029 C 
ENDBRANCH   6  14
BRANCH  13  16
ATOM     16  N   UNL A   1      31.982  23.787  25.380  1.00  0.00    -0.338 N 
ATOM     17  H   UNL A   1      31.401  24.001  26.190  1.00  0.00     0.346 HD
ATOM     18  H   UNL A   1      32.963  23.626  25.611  1.00  0.00     0.346 HD
BRANCH  16  19
ATOM     19  C   UNL A   1      31.486  22.513  24.780  1.00  0.00     0.320 C 
BRANCH  19  20
ATOM     20  C   UNL A   1      32.536  21.413  24.610  1.00  0.00     0.124 A 
ATOM     21  N   UNL A   1      32.219  20.105  24.577  1.00  0.00    -0.171 NA
ATOM     22  C   UNL A   1      33.948  21.569  24.466  1.00  0.00     0.029 A 
ATOM     23  N   UNL A   1      33.393  19.464  24.783  1.00  0.00    -0.265 N 
ATOM     24  C   UNL A   1      34.474  20.319  24.789  1.00  0.00     0.069 A 
ATOM     25  C   UNL A   1      34.845  22.604  24.141  1.00  0.00     0.012 A 
ATOM     26  C   UNL A   1      35.844  20.103  25.001  1.00  0.00     0.028 A 
ATOM     27  C   UNL A   1      36.226  22.351  24.188  1.00  0.00     0.001 A 
ATOM     28  C   UNL A   1      36.715  21.142  24.677  1.00  0.00     0.002 A 
BRANCH  23  29
ATOM     29  C   UNL A   1      33.461  18.020  24.612  1.00  0.00     0.141 C 
ATOM     30  C   UNL A   1      32.972  17.136  25.749  1.00  0.00     0.029 C 
ENDBRANCH  23  29
ENDBRANCH  19  20
ENDBRANCH  16  19
ENDBRANCH  13  16
ENDBRANCH   3   5
ENDBRANCH   2   3
ENDBRANCH   1   2
BRANCH   1  31
ATOM     31  C   UNL A   1      34.572  31.337  27.563  1.00  0.00     0.275 C 
BRANCH  31  32
ATOM     32  O   UNL A   1      33.714  31.858  28.578  1.00  0.00    -0.458 OA
BRANCH  32  33
ATOM     33  C   UNL A   1      33.687  33.204  28.672  1.00  0.00     0.338 C 
ATOM     34  O   UNL A   1      33.023  33.935  27.958  1.00  0.00    -0.246 OA
BRANCH  33  35
ATOM     35  C   UNL A   1      34.763  33.627  29.598  1.00  0.00     0.060 A 
ATOM     36  C   UNL A   1      35.734  34.397  28.976  1.00  0.00     0.016 A 
ATOM     37  C   UNL A   1      35.048  32.801  30.702  1.00  0.00     0.016 A 
ATOM     38  C   UNL A   1      37.018  33.950  29.117  1.00  0.00     0.010 A 
ATOM     39  C   UNL A   1      36.318  32.342  30.833  1.00  0.00     0.010 A 
ATOM     40  C   UNL A   1      37.245  32.834  29.937  1.00  0.00    -0.014 A 
BRANCH  40  41
ATOM     41  C   UNL A   1      38.558  32.274  29.968  1.00  0.00     0.031 A 
ATOM     42  C   UNL A   1      38.523  30.926  29.397  1.00  0.00     0.074 A 
ATOM     43  C   UNL A   1      39.631  32.945  30.405  1.00  0.00     0.049 A 
ATOM     44  N   UNL A   1      38.344  29.837  30.063  1.00  0.00    -0.248 NA
ATOM     45  C   UNL A   1      38.312  30.800  27.946  1.00  0.00     0.031 C 
ATOM     46  C   UNL A   1      39.798  34.374  30.669  1.00  0.00     0.029 A 
ATOM     47  N   UNL A   1      40.873  32.447  30.592  1.00  0.00    -0.354 N 
ATOM     48  C   UNL A   1      38.289  28.854  29.092  1.00  0.00     0.074 A 
ATOM     49  C   UNL A   1      37.951  29.519  27.862  1.00  0.00     0.031 C 
ATOM     50  C   UNL A   1      41.124  34.650  30.737  1.00  0.00     0.029 A 
ATOM     51  C   UNL A   1      41.869  33.404  30.655  1.00  0.00     0.049 A 
ATOM     52  H   UNL A   1      41.053  31.483  30.677  1.00  0.00     0.167 HD
ATOM     53  C   UNL A   1      38.887  27.655  29.305  1.00  0.00     0.034 A 
ATOM     54  C   UNL A   1      43.194  33.144  30.532  1.00  0.00     0.034 A 
ATOM     55  C   UNL A   1      39.237  27.487  30.696  1.00  0.00     0.049 A 
ATOM     56  C   UNL A   1      43.381  31.690  30.799  1.00  0.00     0.074 A 
ATOM     57  C   UNL A   1      38.533  27.472  31.883  1.00  0.00     0.029 A 
ATOM     58  N   UNL A   1      40.547  27.752  31.023  1.00  0.00    -0.354 N 
ATOM     59  N   UNL A   1      43.175  31.142  31.964  1.00  0.00    -0.248 NA
ATOM     60  C   UNL A   1      43.343  30.774  29.667  1.00  0.00     0.031 C 
ATOM     61  C   UNL A   1      39.374  28.135  32.825  1.00  0.00     0.029 A 
ATOM     62  C   UNL A   1      40.571  28.471  32.189  1.00  0.00     0.049 A 
ATOM     63  H   UNL A   1      41.336  27.472  30.505  1.00  0.00     0.167 HD
ATOM     64  C   UNL A   1      42.535  29.940  31.677  1.00  0.00     0.074 A 
ATOM     65  C   UNL A   1      42.776  29.714  30.253  1.00  0.00     0.031 C 
ATOM     66  C   UNL A   1      41.620  29.408  32.542  1.00  0.00     0.034 A 
BRANCH  53  67
ATOM     67  C   UNL A   1      39.539  26.843  28.220  1.00  0.00     0.023 A 
ATOM     68  C   UNL A   1      39.195  25.479  28.157  1.00  0.00     0.012 A 
ATOM     69  C   UNL A   1      40.639  27.267  27.437  1.00  0.00     0.148 A 
ATOM     70  C   UNL A   1      39.931  24.579  27.385  1.00  0.00     0.002 A 
ATOM     71  C   UNL A   1      41.307  26.389  26.597  1.00  0.00     0.091 A 
ATOM     72  F   UNL A   1      41.157  28.486  27.597  1.00  0.00    -0.205 F 
ATOM     73  C   UNL A   1      40.980  25.034  26.593  1.00  0.00     0.022 A 
BRANCH  71  74
ATOM     74  S   UNL A   1      42.632  26.950  25.520  1.00  0.00     0.127 S 
ATOM     75  O   UNL A   1      43.707  27.186  26.478  1.00  0.00    -0.237 OA
ATOM     76  O   UNL A   1      42.817  25.790  24.649  1.00  0.00    -0.237 OA
ATOM     77  O   UNL A   1      42.113  28.129  24.837  1.00  0.00    -0.744 OA
ENDBRANCH  71  74
ENDBRANCH  53  67
BRANCH  54  78
ATOM     78  C   UNL A   1      44.253  33.961  29.898  1.00  0.00     0.023 A 
ATOM     79  C   UNL A   1      45.295  34.476  30.693  1.00  0.00     0.012 A 
ATOM     80  C   UNL A   1      44.405  33.994  28.493  1.00  0.00     0.148 A 
ATOM     81  C   UNL A   1      46.467  34.972  30.111  1.00  0.00     0.002 A 
ATOM     82  C   UNL A   1      45.570  34.493  27.919  1.00  0.00     0.091 A 
ATOM     83  F   UNL A   1      43.452  33.450  27.726  1.00  0.00    -0.205 F 
ATOM     84  C   UNL A   1      46.609  34.971  28.726  1.00  0.00     0.022 A 
BRANCH  82  85
ATOM     85  S   UNL A   1      45.839  34.491  26.141  1.00  0.00     0.127 S 
ATOM     86  O   UNL A   1      44.506  34.818  25.633  1.00  0.00    -0.237 OA
ATOM     87  O   UNL A   1      46.831  35.551  25.984  1.00  0.00    -0.237 OA
ATOM     88  O   UNL A   1      46.295  33.147  25.806  1.00  0.00    -0.744 OA
ENDBRANCH  82  85
ENDBRANCH  54  78
BRANCH  66  89
ATOM     89  C   UNL A   1      41.539  30.004  33.927  1.00  0.00     0.023 A 
ATOM     90  C   UNL A   1      42.428  29.649  34.964  1.00  0.00     0.012 A 
ATOM     91  C   UNL A   1      40.643  31.064  34.133  1.00  0.00     0.148 A 
ATOM     92  C   UNL A   1      42.405  30.325  36.188  1.00  0.00     0.002 A 
ATOM     93  C   UNL A   1      40.656  31.766  35.333  1.00  0.00     0.091 A 
ATOM     94  F   UNL A   1      39.807  31.390  33.136  1.00  0.00    -0.205 F 
ATOM     95  C   UNL A   1      41.528  31.393  36.367  1.00  0.00     0.022 A 
BRANCH  93  96
ATOM     96  S   UNL A   1      39.640  33.225  35.571  1.00  0.00     0.127 S 
ATOM     97  O   UNL A   1      38.291  32.666  35.536  1.00  0.00    -0.237 OA
ATOM     98  O   UNL A   1      40.073  33.699  36.886  1.00  0.00    -0.237 OA
ATOM     99  O   UNL A   1      39.974  34.128  34.476  1.00  0.00    -0.744 OA
ENDBRANCH  93  96
ENDBRANCH  66  89
ENDBRANCH  40  41
ENDBRANCH  33  35
ENDBRANCH  32  33
ENDBRANCH  31  32
ENDBRANCH   1  31
TORSDOF 19
ENDMDL
MODEL 2
REMARK VINA RESULT:     -11.7      4.027      9.224
REMARK SMILES CCn1nc(C(=O)OCCOC(=O)c2ccc(-c3c4nc(c(-c5cccc(S(=O)(=O)[O-])c5F)c5ccc([nH]5)c(-c5cccc(S(=O)(=O)[O-])c5F)c5nc(c(-c6cccc(S(=O)(=O)[O-])c6F)c6ccc3[nH]6)C=C5)C=C4)cc2)c2c1CC[C@H]([NH2+]Cc1nn(CC)c3ccccc13)C2
REMARK SMILES IDX 9 1 8 2 6 3 7 4 5 5 3 6 4 7 78 8 77 9 79 10 95 11 80 12
REMARK SMILES IDX 81 13 2 14 1 15 82 16 83 19 84 20 85 21 94 22 86 23 89 24
REMARK SMILES IDX 93 25 90 26 92 27 91 28 87 29 88 30 10 31 11 32 12 33 13 34
REMARK SMILES IDX 14 35 15 36 76 37 16 38 75 39 17 40 18 41 19 42 69 43 20 44
REMARK SMILES IDX 74 45 68 46 70 47 21 48 73 49 67 50 66 51 22 53 54 54 34 55
REMARK SMILES IDX 53 56 35 57 38 58 52 59 71 60 36 61 37 62 51 64 72 65 39 66
REMARK SMILES IDX 23 67 24 68 32 69 25 70 27 71 33 72 26 73 28 74 29 75 30 76
REMARK SMILES IDX 31 77 55 78 56 79 64 80 57 81 59 82 65 83 58 84 60 85 61 86
REMARK SMILES IDX 62 87 63 88 40 89 41 90 49 91 42 92 44 93 50 94 43 95 45 96
REMARK SMILES IDX 46 97 47 98 48 99
REMARK H PARENT 82 17 82 18 70 52 38 63
REMARK Flexibility Score: inf
ROOT
ATOM      1  C   UNL A   1      36.465  23.283  24.973  1.00  0.00     0.275 C 
ENDROOT
BRANCH   1   2
ATOM      2  O   UNL A   1      36.081  23.972  23.775  1.00  0.00    -0.457 OA
BRANCH   2   3
ATOM      3  C   UNL A   1      34.744  24.034  23.439  1.00  0.00     0.359 C 
ATOM      4  O   UNL A   1      34.327  23.794  22.323  1.00  0.00    -0.244 OA
BRANCH   3   5
ATOM      5  C   UNL A   1      33.910  24.413  24.599  1.00  0.00     0.174 A 
ATOM      6  N   UNL A   1      32.665  24.254  26.334  1.00  0.00    -0.269 N 
ATOM      7  N   UNL A   1      33.292  23.516  25.387  1.00  0.00    -0.165 NA
ATOM      8  C   UNL A   1      32.747  25.599  26.106  1.00  0.00     0.043 A 
ATOM      9  C   UNL A   1      33.575  25.721  25.023  1.00  0.00     0.014 A 
ATOM     10  C   UNL A   1      32.097  26.746  26.794  1.00  0.00     0.062 C 
ATOM     11  C   UNL A   1      33.842  26.987  24.335  1.00  0.00     0.105 C 
ATOM     12  C   UNL A   1      32.073  27.999  25.859  1.00  0.00     0.072 C 
ATOM     13  C   UNL A   1      33.388  28.258  25.053  1.00  0.00     0.187 C 
BRANCH   6  14
ATOM     14  C   UNL A   1      31.955  23.534  27.372  1.00  0.00     0.141 C 
ATOM     15  C   UNL A   1      31.179  22.347  26.818  1.00  0.00     0.029 C 
ENDBRANCH   6  14
BRANCH  13  16
ATOM     16  N   UNL A   1      33.184  29.369  24.069  1.00  0.00    -0.338 N 
ATOM     17  H   UNL A   1      34.064  29.877  23.981  1.00  0.00     0.346 HD
ATOM     18  H   UNL A   1      32.420  29.936  24.437  1.00  0.00     0.346 HD
BRANCH  16  19
ATOM     19  C   UNL A   1      32.759  28.942  22.703  1.00  0.00     0.320 C 
BRANCH  19  20
ATOM     20  C   UNL A   1      31.250  28.951  22.451  1.00  0.00     0.124 A 
ATOM     21  N   UNL A   1      30.635  29.923  21.752  1.00  0.00    -0.171 NA
ATOM     22  C   UNL A   1      30.287  27.989  22.884  1.00  0.00     0.029 A 
ATOM     23  N   UNL A   1      29.324  29.784  22.053  1.00  0.00    -0.265 N 
ATOM     24  C   UNL A   1      29.064  28.654  22.797  1.00  0.00     0.069 A 
ATOM     25  C   UNL A   1      30.293  26.666  23.366  1.00  0.00     0.012 A 
ATOM     26  C   UNL A   1      27.882  28.143  23.354  1.00  0.00     0.028 A 
ATOM     27  C   UNL A   1      29.082  26.082  23.773  1.00  0.00     0.001 A 
ATOM     28  C   UNL A   1      27.910  26.833  23.830  1.00  0.00     0.002 A 
BRANCH  23  29
ATOM     29  C   UNL A   1      28.332  30.552  21.313  1.00  0.00     0.141 C 
ATOM     30  C   UNL A   1      28.001  31.955  21.797  1.00  0.00     0.029 C 
ENDBRANCH  23  29
ENDBRANCH  19  20
ENDBRANCH  16  19
ENDBRANCH  13  16
ENDBRANCH   3   5
ENDBRANCH   2   3
ENDBRANCH   1   2
BRANCH   1  31
ATOM     31  C   UNL A   1      37.656  22.357  24.698  1.00  0.00     0.275 C 
BRANCH  31  32
ATOM     32  O   UNL A   1      38.653  22.319  25.719  1.00  0.00    -0.458 OA
BRANCH  32  33
ATOM     33  C   UNL A   1      39.350  21.165  25.799  1.00  0.00     0.338 C 
ATOM     34  O   UNL A   1      38.868  20.054  25.657  1.00  0.00    -0.246 OA
BRANCH  33  35
ATOM     35  C   UNL A   1      40.702  21.472  26.319  1.00  0.00     0.060 A 
ATOM     36  C   UNL A   1      40.830  21.202  27.673  1.00  0.00     0.016 A 
ATOM     37  C   UNL A   1      41.442  22.485  25.679  1.00  0.00     0.016 A 
ATOM     38  C   UNL A   1      41.276  22.241  28.440  1.00  0.00     0.010 A 
ATOM     39  C   UNL A   1      41.870  23.526  26.437  1.00  0.00     0.010 A 
ATOM     40  C   UNL A   1      41.647  23.430  27.796  1.00  0.00    -0.014 A 
BRANCH  40  41
ATOM     41  C   UNL A   1      41.969  24.564  28.601  1.00  0.00     0.031 A 
ATOM     42  C   UNL A   1      40.928  25.583  28.442  1.00  0.00     0.074 A 
ATOM     43  C   UNL A   1      43.038  24.612  29.406  1.00  0.00     0.049 A 
ATOM     44  N   UNL A   1      40.946  26.540  27.578  1.00  0.00    -0.248 NA
ATOM     45  C   UNL A   1      39.609  25.314  29.035  1.00  0.00     0.031 C 
ATOM     46  C   UNL A   1      43.914  23.533  29.862  1.00  0.00     0.029 A 
ATOM     47  N   UNL A   1      43.484  25.686  30.092  1.00  0.00    -0.354 N 
ATOM     48  C   UNL A   1      39.724  27.165  27.745  1.00  0.00     0.074 A 
ATOM     49  C   UNL A   1      38.862  26.205  28.380  1.00  0.00     0.031 C 
ATOM     50  C   UNL A   1      44.621  23.972  30.934  1.00  0.00     0.029 A 
ATOM     51  C   UNL A   1      44.336  25.384  31.138  1.00  0.00     0.049 A 
ATOM     52  H   UNL A   1      43.224  26.609  29.865  1.00  0.00     0.167 HD
ATOM     53  C   UNL A   1      39.640  28.518  27.690  1.00  0.00     0.034 A 
ATOM     54  C   UNL A   1      44.662  26.240  32.137  1.00  0.00     0.034 A 
ATOM     55  C   UNL A   1      40.845  29.093  27.139  1.00  0.00     0.049 A 
ATOM     56  C   UNL A   1      44.350  27.615  31.654  1.00  0.00     0.074 A 
ATOM     57  C   UNL A   1      41.521  28.975  25.942  1.00  0.00     0.029 A 
ATOM     58  N   UNL A   1      41.750  29.581  28.053  1.00  0.00    -0.354 N 
ATOM     59  N   UNL A   1      44.988  28.193  30.674  1.00  0.00    -0.248 NA
ATOM     60  C   UNL A   1      43.031  28.162  31.943  1.00  0.00     0.031 C 
ATOM     61  C   UNL A   1      42.904  29.008  26.290  1.00  0.00     0.029 A 
ATOM     62  C   UNL A   1      43.009  29.201  27.669  1.00  0.00     0.049 A 
ATOM     63  H   UNL A   1      41.530  30.115  28.850  1.00  0.00     0.167 HD
ATOM     64  C   UNL A   1      43.996  28.839  29.943  1.00  0.00     0.074 A 
ATOM     65  C   UNL A   1      42.839  28.885  30.835  1.00  0.00     0.031 C 
ATOM     66  C   UNL A   1      44.110  28.995  28.590  1.00  0.00     0.034 A 
BRANCH  53  67
ATOM     67  C   UNL A   1      38.681  29.329  28.518  1.00  0.00     0.023 A 
ATOM     68  C   UNL A   1      38.780  29.193  29.916  1.00  0.00     0.012 A 
ATOM     69  C   UNL A   1      37.543  30.004  28.015  1.00  0.00     0.148 A 
ATOM     70  C   UNL A   1      37.780  29.671  30.765  1.00  0.00     0.002 A 
ATOM     71  C   UNL A   1      36.601  30.561  28.865  1.00  0.00     0.091 A 
ATOM     72  F   UNL A   1      37.269  29.993  26.709  1.00  0.00    -0.205 F 
ATOM     73  C   UNL A   1      36.696  30.368  30.242  1.00  0.00     0.022 A 
BRANCH  71  74
ATOM     74  S   UNL A   1      35.215  31.514  28.231  1.00  0.00     0.127 S 
ATOM     75  O   UNL A   1      35.899  32.551  27.465  1.00  0.00    -0.237 OA
ATOM     76  O   UNL A   1      34.508  30.513  27.433  1.00  0.00    -0.237 OA
ATOM     77  O   UNL A   1      34.477  31.968  29.404  1.00  0.00    -0.744 OA
ENDBRANCH  71  74
ENDBRANCH  53  67
BRANCH  54  78
ATOM     78  C   UNL A   1      44.912  25.958  33.568  1.00  0.00     0.023 A 
ATOM     79  C   UNL A   1      46.239  25.828  34.023  1.00  0.00     0.012 A 
ATOM     80  C   UNL A   1      43.887  26.101  34.530  1.00  0.00     0.148 A 
ATOM     81  C   UNL A   1      46.541  25.880  35.389  1.00  0.00     0.002 A 
ATOM     82  C   UNL A   1      44.191  26.146  35.887  1.00  0.00     0.091 A 
ATOM     83  F   UNL A   1      42.629  26.290  34.112  1.00  0.00    -0.205 F 
ATOM     84  C   UNL A   1      45.519  26.049  36.320  1.00  0.00     0.022 A 
BRANCH  82  85
ATOM     85  S   UNL A   1      42.930  26.399  37.144  1.00  0.00     0.127 S 
ATOM     86  O   UNL A   1      42.151  25.163  37.042  1.00  0.00    -0.237 OA
ATOM     87  O   UNL A   1      43.733  26.518  38.358  1.00  0.00    -0.237 OA
ATOM     88  O   UNL A   1      42.203  27.599  36.748  1.00  0.00    -0.744 OA
ENDBRANCH  82  85
ENDBRANCH  54  78
BRANCH  66  89
ATOM     89  C   UNL A   1      45.453  28.708  27.965  1.00  0.00     0.023 A 
ATOM     90  C   UNL A   1      46.500  29.654  27.934  1.00  0.00     0.012 A 
ATOM     91  C   UNL A   1      45.713  27.394  27.541  1.00  0.00     0.148 A 
ATOM     92  C   UNL A   1      47.771  29.299  27.470  1.00  0.00     0.002 A 
ATOM     93  C   UNL A   1      46.988  27.033  27.126  1.00  0.00     0.091 A 
ATOM     94  F   UNL A   1      44.707  26.508  27.578  1.00  0.00    -0.205 F 
ATOM     95  C   UNL A   1      48.019  27.985  27.079  1.00  0.00     0.022 A 
BRANCH  93  96
ATOM     96  S   UNL A   1      47.394  25.331  26.733  1.00  0.00     0.127 S 
ATOM     97  O   UNL A   1      46.397  25.007  25.716  1.00  0.00    -0.237 OA
ATOM     98  O   UNL A   1      48.766  25.441  26.233  1.00  0.00    -0.237 OA
ATOM     99  O   UNL A   1      47.278  24.593  27.985  1.00  0.00    -0.744 OA
ENDBRANCH  93  96
ENDBRANCH  66  89
ENDBRANCH  40  41
ENDBRANCH  33  35
ENDBRANCH  32  33
ENDBRANCH  31  32
ENDBRANCH   1  31
TORSDOF 19
ENDMDL
MODEL 3
REMARK VINA RESULT:     -11.4      4.250      9.387
REMARK SMILES CCn1nc(C(=O)OCCOC(=O)c2ccc(-c3c4nc(c(-c5cccc(S(=O)(=O)[O-])c5F)c5ccc([nH]5)c(-c5cccc(S(=O)(=O)[O-])c5F)c5nc(c(-c6cccc(S(=O)(=O)[O-])c6F)c6ccc3[nH]6)C=C5)C=C4)cc2)c2c1CC[C@H]([NH2+]Cc1nn(CC)c3ccccc13)C2
REMARK SMILES IDX 9 1 8 2 6 3 7 4 5 5 3 6 4 7 78 8 77 9 79 10 95 11 80 12
REMARK SMILES IDX 81 13 2 14 1 15 82 16 83 19 84 20 85 21 94 22 86 23 89 24
REMARK SMILES IDX 93 25 90 26 92 27 91 28 87 29 88 30 10 31 11 32 12 33 13 34
REMARK SMILES IDX 14 35 15 36 76 37 16 38 75 39 17 40 18 41 19 42 69 43 20 44
REMARK SMILES IDX 74 45 68 46 70 47 21 48 73 49 67 50 66 51 22 53 54 54 34 55
REMARK SMILES IDX 53 56 35 57 38 58 52 59 71 60 36 61 37 62 51 64 72 65 39 66
REMARK SMILES IDX 23 67 24 68 32 69 25 70 27 71 33 72 26 73 28 74 29 75 30 76
REMARK SMILES IDX 31 77 55 78 56 79 64 80 57 81 59 82 65 83 58 84 60 85 61 86
REMARK SMILES IDX 62 87 63 88 40 89 41 90 49 91 42 92 44 93 50 94 43 95 45 96
REMARK SMILES IDX 46 97 47 98 48 99
REMARK H PARENT 82 17 82 18 70 52 38 63
REMARK Flexibility Score: inf
ROOT
ATOM      1  C   UNL A   1      36.614  23.029  25.463  1.00  0.00     0.275 C 
ENDROOT
BRANCH   1   2
ATOM      2  O   UNL A   1      36.351  23.784  24.272  1.00  0.00    -0.457 OA
BRANCH   2   3
ATOM      3  C   UNL A   1      35.069  23.808  23.766  1.00  0.00     0.359 C 
ATOM      4  O   UNL A   1      34.801  23.521  22.616  1.00  0.00    -0.244 OA
BRANCH   3   5
ATOM      5  C   UNL A   1      34.087  24.214  24.794  1.00  0.00     0.174 A 
ATOM      6  N   UNL A   1      32.612  24.093  26.342  1.00  0.00    -0.269 N 
ATOM      7  N   UNL A   1      33.355  23.335  25.502  1.00  0.00    -0.165 NA
ATOM      8  C   UNL A   1      32.741  25.434  26.110  1.00  0.00     0.043 A 
ATOM      9  C   UNL A   1      33.712  25.531  25.151  1.00  0.00     0.014 A 
ATOM     10  C   UNL A   1      32.017  26.597  26.686  1.00  0.00     0.062 C 
ATOM     11  C   UNL A   1      34.087  26.784  24.489  1.00  0.00     0.105 C 
ATOM     12  C   UNL A   1      32.136  27.836  25.740  1.00  0.00     0.072 C 
ATOM     13  C   UNL A   1      33.553  28.070  25.120  1.00  0.00     0.187 C 
BRANCH   6  14
ATOM     14  C   UNL A   1      31.758  23.396  27.283  1.00  0.00     0.141 C 
ATOM     15  C   UNL A   1      30.331  23.263  26.770  1.00  0.00     0.029 C 
ENDBRANCH   6  14
BRANCH  13  16
ATOM     16  N   UNL A   1      33.500  29.168  24.101  1.00  0.00    -0.338 N 
ATOM     17  H   UNL A   1      34.438  29.560  24.013  1.00  0.00     0.346 HD
ATOM     18  H   UNL A   1      32.808  29.836  24.443  1.00  0.00     0.346 HD
BRANCH  16  19
ATOM     19  C   UNL A   1      33.041  28.756  22.742  1.00  0.00     0.320 C 
BRANCH  19  20
ATOM     20  C   UNL A   1      31.528  28.797  22.519  1.00  0.00     0.124 A 
ATOM     21  N   UNL A   1      30.910  29.829  21.916  1.00  0.00    -0.171 NA
ATOM     22  C   UNL A   1      30.565  27.809  22.886  1.00  0.00     0.029 A 
ATOM     23  N   UNL A   1      29.602  29.674  22.227  1.00  0.00    -0.265 N 
ATOM     24  C   UNL A   1      29.346  28.487  22.878  1.00  0.00     0.069 A 
ATOM     25  C   UNL A   1      30.568  26.450  23.255  1.00  0.00     0.012 A 
ATOM     26  C   UNL A   1      28.169  27.939  23.410  1.00  0.00     0.028 A 
ATOM     27  C   UNL A   1      29.359  25.842  23.632  1.00  0.00     0.001 A 
ATOM     28  C   UNL A   1      28.195  26.593  23.773  1.00  0.00     0.002 A 
BRANCH  23  29
ATOM     29  C   UNL A   1      28.605  30.508  21.572  1.00  0.00     0.141 C 
ATOM     30  C   UNL A   1      27.811  31.485  22.426  1.00  0.00     0.029 C 
ENDBRANCH  23  29
ENDBRANCH  19  20
ENDBRANCH  16  19
ENDBRANCH  13  16
ENDBRANCH   3   5
ENDBRANCH   2   3
ENDBRANCH   1   2
BRANCH   1  31
ATOM     31  C   UNL A   1      37.585  21.879  25.165  1.00  0.00     0.275 C 
BRANCH  31  32
ATOM     32  O   UNL A   1      38.869  21.985  25.778  1.00  0.00    -0.458 OA
BRANCH  32  33
ATOM     33  C   UNL A   1      39.620  20.863  25.736  1.00  0.00     0.338 C 
ATOM     34  O   UNL A   1      39.190  19.752  25.478  1.00  0.00    -0.246 OA
BRANCH  33  35
ATOM     35  C   UNL A   1      40.958  21.177  26.285  1.00  0.00     0.060 A 
ATOM     36  C   UNL A   1      41.050  20.931  27.647  1.00  0.00     0.016 A 
ATOM     37  C   UNL A   1      41.717  22.177  25.648  1.00  0.00     0.016 A 
ATOM     38  C   UNL A   1      41.478  21.982  28.407  1.00  0.00     0.010 A 
ATOM     39  C   UNL A   1      42.127  23.230  26.398  1.00  0.00     0.010 A 
ATOM     40  C   UNL A   1      41.868  23.159  27.752  1.00  0.00    -0.014 A 
BRANCH  40  41
ATOM     41  C   UNL A   1      42.172  24.306  28.545  1.00  0.00     0.031 A 
ATOM     42  C   UNL A   1      41.149  25.332  28.325  1.00  0.00     0.074 A 
ATOM     43  C   UNL A   1      43.210  24.361  29.390  1.00  0.00     0.049 A 
ATOM     44  N   UNL A   1      41.210  26.270  27.443  1.00  0.00    -0.248 NA
ATOM     45  C   UNL A   1      39.805  25.090  28.873  1.00  0.00     0.031 C 
ATOM     46  C   UNL A   1      44.057  23.283  29.901  1.00  0.00     0.029 A 
ATOM     47  N   UNL A   1      43.641  25.445  30.069  1.00  0.00    -0.354 N 
ATOM     48  C   UNL A   1      39.989  26.911  27.549  1.00  0.00     0.074 A 
ATOM     49  C   UNL A   1      39.093  25.973  28.172  1.00  0.00     0.031 C 
ATOM     50  C   UNL A   1      44.726  23.738  30.990  1.00  0.00     0.029 A 
ATOM     51  C   UNL A   1      44.449  25.156  31.154  1.00  0.00     0.049 A 
ATOM     52  H   UNL A   1      43.400  26.365  29.814  1.00  0.00     0.167 HD
ATOM     53  C   UNL A   1      39.922  28.263  27.464  1.00  0.00     0.034 A 
ATOM     54  C   UNL A   1      44.746  26.030  32.146  1.00  0.00     0.034 A 
ATOM     55  C   UNL A   1      41.153  28.814  26.948  1.00  0.00     0.049 A 
ATOM     56  C   UNL A   1      44.468  27.397  31.623  1.00  0.00     0.074 A 
ATOM     57  C   UNL A   1      41.873  28.665  25.780  1.00  0.00     0.029 A 
ATOM     58  N   UNL A   1      42.029  29.313  27.885  1.00  0.00    -0.354 N 
ATOM     59  N   UNL A   1      45.149  27.948  30.656  1.00  0.00    -0.248 NA
ATOM     60  C   UNL A   1      43.145  27.963  31.850  1.00  0.00     0.031 C 
ATOM     61  C   UNL A   1      43.242  28.691  26.179  1.00  0.00     0.029 A 
ATOM     62  C   UNL A   1      43.297  28.912  27.557  1.00  0.00     0.049 A 
ATOM     63  H   UNL A   1      41.784  29.866  28.662  1.00  0.00     0.167 HD
ATOM     64  C   UNL A   1      44.192  28.588  29.875  1.00  0.00     0.074 A 
ATOM     65  C   UNL A   1      43.003  28.665  30.721  1.00  0.00     0.031 C 
ATOM     66  C   UNL A   1      44.360  28.714  28.524  1.00  0.00     0.034 A 
BRANCH  53  67
ATOM     67  C   UNL A   1      38.941  29.101  28.237  1.00  0.00     0.023 A 
ATOM     68  C   UNL A   1      38.055  29.895  27.484  1.00  0.00     0.012 A 
ATOM     69  C   UNL A   1      39.003  29.348  29.629  1.00  0.00     0.148 A 
ATOM     70  C   UNL A   1      37.301  30.907  28.080  1.00  0.00     0.002 A 
ATOM     71  C   UNL A   1      38.182  30.288  30.232  1.00  0.00     0.091 A 
ATOM     72  F   UNL A   1      39.958  28.790  30.376  1.00  0.00    -0.205 F 
ATOM     73  C   UNL A   1      37.352  31.096  29.457  1.00  0.00     0.022 A 
BRANCH  71  74
ATOM     74  S   UNL A   1      38.181  30.525  32.014  1.00  0.00     0.127 S 
ATOM     75  O   UNL A   1      37.060  31.444  32.186  1.00  0.00    -0.237 OA
ATOM     76  O   UNL A   1      37.949  29.163  32.493  1.00  0.00    -0.237 OA
ATOM     77  O   UNL A   1      39.499  31.055  32.343  1.00  0.00    -0.744 OA
ENDBRANCH  71  74
ENDBRANCH  53  67
BRANCH  54  78
ATOM     78  C   UNL A   1      44.939  25.776  33.591  1.00  0.00     0.023 A 
ATOM     79  C   UNL A   1      43.833  25.857  34.460  1.00  0.00     0.012 A 
ATOM     80  C   UNL A   1      46.124  25.176  34.074  1.00  0.00     0.148 A 
ATOM     81  C   UNL A   1      43.890  25.325  35.753  1.00  0.00     0.002 A 
ATOM     82  C   UNL A   1      46.178  24.652  35.363  1.00  0.00     0.091 A 
ATOM     83  F   UNL A   1      47.162  25.032  33.241  1.00  0.00    -0.205 F 
ATOM     84  C   UNL A   1      45.058  24.714  36.200  1.00  0.00     0.022 A 
BRANCH  82  85
ATOM     85  S   UNL A   1      47.639  23.817  35.997  1.00  0.00     0.127 S 
ATOM     86  O   UNL A   1      47.350  22.418  35.676  1.00  0.00    -0.237 OA
ATOM     87  O   UNL A   1      48.703  24.421  35.198  1.00  0.00    -0.237 OA
ATOM     88  O   UNL A   1      47.680  24.108  37.424  1.00  0.00    -0.744 OA
ENDBRANCH  82  85
ENDBRANCH  54  78
BRANCH  66  89
ATOM     89  C   UNL A   1      45.723  28.401  27.957  1.00  0.00     0.023 A 
ATOM     90  C   UNL A   1      46.796  29.316  27.997  1.00  0.00     0.012 A 
ATOM     91  C   UNL A   1      45.964  27.089  27.518  1.00  0.00     0.148 A 
ATOM     92  C   UNL A   1      48.077  28.933  27.585  1.00  0.00     0.002 A 
ATOM     93  C   UNL A   1      47.248  26.699  27.155  1.00  0.00     0.091 A 
ATOM     94  F   UNL A   1      44.933  26.232  27.488  1.00  0.00    -0.205 F 
ATOM     95  C   UNL A   1      48.306  27.621  27.177  1.00  0.00     0.022 A 
BRANCH  93  96
ATOM     96  S   UNL A   1      47.623  24.994  26.745  1.00  0.00     0.127 S 
ATOM     97  O   UNL A   1      49.078  24.961  26.880  1.00  0.00    -0.237 OA
ATOM     98  O   UNL A   1      46.896  24.253  27.777  1.00  0.00    -0.237 OA
ATOM     99  O   UNL A   1      47.113  24.785  25.395  1.00  0.00    -0.744 OA
ENDBRANCH  93  96
ENDBRANCH  66  89
ENDBRANCH  40  41
ENDBRANCH  33  35
ENDBRANCH  32  33
ENDBRANCH  31  32
ENDBRANCH   1  31
TORSDOF 19
ENDMDL
