MODEL 1
REMARK VINA RESULT:     -11.9      0.000      0.000
REMARK SMILES O=C(C[NH+]1CCC(C(=O)OCCOC(=O)c2ccc(-c3c4nc(c(-c5cccc(S(=O)(=O)[O-])c5F)c5ccc([nH]5)c(-c5cccc(S(=O)(=O)[O-])c5F)c5nc(c(-c6cccc(S(=O)(=O)[O-])c6F)c6ccc3[nH]6)C=C5)C=C4)cc2)CC1)Nc1ccccc1Oc1ccccc1
REMARK SMILES IDX 11 1 10 2 8 3 9 4 7 5 4 6 5 7 80 8 6 10 79 11 3 12 2 13 1 14
REMARK SMILES IDX 81 15 82 17 83 18 87 19 84 20 86 21 85 22 88 23 89 24 90 25
REMARK SMILES IDX 94 26 91 27 93 28 92 29 12 30 13 31 14 32 15 33 16 34 17 35
REMARK SMILES IDX 78 36 18 37 77 38 19 39 20 40 21 41 71 42 22 43 76 44 70 45
REMARK SMILES IDX 72 46 23 47 75 48 69 49 68 50 24 52 56 53 36 54 55 55 37 56
REMARK SMILES IDX 40 57 54 58 73 59 38 60 39 61 53 63 74 64 41 65 25 66 26 67
REMARK SMILES IDX 34 68 27 69 29 70 35 71 28 72 30 73 31 74 32 75 33 76 57 77
REMARK SMILES IDX 58 78 66 79 59 80 61 81 67 82 60 83 62 84 63 85 64 86 65 87
REMARK SMILES IDX 42 88 43 89 51 90 44 91 46 92 52 93 45 94 47 95 48 96 49 97
REMARK SMILES IDX 50 98
REMARK H PARENT 4 9 81 16 72 51 40 62
REMARK Flexibility Score: inf
ROOT
ATOM      1  C   UNL A   1      35.506  22.263  26.307  1.00  0.00     0.274 C 
ENDROOT
BRANCH   1   2
ATOM      2  O   UNL A   1      34.545  21.812  27.275  1.00  0.00    -0.462 OA
BRANCH   2   3
ATOM      3  C   UNL A   1      33.324  22.403  27.234  1.00  0.00     0.309 C 
ATOM      4  O   UNL A   1      32.617  22.626  28.208  1.00  0.00    -0.252 OA
BRANCH   3   5
ATOM      5  C   UNL A   1      32.892  22.740  25.823  1.00  0.00     0.110 C 
ATOM      6  N   UNL A   1      31.214  24.273  24.032  1.00  0.00    -0.327 N 
ATOM      7  C   UNL A   1      31.027  22.820  24.132  1.00  0.00     0.263 C 
ATOM      8  C   UNL A   1      32.640  24.607  24.168  1.00  0.00     0.263 C 
ATOM      9  H   UNL A   1      30.683  24.710  24.787  1.00  0.00     0.348 HD
ATOM     10  C   UNL A   1      31.447  22.344  25.514  1.00  0.00     0.077 C 
ATOM     11  C   UNL A   1      33.144  24.218  25.551  1.00  0.00     0.077 C 
BRANCH   6  12
ATOM     12  C   UNL A   1      30.711  24.791  22.749  1.00  0.00     0.363 C 
BRANCH  12  13
ATOM     13  C   UNL A   1      30.763  26.320  22.712  1.00  0.00     0.279 C 
ATOM     14  O   UNL A   1      31.476  26.936  21.921  1.00  0.00    -0.268 OA
ATOM     15  N   UNL A   1      29.912  26.915  23.623  1.00  0.00    -0.318 N 
ATOM     16  H   UNL A   1      29.689  26.410  24.438  1.00  0.00     0.170 HD
BRANCH  15  17
ATOM     17  C   UNL A   1      29.342  28.192  23.468  1.00  0.00     0.084 A 
ATOM     18  C   UNL A   1      27.962  28.222  23.214  1.00  0.00     0.030 A 
ATOM     19  C   UNL A   1      30.056  29.404  23.528  1.00  0.00     0.150 A 
ATOM     20  C   UNL A   1      27.277  29.436  23.132  1.00  0.00     0.002 A 
ATOM     21  C   UNL A   1      29.352  30.616  23.447  1.00  0.00     0.049 A 
ATOM     22  C   UNL A   1      27.970  30.634  23.261  1.00  0.00     0.004 A 
BRANCH  19  23
ATOM     23  O   UNL A   1      31.412  29.576  23.706  1.00  0.00    -0.455 OA
BRANCH  23  24
ATOM     24  C   UNL A   1      32.021  29.301  24.908  1.00  0.00     0.127 A 
ATOM     25  C   UNL A   1      32.958  28.261  24.868  1.00  0.00     0.047 A 
ATOM     26  C   UNL A   1      31.773  29.961  26.111  1.00  0.00     0.047 A 
ATOM     27  C   UNL A   1      33.703  27.932  26.000  1.00  0.00     0.004 A 
ATOM     28  C   UNL A   1      32.518  29.628  27.250  1.00  0.00     0.004 A 
ATOM     29  C   UNL A   1      33.491  28.625  27.191  1.00  0.00     0.000 A 
ENDBRANCH  23  24
ENDBRANCH  19  23
ENDBRANCH  15  17
ENDBRANCH  12  13
ENDBRANCH   6  12
ENDBRANCH   3   5
ENDBRANCH   2   3
ENDBRANCH   1   2
BRANCH   1  30
ATOM     30  C   UNL A   1      36.217  21.075  25.658  1.00  0.00     0.275 C 
BRANCH  30  31
ATOM     31  O   UNL A   1      37.464  21.472  25.059  1.00  0.00    -0.458 OA
BRANCH  31  32
ATOM     32  C   UNL A   1      38.580  21.100  25.725  1.00  0.00     0.338 C 
ATOM     33  O   UNL A   1      39.060  19.976  25.798  1.00  0.00    -0.246 OA
BRANCH  32  34
ATOM     34  C   UNL A   1      39.241  22.285  26.285  1.00  0.00     0.060 A 
ATOM     35  C   UNL A   1      38.849  23.545  25.828  1.00  0.00     0.016 A 
ATOM     36  C   UNL A   1      40.296  22.157  27.188  1.00  0.00     0.016 A 
ATOM     37  C   UNL A   1      39.507  24.690  26.267  1.00  0.00     0.010 A 
ATOM     38  C   UNL A   1      40.954  23.307  27.635  1.00  0.00     0.010 A 
ATOM     39  C   UNL A   1      40.572  24.579  27.169  1.00  0.00    -0.014 A 
BRANCH  39  40
ATOM     40  C   UNL A   1      41.317  25.787  27.596  1.00  0.00     0.031 A 
ATOM     41  C   UNL A   1      40.617  26.849  28.395  1.00  0.00     0.074 A 
ATOM     42  C   UNL A   1      42.607  25.943  27.242  1.00  0.00     0.049 A 
ATOM     43  N   UNL A   1      41.037  28.039  28.734  1.00  0.00    -0.248 NA
ATOM     44  C   UNL A   1      39.260  26.530  28.868  1.00  0.00     0.031 C 
ATOM     45  C   UNL A   1      43.399  24.971  26.489  1.00  0.00     0.029 A 
ATOM     46  N   UNL A   1      43.467  26.993  27.444  1.00  0.00    -0.354 N 
ATOM     47  C   UNL A   1      39.980  28.633  29.411  1.00  0.00     0.074 A 
ATOM     48  C   UNL A   1      38.903  27.668  29.447  1.00  0.00     0.031 C 
ATOM     49  C   UNL A   1      44.621  25.479  26.269  1.00  0.00     0.029 A 
ATOM     50  C   UNL A   1      44.683  26.830  26.821  1.00  0.00     0.049 A 
ATOM     51  H   UNL A   1      43.237  27.786  27.982  1.00  0.00     0.167 HD
ATOM     52  C   UNL A   1      39.917  29.871  29.957  1.00  0.00     0.034 A 
ATOM     53  C   UNL A   1      45.713  27.686  26.677  1.00  0.00     0.034 A 
ATOM     54  C   UNL A   1      41.009  30.807  29.961  1.00  0.00     0.049 A 
ATOM     55  C   UNL A   1      45.615  29.059  27.287  1.00  0.00     0.074 A 
ATOM     56  C   UNL A   1      41.058  32.068  30.527  1.00  0.00     0.029 A 
ATOM     57  N   UNL A   1      42.244  30.584  29.370  1.00  0.00    -0.354 N 
ATOM     58  N   UNL A   1      44.640  29.579  27.992  1.00  0.00    -0.248 NA
ATOM     59  C   UNL A   1      46.765  29.956  27.100  1.00  0.00     0.031 C 
ATOM     60  C   UNL A   1      42.322  32.613  30.269  1.00  0.00     0.029 A 
ATOM     61  C   UNL A   1      43.062  31.685  29.553  1.00  0.00     0.049 A 
ATOM     62  H   UNL A   1      42.501  29.763  28.891  1.00  0.00     0.167 HD
ATOM     63  C   UNL A   1      45.066  30.852  28.353  1.00  0.00     0.074 A 
ATOM     64  C   UNL A   1      46.399  31.016  27.808  1.00  0.00     0.031 C 
ATOM     65  C   UNL A   1      44.408  31.807  29.055  1.00  0.00     0.034 A 
BRANCH  52  66
ATOM     66  C   UNL A   1      38.631  30.278  30.622  1.00  0.00     0.023 A 
ATOM     67  C   UNL A   1      38.389  29.905  31.959  1.00  0.00     0.012 A 
ATOM     68  C   UNL A   1      37.687  31.072  29.941  1.00  0.00     0.148 A 
ATOM     69  C   UNL A   1      37.217  30.298  32.603  1.00  0.00     0.002 A 
ATOM     70  C   UNL A   1      36.537  31.489  30.601  1.00  0.00     0.091 A 
ATOM     71  F   UNL A   1      37.924  31.391  28.661  1.00  0.00    -0.205 F 
ATOM     72  C   UNL A   1      36.296  31.097  31.927  1.00  0.00     0.022 A 
BRANCH  70  73
ATOM     73  S   UNL A   1      35.327  32.573  29.834  1.00  0.00     0.127 S 
ATOM     74  O   UNL A   1      34.340  32.716  30.902  1.00  0.00    -0.237 OA
ATOM     75  O   UNL A   1      36.114  33.778  29.565  1.00  0.00    -0.237 OA
ATOM     76  O   UNL A   1      34.867  31.875  28.641  1.00  0.00    -0.744 OA
ENDBRANCH  70  73
ENDBRANCH  52  66
BRANCH  53  77
ATOM     77  C   UNL A   1      46.934  27.258  25.938  1.00  0.00     0.023 A 
ATOM     78  C   UNL A   1      47.037  27.522  24.559  1.00  0.00     0.012 A 
ATOM     79  C   UNL A   1      48.008  26.628  26.599  1.00  0.00     0.148 A 
ATOM     80  C   UNL A   1      48.179  27.154  23.848  1.00  0.00     0.002 A 
ATOM     81  C   UNL A   1      49.166  26.314  25.896  1.00  0.00     0.091 A 
ATOM     82  F   UNL A   1      47.882  26.360  27.906  1.00  0.00    -0.205 F 
ATOM     83  C   UNL A   1      49.248  26.562  24.518  1.00  0.00     0.022 A 
BRANCH  81  84
ATOM     84  S   UNL A   1      50.635  25.677  26.711  1.00  0.00     0.127 S 
ATOM     85  O   UNL A   1      51.543  25.484  25.583  1.00  0.00    -0.237 OA
ATOM     86  O   UNL A   1      50.990  26.777  27.608  1.00  0.00    -0.237 OA
ATOM     87  O   UNL A   1      50.203  24.465  27.396  1.00  0.00    -0.744 OA
ENDBRANCH  81  84
ENDBRANCH  53  77
BRANCH  65  88
ATOM     88  C   UNL A   1      45.121  33.109  29.302  1.00  0.00     0.023 A 
ATOM     89  C   UNL A   1      45.932  33.250  30.445  1.00  0.00     0.012 A 
ATOM     90  C   UNL A   1      45.059  34.155  28.361  1.00  0.00     0.148 A 
ATOM     91  C   UNL A   1      46.657  34.422  30.657  1.00  0.00     0.002 A 
ATOM     92  C   UNL A   1      45.817  35.304  28.559  1.00  0.00     0.091 A 
ATOM     93  F   UNL A   1      44.265  34.007  27.292  1.00  0.00    -0.205 F 
ATOM     94  C   UNL A   1      46.610  35.442  29.710  1.00  0.00     0.022 A 
BRANCH  92  95
ATOM     95  S   UNL A   1      45.885  36.627  27.345  1.00  0.00     0.127 S 
ATOM     96  O   UNL A   1      44.506  37.112  27.356  1.00  0.00    -0.237 OA
ATOM     97  O   UNL A   1      46.860  37.544  27.935  1.00  0.00    -0.237 OA
ATOM     98  O   UNL A   1      46.322  36.004  26.102  1.00  0.00    -0.744 OA
ENDBRANCH  92  95
ENDBRANCH  65  88
ENDBRANCH  39  40
ENDBRANCH  32  34
ENDBRANCH  31  32
ENDBRANCH  30  31
ENDBRANCH   1  30
TORSDOF 19
ENDMDL
MODEL 2
REMARK VINA RESULT:     -11.8      4.652      9.978
REMARK SMILES O=C(C[NH+]1CCC(C(=O)OCCOC(=O)c2ccc(-c3c4nc(c(-c5cccc(S(=O)(=O)[O-])c5F)c5ccc([nH]5)c(-c5cccc(S(=O)(=O)[O-])c5F)c5nc(c(-c6cccc(S(=O)(=O)[O-])c6F)c6ccc3[nH]6)C=C5)C=C4)cc2)CC1)Nc1ccccc1Oc1ccccc1
REMARK SMILES IDX 11 1 10 2 8 3 9 4 7 5 4 6 5 7 80 8 6 10 79 11 3 12 2 13 1 14
REMARK SMILES IDX 81 15 82 17 83 18 87 19 84 20 86 21 85 22 88 23 89 24 90 25
REMARK SMILES IDX 94 26 91 27 93 28 92 29 12 30 13 31 14 32 15 33 16 34 17 35
REMARK SMILES IDX 78 36 18 37 77 38 19 39 20 40 21 41 71 42 22 43 76 44 70 45
REMARK SMILES IDX 72 46 23 47 75 48 69 49 68 50 24 52 56 53 36 54 55 55 37 56
REMARK SMILES IDX 40 57 54 58 73 59 38 60 39 61 53 63 74 64 41 65 25 66 26 67
REMARK SMILES IDX 34 68 27 69 29 70 35 71 28 72 30 73 31 74 32 75 33 76 57 77
REMARK SMILES IDX 58 78 66 79 59 80 61 81 67 82 60 83 62 84 63 85 64 86 65 87
REMARK SMILES IDX 42 88 43 89 51 90 44 91 46 92 52 93 45 94 47 95 48 96 49 97
REMARK SMILES IDX 50 98
REMARK H PARENT 4 9 81 16 72 51 40 62
REMARK Flexibility Score: inf
ROOT
ATOM      1  C   UNL A   1      31.279  29.601  24.789  1.00  0.00     0.274 C 
ENDROOT
BRANCH   1   2
ATOM      2  O   UNL A   1      31.373  28.266  24.268  1.00  0.00    -0.462 OA
BRANCH   2   3
ATOM      3  C   UNL A   1      30.249  27.756  23.705  1.00  0.00     0.309 C 
ATOM      4  O   UNL A   1      29.493  28.370  22.963  1.00  0.00    -0.252 OA
BRANCH   3   5
ATOM      5  C   UNL A   1      29.991  26.324  24.122  1.00  0.00     0.110 C 
ATOM      6  N   UNL A   1      31.013  23.776  25.036  1.00  0.00    -0.327 N 
ATOM      7  C   UNL A   1      30.415  23.877  23.699  1.00  0.00     0.263 C 
ATOM      8  C   UNL A   1      30.305  24.661  25.972  1.00  0.00     0.263 C 
ATOM      9  H   UNL A   1      31.991  24.059  24.964  1.00  0.00     0.348 HD
ATOM     10  C   UNL A   1      30.591  25.291  23.166  1.00  0.00     0.077 C 
ATOM     11  C   UNL A   1      30.471  26.115  25.554  1.00  0.00     0.077 C 
BRANCH   6  12
ATOM     12  C   UNL A   1      30.966  22.393  25.540  1.00  0.00     0.363 C 
BRANCH  12  13
ATOM     13  C   UNL A   1      32.017  21.519  24.852  1.00  0.00     0.279 C 
ATOM     14  O   UNL A   1      32.108  21.438  23.628  1.00  0.00    -0.268 OA
ATOM     15  N   UNL A   1      32.853  20.873  25.742  1.00  0.00    -0.318 N 
ATOM     16  H   UNL A   1      32.501  20.674  26.639  1.00  0.00     0.170 HD
BRANCH  15  17
ATOM     17  C   UNL A   1      34.173  20.478  25.456  1.00  0.00     0.084 A 
ATOM     18  C   UNL A   1      34.338  19.152  25.026  1.00  0.00     0.030 A 
ATOM     19  C   UNL A   1      35.306  21.301  25.593  1.00  0.00     0.150 A 
ATOM     20  C   UNL A   1      35.590  18.679  24.629  1.00  0.00     0.002 A 
ATOM     21  C   UNL A   1      36.559  20.812  25.187  1.00  0.00     0.049 A 
ATOM     22  C   UNL A   1      36.700  19.514  24.698  1.00  0.00     0.004 A 
BRANCH  19  23
ATOM     23  O   UNL A   1      35.355  22.599  26.053  1.00  0.00    -0.455 OA
BRANCH  23  24
ATOM     24  C   UNL A   1      34.870  23.647  25.307  1.00  0.00     0.127 A 
ATOM     25  C   UNL A   1      34.432  24.748  26.053  1.00  0.00     0.047 A 
ATOM     26  C   UNL A   1      34.788  23.680  23.915  1.00  0.00     0.047 A 
ATOM     27  C   UNL A   1      33.989  25.907  25.417  1.00  0.00     0.004 A 
ATOM     28  C   UNL A   1      34.338  24.843  23.276  1.00  0.00     0.004 A 
ATOM     29  C   UNL A   1      33.953  25.959  24.025  1.00  0.00     0.000 A 
ENDBRANCH  23  24
ENDBRANCH  19  23
ENDBRANCH  15  17
ENDBRANCH  12  13
ENDBRANCH   6  12
ENDBRANCH   3   5
ENDBRANCH   2   3
ENDBRANCH   1   2
BRANCH   1  30
ATOM     30  C   UNL A   1      32.636  30.074  25.311  1.00  0.00     0.275 C 
BRANCH  30  31
ATOM     31  O   UNL A   1      32.603  30.291  26.735  1.00  0.00    -0.458 OA
BRANCH  31  32
ATOM     32  C   UNL A   1      33.153  31.448  27.164  1.00  0.00     0.338 C 
ATOM     33  O   UNL A   1      32.631  32.556  27.181  1.00  0.00    -0.246 OA
BRANCH  32  34
ATOM     34  C   UNL A   1      34.477  31.184  27.742  1.00  0.00     0.060 A 
ATOM     35  C   UNL A   1      34.766  29.890  28.178  1.00  0.00     0.016 A 
ATOM     36  C   UNL A   1      35.394  32.216  27.932  1.00  0.00     0.016 A 
ATOM     37  C   UNL A   1      35.975  29.613  28.810  1.00  0.00     0.010 A 
ATOM     38  C   UNL A   1      36.612  31.938  28.561  1.00  0.00     0.010 A 
ATOM     39  C   UNL A   1      36.906  30.638  29.014  1.00  0.00    -0.014 A 
BRANCH  39  40
ATOM     40  C   UNL A   1      38.170  30.367  29.738  1.00  0.00     0.031 A 
ATOM     41  C   UNL A   1      39.183  29.433  29.141  1.00  0.00     0.074 A 
ATOM     42  C   UNL A   1      38.392  30.931  30.940  1.00  0.00     0.049 A 
ATOM     43  N   UNL A   1      40.272  28.946  29.673  1.00  0.00    -0.248 NA
ATOM     44  C   UNL A   1      38.931  28.983  27.762  1.00  0.00     0.031 C 
ATOM     45  C   UNL A   1      37.494  31.872  31.610  1.00  0.00     0.029 A 
ATOM     46  N   UNL A   1      39.429  30.771  31.824  1.00  0.00    -0.354 N 
ATOM     47  C   UNL A   1      40.808  28.089  28.720  1.00  0.00     0.074 A 
ATOM     48  C   UNL A   1      39.931  28.133  27.570  1.00  0.00     0.031 C 
ATOM     49  C   UNL A   1      38.005  32.185  32.811  1.00  0.00     0.029 A 
ATOM     50  C   UNL A   1      39.240  31.432  33.015  1.00  0.00     0.049 A 
ATOM     51  H   UNL A   1      40.232  30.234  31.625  1.00  0.00     0.167 HD
ATOM     52  C   UNL A   1      41.932  27.339  28.797  1.00  0.00     0.034 A 
ATOM     53  C   UNL A   1      39.956  31.402  34.155  1.00  0.00     0.034 A 
ATOM     54  C   UNL A   1      42.825  27.338  29.925  1.00  0.00     0.049 A 
ATOM     55  C   UNL A   1      41.198  30.554  34.218  1.00  0.00     0.074 A 
ATOM     56  C   UNL A   1      44.012  26.645  30.080  1.00  0.00     0.029 A 
ATOM     57  N   UNL A   1      42.628  28.064  31.090  1.00  0.00    -0.354 N 
ATOM     58  N   UNL A   1      41.735  29.809  33.281  1.00  0.00    -0.248 NA
ATOM     59  C   UNL A   1      41.943  30.554  35.485  1.00  0.00     0.031 C 
ATOM     60  C   UNL A   1      44.530  26.946  31.346  1.00  0.00     0.029 A 
ATOM     61  C   UNL A   1      43.671  27.834  31.972  1.00  0.00     0.049 A 
ATOM     62  H   UNL A   1      41.862  28.656  31.264  1.00  0.00     0.167 HD
ATOM     63  C   UNL A   1      42.892  29.274  33.836  1.00  0.00     0.074 A 
ATOM     64  C   UNL A   1      42.990  29.797  35.183  1.00  0.00     0.031 C 
ATOM     65  C   UNL A   1      43.782  28.411  33.287  1.00  0.00     0.034 A 
BRANCH  52  66
ATOM     66  C   UNL A   1      42.277  26.473  27.617  1.00  0.00     0.023 A 
ATOM     67  C   UNL A   1      43.052  27.002  26.567  1.00  0.00     0.012 A 
ATOM     68  C   UNL A   1      41.880  25.122  27.574  1.00  0.00     0.148 A 
ATOM     69  C   UNL A   1      43.408  26.207  25.478  1.00  0.00     0.002 A 
ATOM     70  C   UNL A   1      42.268  24.326  26.502  1.00  0.00     0.091 A 
ATOM     71  F   UNL A   1      41.119  24.646  28.570  1.00  0.00    -0.205 F 
ATOM     72  C   UNL A   1      43.025  24.868  25.451  1.00  0.00     0.022 A 
BRANCH  70  73
ATOM     73  S   UNL A   1      41.877  22.575  26.412  1.00  0.00     0.127 S 
ATOM     74  O   UNL A   1      40.417  22.600  26.354  1.00  0.00    -0.237 OA
ATOM     75  O   UNL A   1      42.531  22.173  25.165  1.00  0.00    -0.237 OA
ATOM     76  O   UNL A   1      42.450  21.978  27.612  1.00  0.00    -0.744 OA
ENDBRANCH  70  73
ENDBRANCH  52  66
BRANCH  53  77
ATOM     77  C   UNL A   1      39.523  32.220  35.324  1.00  0.00     0.023 A 
ATOM     78  C   UNL A   1      38.721  31.632  36.320  1.00  0.00     0.012 A 
ATOM     79  C   UNL A   1      39.933  33.559  35.474  1.00  0.00     0.148 A 
ATOM     80  C   UNL A   1      38.322  32.368  37.436  1.00  0.00     0.002 A 
ATOM     81  C   UNL A   1      39.579  34.269  36.615  1.00  0.00     0.091 A 
ATOM     82  F   UNL A   1      40.675  34.111  34.502  1.00  0.00    -0.205 F 
ATOM     83  C   UNL A   1      38.760  33.680  37.591  1.00  0.00     0.022 A 
BRANCH  81  84
ATOM     84  S   UNL A   1      40.215  35.916  36.953  1.00  0.00     0.127 S 
ATOM     85  O   UNL A   1      39.577  36.227  38.229  1.00  0.00    -0.237 OA
ATOM     86  O   UNL A   1      41.657  35.678  37.026  1.00  0.00    -0.237 OA
ATOM     87  O   UNL A   1      39.802  36.730  35.817  1.00  0.00    -0.744 OA
ENDBRANCH  81  84
ENDBRANCH  53  77
BRANCH  65  88
ATOM     88  C   UNL A   1      44.959  27.994  34.126  1.00  0.00     0.023 A 
ATOM     89  C   UNL A   1      46.161  28.725  34.050  1.00  0.00     0.012 A 
ATOM     90  C   UNL A   1      44.846  26.938  35.052  1.00  0.00     0.148 A 
ATOM     91  C   UNL A   1      47.240  28.397  34.870  1.00  0.00     0.002 A 
ATOM     92  C   UNL A   1      45.912  26.645  35.895  1.00  0.00     0.091 A 
ATOM     93  F   UNL A   1      43.701  26.243  35.093  1.00  0.00    -0.205 F 
ATOM     94  C   UNL A   1      47.112  27.369  35.800  1.00  0.00     0.022 A 
BRANCH  92  95
ATOM     95  S   UNL A   1      45.800  25.397  37.183  1.00  0.00     0.127 S 
ATOM     96  O   UNL A   1      44.849  26.008  38.109  1.00  0.00    -0.237 OA
ATOM     97  O   UNL A   1      45.283  24.238  36.453  1.00  0.00    -0.237 OA
ATOM     98  O   UNL A   1      47.154  25.230  37.694  1.00  0.00    -0.744 OA
ENDBRANCH  92  95
ENDBRANCH  65  88
ENDBRANCH  39  40
ENDBRANCH  32  34
ENDBRANCH  31  32
ENDBRANCH  30  31
ENDBRANCH   1  30
TORSDOF 19
ENDMDL
MODEL 3
REMARK VINA RESULT:     -11.7      1.638      7.745
REMARK SMILES O=C(C[NH+]1CCC(C(=O)OCCOC(=O)c2ccc(-c3c4nc(c(-c5cccc(S(=O)(=O)[O-])c5F)c5ccc([nH]5)c(-c5cccc(S(=O)(=O)[O-])c5F)c5nc(c(-c6cccc(S(=O)(=O)[O-])c6F)c6ccc3[nH]6)C=C5)C=C4)cc2)CC1)Nc1ccccc1Oc1ccccc1
REMARK SMILES IDX 11 1 10 2 8 3 9 4 7 5 4 6 5 7 80 8 6 10 79 11 3 12 2 13 1 14
REMARK SMILES IDX 81 15 82 17 83 18 87 19 84 20 86 21 85 22 88 23 89 24 90 25
REMARK SMILES IDX 94 26 91 27 93 28 92 29 12 30 13 31 14 32 15 33 16 34 17 35
REMARK SMILES IDX 78 36 18 37 77 38 19 39 20 40 21 41 71 42 22 43 76 44 70 45
REMARK SMILES IDX 72 46 23 47 75 48 69 49 68 50 24 52 56 53 36 54 55 55 37 56
REMARK SMILES IDX 40 57 54 58 73 59 38 60 39 61 53 63 74 64 41 65 25 66 26 67
REMARK SMILES IDX 34 68 27 69 29 70 35 71 28 72 30 73 31 74 32 75 33 76 57 77
REMARK SMILES IDX 58 78 66 79 59 80 61 81 67 82 60 83 62 84 63 85 64 86 65 87
REMARK SMILES IDX 42 88 43 89 51 90 44 91 46 92 52 93 45 94 47 95 48 96 49 97
REMARK SMILES IDX 50 98
REMARK H PARENT 4 9 81 16 72 51 40 62
REMARK Flexibility Score: inf
ROOT
ATOM      1  C   UNL A   1      35.621  20.370  25.006  1.00  0.00     0.274 C 
ENDROOT
BRANCH   1   2
ATOM      2  O   UNL A   1      34.698  19.308  24.715  1.00  0.00    -0.462 OA
BRANCH   2   3
ATOM      3  C   UNL A   1      33.379  19.610  24.819  1.00  0.00     0.309 C 
ATOM      4  O   UNL A   1      32.500  18.822  25.143  1.00  0.00    -0.252 OA
BRANCH   3   5
ATOM      5  C   UNL A   1      33.084  21.049  24.454  1.00  0.00     0.110 C 
ATOM      6  N   UNL A   1      31.162  23.098  23.760  1.00  0.00    -0.327 N 
ATOM      7  C   UNL A   1      32.149  22.665  22.762  1.00  0.00     0.263 C 
ATOM      8  C   UNL A   1      31.763  23.079  25.102  1.00  0.00     0.263 C 
ATOM      9  H   UNL A   1      30.374  22.450  23.724  1.00  0.00     0.348 HD
ATOM     10  C   UNL A   1      32.547  21.222  23.031  1.00  0.00     0.077 C 
ATOM     11  C   UNL A   1      32.147  21.658  25.489  1.00  0.00     0.077 C 
BRANCH   6  12
ATOM     12  C   UNL A   1      30.663  24.452  23.466  1.00  0.00     0.363 C 
BRANCH  12  13
ATOM     13  C   UNL A   1      31.562  25.519  24.093  1.00  0.00     0.279 C 
ATOM     14  O   UNL A   1      32.680  25.782  23.650  1.00  0.00    -0.268 OA
ATOM     15  N   UNL A   1      30.976  26.162  25.166  1.00  0.00    -0.318 N 
ATOM     16  H   UNL A   1      30.300  25.667  25.681  1.00  0.00     0.170 HD
BRANCH  15  17
ATOM     17  C   UNL A   1      31.279  27.474  25.574  1.00  0.00     0.084 A 
ATOM     18  C   UNL A   1      31.480  27.658  26.951  1.00  0.00     0.030 A 
ATOM     19  C   UNL A   1      31.365  28.585  24.713  1.00  0.00     0.150 A 
ATOM     20  C   UNL A   1      31.873  28.899  27.457  1.00  0.00     0.002 A 
ATOM     21  C   UNL A   1      31.764  29.825  25.237  1.00  0.00     0.049 A 
ATOM     22  C   UNL A   1      32.027  29.980  26.598  1.00  0.00     0.004 A 
BRANCH  19  23
ATOM     23  O   UNL A   1      31.144  28.617  23.353  1.00  0.00    -0.455 OA
BRANCH  23  24
ATOM     24  C   UNL A   1      30.003  29.171  22.823  1.00  0.00     0.127 A 
ATOM     25  C   UNL A   1      28.810  28.552  23.218  1.00  0.00     0.047 A 
ATOM     26  C   UNL A   1      29.960  30.259  21.952  1.00  0.00     0.047 A 
ATOM     27  C   UNL A   1      27.577  29.062  22.814  1.00  0.00     0.004 A 
ATOM     28  C   UNL A   1      28.721  30.770  21.542  1.00  0.00     0.004 A 
ATOM     29  C   UNL A   1      27.532  30.181  21.983  1.00  0.00     0.000 A 
ENDBRANCH  23  24
ENDBRANCH  19  23
ENDBRANCH  15  17
ENDBRANCH  12  13
ENDBRANCH   6  12
ENDBRANCH   3   5
ENDBRANCH   2   3
ENDBRANCH   1   2
BRANCH   1  30
ATOM     30  C   UNL A   1      37.058  19.849  25.005  1.00  0.00     0.275 C 
BRANCH  30  31
ATOM     31  O   UNL A   1      38.008  20.931  25.051  1.00  0.00    -0.458 OA
BRANCH  31  32
ATOM     32  C   UNL A   1      39.073  20.742  25.862  1.00  0.00     0.338 C 
ATOM     33  O   UNL A   1      39.625  19.682  26.128  1.00  0.00    -0.246 OA
BRANCH  32  34
ATOM     34  C   UNL A   1      39.582  22.041  26.320  1.00  0.00     0.060 A 
ATOM     35  C   UNL A   1      38.920  23.199  25.907  1.00  0.00     0.016 A 
ATOM     36  C   UNL A   1      40.750  22.126  27.076  1.00  0.00     0.016 A 
ATOM     37  C   UNL A   1      39.418  24.454  26.245  1.00  0.00     0.010 A 
ATOM     38  C   UNL A   1      41.248  23.386  27.423  1.00  0.00     0.010 A 
ATOM     39  C   UNL A   1      40.592  24.558  27.000  1.00  0.00    -0.014 A 
BRANCH  39  40
ATOM     40  C   UNL A   1      41.163  25.889  27.315  1.00  0.00     0.031 A 
ATOM     41  C   UNL A   1      42.571  26.210  26.905  1.00  0.00     0.074 A 
ATOM     42  C   UNL A   1      40.430  26.793  27.992  1.00  0.00     0.049 A 
ATOM     43  N   UNL A   1      43.305  27.247  27.212  1.00  0.00    -0.248 NA
ATOM     44  C   UNL A   1      43.244  25.228  26.038  1.00  0.00     0.031 C 
ATOM     45  C   UNL A   1      39.044  26.605  28.422  1.00  0.00     0.029 A 
ATOM     46  N   UNL A   1      40.761  28.039  28.462  1.00  0.00    -0.354 N 
ATOM     47  C   UNL A   1      44.544  27.019  26.626  1.00  0.00     0.074 A 
ATOM     48  C   UNL A   1      44.459  25.751  25.933  1.00  0.00     0.031 C 
ATOM     49  C   UNL A   1      38.651  27.685  29.116  1.00  0.00     0.029 A 
ATOM     50  C   UNL A   1      39.771  28.618  29.222  1.00  0.00     0.049 A 
ATOM     51  H   UNL A   1      41.624  28.477  28.276  1.00  0.00     0.167 HD
ATOM     52  C   UNL A   1      45.649  27.799  26.660  1.00  0.00     0.034 A 
ATOM     53  C   UNL A   1      39.777  29.749  29.952  1.00  0.00     0.034 A 
ATOM     54  C   UNL A   1      45.712  29.081  27.310  1.00  0.00     0.049 A 
ATOM     55  C   UNL A   1      41.021  30.596  29.980  1.00  0.00     0.074 A 
ATOM     56  C   UNL A   1      46.772  29.967  27.363  1.00  0.00     0.029 A 
ATOM     57  N   UNL A   1      44.670  29.659  28.020  1.00  0.00    -0.354 N 
ATOM     58  N   UNL A   1      42.160  30.407  29.357  1.00  0.00    -0.248 NA
ATOM     59  C   UNL A   1      40.978  31.819  30.793  1.00  0.00     0.031 C 
ATOM     60  C   UNL A   1      46.375  31.079  28.115  1.00  0.00     0.029 A 
ATOM     61  C   UNL A   1      45.063  30.889  28.519  1.00  0.00     0.049 A 
ATOM     62  H   UNL A   1      43.782  29.254  28.150  1.00  0.00     0.167 HD
ATOM     63  C   UNL A   1      42.958  31.497  29.683  1.00  0.00     0.074 A 
ATOM     64  C   UNL A   1      42.165  32.355  30.539  1.00  0.00     0.031 C 
ATOM     65  C   UNL A   1      44.240  31.757  29.321  1.00  0.00     0.034 A 
BRANCH  52  66
ATOM     66  C   UNL A   1      46.879  27.302  25.951  1.00  0.00     0.023 A 
ATOM     67  C   UNL A   1      47.742  26.399  26.605  1.00  0.00     0.012 A 
ATOM     68  C   UNL A   1      47.151  27.684  24.623  1.00  0.00     0.148 A 
ATOM     69  C   UNL A   1      48.871  25.902  25.955  1.00  0.00     0.002 A 
ATOM     70  C   UNL A   1      48.259  27.157  23.970  1.00  0.00     0.091 A 
ATOM     71  F   UNL A   1      46.333  28.565  24.030  1.00  0.00    -0.205 F 
ATOM     72  C   UNL A   1      49.124  26.274  24.636  1.00  0.00     0.022 A 
BRANCH  70  73
ATOM     73  S   UNL A   1      48.629  27.526  22.251  1.00  0.00     0.127 S 
ATOM     74  O   UNL A   1      47.470  28.327  21.865  1.00  0.00    -0.237 OA
ATOM     75  O   UNL A   1      49.882  28.276  22.356  1.00  0.00    -0.237 OA
ATOM     76  O   UNL A   1      48.753  26.235  21.586  1.00  0.00    -0.744 OA
ENDBRANCH  70  73
ENDBRANCH  52  66
BRANCH  53  77
ATOM     77  C   UNL A   1      38.554  30.154  30.701  1.00  0.00     0.023 A 
ATOM     78  C   UNL A   1      38.400  29.755  32.042  1.00  0.00     0.012 A 
ATOM     79  C   UNL A   1      37.565  30.964  30.108  1.00  0.00     0.148 A 
ATOM     80  C   UNL A   1      37.277  30.141  32.774  1.00  0.00     0.002 A 
ATOM     81  C   UNL A   1      36.476  31.391  30.859  1.00  0.00     0.091 A 
ATOM     82  F   UNL A   1      37.715  31.312  28.822  1.00  0.00    -0.205 F 
ATOM     83  C   UNL A   1      36.322  30.968  32.188  1.00  0.00     0.022 A 
BRANCH  81  84
ATOM     84  S   UNL A   1      35.276  32.566  30.220  1.00  0.00     0.127 S 
ATOM     85  O   UNL A   1      36.123  33.709  29.889  1.00  0.00    -0.237 OA
ATOM     86  O   UNL A   1      34.729  31.849  29.067  1.00  0.00    -0.237 OA
ATOM     87  O   UNL A   1      34.322  32.771  31.302  1.00  0.00    -0.744 OA
ENDBRANCH  81  84
ENDBRANCH  53  77
BRANCH  65  88
ATOM     88  C   UNL A   1      44.863  33.030  29.824  1.00  0.00     0.023 A 
ATOM     89  C   UNL A   1      45.615  33.011  31.016  1.00  0.00     0.012 A 
ATOM     90  C   UNL A   1      44.781  34.219  29.074  1.00  0.00     0.148 A 
ATOM     91  C   UNL A   1      46.258  34.164  31.464  1.00  0.00     0.002 A 
ATOM     92  C   UNL A   1      45.459  35.353  29.506  1.00  0.00     0.091 A 
ATOM     93  F   UNL A   1      44.043  34.220  27.955  1.00  0.00    -0.205 F 
ATOM     94  C   UNL A   1      46.192  35.329  30.704  1.00  0.00     0.022 A 
BRANCH  92  95
ATOM     95  S   UNL A   1      45.502  36.869  28.542  1.00  0.00     0.127 S 
ATOM     96  O   UNL A   1      46.013  36.391  27.258  1.00  0.00    -0.237 OA
ATOM     97  O   UNL A   1      44.095  37.271  28.527  1.00  0.00    -0.237 OA
ATOM     98  O   UNL A   1      46.379  37.777  29.267  1.00  0.00    -0.744 OA
ENDBRANCH  92  95
ENDBRANCH  65  88
ENDBRANCH  39  40
ENDBRANCH  32  34
ENDBRANCH  31  32
ENDBRANCH  30  31
ENDBRANCH   1  30
TORSDOF 19
ENDMDL
