MODEL 1
REMARK VINA RESULT:     -11.9      0.000      0.000
REMARK SMILES C[C@H](c1ccc(Br)s1)[NH+]1CCC(CC(=O)OCCOC(=O)c2ccc(-c3c4nc(c(-c5cccc(S(=O)(=O)[O-])c5F)c5ccc([nH]5)c(-c5cccc(S(=O)(=O)[O-])c5F)c5nc(c(-c6cccc(S(=O)(=O)[O-])c6F)c6ccc3[nH]6)C=C5)C=C4)cc2)CC1
REMARK SMILES IDX 17 1 16 2 14 3 15 4 13 5 12 6 9 7 10 8 86 9 11 11 85 12 2 13
REMARK SMILES IDX 1 14 3 15 4 16 8 17 5 18 6 19 7 20 18 21 19 22 20 23 21 24
REMARK SMILES IDX 22 25 23 26 84 27 24 28 83 29 25 30 26 31 27 32 77 33 28 34
REMARK SMILES IDX 82 35 76 36 78 37 29 38 81 39 75 40 74 41 30 43 62 44 42 45
REMARK SMILES IDX 61 46 43 47 46 48 60 49 79 50 44 51 45 52 59 54 80 55 47 56
REMARK SMILES IDX 31 57 32 58 40 59 33 60 35 61 41 62 34 63 36 64 37 65 38 66
REMARK SMILES IDX 39 67 63 68 64 69 72 70 65 71 67 72 73 73 66 74 68 75 69 76
REMARK SMILES IDX 70 77 71 78 48 79 49 80 57 81 50 82 52 83 58 84 51 85 53 86
REMARK SMILES IDX 54 87 55 88 56 89
REMARK H PARENT 9 10 78 42 46 53
REMARK Flexibility Score: inf
ROOT
ATOM      1  C   UNL A   1      35.105  20.644  25.306  1.00  0.00     0.274 C 
ENDROOT
BRANCH   1   2
ATOM      2  O   UNL A   1      34.275  19.665  24.652  1.00  0.00    -0.462 OA
BRANCH   2   3
ATOM      3  C   UNL A   1      32.935  19.859  24.675  1.00  0.00     0.306 C 
ATOM      4  O   UNL A   1      32.153  19.241  25.387  1.00  0.00    -0.252 OA
BRANCH   3   5
ATOM      5  C   UNL A   1      32.472  20.886  23.657  1.00  0.00     0.126 C 
BRANCH   5   6
ATOM      6  C   UNL A   1      32.297  22.321  24.180  1.00  0.00     0.011 C 
ATOM      7  N   UNL A   1      30.526  24.616  24.664  1.00  0.00    -0.328 N 
ATOM      8  C   UNL A   1      31.545  24.665  23.613  1.00  0.00     0.263 C 
ATOM      9  C   UNL A   1      30.992  23.807  25.796  1.00  0.00     0.263 C 
ATOM     10  H   UNL A   1      29.716  24.151  24.256  1.00  0.00     0.348 HD
ATOM     11  C   UNL A   1      31.829  23.271  23.072  1.00  0.00     0.066 C 
ATOM     12  C   UNL A   1      31.287  22.369  25.342  1.00  0.00     0.066 C 
BRANCH   7  13
ATOM     13  C   UNL A   1      29.992  25.934  25.070  1.00  0.00     0.222 C 
ATOM     14  C   UNL A   1      28.903  26.334  24.061  1.00  0.00     0.082 C 
BRANCH  13  15
ATOM     15  C   UNL A   1      31.022  27.040  25.231  1.00  0.00     0.063 A 
ATOM     16  C   UNL A   1      31.192  28.198  24.484  1.00  0.00     0.023 A 
ATOM     17  S   UNL A   1      32.182  26.964  26.501  1.00  0.00    -0.127 S 
ATOM     18  C   UNL A   1      32.301  28.981  24.917  1.00  0.00     0.028 A 
ATOM     19  C   UNL A   1      32.905  28.414  26.009  1.00  0.00     0.070 A 
ATOM     20  Br  UNL A   1      34.384  29.171  26.874  1.00  0.00    -0.039 Br
ENDBRANCH  13  15
ENDBRANCH   7  13
ENDBRANCH   5   6
ENDBRANCH   3   5
ENDBRANCH   2   3
ENDBRANCH   1   2
BRANCH   1  21
ATOM     21  C   UNL A   1      36.554  20.521  24.837  1.00  0.00     0.275 C 
BRANCH  21  22
ATOM     22  O   UNL A   1      37.352  21.583  25.384  1.00  0.00    -0.458 OA
BRANCH  22  23
ATOM     23  C   UNL A   1      38.573  21.218  25.839  1.00  0.00     0.338 C 
ATOM     24  O   UNL A   1      39.105  20.127  25.745  1.00  0.00    -0.246 OA
BRANCH  23  25
ATOM     25  C   UNL A   1      39.238  22.402  26.393  1.00  0.00     0.060 A 
ATOM     26  C   UNL A   1      38.747  23.670  26.065  1.00  0.00     0.016 A 
ATOM     27  C   UNL A   1      40.374  22.256  27.188  1.00  0.00     0.016 A 
ATOM     28  C   UNL A   1      39.402  24.809  26.530  1.00  0.00     0.010 A 
ATOM     29  C   UNL A   1      41.026  23.396  27.653  1.00  0.00     0.010 A 
ATOM     30  C   UNL A   1      40.554  24.677  27.314  1.00  0.00    -0.014 A 
BRANCH  30  31
ATOM     31  C   UNL A   1      41.331  25.865  27.734  1.00  0.00     0.031 A 
ATOM     32  C   UNL A   1      40.643  26.940  28.525  1.00  0.00     0.074 A 
ATOM     33  C   UNL A   1      42.609  26.009  27.344  1.00  0.00     0.049 A 
ATOM     34  N   UNL A   1      41.064  28.137  28.833  1.00  0.00    -0.248 NA
ATOM     35  C   UNL A   1      39.293  26.628  29.024  1.00  0.00     0.031 C 
ATOM     36  C   UNL A   1      43.378  25.022  26.586  1.00  0.00     0.029 A 
ATOM     37  N   UNL A   1      43.473  27.065  27.496  1.00  0.00    -0.354 N 
ATOM     38  C   UNL A   1      40.016  28.741  29.515  1.00  0.00     0.074 A 
ATOM     39  C   UNL A   1      38.940  27.776  29.584  1.00  0.00     0.031 C 
ATOM     40  C   UNL A   1      44.587  25.535  26.304  1.00  0.00     0.029 A 
ATOM     41  C   UNL A   1      44.663  26.897  26.825  1.00  0.00     0.049 A 
ATOM     42  H   UNL A   1      43.263  27.864  28.031  1.00  0.00     0.167 HD
ATOM     43  C   UNL A   1      39.960  29.986  30.041  1.00  0.00     0.034 A 
ATOM     44  C   UNL A   1      45.677  27.760  26.622  1.00  0.00     0.034 A 
ATOM     45  C   UNL A   1      41.050  30.924  29.998  1.00  0.00     0.049 A 
ATOM     46  C   UNL A   1      45.589  29.143  27.214  1.00  0.00     0.074 A 
ATOM     47  C   UNL A   1      41.111  32.197  30.533  1.00  0.00     0.029 A 
ATOM     48  N   UNL A   1      42.270  30.686  29.383  1.00  0.00    -0.354 N 
ATOM     49  N   UNL A   1      44.627  29.673  27.931  1.00  0.00    -0.248 NA
ATOM     50  C   UNL A   1      46.733  30.039  26.992  1.00  0.00     0.031 C 
ATOM     51  C   UNL A   1      42.366  32.736  30.231  1.00  0.00     0.029 A 
ATOM     52  C   UNL A   1      43.092  31.789  29.526  1.00  0.00     0.049 A 
ATOM     53  H   UNL A   1      42.514  29.856  28.913  1.00  0.00     0.167 HD
ATOM     54  C   UNL A   1      45.066  30.943  28.283  1.00  0.00     0.074 A 
ATOM     55  C   UNL A   1      46.386  31.103  27.705  1.00  0.00     0.031 C 
ATOM     56  C   UNL A   1      44.433  31.896  29.009  1.00  0.00     0.034 A 
BRANCH  43  57
ATOM     57  C   UNL A   1      38.690  30.400  30.733  1.00  0.00     0.023 A 
ATOM     58  C   UNL A   1      38.496  30.073  32.089  1.00  0.00     0.012 A 
ATOM     59  C   UNL A   1      37.715  31.161  30.057  1.00  0.00     0.148 A 
ATOM     60  C   UNL A   1      37.340  30.473  32.757  1.00  0.00     0.002 A 
ATOM     61  C   UNL A   1      36.582  31.590  30.741  1.00  0.00     0.091 A 
ATOM     62  F   UNL A   1      37.905  31.441  28.760  1.00  0.00    -0.205 F 
ATOM     63  C   UNL A   1      36.389  31.239  32.087  1.00  0.00     0.022 A 
BRANCH  61  64
ATOM     64  S   UNL A   1      35.339  32.642  29.984  1.00  0.00     0.127 S 
ATOM     65  O   UNL A   1      34.402  32.833  31.088  1.00  0.00    -0.237 OA
ATOM     66  O   UNL A   1      36.114  33.833  29.630  1.00  0.00    -0.237 OA
ATOM     67  O   UNL A   1      34.824  31.897  28.844  1.00  0.00    -0.744 OA
ENDBRANCH  61  64
ENDBRANCH  43  57
BRANCH  44  68
ATOM     68  C   UNL A   1      46.878  27.329  25.852  1.00  0.00     0.023 A 
ATOM     69  C   UNL A   1      47.811  26.466  26.458  1.00  0.00     0.012 A 
ATOM     70  C   UNL A   1      47.084  27.737  24.519  1.00  0.00     0.148 A 
ATOM     71  C   UNL A   1      48.941  26.037  25.760  1.00  0.00     0.002 A 
ATOM     72  C   UNL A   1      48.185  27.264  23.813  1.00  0.00     0.091 A 
ATOM     73  F   UNL A   1      46.196  28.574  23.965  1.00  0.00    -0.205 F 
ATOM     74  C   UNL A   1      49.122  26.426  24.436  1.00  0.00     0.022 A 
BRANCH  72  75
ATOM     75  S   UNL A   1      48.430  27.614  22.067  1.00  0.00     0.127 S 
ATOM     76  O   UNL A   1      48.663  26.279  21.524  1.00  0.00    -0.237 OA
ATOM     77  O   UNL A   1      47.150  28.216  21.694  1.00  0.00    -0.237 OA
ATOM     78  O   UNL A   1      49.562  28.531  22.008  1.00  0.00    -0.744 OA
ENDBRANCH  72  75
ENDBRANCH  44  68
BRANCH  56  79
ATOM     79  C   UNL A   1      45.166  33.180  29.285  1.00  0.00     0.023 A 
ATOM     80  C   UNL A   1      46.042  33.266  30.383  1.00  0.00     0.012 A 
ATOM     81  C   UNL A   1      45.077  34.258  28.380  1.00  0.00     0.148 A 
ATOM     82  C   UNL A   1      46.809  34.412  30.587  1.00  0.00     0.002 A 
ATOM     83  C   UNL A   1      45.878  35.377  28.564  1.00  0.00     0.091 A 
ATOM     84  F   UNL A   1      44.223  34.159  27.351  1.00  0.00    -0.205 F 
ATOM     85  C   UNL A   1      46.738  35.460  29.671  1.00  0.00     0.022 A 
BRANCH  83  86
ATOM     86  S   UNL A   1      45.926  36.732  27.385  1.00  0.00     0.127 S 
ATOM     87  O   UNL A   1      44.518  37.122  27.321  1.00  0.00    -0.237 OA
ATOM     88  O   UNL A   1      46.796  37.697  28.056  1.00  0.00    -0.237 OA
ATOM     89  O   UNL A   1      46.474  36.177  26.154  1.00  0.00    -0.744 OA
ENDBRANCH  83  86
ENDBRANCH  56  79
ENDBRANCH  30  31
ENDBRANCH  23  25
ENDBRANCH  22  23
ENDBRANCH  21  22
ENDBRANCH   1  21
TORSDOF 17
ENDMDL
MODEL 2
REMARK VINA RESULT:     -11.9      5.633     10.587
REMARK SMILES C[C@H](c1ccc(Br)s1)[NH+]1CCC(CC(=O)OCCOC(=O)c2ccc(-c3c4nc(c(-c5cccc(S(=O)(=O)[O-])c5F)c5ccc([nH]5)c(-c5cccc(S(=O)(=O)[O-])c5F)c5nc(c(-c6cccc(S(=O)(=O)[O-])c6F)c6ccc3[nH]6)C=C5)C=C4)cc2)CC1
REMARK SMILES IDX 17 1 16 2 14 3 15 4 13 5 12 6 9 7 10 8 86 9 11 11 85 12 2 13
REMARK SMILES IDX 1 14 3 15 4 16 8 17 5 18 6 19 7 20 18 21 19 22 20 23 21 24
REMARK SMILES IDX 22 25 23 26 84 27 24 28 83 29 25 30 26 31 27 32 77 33 28 34
REMARK SMILES IDX 82 35 76 36 78 37 29 38 81 39 75 40 74 41 30 43 62 44 42 45
REMARK SMILES IDX 61 46 43 47 46 48 60 49 79 50 44 51 45 52 59 54 80 55 47 56
REMARK SMILES IDX 31 57 32 58 40 59 33 60 35 61 41 62 34 63 36 64 37 65 38 66
REMARK SMILES IDX 39 67 63 68 64 69 72 70 65 71 67 72 73 73 66 74 68 75 69 76
REMARK SMILES IDX 70 77 71 78 48 79 49 80 57 81 50 82 52 83 58 84 51 85 53 86
REMARK SMILES IDX 54 87 55 88 56 89
REMARK H PARENT 9 10 78 42 46 53
REMARK Flexibility Score: inf
ROOT
ATOM      1  C   UNL A   1      31.664  29.409  24.601  1.00  0.00     0.274 C 
ENDROOT
BRANCH   1   2
ATOM      2  O   UNL A   1      30.345  29.149  24.084  1.00  0.00    -0.462 OA
BRANCH   2   3
ATOM      3  C   UNL A   1      30.198  28.116  23.220  1.00  0.00     0.306 C 
ATOM      4  O   UNL A   1      30.248  28.214  22.000  1.00  0.00    -0.252 OA
BRANCH   3   5
ATOM      5  C   UNL A   1      29.885  26.805  23.919  1.00  0.00     0.126 C 
BRANCH   5   6
ATOM      6  C   UNL A   1      31.072  26.102  24.596  1.00  0.00     0.011 C 
ATOM      7  N   UNL A   1      32.747  23.702  24.861  1.00  0.00    -0.328 N 
ATOM      8  C   UNL A   1      31.814  24.084  25.923  1.00  0.00     0.263 C 
ATOM      9  C   UNL A   1      33.286  24.894  24.194  1.00  0.00     0.263 C 
ATOM     10  H   UNL A   1      32.204  23.176  24.177  1.00  0.00     0.348 HD
ATOM     11  C   UNL A   1      30.626  24.843  25.350  1.00  0.00     0.066 C 
ATOM     12  C   UNL A   1      32.149  25.715  23.566  1.00  0.00     0.066 C 
BRANCH   7  13
ATOM     13  C   UNL A   1      33.794  22.742  25.273  1.00  0.00     0.222 C 
ATOM     14  C   UNL A   1      35.140  23.246  24.728  1.00  0.00     0.082 C 
BRANCH  13  15
ATOM     15  C   UNL A   1      33.551  21.295  24.879  1.00  0.00     0.063 A 
ATOM     16  C   UNL A   1      32.397  20.700  24.387  1.00  0.00     0.023 A 
ATOM     17  S   UNL A   1      34.822  20.140  24.997  1.00  0.00    -0.127 S 
ATOM     18  C   UNL A   1      32.543  19.300  24.166  1.00  0.00     0.028 A 
ATOM     19  C   UNL A   1      33.818  18.889  24.454  1.00  0.00     0.070 A 
ATOM     20  Br  UNL A   1      34.395  17.118  24.262  1.00  0.00    -0.039 Br
ENDBRANCH  13  15
ENDBRANCH   7  13
ENDBRANCH   5   6
ENDBRANCH   3   5
ENDBRANCH   2   3
ENDBRANCH   1   2
BRANCH   1  21
ATOM     21  C   UNL A   1      31.612  30.470  25.699  1.00  0.00     0.275 C 
BRANCH  21  22
ATOM     22  O   UNL A   1      32.695  30.289  26.626  1.00  0.00    -0.458 OA
BRANCH  22  23
ATOM     23  C   UNL A   1      33.194  31.424  27.165  1.00  0.00     0.338 C 
ATOM     24  O   UNL A   1      32.653  32.512  27.239  1.00  0.00    -0.246 OA
BRANCH  23  25
ATOM     25  C   UNL A   1      34.497  31.121  27.768  1.00  0.00     0.060 A 
ATOM     26  C   UNL A   1      34.783  29.801  28.132  1.00  0.00     0.016 A 
ATOM     27  C   UNL A   1      35.404  32.149  28.021  1.00  0.00     0.016 A 
ATOM     28  C   UNL A   1      35.989  29.503  28.763  1.00  0.00     0.010 A 
ATOM     29  C   UNL A   1      36.610  31.847  28.651  1.00  0.00     0.010 A 
ATOM     30  C   UNL A   1      36.902  30.527  29.040  1.00  0.00    -0.014 A 
BRANCH  30  31
ATOM     31  C   UNL A   1      38.142  30.259  29.802  1.00  0.00     0.031 A 
ATOM     32  C   UNL A   1      39.147  29.298  29.239  1.00  0.00     0.074 A 
ATOM     33  C   UNL A   1      38.323  30.810  31.015  1.00  0.00     0.049 A 
ATOM     34  N   UNL A   1      40.198  28.772  29.808  1.00  0.00    -0.248 NA
ATOM     35  C   UNL A   1      38.931  28.859  27.849  1.00  0.00     0.031 C 
ATOM     36  C   UNL A   1      37.417  31.767  31.652  1.00  0.00     0.029 A 
ATOM     37  N   UNL A   1      39.310  30.609  31.947  1.00  0.00    -0.354 N 
ATOM     38  C   UNL A   1      40.740  27.902  28.871  1.00  0.00     0.074 A 
ATOM     39  C   UNL A   1      39.907  27.975  27.690  1.00  0.00     0.031 C 
ATOM     40  C   UNL A   1      37.870  32.040  32.887  1.00  0.00     0.029 A 
ATOM     41  C   UNL A   1      39.070  31.249  33.142  1.00  0.00     0.049 A 
ATOM     42  H   UNL A   1      40.110  30.061  31.778  1.00  0.00     0.167 HD
ATOM     43  C   UNL A   1      41.837  27.118  28.984  1.00  0.00     0.034 A 
ATOM     44  C   UNL A   1      39.725  31.171  34.317  1.00  0.00     0.034 A 
ATOM     45  C   UNL A   1      42.678  27.081  30.150  1.00  0.00     0.049 A 
ATOM     46  C   UNL A   1      40.940  30.287  34.419  1.00  0.00     0.074 A 
ATOM     47  C   UNL A   1      43.834  26.351  30.354  1.00  0.00     0.029 A 
ATOM     48  N   UNL A   1      42.451  27.807  31.309  1.00  0.00    -0.354 N 
ATOM     49  N   UNL A   1      41.492  29.535  33.498  1.00  0.00    -0.248 NA
ATOM     50  C   UNL A   1      41.639  30.258  35.712  1.00  0.00     0.031 C 
ATOM     51  C   UNL A   1      44.300  26.626  31.644  1.00  0.00     0.029 A 
ATOM     52  C   UNL A   1      43.445  27.544  32.233  1.00  0.00     0.049 A 
ATOM     53  H   UNL A   1      41.692  28.419  31.454  1.00  0.00     0.167 HD
ATOM     54  C   UNL A   1      42.625  28.981  34.082  1.00  0.00     0.074 A 
ATOM     55  C   UNL A   1      42.684  29.488  35.438  1.00  0.00     0.031 C 
ATOM     56  C   UNL A   1      43.528  28.121  33.551  1.00  0.00     0.034 A 
BRANCH  43  57
ATOM     57  C   UNL A   1      42.208  26.256  27.809  1.00  0.00     0.023 A 
ATOM     58  C   UNL A   1      43.042  26.775  26.799  1.00  0.00     0.012 A 
ATOM     59  C   UNL A   1      41.780  24.916  27.732  1.00  0.00     0.148 A 
ATOM     60  C   UNL A   1      43.422  25.983  25.717  1.00  0.00     0.002 A 
ATOM     61  C   UNL A   1      42.195  24.121  26.670  1.00  0.00     0.091 A 
ATOM     62  F   UNL A   1      40.966  24.447  28.689  1.00  0.00    -0.205 F 
ATOM     63  C   UNL A   1      43.008  24.655  25.658  1.00  0.00     0.022 A 
BRANCH  61  64
ATOM     64  S   UNL A   1      41.774  22.379  26.546  1.00  0.00     0.127 S 
ATOM     65  O   UNL A   1      42.367  21.844  27.770  1.00  0.00    -0.237 OA
ATOM     66  O   UNL A   1      40.310  22.412  26.543  1.00  0.00    -0.237 OA
ATOM     67  O   UNL A   1      42.370  21.910  25.304  1.00  0.00    -0.744 OA
ENDBRANCH  61  64
ENDBRANCH  43  57
BRANCH  44  68
ATOM     68  C   UNL A   1      39.262  31.980  35.480  1.00  0.00     0.023 A 
ATOM     69  C   UNL A   1      39.530  33.362  35.508  1.00  0.00     0.012 A 
ATOM     70  C   UNL A   1      38.534  31.400  36.538  1.00  0.00     0.148 A 
ATOM     71  C   UNL A   1      39.103  34.148  36.579  1.00  0.00     0.002 A 
ATOM     72  C   UNL A   1      38.066  32.198  37.576  1.00  0.00     0.091 A 
ATOM     73  F   UNL A   1      38.305  30.080  36.505  1.00  0.00    -0.205 F 
ATOM     74  C   UNL A   1      38.362  33.570  37.606  1.00  0.00     0.022 A 
BRANCH  72  75
ATOM     75  S   UNL A   1      37.000  31.561  38.875  1.00  0.00     0.127 S 
ATOM     76  O   UNL A   1      37.849  31.697  40.054  1.00  0.00    -0.237 OA
ATOM     77  O   UNL A   1      35.867  32.486  38.820  1.00  0.00    -0.237 OA
ATOM     78  O   UNL A   1      36.676  30.196  38.479  1.00  0.00    -0.744 OA
ENDBRANCH  72  75
ENDBRANCH  44  68
BRANCH  56  79
ATOM     79  C   UNL A   1      44.700  27.711  34.400  1.00  0.00     0.023 A 
ATOM     80  C   UNL A   1      45.856  28.514  34.433  1.00  0.00     0.012 A 
ATOM     81  C   UNL A   1      44.601  26.596  35.256  1.00  0.00     0.148 A 
ATOM     82  C   UNL A   1      46.905  28.204  35.297  1.00  0.00     0.002 A 
ATOM     83  C   UNL A   1      45.631  26.321  36.146  1.00  0.00     0.091 A 
ATOM     84  F   UNL A   1      43.497  25.838  35.193  1.00  0.00    -0.205 F 
ATOM     85  C   UNL A   1      46.787  27.118  36.163  1.00  0.00     0.022 A 
BRANCH  83  86
ATOM     86  S   UNL A   1      45.526  25.003  37.364  1.00  0.00     0.127 S 
ATOM     87  O   UNL A   1      44.313  25.369  38.094  1.00  0.00    -0.237 OA
ATOM     88  O   UNL A   1      45.397  23.813  36.523  1.00  0.00    -0.237 OA
ATOM     89  O   UNL A   1      46.760  25.068  38.136  1.00  0.00    -0.744 OA
ENDBRANCH  83  86
ENDBRANCH  56  79
ENDBRANCH  30  31
ENDBRANCH  23  25
ENDBRANCH  22  23
ENDBRANCH  21  22
ENDBRANCH   1  21
TORSDOF 17
ENDMDL
MODEL 3
REMARK VINA RESULT:     -11.8      1.831      2.199
REMARK SMILES C[C@H](c1ccc(Br)s1)[NH+]1CCC(CC(=O)OCCOC(=O)c2ccc(-c3c4nc(c(-c5cccc(S(=O)(=O)[O-])c5F)c5ccc([nH]5)c(-c5cccc(S(=O)(=O)[O-])c5F)c5nc(c(-c6cccc(S(=O)(=O)[O-])c6F)c6ccc3[nH]6)C=C5)C=C4)cc2)CC1
REMARK SMILES IDX 17 1 16 2 14 3 15 4 13 5 12 6 9 7 10 8 86 9 11 11 85 12 2 13
REMARK SMILES IDX 1 14 3 15 4 16 8 17 5 18 6 19 7 20 18 21 19 22 20 23 21 24
REMARK SMILES IDX 22 25 23 26 84 27 24 28 83 29 25 30 26 31 27 32 77 33 28 34
REMARK SMILES IDX 82 35 76 36 78 37 29 38 81 39 75 40 74 41 30 43 62 44 42 45
REMARK SMILES IDX 61 46 43 47 46 48 60 49 79 50 44 51 45 52 59 54 80 55 47 56
REMARK SMILES IDX 31 57 32 58 40 59 33 60 35 61 41 62 34 63 36 64 37 65 38 66
REMARK SMILES IDX 39 67 63 68 64 69 72 70 65 71 67 72 73 73 66 74 68 75 69 76
REMARK SMILES IDX 70 77 71 78 48 79 49 80 57 81 50 82 52 83 58 84 51 85 53 86
REMARK SMILES IDX 54 87 55 88 56 89
REMARK H PARENT 9 10 78 42 46 53
REMARK Flexibility Score: inf
ROOT
ATOM      1  C   UNL A   1      35.348  19.935  25.003  1.00  0.00     0.274 C 
ENDROOT
BRANCH   1   2
ATOM      2  O   UNL A   1      34.105  20.115  24.299  1.00  0.00    -0.462 OA
BRANCH   2   3
ATOM      3  C   UNL A   1      32.965  20.149  25.030  1.00  0.00     0.306 C 
ATOM      4  O   UNL A   1      32.175  19.219  25.134  1.00  0.00    -0.252 OA
BRANCH   3   5
ATOM      5  C   UNL A   1      32.715  21.505  25.666  1.00  0.00     0.126 C 
BRANCH   5   6
ATOM      6  C   UNL A   1      32.981  22.728  24.773  1.00  0.00     0.011 C 
ATOM      7  N   UNL A   1      32.353  25.513  24.082  1.00  0.00    -0.328 N 
ATOM      8  C   UNL A   1      31.956  24.416  23.198  1.00  0.00     0.263 C 
ATOM      9  C   UNL A   1      33.618  25.200  24.757  1.00  0.00     0.263 C 
ATOM     10  H   UNL A   1      31.625  25.587  24.792  1.00  0.00     0.348 HD
ATOM     11  C   UNL A   1      31.726  23.139  23.993  1.00  0.00     0.066 C 
ATOM     12  C   UNL A   1      33.471  23.927  25.605  1.00  0.00     0.066 C 
BRANCH   7  13
ATOM     13  C   UNL A   1      32.345  26.851  23.449  1.00  0.00     0.222 C 
ATOM     14  C   UNL A   1      33.288  27.760  24.254  1.00  0.00     0.082 C 
BRANCH  13  15
ATOM     15  C   UNL A   1      30.978  27.491  23.282  1.00  0.00     0.063 A 
ATOM     16  C   UNL A   1      29.742  27.059  23.746  1.00  0.00     0.023 A 
ATOM     17  S   UNL A   1      30.817  28.978  22.429  1.00  0.00    -0.127 S 
ATOM     18  C   UNL A   1      28.671  27.913  23.354  1.00  0.00     0.028 A 
ATOM     19  C   UNL A   1      29.137  28.989  22.645  1.00  0.00     0.070 A 
ATOM     20  Br  UNL A   1      28.024  30.342  21.982  1.00  0.00    -0.039 Br
ENDBRANCH  13  15
ENDBRANCH   7  13
ENDBRANCH   5   6
ENDBRANCH   3   5
ENDBRANCH   2   3
ENDBRANCH   1   2
BRANCH   1  21
ATOM     21  C   UNL A   1      36.338  21.041  24.639  1.00  0.00     0.275 C 
BRANCH  21  22
ATOM     22  O   UNL A   1      37.032  21.501  25.810  1.00  0.00    -0.458 OA
BRANCH  22  23
ATOM     23  C   UNL A   1      38.363  21.263  25.827  1.00  0.00     0.338 C 
ATOM     24  O   UNL A   1      38.951  20.295  25.380  1.00  0.00    -0.246 OA
BRANCH  23  25
ATOM     25  C   UNL A   1      39.040  22.436  26.391  1.00  0.00     0.060 A 
ATOM     26  C   UNL A   1      38.589  23.712  26.039  1.00  0.00     0.016 A 
ATOM     27  C   UNL A   1      40.150  22.270  27.220  1.00  0.00     0.016 A 
ATOM     28  C   UNL A   1      39.257  24.839  26.513  1.00  0.00     0.010 A 
ATOM     29  C   UNL A   1      40.815  23.398  27.694  1.00  0.00     0.010 A 
ATOM     30  C   UNL A   1      40.383  24.687  27.331  1.00  0.00    -0.014 A 
BRANCH  30  31
ATOM     31  C   UNL A   1      41.175  25.860  27.765  1.00  0.00     0.031 A 
ATOM     32  C   UNL A   1      40.495  26.948  28.544  1.00  0.00     0.074 A 
ATOM     33  C   UNL A   1      42.462  25.980  27.397  1.00  0.00     0.049 A 
ATOM     34  N   UNL A   1      40.933  28.137  28.859  1.00  0.00    -0.248 NA
ATOM     35  C   UNL A   1      39.131  26.662  29.020  1.00  0.00     0.031 C 
ATOM     36  C   UNL A   1      43.225  24.978  26.651  1.00  0.00     0.029 A 
ATOM     37  N   UNL A   1      43.344  27.019  27.563  1.00  0.00    -0.354 N 
ATOM     38  C   UNL A   1      39.886  28.761  29.523  1.00  0.00     0.074 A 
ATOM     39  C   UNL A   1      38.790  27.818  29.574  1.00  0.00     0.031 C 
ATOM     40  C   UNL A   1      44.448  25.467  26.390  1.00  0.00     0.029 A 
ATOM     41  C   UNL A   1      44.541  26.827  26.912  1.00  0.00     0.049 A 
ATOM     42  H   UNL A   1      43.140  27.822  28.095  1.00  0.00     0.167 HD
ATOM     43  C   UNL A   1      39.845  30.008  30.048  1.00  0.00     0.034 A 
ATOM     44  C   UNL A   1      45.575  27.671  26.726  1.00  0.00     0.034 A 
ATOM     45  C   UNL A   1      40.953  30.924  30.023  1.00  0.00     0.049 A 
ATOM     46  C   UNL A   1      45.503  29.056  27.316  1.00  0.00     0.074 A 
ATOM     47  C   UNL A   1      41.030  32.196  30.560  1.00  0.00     0.029 A 
ATOM     48  N   UNL A   1      42.178  30.663  29.429  1.00  0.00    -0.354 N 
ATOM     49  N   UNL A   1      44.540  29.604  28.017  1.00  0.00    -0.248 NA
ATOM     50  C   UNL A   1      46.668  29.929  27.114  1.00  0.00     0.031 C 
ATOM     51  C   UNL A   1      42.300  32.711  30.279  1.00  0.00     0.029 A 
ATOM     52  C   UNL A   1      43.019  31.750  29.586  1.00  0.00     0.049 A 
ATOM     53  H   UNL A   1      42.415  29.828  28.964  1.00  0.00     0.167 HD
ATOM     54  C   UNL A   1      44.998  30.866  28.377  1.00  0.00     0.074 A 
ATOM     55  C   UNL A   1      46.329  31.000  27.821  1.00  0.00     0.031 C 
ATOM     56  C   UNL A   1      44.370  31.831  29.092  1.00  0.00     0.034 A 
BRANCH  43  57
ATOM     57  C   UNL A   1      38.571  30.446  30.718  1.00  0.00     0.023 A 
ATOM     58  C   UNL A   1      38.394  30.217  32.097  1.00  0.00     0.012 A 
ATOM     59  C   UNL A   1      37.576  31.135  29.997  1.00  0.00     0.148 A 
ATOM     60  C   UNL A   1      37.235  30.642  32.743  1.00  0.00     0.002 A 
ATOM     61  C   UNL A   1      36.440  31.590  30.657  1.00  0.00     0.091 A 
ATOM     62  F   UNL A   1      37.751  31.321  28.681  1.00  0.00    -0.205 F 
ATOM     63  C   UNL A   1      36.263  31.337  32.026  1.00  0.00     0.022 A 
BRANCH  61  64
ATOM     64  S   UNL A   1      35.170  32.558  29.834  1.00  0.00     0.127 S 
ATOM     65  O   UNL A   1      34.241  32.820  30.932  1.00  0.00    -0.237 OA
ATOM     66  O   UNL A   1      35.919  33.731  29.379  1.00  0.00    -0.237 OA
ATOM     67  O   UNL A   1      34.656  31.717  28.763  1.00  0.00    -0.744 OA
ENDBRANCH  61  64
ENDBRANCH  43  57
BRANCH  44  68
ATOM     68  C   UNL A   1      46.780  27.217  25.976  1.00  0.00     0.023 A 
ATOM     69  C   UNL A   1      46.845  27.428  24.586  1.00  0.00     0.012 A 
ATOM     70  C   UNL A   1      47.870  26.609  26.631  1.00  0.00     0.148 A 
ATOM     71  C   UNL A   1      47.964  27.022  23.856  1.00  0.00     0.002 A 
ATOM     72  C   UNL A   1      49.002  26.254  25.906  1.00  0.00     0.091 A 
ATOM     73  F   UNL A   1      47.782  26.398  27.951  1.00  0.00    -0.205 F 
ATOM     74  C   UNL A   1      49.045  26.446  24.517  1.00  0.00     0.022 A 
BRANCH  72  75
ATOM     75  S   UNL A   1      50.489  25.622  26.694  1.00  0.00     0.127 S 
ATOM     76  O   UNL A   1      51.347  25.356  25.543  1.00  0.00    -0.237 OA
ATOM     77  O   UNL A   1      50.901  26.756  27.521  1.00  0.00    -0.237 OA
ATOM     78  O   UNL A   1      50.062  24.452  27.451  1.00  0.00    -0.744 OA
ENDBRANCH  72  75
ENDBRANCH  44  68
BRANCH  56  79
ATOM     79  C   UNL A   1      45.123  33.101  29.380  1.00  0.00     0.023 A 
ATOM     80  C   UNL A   1      45.979  33.171  30.495  1.00  0.00     0.012 A 
ATOM     81  C   UNL A   1      45.072  34.178  28.472  1.00  0.00     0.148 A 
ATOM     82  C   UNL A   1      46.764  34.303  30.711  1.00  0.00     0.002 A 
ATOM     83  C   UNL A   1      45.891  35.283  28.670  1.00  0.00     0.091 A 
ATOM     84  F   UNL A   1      44.237  34.095  27.427  1.00  0.00    -0.205 F 
ATOM     85  C   UNL A   1      46.732  35.350  29.793  1.00  0.00     0.022 A 
BRANCH  83  86
ATOM     86  S   UNL A   1      45.989  36.634  27.490  1.00  0.00     0.127 S 
ATOM     87  O   UNL A   1      46.458  35.947  26.288  1.00  0.00    -0.237 OA
ATOM     88  O   UNL A   1      44.601  37.093  27.428  1.00  0.00    -0.237 OA
ATOM     89  O   UNL A   1      46.920  37.600  28.059  1.00  0.00    -0.744 OA
ENDBRANCH  83  86
ENDBRANCH  56  79
ENDBRANCH  30  31
ENDBRANCH  23  25
ENDBRANCH  22  23
ENDBRANCH  21  22
ENDBRANCH   1  21
TORSDOF 17
ENDMDL
