MODEL 1
REMARK VINA RESULT:     -11.4      0.000      0.000
REMARK SMILES O=C(OCCOC(=O)c1cn(C2CN(C(=O)Nc3ccsc3)C2)nn1)c1ccc(-c2c3nc(c(-c4cccc(S(=O)(=O)[O-])c4F)c4ccc([nH]4)c(-c4cccc(S(=O)(=O)[O-])c4F)c4nc(c(-c5cccc(S(=O)(=O)[O-])c5F)c5ccc2[nH]5)C=C4)C=C3)cc1
REMARK SMILES IDX 4 1 3 2 2 3 1 4 26 5 27 6 88 7 28 8 87 9 29 10 30 11 31 12
REMARK SMILES IDX 81 13 32 14 86 15 80 16 82 17 33 18 85 19 79 20 78 21 34 23
REMARK SMILES IDX 66 24 46 25 65 26 47 27 50 28 64 29 83 30 48 31 49 32 63 34
REMARK SMILES IDX 84 35 51 36 35 37 36 38 44 39 37 40 39 41 45 42 38 43 40 44
REMARK SMILES IDX 41 45 42 46 43 47 67 48 68 49 76 50 69 51 71 52 77 53 70 54
REMARK SMILES IDX 72 55 73 56 74 57 75 58 52 59 53 60 61 61 54 62 56 63 62 64
REMARK SMILES IDX 55 65 57 66 58 67 59 68 60 69 5 70 6 71 7 72 8 73 9 74 10 75
REMARK SMILES IDX 25 76 11 77 24 78 12 79 13 80 23 81 14 82 15 83 16 84 17 85
REMARK SMILES IDX 18 87 19 88 22 89 20 90 21 91
REMARK H PARENT 82 22 50 33 17 86
REMARK Flexibility Score: inf
ROOT
ATOM      1  C   UNL A   1      34.532  34.088  27.792  1.00  0.00     0.275 C 
ENDROOT
BRANCH   1   2
ATOM      2  O   UNL A   1      35.292  33.082  28.493  1.00  0.00    -0.458 OA
BRANCH   2   3
ATOM      3  C   UNL A   1      35.239  31.799  28.067  1.00  0.00     0.338 C 
ATOM      4  O   UNL A   1      34.313  31.320  27.436  1.00  0.00    -0.246 OA
BRANCH   3   5
ATOM      5  C   UNL A   1      36.526  31.120  28.331  1.00  0.00     0.060 A 
ATOM      6  C   UNL A   1      36.736  29.798  27.917  1.00  0.00     0.016 A 
ATOM      7  C   UNL A   1      37.536  31.821  28.999  1.00  0.00     0.016 A 
ATOM      8  C   UNL A   1      37.914  29.151  28.243  1.00  0.00     0.010 A 
ATOM      9  C   UNL A   1      38.720  31.171  29.324  1.00  0.00     0.010 A 
ATOM     10  C   UNL A   1      38.890  29.829  28.974  1.00  0.00    -0.014 A 
BRANCH  10  11
ATOM     11  C   UNL A   1      40.120  29.104  29.270  1.00  0.00     0.031 A 
ATOM     12  C   UNL A   1      40.352  28.790  30.707  1.00  0.00     0.074 A 
ATOM     13  C   UNL A   1      40.942  28.640  28.308  1.00  0.00     0.049 A 
ATOM     14  N   UNL A   1      41.340  29.158  31.459  1.00  0.00    -0.248 NA
ATOM     15  C   UNL A   1      39.303  28.046  31.418  1.00  0.00     0.031 C 
ATOM     16  C   UNL A   1      40.688  28.611  26.865  1.00  0.00     0.029 A 
ATOM     17  N   UNL A   1      42.115  27.954  28.436  1.00  0.00    -0.354 N 
ATOM     18  C   UNL A   1      41.151  28.503  32.677  1.00  0.00     0.074 A 
ATOM     19  C   UNL A   1      39.816  27.969  32.646  1.00  0.00     0.031 C 
ATOM     20  C   UNL A   1      41.529  27.723  26.291  1.00  0.00     0.029 A 
ATOM     21  C   UNL A   1      42.455  27.232  27.298  1.00  0.00     0.049 A 
ATOM     22  H   UNL A   1      42.665  27.968  29.253  1.00  0.00     0.167 HD
ATOM     23  C   UNL A   1      42.187  28.258  33.529  1.00  0.00     0.034 A 
ATOM     24  C   UNL A   1      43.368  26.236  27.211  1.00  0.00     0.034 A 
ATOM     25  C   UNL A   1      43.332  29.078  33.233  1.00  0.00     0.049 A 
ATOM     26  C   UNL A   1      44.282  26.356  28.368  1.00  0.00     0.074 A 
ATOM     27  C   UNL A   1      43.585  30.433  33.158  1.00  0.00     0.029 A 
ATOM     28  N   UNL A   1      44.406  28.464  32.639  1.00  0.00    -0.354 N 
ATOM     29  N   UNL A   1      45.137  27.326  28.523  1.00  0.00    -0.248 NA
ATOM     30  C   UNL A   1      43.998  25.575  29.561  1.00  0.00     0.031 C 
ATOM     31  C   UNL A   1      44.548  30.571  32.117  1.00  0.00     0.029 A 
ATOM     32  C   UNL A   1      44.850  29.292  31.647  1.00  0.00     0.049 A 
ATOM     33  H   UNL A   1      44.786  27.588  32.883  1.00  0.00     0.167 HD
ATOM     34  C   UNL A   1      45.146  27.563  29.890  1.00  0.00     0.074 A 
ATOM     35  C   UNL A   1      44.540  26.375  30.482  1.00  0.00     0.031 C 
ATOM     36  C   UNL A   1      45.370  28.817  30.384  1.00  0.00     0.034 A 
BRANCH  23  37
ATOM     37  C   UNL A   1      42.325  27.025  34.403  1.00  0.00     0.023 A 
ATOM     38  C   UNL A   1      41.912  27.140  35.753  1.00  0.00     0.012 A 
ATOM     39  C   UNL A   1      43.099  25.889  34.070  1.00  0.00     0.148 A 
ATOM     40  C   UNL A   1      42.324  26.229  36.732  1.00  0.00     0.002 A 
ATOM     41  C   UNL A   1      43.437  24.943  35.033  1.00  0.00     0.091 A 
ATOM     42  F   UNL A   1      43.631  25.771  32.852  1.00  0.00    -0.205 F 
ATOM     43  C   UNL A   1      43.086  25.127  36.372  1.00  0.00     0.022 A 
BRANCH  41  44
ATOM     44  S   UNL A   1      44.370  23.467  34.606  1.00  0.00     0.127 S 
ATOM     45  O   UNL A   1      44.506  22.822  35.908  1.00  0.00    -0.237 OA
ATOM     46  O   UNL A   1      43.464  22.798  33.672  1.00  0.00    -0.237 OA
ATOM     47  O   UNL A   1      45.600  23.955  33.993  1.00  0.00    -0.744 OA
ENDBRANCH  41  44
ENDBRANCH  23  37
BRANCH  24  48
ATOM     48  C   UNL A   1      43.381  25.051  26.325  1.00  0.00     0.023 A 
ATOM     49  C   UNL A   1      44.366  24.939  25.325  1.00  0.00     0.012 A 
ATOM     50  C   UNL A   1      42.600  23.911  26.624  1.00  0.00     0.148 A 
ATOM     51  C   UNL A   1      44.585  23.726  24.662  1.00  0.00     0.002 A 
ATOM     52  C   UNL A   1      42.812  22.712  25.953  1.00  0.00     0.091 A 
ATOM     53  F   UNL A   1      41.717  23.977  27.629  1.00  0.00    -0.205 F 
ATOM     54  C   UNL A   1      43.812  22.611  24.979  1.00  0.00     0.022 A 
BRANCH  52  55
ATOM     55  S   UNL A   1      41.859  21.231  26.319  1.00  0.00     0.127 S 
ATOM     56  O   UNL A   1      42.164  21.015  27.734  1.00  0.00    -0.237 OA
ATOM     57  O   UNL A   1      40.495  21.675  26.048  1.00  0.00    -0.237 OA
ATOM     58  O   UNL A   1      42.379  20.198  25.432  1.00  0.00    -0.744 OA
ENDBRANCH  52  55
ENDBRANCH  24  48
BRANCH  36  59
ATOM     59  C   UNL A   1      45.909  29.870  29.452  1.00  0.00     0.023 A 
ATOM     60  C   UNL A   1      47.294  30.060  29.259  1.00  0.00     0.012 A 
ATOM     61  C   UNL A   1      45.008  30.557  28.621  1.00  0.00     0.148 A 
ATOM     62  C   UNL A   1      47.767  30.936  28.281  1.00  0.00     0.002 A 
ATOM     63  C   UNL A   1      45.484  31.390  27.615  1.00  0.00     0.091 A 
ATOM     64  F   UNL A   1      43.694  30.363  28.810  1.00  0.00    -0.205 F 
ATOM     65  C   UNL A   1      46.863  31.591  27.449  1.00  0.00     0.022 A 
BRANCH  63  66
ATOM     66  S   UNL A   1      44.373  32.145  26.425  1.00  0.00     0.127 S 
ATOM     67  O   UNL A   1      43.476  31.041  26.097  1.00  0.00    -0.237 OA
ATOM     68  O   UNL A   1      43.758  33.223  27.204  1.00  0.00    -0.237 OA
ATOM     69  O   UNL A   1      45.220  32.615  25.334  1.00  0.00    -0.744 OA
ENDBRANCH  63  66
ENDBRANCH  36  59
ENDBRANCH  10  11
ENDBRANCH   3   5
ENDBRANCH   2   3
ENDBRANCH   1   2
BRANCH   1  70
ATOM     70  C   UNL A   1      33.226  34.556  28.433  1.00  0.00     0.275 C 
BRANCH  70  71
ATOM     71  O   UNL A   1      33.342  34.419  29.855  1.00  0.00    -0.457 OA
BRANCH  71  72
ATOM     72  C   UNL A   1      33.354  35.581  30.568  1.00  0.00     0.360 C 
ATOM     73  O   UNL A   1      32.803  36.625  30.234  1.00  0.00    -0.244 OA
BRANCH  72  74
ATOM     74  C   UNL A   1      34.156  35.431  31.757  1.00  0.00     0.190 A 
ATOM     75  C   UNL A   1      35.076  34.438  32.025  1.00  0.00     0.147 A 
ATOM     76  N   UNL A   1      34.058  36.262  32.839  1.00  0.00    -0.123 NA
ATOM     77  N   UNL A   1      35.523  34.742  33.280  1.00  0.00    -0.245 N 
ATOM     78  N   UNL A   1      34.882  35.816  33.774  1.00  0.00    -0.066 NA
BRANCH  77  79
ATOM     79  C   UNL A   1      36.668  34.216  33.949  1.00  0.00     0.148 C 
ATOM     80  C   UNL A   1      36.741  32.715  34.253  1.00  0.00     0.150 C 
ATOM     81  C   UNL A   1      37.772  33.952  32.901  1.00  0.00     0.150 C 
ATOM     82  N   UNL A   1      38.090  32.778  33.683  1.00  0.00    -0.320 N 
ATOM     83  C   UNL A   1      38.996  31.772  33.605  1.00  0.00     0.322 C 
ATOM     84  O   UNL A   1      38.799  30.695  34.175  1.00  0.00    -0.248 OA
ATOM     85  N   UNL A   1      40.068  31.857  32.773  1.00  0.00    -0.307 N 
ATOM     86  H   UNL A   1      40.473  30.988  32.548  1.00  0.00     0.171 HD
BRANCH  85  87
ATOM     87  C   UNL A   1      40.695  32.941  32.184  1.00  0.00     0.053 A 
ATOM     88  C   UNL A   1      40.574  33.412  30.845  1.00  0.00     0.038 A 
ATOM     89  C   UNL A   1      41.501  33.781  32.925  1.00  0.00     0.091 A 
ATOM     90  C   UNL A   1      41.440  34.448  30.567  1.00  0.00     0.067 A 
ATOM     91  S   UNL A   1      42.283  34.961  31.962  1.00  0.00    -0.150 S 
ENDBRANCH  85  87
ENDBRANCH  77  79
ENDBRANCH  72  74
ENDBRANCH  71  72
ENDBRANCH  70  71
ENDBRANCH   1  70
TORSDOF 16
ENDMDL
MODEL 2
REMARK VINA RESULT:     -10.9      2.923     11.236
REMARK SMILES O=C(OCCOC(=O)c1cn(C2CN(C(=O)Nc3ccsc3)C2)nn1)c1ccc(-c2c3nc(c(-c4cccc(S(=O)(=O)[O-])c4F)c4ccc([nH]4)c(-c4cccc(S(=O)(=O)[O-])c4F)c4nc(c(-c5cccc(S(=O)(=O)[O-])c5F)c5ccc2[nH]5)C=C4)C=C3)cc1
REMARK SMILES IDX 4 1 3 2 2 3 1 4 26 5 27 6 88 7 28 8 87 9 29 10 30 11 31 12
REMARK SMILES IDX 81 13 32 14 86 15 80 16 82 17 33 18 85 19 79 20 78 21 34 23
REMARK SMILES IDX 66 24 46 25 65 26 47 27 50 28 64 29 83 30 48 31 49 32 63 34
REMARK SMILES IDX 84 35 51 36 35 37 36 38 44 39 37 40 39 41 45 42 38 43 40 44
REMARK SMILES IDX 41 45 42 46 43 47 67 48 68 49 76 50 69 51 71 52 77 53 70 54
REMARK SMILES IDX 72 55 73 56 74 57 75 58 52 59 53 60 61 61 54 62 56 63 62 64
REMARK SMILES IDX 55 65 57 66 58 67 59 68 60 69 5 70 6 71 7 72 8 73 9 74 10 75
REMARK SMILES IDX 25 76 11 77 24 78 12 79 13 80 23 81 14 82 15 83 16 84 17 85
REMARK SMILES IDX 18 87 19 88 22 89 20 90 21 91
REMARK H PARENT 82 22 50 33 17 86
REMARK Flexibility Score: inf
ROOT
ATOM      1  C   UNL A   1      41.959  20.531  27.016  1.00  0.00     0.275 C 
ENDROOT
BRANCH   1   2
ATOM      2  O   UNL A   1      41.888  21.966  26.884  1.00  0.00    -0.458 OA
BRANCH   2   3
ATOM      3  C   UNL A   1      40.675  22.566  26.854  1.00  0.00     0.338 C 
ATOM      4  O   UNL A   1      39.647  22.026  26.485  1.00  0.00    -0.246 OA
BRANCH   3   5
ATOM      5  C   UNL A   1      40.752  23.902  27.485  1.00  0.00     0.060 A 
ATOM      6  C   UNL A   1      39.745  24.852  27.272  1.00  0.00     0.016 A 
ATOM      7  C   UNL A   1      41.846  24.202  28.303  1.00  0.00     0.016 A 
ATOM      8  C   UNL A   1      39.871  26.124  27.801  1.00  0.00     0.010 A 
ATOM      9  C   UNL A   1      41.972  25.479  28.837  1.00  0.00     0.010 A 
ATOM     10  C   UNL A   1      41.000  26.443  28.556  1.00  0.00    -0.014 A 
BRANCH  10  11
ATOM     11  C   UNL A   1      41.071  27.791  29.108  1.00  0.00     0.031 A 
ATOM     12  C   UNL A   1      42.070  28.695  28.474  1.00  0.00     0.074 A 
ATOM     13  C   UNL A   1      40.215  28.239  30.046  1.00  0.00     0.049 A 
ATOM     14  N   UNL A   1      43.081  29.286  29.026  1.00  0.00    -0.248 NA
ATOM     15  C   UNL A   1      41.982  28.894  27.020  1.00  0.00     0.031 C 
ATOM     16  C   UNL A   1      39.008  27.568  30.536  1.00  0.00     0.029 A 
ATOM     17  N   UNL A   1      40.162  29.462  30.649  1.00  0.00    -0.354 N 
ATOM     18  C   UNL A   1      43.624  30.109  28.038  1.00  0.00     0.074 A 
ATOM     19  C   UNL A   1      43.012  29.710  26.798  1.00  0.00     0.031 C 
ATOM     20  C   UNL A   1      38.216  28.480  31.142  1.00  0.00     0.029 A 
ATOM     21  C   UNL A   1      38.918  29.751  31.197  1.00  0.00     0.049 A 
ATOM     22  H   UNL A   1      40.929  30.080  30.692  1.00  0.00     0.167 HD
ATOM     23  C   UNL A   1      44.368  31.208  28.348  1.00  0.00     0.034 A 
ATOM     24  C   UNL A   1      38.463  30.967  31.582  1.00  0.00     0.034 A 
ATOM     25  C   UNL A   1      44.848  31.167  29.705  1.00  0.00     0.049 A 
ATOM     26  C   UNL A   1      39.634  31.847  31.786  1.00  0.00     0.074 A 
ATOM     27  C   UNL A   1      45.626  30.306  30.453  1.00  0.00     0.029 A 
ATOM     28  N   UNL A   1      44.248  32.008  30.607  1.00  0.00    -0.354 N 
ATOM     29  N   UNL A   1      40.495  31.699  32.751  1.00  0.00    -0.248 NA
ATOM     30  C   UNL A   1      40.063  32.696  30.688  1.00  0.00     0.031 C 
ATOM     31  C   UNL A   1      45.085  30.372  31.770  1.00  0.00     0.029 A 
ATOM     32  C   UNL A   1      44.037  31.294  31.752  1.00  0.00     0.049 A 
ATOM     33  H   UNL A   1      44.012  32.953  30.456  1.00  0.00     0.167 HD
ATOM     34  C   UNL A   1      41.712  32.050  32.185  1.00  0.00     0.074 A 
ATOM     35  C   UNL A   1      41.365  32.781  30.970  1.00  0.00     0.031 C 
ATOM     36  C   UNL A   1      42.874  31.461  32.595  1.00  0.00     0.034 A 
BRANCH  23  37
ATOM     37  C   UNL A   1      44.372  32.509  27.567  1.00  0.00     0.023 A 
ATOM     38  C   UNL A   1      45.424  32.701  26.637  1.00  0.00     0.012 A 
ATOM     39  C   UNL A   1      43.606  33.648  27.903  1.00  0.00     0.148 A 
ATOM     40  C   UNL A   1      45.752  33.969  26.144  1.00  0.00     0.002 A 
ATOM     41  C   UNL A   1      43.886  34.893  27.346  1.00  0.00     0.091 A 
ATOM     42  F   UNL A   1      42.681  33.578  28.862  1.00  0.00    -0.205 F 
ATOM     43  C   UNL A   1      44.981  35.067  26.497  1.00  0.00     0.022 A 
BRANCH  41  44
ATOM     44  S   UNL A   1      42.880  36.334  27.723  1.00  0.00     0.127 S 
ATOM     45  O   UNL A   1      43.186  36.541  29.134  1.00  0.00    -0.237 OA
ATOM     46  O   UNL A   1      43.436  37.335  26.812  1.00  0.00    -0.237 OA
ATOM     47  O   UNL A   1      41.512  35.939  27.407  1.00  0.00    -0.744 OA
ENDBRANCH  41  44
ENDBRANCH  23  37
BRANCH  24  48
ATOM     48  C   UNL A   1      37.081  31.497  31.574  1.00  0.00     0.023 A 
ATOM     49  C   UNL A   1      36.491  31.925  32.779  1.00  0.00     0.012 A 
ATOM     50  C   UNL A   1      36.435  31.828  30.360  1.00  0.00     0.148 A 
ATOM     51  C   UNL A   1      35.313  32.680  32.777  1.00  0.00     0.002 A 
ATOM     52  C   UNL A   1      35.257  32.567  30.364  1.00  0.00     0.091 A 
ATOM     53  F   UNL A   1      37.025  31.500  29.204  1.00  0.00    -0.205 F 
ATOM     54  C   UNL A   1      34.699  33.006  31.570  1.00  0.00     0.022 A 
BRANCH  52  55
ATOM     55  S   UNL A   1      34.418  33.032  28.843  1.00  0.00     0.127 S 
ATOM     56  O   UNL A   1      35.484  33.706  28.101  1.00  0.00    -0.237 OA
ATOM     57  O   UNL A   1      34.026  31.733  28.305  1.00  0.00    -0.237 OA
ATOM     58  O   UNL A   1      33.326  33.909  29.247  1.00  0.00    -0.744 OA
ENDBRANCH  52  55
ENDBRANCH  24  48
BRANCH  36  59
ATOM     59  C   UNL A   1      42.862  30.660  33.871  1.00  0.00     0.023 A 
ATOM     60  C   UNL A   1      43.021  31.266  35.136  1.00  0.00     0.012 A 
ATOM     61  C   UNL A   1      42.502  29.303  33.810  1.00  0.00     0.148 A 
ATOM     62  C   UNL A   1      42.856  30.528  36.309  1.00  0.00     0.002 A 
ATOM     63  C   UNL A   1      42.288  28.585  34.980  1.00  0.00     0.091 A 
ATOM     64  F   UNL A   1      42.346  28.740  32.601  1.00  0.00    -0.205 F 
ATOM     65  C   UNL A   1      42.475  29.191  36.233  1.00  0.00     0.022 A 
BRANCH  63  66
ATOM     66  S   UNL A   1      41.659  26.904  34.943  1.00  0.00     0.127 S 
ATOM     67  O   UNL A   1      41.310  26.676  36.342  1.00  0.00    -0.237 OA
ATOM     68  O   UNL A   1      40.514  27.013  34.036  1.00  0.00    -0.237 OA
ATOM     69  O   UNL A   1      42.748  26.085  34.422  1.00  0.00    -0.744 OA
ENDBRANCH  63  66
ENDBRANCH  36  59
ENDBRANCH  10  11
ENDBRANCH   3   5
ENDBRANCH   2   3
ENDBRANCH   1   2
BRANCH   1  70
ATOM     70  C   UNL A   1      42.325  19.728  25.770  1.00  0.00     0.275 C 
BRANCH  70  71
ATOM     71  O   UNL A   1      43.698  19.327  25.872  1.00  0.00    -0.457 OA
BRANCH  71  72
ATOM     72  C   UNL A   1      44.496  19.650  24.814  1.00  0.00     0.360 C 
ATOM     73  O   UNL A   1      44.948  18.854  23.997  1.00  0.00    -0.244 OA
BRANCH  72  74
ATOM     74  C   UNL A   1      44.783  21.062  24.816  1.00  0.00     0.190 A 
ATOM     75  C   UNL A   1      45.618  21.745  25.677  1.00  0.00     0.147 A 
ATOM     76  N   UNL A   1      44.192  21.950  23.959  1.00  0.00    -0.123 NA
ATOM     77  N   UNL A   1      45.510  23.045  25.270  1.00  0.00    -0.245 N 
ATOM     78  N   UNL A   1      44.626  23.164  24.263  1.00  0.00    -0.066 NA
BRANCH  77  79
ATOM     79  C   UNL A   1      46.349  24.142  25.624  1.00  0.00     0.148 C 
ATOM     80  C   UNL A   1      46.101  25.516  24.989  1.00  0.00     0.150 C 
ATOM     81  C   UNL A   1      45.818  24.767  26.933  1.00  0.00     0.150 C 
ATOM     82  N   UNL A   1      46.188  26.040  26.355  1.00  0.00    -0.320 N 
ATOM     83  C   UNL A   1      46.130  27.338  26.743  1.00  0.00     0.322 C 
ATOM     84  O   UNL A   1      46.148  28.249  25.910  1.00  0.00    -0.248 OA
ATOM     85  N   UNL A   1      45.892  27.673  28.038  1.00  0.00    -0.307 N 
ATOM     86  H   UNL A   1      45.557  28.591  28.161  1.00  0.00     0.171 HD
BRANCH  85  87
ATOM     87  C   UNL A   1      46.033  26.962  29.216  1.00  0.00     0.053 A 
ATOM     88  C   UNL A   1      45.019  26.358  30.012  1.00  0.00     0.038 A 
ATOM     89  C   UNL A   1      47.285  26.682  29.728  1.00  0.00     0.091 A 
ATOM     90  C   UNL A   1      45.509  25.832  31.188  1.00  0.00     0.067 A 
ATOM     91  S   UNL A   1      47.214  25.922  31.260  1.00  0.00    -0.150 S 
ENDBRANCH  85  87
ENDBRANCH  77  79
ENDBRANCH  72  74
ENDBRANCH  71  72
ENDBRANCH  70  71
ENDBRANCH   1  70
TORSDOF 16
ENDMDL
MODEL 3
REMARK VINA RESULT:     -10.8      3.253     11.544
REMARK SMILES O=C(OCCOC(=O)c1cn(C2CN(C(=O)Nc3ccsc3)C2)nn1)c1ccc(-c2c3nc(c(-c4cccc(S(=O)(=O)[O-])c4F)c4ccc([nH]4)c(-c4cccc(S(=O)(=O)[O-])c4F)c4nc(c(-c5cccc(S(=O)(=O)[O-])c5F)c5ccc2[nH]5)C=C4)C=C3)cc1
REMARK SMILES IDX 4 1 3 2 2 3 1 4 26 5 27 6 88 7 28 8 87 9 29 10 30 11 31 12
REMARK SMILES IDX 81 13 32 14 86 15 80 16 82 17 33 18 85 19 79 20 78 21 34 23
REMARK SMILES IDX 66 24 46 25 65 26 47 27 50 28 64 29 83 30 48 31 49 32 63 34
REMARK SMILES IDX 84 35 51 36 35 37 36 38 44 39 37 40 39 41 45 42 38 43 40 44
REMARK SMILES IDX 41 45 42 46 43 47 67 48 68 49 76 50 69 51 71 52 77 53 70 54
REMARK SMILES IDX 72 55 73 56 74 57 75 58 52 59 53 60 61 61 54 62 56 63 62 64
REMARK SMILES IDX 55 65 57 66 58 67 59 68 60 69 5 70 6 71 7 72 8 73 9 74 10 75
REMARK SMILES IDX 25 76 11 77 24 78 12 79 13 80 23 81 14 82 15 83 16 84 17 85
REMARK SMILES IDX 18 87 19 88 22 89 20 90 21 91
REMARK H PARENT 82 22 50 33 17 86
REMARK Flexibility Score: inf
ROOT
ATOM      1  C   UNL A   1      41.126  20.307  27.594  1.00  0.00     0.275 C 
ENDROOT
BRANCH   1   2
ATOM      2  O   UNL A   1      41.238  21.730  27.809  1.00  0.00    -0.458 OA
BRANCH   2   3
ATOM      3  C   UNL A   1      40.621  22.577  26.952  1.00  0.00     0.338 C 
ATOM      4  O   UNL A   1      39.971  22.225  25.984  1.00  0.00    -0.246 OA
BRANCH   3   5
ATOM      5  C   UNL A   1      40.712  23.965  27.454  1.00  0.00     0.060 A 
ATOM      6  C   UNL A   1      41.857  24.407  28.130  1.00  0.00     0.016 A 
ATOM      7  C   UNL A   1      39.637  24.834  27.241  1.00  0.00     0.016 A 
ATOM      8  C   UNL A   1      41.895  25.682  28.666  1.00  0.00     0.010 A 
ATOM      9  C   UNL A   1      39.676  26.116  27.777  1.00  0.00     0.010 A 
ATOM     10  C   UNL A   1      40.791  26.522  28.515  1.00  0.00    -0.014 A 
BRANCH  10  11
ATOM     11  C   UNL A   1      40.894  27.862  29.080  1.00  0.00     0.031 A 
ATOM     12  C   UNL A   1      41.898  28.755  28.439  1.00  0.00     0.074 A 
ATOM     13  C   UNL A   1      40.062  28.315  30.038  1.00  0.00     0.049 A 
ATOM     14  N   UNL A   1      42.929  29.322  28.981  1.00  0.00    -0.248 NA
ATOM     15  C   UNL A   1      41.790  28.972  26.990  1.00  0.00     0.031 C 
ATOM     16  C   UNL A   1      38.851  27.660  30.541  1.00  0.00     0.029 A 
ATOM     17  N   UNL A   1      40.042  29.532  30.655  1.00  0.00    -0.354 N 
ATOM     18  C   UNL A   1      43.470  30.147  27.993  1.00  0.00     0.074 A 
ATOM     19  C   UNL A   1      42.831  29.772  26.760  1.00  0.00     0.031 C 
ATOM     20  C   UNL A   1      38.086  28.579  31.169  1.00  0.00     0.029 A 
ATOM     21  C   UNL A   1      38.811  29.837  31.226  1.00  0.00     0.049 A 
ATOM     22  H   UNL A   1      40.819  30.135  30.691  1.00  0.00     0.167 HD
ATOM     23  C   UNL A   1      44.239  31.229  28.302  1.00  0.00     0.034 A 
ATOM     24  C   UNL A   1      38.385  31.056  31.632  1.00  0.00     0.034 A 
ATOM     25  C   UNL A   1      44.740  31.164  29.650  1.00  0.00     0.049 A 
ATOM     26  C   UNL A   1      39.575  31.912  31.826  1.00  0.00     0.074 A 
ATOM     27  C   UNL A   1      45.515  30.281  30.376  1.00  0.00     0.029 A 
ATOM     28  N   UNL A   1      44.170  32.006  30.571  1.00  0.00    -0.354 N 
ATOM     29  N   UNL A   1      40.449  31.739  32.775  1.00  0.00    -0.248 NA
ATOM     30  C   UNL A   1      40.001  32.767  30.730  1.00  0.00     0.031 C 
ATOM     31  C   UNL A   1      44.998  30.342  31.703  1.00  0.00     0.029 A 
ATOM     32  C   UNL A   1      43.966  31.282  31.712  1.00  0.00     0.049 A 
ATOM     33  H   UNL A   1      43.949  32.956  30.435  1.00  0.00     0.167 HD
ATOM     34  C   UNL A   1      41.662  32.075  32.192  1.00  0.00     0.074 A 
ATOM     35  C   UNL A   1      41.308  32.825  30.991  1.00  0.00     0.031 C 
ATOM     36  C   UNL A   1      42.820  31.460  32.577  1.00  0.00     0.034 A 
BRANCH  23  37
ATOM     37  C   UNL A   1      44.253  32.538  27.535  1.00  0.00     0.023 A 
ATOM     38  C   UNL A   1      45.295  32.723  26.593  1.00  0.00     0.012 A 
ATOM     39  C   UNL A   1      43.510  33.685  27.894  1.00  0.00     0.148 A 
ATOM     40  C   UNL A   1      45.637  33.992  26.110  1.00  0.00     0.002 A 
ATOM     41  C   UNL A   1      43.803  34.931  27.347  1.00  0.00     0.091 A 
ATOM     42  F   UNL A   1      42.597  33.619  28.865  1.00  0.00    -0.205 F 
ATOM     43  C   UNL A   1      44.888  35.097  26.485  1.00  0.00     0.022 A 
BRANCH  41  44
ATOM     44  S   UNL A   1      42.824  36.384  27.753  1.00  0.00     0.127 S 
ATOM     45  O   UNL A   1      43.193  36.602  29.147  1.00  0.00    -0.237 OA
ATOM     46  O   UNL A   1      43.348  37.372  26.809  1.00  0.00    -0.237 OA
ATOM     47  O   UNL A   1      41.441  35.997  27.501  1.00  0.00    -0.744 OA
ENDBRANCH  41  44
ENDBRANCH  23  37
BRANCH  24  48
ATOM     48  C   UNL A   1      37.012  31.610  31.653  1.00  0.00     0.023 A 
ATOM     49  C   UNL A   1      36.411  31.936  32.884  1.00  0.00     0.012 A 
ATOM     50  C   UNL A   1      36.393  32.064  30.466  1.00  0.00     0.148 A 
ATOM     51  C   UNL A   1      35.246  32.710  32.934  1.00  0.00     0.002 A 
ATOM     52  C   UNL A   1      35.228  32.821  30.521  1.00  0.00     0.091 A 
ATOM     53  F   UNL A   1      36.996  31.833  29.293  1.00  0.00    -0.205 F 
ATOM     54  C   UNL A   1      34.658  33.158  31.754  1.00  0.00     0.022 A 
BRANCH  52  55
ATOM     55  S   UNL A   1      34.422  33.440  29.037  1.00  0.00     0.127 S 
ATOM     56  O   UNL A   1      33.291  34.184  29.594  1.00  0.00    -0.237 OA
ATOM     57  O   UNL A   1      35.468  34.269  28.447  1.00  0.00    -0.237 OA
ATOM     58  O   UNL A   1      34.040  32.259  28.273  1.00  0.00    -0.744 OA
ENDBRANCH  52  55
ENDBRANCH  24  48
BRANCH  36  59
ATOM     59  C   UNL A   1      42.815  30.646  33.844  1.00  0.00     0.023 A 
ATOM     60  C   UNL A   1      43.021  31.233  35.111  1.00  0.00     0.012 A 
ATOM     61  C   UNL A   1      42.415  29.301  33.777  1.00  0.00     0.148 A 
ATOM     62  C   UNL A   1      42.861  30.486  36.280  1.00  0.00     0.002 A 
ATOM     63  C   UNL A   1      42.208  28.575  34.944  1.00  0.00     0.091 A 
ATOM     64  F   UNL A   1      42.216  28.756  32.566  1.00  0.00    -0.205 F 
ATOM     65  C   UNL A   1      42.441  29.161  36.198  1.00  0.00     0.022 A 
BRANCH  63  66
ATOM     66  S   UNL A   1      41.532  26.914  34.903  1.00  0.00     0.127 S 
ATOM     67  O   UNL A   1      40.400  27.064  33.993  1.00  0.00    -0.237 OA
ATOM     68  O   UNL A   1      42.647  26.129  34.367  1.00  0.00    -0.237 OA
ATOM     69  O   UNL A   1      41.193  26.590  36.285  1.00  0.00    -0.744 OA
ENDBRANCH  63  66
ENDBRANCH  36  59
ENDBRANCH  10  11
ENDBRANCH   3   5
ENDBRANCH   2   3
ENDBRANCH   1   2
BRANCH   1  70
ATOM     70  C   UNL A   1      42.404  19.548  27.242  1.00  0.00     0.275 C 
BRANCH  70  71
ATOM     71  O   UNL A   1      42.571  19.572  25.818  1.00  0.00    -0.457 OA
BRANCH  71  72
ATOM     72  C   UNL A   1      43.807  19.231  25.356  1.00  0.00     0.360 C 
ATOM     73  O   UNL A   1      44.206  18.086  25.170  1.00  0.00    -0.244 OA
BRANCH  72  74
ATOM     74  C   UNL A   1      44.613  20.412  25.164  1.00  0.00     0.190 A 
ATOM     75  C   UNL A   1      44.181  21.667  24.788  1.00  0.00     0.147 A 
ATOM     76  N   UNL A   1      45.976  20.417  25.282  1.00  0.00    -0.123 NA
ATOM     77  N   UNL A   1      45.333  22.399  24.723  1.00  0.00    -0.245 N 
ATOM     78  N   UNL A   1      46.407  21.634  24.986  1.00  0.00    -0.066 NA
BRANCH  77  79
ATOM     79  C   UNL A   1      45.462  23.818  24.645  1.00  0.00     0.148 C 
ATOM     80  C   UNL A   1      44.618  24.702  25.570  1.00  0.00     0.150 C 
ATOM     81  C   UNL A   1      46.670  24.249  25.506  1.00  0.00     0.150 C 
ATOM     82  N   UNL A   1      45.872  25.402  25.863  1.00  0.00    -0.320 N 
ATOM     83  C   UNL A   1      46.039  26.496  26.646  1.00  0.00     0.322 C 
ATOM     84  O   UNL A   1      45.066  27.117  27.084  1.00  0.00    -0.248 OA
ATOM     85  N   UNL A   1      47.270  26.851  27.103  1.00  0.00    -0.307 N 
ATOM     86  H   UNL A   1      47.252  27.438  27.893  1.00  0.00     0.171 HD
BRANCH  85  87
ATOM     87  C   UNL A   1      48.543  26.537  26.661  1.00  0.00     0.053 A 
ATOM     88  C   UNL A   1      49.172  26.912  25.439  1.00  0.00     0.038 A 
ATOM     89  C   UNL A   1      49.420  25.840  27.467  1.00  0.00     0.091 A 
ATOM     90  C   UNL A   1      50.406  26.320  25.274  1.00  0.00     0.067 A 
ATOM     91  S   UNL A   1      50.878  25.441  26.661  1.00  0.00    -0.150 S 
ENDBRANCH  85  87
ENDBRANCH  77  79
ENDBRANCH  72  74
ENDBRANCH  71  72
ENDBRANCH  70  71
ENDBRANCH   1  70
TORSDOF 16
ENDMDL
