MODEL 1
REMARK VINA RESULT:     -12.1      0.000      0.000
REMARK SMILES O=C(C[C@@H]1C(=O)NCC[N@@H+]1Cc1ccc(F)c(F)c1)OCCOC(=O)c1ccc(-c2c3nc(c(-c4cccc(S(=O)(=O)[O-])c4F)c4ccc([nH]4)c(-c4cccc(S(=O)(=O)[O-])c4F)c4nc(c(-c5cccc(S(=O)(=O)[O-])c5F)c5ccc2[nH]5)C=C4)C=C3)cc1
REMARK SMILES IDX 21 1 20 2 2 3 1 4 3 5 4 6 5 7 10 8 6 9 7 10 9 11 8 13 11 15
REMARK SMILES IDX 12 16 13 17 19 18 14 19 17 20 15 21 18 22 16 23 22 24 23 25
REMARK SMILES IDX 24 26 25 27 26 28 27 29 88 30 28 31 87 32 29 33 30 34 31 35
REMARK SMILES IDX 81 36 32 37 86 38 80 39 82 40 33 41 85 42 79 43 78 44 34 46
REMARK SMILES IDX 66 47 46 48 65 49 47 50 50 51 64 52 83 53 48 54 49 55 63 57
REMARK SMILES IDX 84 58 51 59 35 60 36 61 44 62 37 63 39 64 45 65 38 66 40 67
REMARK SMILES IDX 41 68 42 69 43 70 67 71 68 72 76 73 69 74 71 75 77 76 70 77
REMARK SMILES IDX 72 78 73 79 74 80 75 81 52 82 53 83 61 84 54 85 56 86 62 87
REMARK SMILES IDX 55 88 57 89 58 90 59 91 60 92
REMARK H PARENT 10 12 7 14 82 45 50 56
REMARK Flexibility Score: inf
ROOT
ATOM      1  C   UNL A   1      35.820  20.685  24.985  1.00  0.00     0.274 C 
ENDROOT
BRANCH   1   2
ATOM      2  O   UNL A   1      35.465  21.314  26.233  1.00  0.00    -0.462 OA
BRANCH   2   3
ATOM      3  C   UNL A   1      35.030  22.591  26.353  1.00  0.00     0.312 C 
ATOM      4  O   UNL A   1      35.834  23.517  26.339  1.00  0.00    -0.252 OA
BRANCH   3   5
ATOM      5  C   UNL A   1      33.562  22.821  26.582  1.00  0.00     0.198 C 
BRANCH   5   6
ATOM      6  C   UNL A   1      32.823  23.368  25.353  1.00  0.00     0.285 C 
ATOM      7  C   UNL A   1      31.637  24.278  25.761  1.00  0.00     0.279 C 
ATOM      8  N   UNL A   1      32.426  22.327  24.349  1.00  0.00    -0.319 N 
ATOM      9  O   UNL A   1      31.570  24.845  26.849  1.00  0.00    -0.268 OA
ATOM     10  N   UNL A   1      30.679  24.535  24.818  1.00  0.00    -0.345 N 
ATOM     11  C   UNL A   1      31.775  22.973  23.198  1.00  0.00     0.284 C 
ATOM     12  H   UNL A   1      33.311  21.905  24.071  1.00  0.00     0.349 HD
ATOM     13  C   UNL A   1      30.573  23.862  23.542  1.00  0.00     0.177 C 
ATOM     14  H   UNL A   1      30.012  25.228  25.023  1.00  0.00     0.163 HD
BRANCH   8  15
ATOM     15  C   UNL A   1      31.733  21.108  24.817  1.00  0.00     0.299 C 
BRANCH  15  16
ATOM     16  C   UNL A   1      32.343  19.778  24.449  1.00  0.00     0.009 A 
ATOM     17  C   UNL A   1      32.421  19.353  23.112  1.00  0.00     0.013 A 
ATOM     18  C   UNL A   1      32.802  18.910  25.447  1.00  0.00     0.052 A 
ATOM     19  C   UNL A   1      32.806  18.042  22.805  1.00  0.00     0.043 A 
ATOM     20  C   UNL A   1      33.140  17.597  25.145  1.00  0.00     0.159 A 
ATOM     21  C   UNL A   1      33.116  17.158  23.832  1.00  0.00     0.158 A 
ATOM     22  F   UNL A   1      33.540  16.785  26.133  1.00  0.00    -0.204 F 
ATOM     23  F   UNL A   1      33.460  15.896  23.547  1.00  0.00    -0.204 F 
ENDBRANCH  15  16
ENDBRANCH   8  15
ENDBRANCH   5   6
ENDBRANCH   3   5
ENDBRANCH   2   3
ENDBRANCH   1   2
BRANCH   1  24
ATOM     24  C   UNL A   1      37.288  20.261  24.954  1.00  0.00     0.275 C 
BRANCH  24  25
ATOM     25  O   UNL A   1      38.157  21.379  25.219  1.00  0.00    -0.458 OA
BRANCH  25  26
ATOM     26  C   UNL A   1      39.245  21.123  25.994  1.00  0.00     0.338 C 
ATOM     27  O   UNL A   1      39.806  20.054  26.115  1.00  0.00    -0.246 OA
BRANCH  26  28
ATOM     28  C   UNL A   1      39.753  22.393  26.581  1.00  0.00     0.060 A 
ATOM     29  C   UNL A   1      39.219  23.597  26.106  1.00  0.00     0.016 A 
ATOM     30  C   UNL A   1      40.729  22.417  27.584  1.00  0.00     0.016 A 
ATOM     31  C   UNL A   1      39.680  24.819  26.606  1.00  0.00     0.010 A 
ATOM     32  C   UNL A   1      41.181  23.642  28.094  1.00  0.00     0.010 A 
ATOM     33  C   UNL A   1      40.686  24.854  27.584  1.00  0.00    -0.014 A 
BRANCH  33  34
ATOM     34  C   UNL A   1      41.305  26.153  27.964  1.00  0.00     0.031 A 
ATOM     35  C   UNL A   1      42.684  26.470  27.483  1.00  0.00     0.074 A 
ATOM     36  C   UNL A   1      40.667  27.050  28.737  1.00  0.00     0.049 A 
ATOM     37  N   UNL A   1      43.362  27.577  27.618  1.00  0.00    -0.248 NA
ATOM     38  C   UNL A   1      43.404  25.393  26.788  1.00  0.00     0.031 C 
ATOM     39  C   UNL A   1      39.371  26.815  29.344  1.00  0.00     0.029 A 
ATOM     40  N   UNL A   1      40.998  28.316  29.154  1.00  0.00    -0.354 N 
ATOM     41  C   UNL A   1      44.603  27.324  27.058  1.00  0.00     0.074 A 
ATOM     42  C   UNL A   1      44.588  25.953  26.593  1.00  0.00     0.031 C 
ATOM     43  C   UNL A   1      38.984  27.907  30.019  1.00  0.00     0.029 A 
ATOM     44  C   UNL A   1      40.022  28.920  29.916  1.00  0.00     0.049 A 
ATOM     45  H   UNL A   1      41.852  28.751  28.929  1.00  0.00     0.167 HD
ATOM     46  C   UNL A   1      45.656  28.164  26.931  1.00  0.00     0.034 A 
ATOM     47  C   UNL A   1      39.953  30.150  30.463  1.00  0.00     0.034 A 
ATOM     48  C   UNL A   1      45.664  29.525  27.387  1.00  0.00     0.049 A 
ATOM     49  C   UNL A   1      41.103  31.090  30.240  1.00  0.00     0.074 A 
ATOM     50  C   UNL A   1      46.664  30.472  27.249  1.00  0.00     0.029 A 
ATOM     51  N   UNL A   1      44.631  30.135  28.084  1.00  0.00    -0.354 N 
ATOM     52  N   UNL A   1      42.205  30.889  29.558  1.00  0.00    -0.248 NA
ATOM     53  C   UNL A   1      40.997  32.431  30.833  1.00  0.00     0.031 C 
ATOM     54  C   UNL A   1      46.242  31.648  27.879  1.00  0.00     0.029 A 
ATOM     55  C   UNL A   1      44.971  31.443  28.389  1.00  0.00     0.049 A 
ATOM     56  H   UNL A   1      43.781  29.702  28.326  1.00  0.00     0.167 HD
ATOM     57  C   UNL A   1      42.912  32.081  29.618  1.00  0.00     0.074 A 
ATOM     58  C   UNL A   1      42.100  33.010  30.379  1.00  0.00     0.031 C 
ATOM     59  C   UNL A   1      44.133  32.370  29.107  1.00  0.00     0.034 A 
BRANCH  46  60
ATOM     60  C   UNL A   1      46.875  27.609  26.252  1.00  0.00     0.023 A 
ATOM     61  C   UNL A   1      47.036  27.785  24.863  1.00  0.00     0.012 A 
ATOM     62  C   UNL A   1      47.845  26.900  26.982  1.00  0.00     0.148 A 
ATOM     63  C   UNL A   1      48.126  27.223  24.201  1.00  0.00     0.002 A 
ATOM     64  C   UNL A   1      48.950  26.379  26.322  1.00  0.00     0.091 A 
ATOM     65  F   UNL A   1      47.653  26.716  28.296  1.00  0.00    -0.205 F 
ATOM     66  C   UNL A   1      49.086  26.527  24.931  1.00  0.00     0.022 A 
BRANCH  64  67
ATOM     67  S   UNL A   1      50.267  25.518  27.185  1.00  0.00     0.127 S 
ATOM     68  O   UNL A   1      51.241  25.317  26.113  1.00  0.00    -0.237 OA
ATOM     69  O   UNL A   1      50.666  26.497  28.196  1.00  0.00    -0.237 OA
ATOM     70  O   UNL A   1      49.665  24.305  27.722  1.00  0.00    -0.744 OA
ENDBRANCH  64  67
ENDBRANCH  46  60
BRANCH  47  71
ATOM     71  C   UNL A   1      38.726  30.595  31.191  1.00  0.00     0.023 A 
ATOM     72  C   UNL A   1      38.648  30.407  32.586  1.00  0.00     0.012 A 
ATOM     73  C   UNL A   1      37.650  31.220  30.531  1.00  0.00     0.148 A 
ATOM     74  C   UNL A   1      37.513  30.799  33.300  1.00  0.00     0.002 A 
ATOM     75  C   UNL A   1      36.546  31.660  31.255  1.00  0.00     0.091 A 
ATOM     76  F   UNL A   1      37.721  31.376  29.200  1.00  0.00    -0.205 F 
ATOM     77  C   UNL A   1      36.466  31.435  32.637  1.00  0.00     0.022 A 
BRANCH  75  78
ATOM     78  S   UNL A   1      35.226  32.603  30.479  1.00  0.00     0.127 S 
ATOM     79  O   UNL A   1      34.264  32.731  31.570  1.00  0.00    -0.237 OA
ATOM     80  O   UNL A   1      35.897  33.848  30.105  1.00  0.00    -0.237 OA
ATOM     81  O   UNL A   1      34.801  31.796  29.340  1.00  0.00    -0.744 OA
ENDBRANCH  75  78
ENDBRANCH  47  71
BRANCH  59  82
ATOM     82  C   UNL A   1      44.663  33.759  29.333  1.00  0.00     0.023 A 
ATOM     83  C   UNL A   1      45.342  34.064  30.529  1.00  0.00     0.012 A 
ATOM     84  C   UNL A   1      44.541  34.744  28.334  1.00  0.00     0.148 A 
ATOM     85  C   UNL A   1      45.869  35.338  30.739  1.00  0.00     0.002 A 
ATOM     86  C   UNL A   1      45.109  35.997  28.530  1.00  0.00     0.091 A 
ATOM     87  F   UNL A   1      43.865  34.442  27.216  1.00  0.00    -0.205 F 
ATOM     88  C   UNL A   1      45.763  36.299  29.735  1.00  0.00     0.022 A 
BRANCH  86  89
ATOM     89  S   UNL A   1      45.101  37.257  27.250  1.00  0.00     0.127 S 
ATOM     90  O   UNL A   1      45.943  36.646  26.224  1.00  0.00    -0.237 OA
ATOM     91  O   UNL A   1      43.681  37.341  26.904  1.00  0.00    -0.237 OA
ATOM     92  O   UNL A   1      45.639  38.458  27.874  1.00  0.00    -0.744 OA
ENDBRANCH  86  89
ENDBRANCH  59  82
ENDBRANCH  33  34
ENDBRANCH  26  28
ENDBRANCH  25  26
ENDBRANCH  24  25
ENDBRANCH   1  24
TORSDOF 17
ENDMDL
MODEL 2
REMARK VINA RESULT:     -12.0      1.456      1.832
REMARK SMILES O=C(C[C@@H]1C(=O)NCC[N@@H+]1Cc1ccc(F)c(F)c1)OCCOC(=O)c1ccc(-c2c3nc(c(-c4cccc(S(=O)(=O)[O-])c4F)c4ccc([nH]4)c(-c4cccc(S(=O)(=O)[O-])c4F)c4nc(c(-c5cccc(S(=O)(=O)[O-])c5F)c5ccc2[nH]5)C=C4)C=C3)cc1
REMARK SMILES IDX 21 1 20 2 2 3 1 4 3 5 4 6 5 7 10 8 6 9 7 10 9 11 8 13 11 15
REMARK SMILES IDX 12 16 13 17 19 18 14 19 17 20 15 21 18 22 16 23 22 24 23 25
REMARK SMILES IDX 24 26 25 27 26 28 27 29 88 30 28 31 87 32 29 33 30 34 31 35
REMARK SMILES IDX 81 36 32 37 86 38 80 39 82 40 33 41 85 42 79 43 78 44 34 46
REMARK SMILES IDX 66 47 46 48 65 49 47 50 50 51 64 52 83 53 48 54 49 55 63 57
REMARK SMILES IDX 84 58 51 59 35 60 36 61 44 62 37 63 39 64 45 65 38 66 40 67
REMARK SMILES IDX 41 68 42 69 43 70 67 71 68 72 76 73 69 74 71 75 77 76 70 77
REMARK SMILES IDX 72 78 73 79 74 80 75 81 52 82 53 83 61 84 54 85 56 86 62 87
REMARK SMILES IDX 55 88 57 89 58 90 59 91 60 92
REMARK H PARENT 10 12 7 14 82 45 50 56
REMARK Flexibility Score: inf
ROOT
ATOM      1  C   UNL A   1      36.110  20.726  25.105  1.00  0.00     0.274 C 
ENDROOT
BRANCH   1   2
ATOM      2  O   UNL A   1      35.929  21.988  25.779  1.00  0.00    -0.462 OA
BRANCH   2   3
ATOM      3  C   UNL A   1      34.850  22.309  26.532  1.00  0.00     0.312 C 
ATOM      4  O   UNL A   1      34.452  21.534  27.397  1.00  0.00    -0.252 OA
BRANCH   3   5
ATOM      5  C   UNL A   1      34.122  23.587  26.220  1.00  0.00     0.198 C 
BRANCH   5   6
ATOM      6  C   UNL A   1      34.085  23.927  24.724  1.00  0.00     0.285 C 
ATOM      7  C   UNL A   1      33.326  25.251  24.461  1.00  0.00     0.279 C 
ATOM      8  N   UNL A   1      33.608  22.811  23.842  1.00  0.00    -0.319 N 
ATOM      9  O   UNL A   1      33.181  26.123  25.315  1.00  0.00    -0.268 OA
ATOM     10  N   UNL A   1      32.894  25.494  23.185  1.00  0.00    -0.345 N 
ATOM     11  C   UNL A   1      33.664  23.234  22.433  1.00  0.00     0.284 C 
ATOM     12  H   UNL A   1      34.273  22.059  24.018  1.00  0.00     0.349 HD
ATOM     13  C   UNL A   1      32.902  24.526  22.110  1.00  0.00     0.177 C 
ATOM     14  H   UNL A   1      32.550  26.394  22.983  1.00  0.00     0.163 HD
BRANCH   8  15
ATOM     15  C   UNL A   1      32.364  22.096  24.199  1.00  0.00     0.299 C 
BRANCH  15  16
ATOM     16  C   UNL A   1      32.365  20.593  24.073  1.00  0.00     0.009 A 
ATOM     17  C   UNL A   1      32.599  19.765  25.183  1.00  0.00     0.013 A 
ATOM     18  C   UNL A   1      32.179  19.989  22.824  1.00  0.00     0.052 A 
ATOM     19  C   UNL A   1      32.791  18.388  25.014  1.00  0.00     0.043 A 
ATOM     20  C   UNL A   1      32.415  18.631  22.651  1.00  0.00     0.159 A 
ATOM     21  C   UNL A   1      32.746  17.839  23.737  1.00  0.00     0.158 A 
ATOM     22  F   UNL A   1      32.262  18.095  21.432  1.00  0.00    -0.204 F 
ATOM     23  F   UNL A   1      32.953  16.528  23.565  1.00  0.00    -0.204 F 
ENDBRANCH  15  16
ENDBRANCH   8  15
ENDBRANCH   5   6
ENDBRANCH   3   5
ENDBRANCH   2   3
ENDBRANCH   1   2
BRANCH   1  24
ATOM     24  C   UNL A   1      37.584  20.339  24.998  1.00  0.00     0.275 C 
BRANCH  24  25
ATOM     25  O   UNL A   1      38.438  21.469  25.263  1.00  0.00    -0.458 OA
BRANCH  25  26
ATOM     26  C   UNL A   1      39.471  21.252  26.121  1.00  0.00     0.338 C 
ATOM     27  O   UNL A   1      40.038  20.197  26.310  1.00  0.00    -0.246 OA
BRANCH  26  28
ATOM     28  C   UNL A   1      39.914  22.547  26.709  1.00  0.00     0.060 A 
ATOM     29  C   UNL A   1      39.402  23.728  26.159  1.00  0.00     0.016 A 
ATOM     30  C   UNL A   1      40.809  22.613  27.784  1.00  0.00     0.016 A 
ATOM     31  C   UNL A   1      39.805  24.970  26.658  1.00  0.00     0.010 A 
ATOM     32  C   UNL A   1      41.202  23.859  28.291  1.00  0.00     0.010 A 
ATOM     33  C   UNL A   1      40.731  25.048  27.710  1.00  0.00    -0.014 A 
BRANCH  33  34
ATOM     34  C   UNL A   1      41.302  26.367  28.099  1.00  0.00     0.031 A 
ATOM     35  C   UNL A   1      42.694  26.711  27.679  1.00  0.00     0.074 A 
ATOM     36  C   UNL A   1      40.607  27.259  28.828  1.00  0.00     0.049 A 
ATOM     37  N   UNL A   1      43.338  27.836  27.828  1.00  0.00    -0.248 NA
ATOM     38  C   UNL A   1      43.470  25.643  27.033  1.00  0.00     0.031 C 
ATOM     39  C   UNL A   1      39.290  27.001  29.377  1.00  0.00     0.029 A 
ATOM     40  N   UNL A   1      40.888  28.538  29.242  1.00  0.00    -0.354 N 
ATOM     41  C   UNL A   1      44.609  27.606  27.330  1.00  0.00     0.074 A 
ATOM     42  C   UNL A   1      44.648  26.229  26.886  1.00  0.00     0.031 C 
ATOM     43  C   UNL A   1      38.846  28.091  30.018  1.00  0.00     0.029 A 
ATOM     44  C   UNL A   1      39.863  29.128  29.948  1.00  0.00     0.049 A 
ATOM     45  H   UNL A   1      41.741  28.990  29.050  1.00  0.00     0.167 HD
ATOM     46  C   UNL A   1      45.647  28.469  27.240  1.00  0.00     0.034 A 
ATOM     47  C   UNL A   1      39.739  30.364  30.474  1.00  0.00     0.034 A 
ATOM     48  C   UNL A   1      45.601  29.837  27.677  1.00  0.00     0.049 A 
ATOM     49  C   UNL A   1      40.876  31.328  30.291  1.00  0.00     0.074 A 
ATOM     50  C   UNL A   1      46.584  30.805  27.571  1.00  0.00     0.029 A 
ATOM     51  N   UNL A   1      44.523  30.431  28.315  1.00  0.00    -0.354 N 
ATOM     52  N   UNL A   1      42.013  31.145  29.664  1.00  0.00    -0.248 NA
ATOM     53  C   UNL A   1      40.710  32.674  30.858  1.00  0.00     0.031 C 
ATOM     54  C   UNL A   1      46.105  31.979  28.163  1.00  0.00     0.029 A 
ATOM     55  C   UNL A   1      44.817  31.750  28.617  1.00  0.00     0.049 A 
ATOM     56  H   UNL A   1      43.673  29.980  28.524  1.00  0.00     0.167 HD
ATOM     57  C   UNL A   1      42.688  32.354  29.739  1.00  0.00     0.074 A 
ATOM     58  C   UNL A   1      41.819  33.274  30.448  1.00  0.00     0.031 C 
ATOM     59  C   UNL A   1      43.925  32.666  29.282  1.00  0.00     0.034 A 
BRANCH  46  60
ATOM     60  C   UNL A   1      46.909  27.936  26.627  1.00  0.00     0.023 A 
ATOM     61  C   UNL A   1      47.941  27.464  27.464  1.00  0.00     0.012 A 
ATOM     62  C   UNL A   1      47.081  27.921  25.232  1.00  0.00     0.148 A 
ATOM     63  C   UNL A   1      49.147  27.025  26.919  1.00  0.00     0.002 A 
ATOM     64  C   UNL A   1      48.270  27.443  24.695  1.00  0.00     0.091 A 
ATOM     65  F   UNL A   1      46.100  28.407  24.458  1.00  0.00    -0.205 F 
ATOM     66  C   UNL A   1      49.308  27.008  25.537  1.00  0.00     0.022 A 
BRANCH  64  67
ATOM     67  S   UNL A   1      48.548  27.328  22.926  1.00  0.00     0.127 S 
ATOM     68  O   UNL A   1      47.530  28.239  22.407  1.00  0.00    -0.237 OA
ATOM     69  O   UNL A   1      49.923  27.813  22.798  1.00  0.00    -0.237 OA
ATOM     70  O   UNL A   1      48.368  25.923  22.584  1.00  0.00    -0.744 OA
ENDBRANCH  64  67
ENDBRANCH  46  60
BRANCH  47  71
ATOM     71  C   UNL A   1      38.469  30.788  31.137  1.00  0.00     0.023 A 
ATOM     72  C   UNL A   1      38.307  30.565  32.520  1.00  0.00     0.012 A 
ATOM     73  C   UNL A   1      37.433  31.428  30.429  1.00  0.00     0.148 A 
ATOM     74  C   UNL A   1      37.130  30.937  33.174  1.00  0.00     0.002 A 
ATOM     75  C   UNL A   1      36.286  31.848  31.096  1.00  0.00     0.091 A 
ATOM     76  F   UNL A   1      37.583  31.617  29.109  1.00  0.00    -0.205 F 
ATOM     77  C   UNL A   1      36.124  31.588  32.465  1.00  0.00     0.022 A 
BRANCH  75  78
ATOM     78  S   UNL A   1      35.012  32.808  30.266  1.00  0.00     0.127 S 
ATOM     79  O   UNL A   1      34.088  33.095  31.359  1.00  0.00    -0.237 OA
ATOM     80  O   UNL A   1      35.754  33.967  29.771  1.00  0.00    -0.237 OA
ATOM     81  O   UNL A   1      34.506  31.936  29.211  1.00  0.00    -0.744 OA
ENDBRANCH  75  78
ENDBRANCH  47  71
BRANCH  59  82
ATOM     82  C   UNL A   1      44.409  34.071  29.512  1.00  0.00     0.023 A 
ATOM     83  C   UNL A   1      45.017  34.411  30.737  1.00  0.00     0.012 A 
ATOM     84  C   UNL A   1      44.320  35.036  28.491  1.00  0.00     0.148 A 
ATOM     85  C   UNL A   1      45.503  35.700  30.952  1.00  0.00     0.002 A 
ATOM     86  C   UNL A   1      44.848  36.305  28.695  1.00  0.00     0.091 A 
ATOM     87  F   UNL A   1      43.712  34.701  27.343  1.00  0.00    -0.205 F 
ATOM     88  C   UNL A   1      45.429  36.642  29.928  1.00  0.00     0.022 A 
BRANCH  86  89
ATOM     89  S   UNL A   1      44.881  37.544  27.395  1.00  0.00     0.127 S 
ATOM     90  O   UNL A   1      45.454  38.693  28.093  1.00  0.00    -0.237 OA
ATOM     91  O   UNL A   1      45.763  36.931  26.401  1.00  0.00    -0.237 OA
ATOM     92  O   UNL A   1      43.499  37.696  26.959  1.00  0.00    -0.744 OA
ENDBRANCH  86  89
ENDBRANCH  59  82
ENDBRANCH  33  34
ENDBRANCH  26  28
ENDBRANCH  25  26
ENDBRANCH  24  25
ENDBRANCH   1  24
TORSDOF 17
ENDMDL
MODEL 3
REMARK VINA RESULT:     -11.5      2.660      3.847
REMARK SMILES O=C(C[C@@H]1C(=O)NCC[N@@H+]1Cc1ccc(F)c(F)c1)OCCOC(=O)c1ccc(-c2c3nc(c(-c4cccc(S(=O)(=O)[O-])c4F)c4ccc([nH]4)c(-c4cccc(S(=O)(=O)[O-])c4F)c4nc(c(-c5cccc(S(=O)(=O)[O-])c5F)c5ccc2[nH]5)C=C4)C=C3)cc1
REMARK SMILES IDX 21 1 20 2 2 3 1 4 3 5 4 6 5 7 10 8 6 9 7 10 9 11 8 13 11 15
REMARK SMILES IDX 12 16 13 17 19 18 14 19 17 20 15 21 18 22 16 23 22 24 23 25
REMARK SMILES IDX 24 26 25 27 26 28 27 29 88 30 28 31 87 32 29 33 30 34 31 35
REMARK SMILES IDX 81 36 32 37 86 38 80 39 82 40 33 41 85 42 79 43 78 44 34 46
REMARK SMILES IDX 66 47 46 48 65 49 47 50 50 51 64 52 83 53 48 54 49 55 63 57
REMARK SMILES IDX 84 58 51 59 35 60 36 61 44 62 37 63 39 64 45 65 38 66 40 67
REMARK SMILES IDX 41 68 42 69 43 70 67 71 68 72 76 73 69 74 71 75 77 76 70 77
REMARK SMILES IDX 72 78 73 79 74 80 75 81 52 82 53 83 61 84 54 85 56 86 62 87
REMARK SMILES IDX 55 88 57 89 58 90 59 91 60 92
REMARK H PARENT 10 12 7 14 82 45 50 56
REMARK Flexibility Score: inf
ROOT
ATOM      1  C   UNL A   1      35.757  20.769  24.785  1.00  0.00     0.274 C 
ENDROOT
BRANCH   1   2
ATOM      2  O   UNL A   1      35.581  22.199  24.811  1.00  0.00    -0.462 OA
BRANCH   2   3
ATOM      3  C   UNL A   1      35.182  22.943  23.752  1.00  0.00     0.312 C 
ATOM      4  O   UNL A   1      35.986  23.245  22.875  1.00  0.00    -0.252 OA
BRANCH   3   5
ATOM      5  C   UNL A   1      33.766  23.447  23.734  1.00  0.00     0.198 C 
BRANCH   5   6
ATOM      6  C   UNL A   1      33.014  23.225  25.053  1.00  0.00     0.285 C 
ATOM      7  C   UNL A   1      32.075  21.996  24.973  1.00  0.00     0.279 C 
ATOM      8  N   UNL A   1      32.317  24.442  25.586  1.00  0.00    -0.319 N 
ATOM      9  O   UNL A   1      32.237  21.079  24.171  1.00  0.00    -0.268 OA
ATOM     10  N   UNL A   1      31.085  21.889  25.912  1.00  0.00    -0.345 N 
ATOM     11  C   UNL A   1      31.678  24.123  26.873  1.00  0.00     0.284 C 
ATOM     12  H   UNL A   1      33.069  25.117  25.716  1.00  0.00     0.349 HD
ATOM     13  C   UNL A   1      30.712  22.932  26.844  1.00  0.00     0.177 C 
ATOM     14  H   UNL A   1      30.589  21.041  25.957  1.00  0.00     0.163 HD
BRANCH   8  15
ATOM     15  C   UNL A   1      31.461  25.234  24.677  1.00  0.00     0.299 C 
BRANCH  15  16
ATOM     16  C   UNL A   1      31.338  26.712  24.950  1.00  0.00     0.009 A 
ATOM     17  C   UNL A   1      30.953  27.614  23.944  1.00  0.00     0.013 A 
ATOM     18  C   UNL A   1      31.655  27.227  26.213  1.00  0.00     0.052 A 
ATOM     19  C   UNL A   1      31.033  28.995  24.159  1.00  0.00     0.043 A 
ATOM     20  C   UNL A   1      31.778  28.596  26.411  1.00  0.00     0.159 A 
ATOM     21  C   UNL A   1      31.495  29.475  25.380  1.00  0.00     0.158 A 
ATOM     22  F   UNL A   1      32.120  29.049  27.625  1.00  0.00    -0.204 F 
ATOM     23  F   UNL A   1      31.598  30.794  25.584  1.00  0.00    -0.204 F 
ENDBRANCH  15  16
ENDBRANCH   8  15
ENDBRANCH   5   6
ENDBRANCH   3   5
ENDBRANCH   2   3
ENDBRANCH   1   2
BRANCH   1  24
ATOM     24  C   UNL A   1      37.214  20.364  25.000  1.00  0.00     0.275 C 
BRANCH  24  25
ATOM     25  O   UNL A   1      38.029  21.509  25.318  1.00  0.00    -0.458 OA
BRANCH  25  26
ATOM     26  C   UNL A   1      39.161  21.262  26.031  1.00  0.00     0.338 C 
ATOM     27  O   UNL A   1      39.748  20.203  26.102  1.00  0.00    -0.246 OA
BRANCH  26  28
ATOM     28  C   UNL A   1      39.672  22.531  26.617  1.00  0.00     0.060 A 
ATOM     29  C   UNL A   1      39.123  23.735  26.159  1.00  0.00     0.016 A 
ATOM     30  C   UNL A   1      40.666  22.554  27.603  1.00  0.00     0.016 A 
ATOM     31  C   UNL A   1      39.586  24.956  26.659  1.00  0.00     0.010 A 
ATOM     32  C   UNL A   1      41.120  23.778  28.112  1.00  0.00     0.010 A 
ATOM     33  C   UNL A   1      40.610  24.990  27.619  1.00  0.00    -0.014 A 
BRANCH  33  34
ATOM     34  C   UNL A   1      41.229  26.291  27.995  1.00  0.00     0.031 A 
ATOM     35  C   UNL A   1      42.623  26.590  27.546  1.00  0.00     0.074 A 
ATOM     36  C   UNL A   1      40.578  27.204  28.738  1.00  0.00     0.049 A 
ATOM     37  N   UNL A   1      43.305  27.694  27.682  1.00  0.00    -0.248 NA
ATOM     38  C   UNL A   1      43.352  25.498  26.886  1.00  0.00     0.031 C 
ATOM     39  C   UNL A   1      39.265  26.988  29.314  1.00  0.00     0.029 A 
ATOM     40  N   UNL A   1      40.908  28.474  29.145  1.00  0.00    -0.354 N 
ATOM     41  C   UNL A   1      44.558  27.424  27.158  1.00  0.00     0.074 A 
ATOM     42  C   UNL A   1      44.544  26.046  26.714  1.00  0.00     0.031 C 
ATOM     43  C   UNL A   1      38.869  28.092  29.962  1.00  0.00     0.029 A 
ATOM     44  C   UNL A   1      39.917  29.096  29.872  1.00  0.00     0.049 A 
ATOM     45  H   UNL A   1      41.771  28.898  28.936  1.00  0.00     0.167 HD
ATOM     46  C   UNL A   1      45.620  28.254  27.047  1.00  0.00     0.034 A 
ATOM     47  C   UNL A   1      39.842  30.335  30.399  1.00  0.00     0.034 A 
ATOM     48  C   UNL A   1      45.627  29.622  27.483  1.00  0.00     0.049 A 
ATOM     49  C   UNL A   1      41.006  31.263  30.192  1.00  0.00     0.074 A 
ATOM     50  C   UNL A   1      46.638  30.559  27.357  1.00  0.00     0.029 A 
ATOM     51  N   UNL A   1      44.581  30.250  28.143  1.00  0.00    -0.354 N 
ATOM     52  N   UNL A   1      42.123  31.043  29.542  1.00  0.00    -0.248 NA
ATOM     53  C   UNL A   1      40.894  32.613  30.762  1.00  0.00     0.031 C 
ATOM     54  C   UNL A   1      46.208  31.748  27.958  1.00  0.00     0.029 A 
ATOM     55  C   UNL A   1      44.923  31.559  28.438  1.00  0.00     0.049 A 
ATOM     56  H   UNL A   1      43.722  29.827  28.370  1.00  0.00     0.167 HD
ATOM     57  C   UNL A   1      42.837  32.231  29.603  1.00  0.00     0.074 A 
ATOM     58  C   UNL A   1      42.013  33.178  30.329  1.00  0.00     0.031 C 
ATOM     59  C   UNL A   1      44.074  32.503  29.120  1.00  0.00     0.034 A 
BRANCH  46  60
ATOM     60  C   UNL A   1      46.852  27.681  26.408  1.00  0.00     0.023 A 
ATOM     61  C   UNL A   1      47.792  26.996  27.205  1.00  0.00     0.012 A 
ATOM     62  C   UNL A   1      47.089  27.838  25.032  1.00  0.00     0.148 A 
ATOM     63  C   UNL A   1      48.974  26.512  26.647  1.00  0.00     0.002 A 
ATOM     64  C   UNL A   1      48.250  27.316  24.474  1.00  0.00     0.091 A 
ATOM     65  F   UNL A   1      46.198  28.523  24.300  1.00  0.00    -0.205 F 
ATOM     66  C   UNL A   1      49.199  26.666  25.281  1.00  0.00     0.022 A 
BRANCH  64  67
ATOM     67  S   UNL A   1      48.600  27.414  22.717  1.00  0.00     0.127 S 
ATOM     68  O   UNL A   1      49.996  27.848  22.718  1.00  0.00    -0.237 OA
ATOM     69  O   UNL A   1      48.390  26.032  22.282  1.00  0.00    -0.237 OA
ATOM     70  O   UNL A   1      47.645  28.370  22.172  1.00  0.00    -0.744 OA
ENDBRANCH  64  67
ENDBRANCH  46  60
BRANCH  47  71
ATOM     71  C   UNL A   1      38.600  30.799  31.088  1.00  0.00     0.023 A 
ATOM     72  C   UNL A   1      38.480  30.623  32.481  1.00  0.00     0.012 A 
ATOM     73  C   UNL A   1      37.551  31.431  30.392  1.00  0.00     0.148 A 
ATOM     74  C   UNL A   1      37.330  31.033  33.159  1.00  0.00     0.002 A 
ATOM     75  C   UNL A   1      36.432  31.890  31.081  1.00  0.00     0.091 A 
ATOM     76  F   UNL A   1      37.663  31.576  29.062  1.00  0.00    -0.205 F 
ATOM     77  C   UNL A   1      36.310  31.676  32.462  1.00  0.00     0.022 A 
BRANCH  75  78
ATOM     78  S   UNL A   1      35.146  32.842  30.260  1.00  0.00     0.127 S 
ATOM     79  O   UNL A   1      35.878  34.029  29.827  1.00  0.00    -0.237 OA
ATOM     80  O   UNL A   1      34.728  31.951  29.178  1.00  0.00    -0.237 OA
ATOM     81  O   UNL A   1      34.122  33.056  31.278  1.00  0.00    -0.744 OA
ENDBRANCH  75  78
ENDBRANCH  47  71
BRANCH  59  82
ATOM     82  C   UNL A   1      44.608  33.892  29.339  1.00  0.00     0.023 A 
ATOM     83  C   UNL A   1      45.305  34.196  30.525  1.00  0.00     0.012 A 
ATOM     84  C   UNL A   1      44.473  34.877  28.342  1.00  0.00     0.148 A 
ATOM     85  C   UNL A   1      45.836  35.469  30.728  1.00  0.00     0.002 A 
ATOM     86  C   UNL A   1      45.045  36.129  28.531  1.00  0.00     0.091 A 
ATOM     87  F   UNL A   1      43.781  34.576  27.234  1.00  0.00    -0.205 F 
ATOM     88  C   UNL A   1      45.716  36.431  29.727  1.00  0.00     0.022 A 
BRANCH  86  89
ATOM     89  S   UNL A   1      45.020  37.390  27.252  1.00  0.00     0.127 S 
ATOM     90  O   UNL A   1      45.901  36.808  26.242  1.00  0.00    -0.237 OA
ATOM     91  O   UNL A   1      43.605  37.429  26.880  1.00  0.00    -0.237 OA
ATOM     92  O   UNL A   1      45.507  38.608  27.887  1.00  0.00    -0.744 OA
ENDBRANCH  86  89
ENDBRANCH  59  82
ENDBRANCH  33  34
ENDBRANCH  26  28
ENDBRANCH  25  26
ENDBRANCH  24  25
ENDBRANCH   1  24
TORSDOF 17
ENDMDL
