MODEL 1
REMARK VINA RESULT:     -10.4      0.000      0.000
REMARK SMILES [NH3+][C@H](Cc1cnc2ccccc2c1)C(=O)OCCOC(=O)c1ccc(-c2c3nc(c(-c4cccc(S(=O)(=O)[O-])c4F)c4ccc([nH]4)c(-c4cccc(S(=O)(=O)[O-])c4F)c4nc(c(-c5cccc(S(=O)(=O)[O-])c5F)c5ccc2[nH]5)C=C4)C=C3)cc1
REMARK SMILES IDX 18 1 17 2 16 3 14 4 15 5 2 6 1 7 3 11 4 12 5 13 13 14 6 15
REMARK SMILES IDX 12 16 7 17 11 18 8 19 10 20 9 21 19 22 20 23 21 24 22 25
REMARK SMILES IDX 23 26 84 27 24 28 83 29 25 30 26 31 27 32 77 33 28 34 82 35
REMARK SMILES IDX 76 36 78 37 29 38 81 39 75 40 74 41 30 43 62 44 42 45 61 46
REMARK SMILES IDX 43 47 46 48 60 49 79 50 44 51 45 52 59 54 80 55 47 56 31 57
REMARK SMILES IDX 32 58 40 59 33 60 35 61 41 62 34 63 36 64 37 65 38 66 39 67
REMARK SMILES IDX 63 68 64 69 72 70 65 71 67 72 73 73 66 74 68 75 69 76 70 77
REMARK SMILES IDX 71 78 48 79 49 80 57 81 50 82 52 83 58 84 51 85 53 86 54 87
REMARK SMILES IDX 55 88 56 89
REMARK H PARENT 1 8 1 9 1 10 78 42 46 53
REMARK Flexibility Score: inf
ROOT
ATOM      1  C   UNL A   1      34.385  33.435  28.003  1.00  0.00     0.275 C 
ENDROOT
BRANCH   1   2
ATOM      2  C   UNL A   1      33.077  34.218  28.128  1.00  0.00     0.274 C 
BRANCH   2   3
ATOM      3  O   UNL A   1      32.835  34.549  29.508  1.00  0.00    -0.458 OA
BRANCH   3   4
ATOM      4  C   UNL A   1      32.919  35.842  29.898  1.00  0.00     0.365 C 
ATOM      5  O   UNL A   1      32.861  36.796  29.130  1.00  0.00    -0.245 OA
BRANCH   4   6
ATOM      6  C   UNL A   1      33.135  35.990  31.425  1.00  0.00     0.296 C 
BRANCH   6   7
ATOM      7  N   UNL A   1      33.794  37.275  31.754  1.00  0.00    -0.346 N 
ATOM      8  H   UNL A   1      33.934  37.338  32.762  1.00  0.00     0.345 HD
ATOM      9  H   UNL A   1      33.205  38.049  31.444  1.00  0.00     0.345 HD
ATOM     10  H   UNL A   1      34.696  37.326  31.282  1.00  0.00     0.345 HD
ENDBRANCH   6   7
BRANCH   6  11
ATOM     11  C   UNL A   1      33.752  34.789  32.182  1.00  0.00     0.114 C 
BRANCH  11  12
ATOM     12  C   UNL A   1      35.245  34.555  32.230  1.00  0.00    -0.022 A 
ATOM     13  C   UNL A   1      36.073  34.905  33.286  1.00  0.00     0.115 A 
ATOM     14  C   UNL A   1      35.876  34.016  31.102  1.00  0.00     0.016 A 
ATOM     15  N   UNL A   1      37.426  34.868  33.252  1.00  0.00    -0.256 NA
ATOM     16  C   UNL A   1      37.276  33.960  31.027  1.00  0.00     0.000 A 
ATOM     17  C   UNL A   1      38.012  34.445  32.123  1.00  0.00     0.070 A 
ATOM     18  C   UNL A   1      37.942  33.480  29.886  1.00  0.00     0.010 A 
ATOM     19  C   UNL A   1      39.394  34.505  32.016  1.00  0.00     0.029 A 
ATOM     20  C   UNL A   1      39.333  33.529  29.811  1.00  0.00     0.001 A 
ATOM     21  C   UNL A   1      40.059  34.063  30.870  1.00  0.00     0.002 A 
ENDBRANCH  11  12
ENDBRANCH   6  11
ENDBRANCH   4   6
ENDBRANCH   3   4
ENDBRANCH   2   3
ENDBRANCH   1   2
BRANCH   1  22
ATOM     22  O   UNL A   1      34.301  32.211  28.754  1.00  0.00    -0.458 OA
BRANCH  22  23
ATOM     23  C   UNL A   1      34.477  31.084  28.025  1.00  0.00     0.338 C 
ATOM     24  O   UNL A   1      33.788  30.683  27.102  1.00  0.00    -0.246 OA
BRANCH  23  25
ATOM     25  C   UNL A   1      35.773  30.479  28.371  1.00  0.00     0.060 A 
ATOM     26  C   UNL A   1      35.834  29.739  29.554  1.00  0.00     0.016 A 
ATOM     27  C   UNL A   1      36.909  30.655  27.580  1.00  0.00     0.016 A 
ATOM     28  C   UNL A   1      37.038  29.180  29.963  1.00  0.00     0.010 A 
ATOM     29  C   UNL A   1      38.121  30.092  27.992  1.00  0.00     0.010 A 
ATOM     30  C   UNL A   1      38.193  29.365  29.193  1.00  0.00    -0.014 A 
BRANCH  30  31
ATOM     31  C   UNL A   1      39.477  28.826  29.695  1.00  0.00     0.031 A 
ATOM     32  C   UNL A   1      40.104  29.413  30.926  1.00  0.00     0.074 A 
ATOM     33  C   UNL A   1      40.044  27.777  29.072  1.00  0.00     0.049 A 
ATOM     34  N   UNL A   1      41.196  29.050  31.547  1.00  0.00    -0.248 NA
ATOM     35  C   UNL A   1      39.413  30.557  31.541  1.00  0.00     0.031 C 
ATOM     36  C   UNL A   1      39.523  27.134  27.865  1.00  0.00     0.029 A 
ATOM     37  N   UNL A   1      41.183  27.073  29.364  1.00  0.00    -0.354 N 
ATOM     38  C   UNL A   1      41.335  29.929  32.615  1.00  0.00     0.074 A 
ATOM     39  C   UNL A   1      40.225  30.855  32.547  1.00  0.00     0.031 C 
ATOM     40  C   UNL A   1      40.350  26.135  27.511  1.00  0.00     0.029 A 
ATOM     41  C   UNL A   1      41.464  26.082  28.454  1.00  0.00     0.049 A 
ATOM     42  H   UNL A   1      41.745  27.258  30.151  1.00  0.00     0.167 HD
ATOM     43  C   UNL A   1      42.288  29.947  33.576  1.00  0.00     0.034 A 
ATOM     44  C   UNL A   1      42.509  25.236  28.382  1.00  0.00     0.034 A 
ATOM     45  C   UNL A   1      43.381  29.014  33.646  1.00  0.00     0.049 A 
ATOM     46  C   UNL A   1      43.551  25.275  29.467  1.00  0.00     0.074 A 
ATOM     47  C   UNL A   1      44.392  28.938  34.588  1.00  0.00     0.029 A 
ATOM     48  N   UNL A   1      43.608  27.992  32.735  1.00  0.00    -0.354 N 
ATOM     49  N   UNL A   1      43.611  26.046  30.527  1.00  0.00    -0.248 NA
ATOM     50  C   UNL A   1      44.649  24.303  29.368  1.00  0.00     0.031 C 
ATOM     51  C   UNL A   1      45.238  27.879  34.238  1.00  0.00     0.029 A 
ATOM     52  C   UNL A   1      44.742  27.282  33.090  1.00  0.00     0.049 A 
ATOM     53  H   UNL A   1      43.046  27.802  31.949  1.00  0.00     0.167 HD
ATOM     54  C   UNL A   1      44.739  25.640  31.231  1.00  0.00     0.074 A 
ATOM     55  C   UNL A   1      45.309  24.528  30.496  1.00  0.00     0.031 C 
ATOM     56  C   UNL A   1      45.270  26.152  32.369  1.00  0.00     0.034 A 
BRANCH  43  57
ATOM     57  C   UNL A   1      42.167  30.990  34.656  1.00  0.00     0.023 A 
ATOM     58  C   UNL A   1      41.555  30.651  35.880  1.00  0.00     0.012 A 
ATOM     59  C   UNL A   1      42.697  32.284  34.484  1.00  0.00     0.148 A 
ATOM     60  C   UNL A   1      41.447  31.589  36.906  1.00  0.00     0.002 A 
ATOM     61  C   UNL A   1      42.622  33.202  35.526  1.00  0.00     0.091 A 
ATOM     62  F   UNL A   1      43.255  32.594  33.306  1.00  0.00    -0.205 F 
ATOM     63  C   UNL A   1      41.989  32.860  36.732  1.00  0.00     0.022 A 
BRANCH  61  64
ATOM     64  S   UNL A   1      43.347  34.842  35.428  1.00  0.00     0.127 S 
ATOM     65  O   UNL A   1      44.745  34.530  35.140  1.00  0.00    -0.237 OA
ATOM     66  O   UNL A   1      42.612  35.437  34.311  1.00  0.00    -0.237 OA
ATOM     67  O   UNL A   1      43.101  35.469  36.719  1.00  0.00    -0.744 OA
ENDBRANCH  61  64
ENDBRANCH  43  57
BRANCH  44  68
ATOM     68  C   UNL A   1      42.600  24.260  27.260  1.00  0.00     0.023 A 
ATOM     69  C   UNL A   1      43.282  24.611  26.080  1.00  0.00     0.012 A 
ATOM     70  C   UNL A   1      42.033  22.975  27.369  1.00  0.00     0.148 A 
ATOM     71  C   UNL A   1      43.371  23.710  25.017  1.00  0.00     0.002 A 
ATOM     72  C   UNL A   1      42.176  22.063  26.330  1.00  0.00     0.091 A 
ATOM     73  F   UNL A   1      41.367  22.667  28.491  1.00  0.00    -0.205 F 
ATOM     74  C   UNL A   1      42.830  22.434  25.146  1.00  0.00     0.022 A 
BRANCH  72  75
ATOM     75  S   UNL A   1      41.624  20.360  26.475  1.00  0.00     0.127 S 
ATOM     76  O   UNL A   1      40.174  20.506  26.378  1.00  0.00    -0.237 OA
ATOM     77  O   UNL A   1      42.259  19.732  25.315  1.00  0.00    -0.237 OA
ATOM     78  O   UNL A   1      42.134  19.895  27.758  1.00  0.00    -0.744 OA
ENDBRANCH  72  75
ENDBRANCH  44  68
BRANCH  56  79
ATOM     79  C   UNL A   1      46.528  25.508  32.891  1.00  0.00     0.023 A 
ATOM     80  C   UNL A   1      47.785  26.003  32.487  1.00  0.00     0.012 A 
ATOM     81  C   UNL A   1      46.469  24.442  33.811  1.00  0.00     0.148 A 
ATOM     82  C   UNL A   1      48.961  25.421  32.957  1.00  0.00     0.002 A 
ATOM     83  C   UNL A   1      47.647  23.899  34.311  1.00  0.00     0.091 A 
ATOM     84  F   UNL A   1      45.267  23.970  34.169  1.00  0.00    -0.205 F 
ATOM     85  C   UNL A   1      48.893  24.377  33.876  1.00  0.00     0.022 A 
BRANCH  83  86
ATOM     86  S   UNL A   1      47.645  22.613  35.566  1.00  0.00     0.127 S 
ATOM     87  O   UNL A   1      49.076  22.388  35.766  1.00  0.00    -0.237 OA
ATOM     88  O   UNL A   1      46.970  23.268  36.688  1.00  0.00    -0.237 OA
ATOM     89  O   UNL A   1      46.905  21.499  34.990  1.00  0.00    -0.744 OA
ENDBRANCH  83  86
ENDBRANCH  56  79
ENDBRANCH  30  31
ENDBRANCH  23  25
ENDBRANCH  22  23
ENDBRANCH   1  22
TORSDOF 17
ENDMDL
MODEL 2
REMARK VINA RESULT:     -10.2      5.763     11.420
REMARK SMILES [NH3+][C@H](Cc1cnc2ccccc2c1)C(=O)OCCOC(=O)c1ccc(-c2c3nc(c(-c4cccc(S(=O)(=O)[O-])c4F)c4ccc([nH]4)c(-c4cccc(S(=O)(=O)[O-])c4F)c4nc(c(-c5cccc(S(=O)(=O)[O-])c5F)c5ccc2[nH]5)C=C4)C=C3)cc1
REMARK SMILES IDX 18 1 17 2 16 3 14 4 15 5 2 6 1 7 3 11 4 12 5 13 13 14 6 15
REMARK SMILES IDX 12 16 7 17 11 18 8 19 10 20 9 21 19 22 20 23 21 24 22 25
REMARK SMILES IDX 23 26 84 27 24 28 83 29 25 30 26 31 27 32 77 33 28 34 82 35
REMARK SMILES IDX 76 36 78 37 29 38 81 39 75 40 74 41 30 43 62 44 42 45 61 46
REMARK SMILES IDX 43 47 46 48 60 49 79 50 44 51 45 52 59 54 80 55 47 56 31 57
REMARK SMILES IDX 32 58 40 59 33 60 35 61 41 62 34 63 36 64 37 65 38 66 39 67
REMARK SMILES IDX 63 68 64 69 72 70 65 71 67 72 73 73 66 74 68 75 69 76 70 77
REMARK SMILES IDX 71 78 48 79 49 80 57 81 50 82 52 83 58 84 51 85 53 86 54 87
REMARK SMILES IDX 55 88 56 89
REMARK H PARENT 1 8 1 9 1 10 78 42 46 53
REMARK Flexibility Score: inf
ROOT
ATOM      1  C   UNL A   1      36.502  20.460  25.002  1.00  0.00     0.275 C 
ENDROOT
BRANCH   1   2
ATOM      2  C   UNL A   1      35.056  20.858  25.301  1.00  0.00     0.274 C 
BRANCH   2   3
ATOM      3  O   UNL A   1      34.376  21.190  24.076  1.00  0.00    -0.458 OA
BRANCH   3   4
ATOM      4  C   UNL A   1      33.025  21.114  24.032  1.00  0.00     0.365 C 
ATOM      5  O   UNL A   1      32.351  20.433  24.796  1.00  0.00    -0.245 OA
BRANCH   4   6
ATOM      6  C   UNL A   1      32.419  21.956  22.881  1.00  0.00     0.296 C 
BRANCH   6   7
ATOM      7  N   UNL A   1      31.781  21.093  21.861  1.00  0.00    -0.346 N 
ATOM      8  H   UNL A   1      31.568  21.646  21.031  1.00  0.00     0.345 HD
ATOM      9  H   UNL A   1      30.917  20.701  22.238  1.00  0.00     0.345 HD
ATOM     10  H   UNL A   1      32.416  20.335  21.610  1.00  0.00     0.345 HD
ENDBRANCH   6   7
BRANCH   6  11
ATOM     11  C   UNL A   1      33.303  23.065  22.261  1.00  0.00     0.114 C 
BRANCH  11  12
ATOM     12  C   UNL A   1      33.211  24.506  22.711  1.00  0.00    -0.022 A 
ATOM     13  C   UNL A   1      33.057  25.596  21.867  1.00  0.00     0.115 A 
ATOM     14  C   UNL A   1      33.368  24.795  24.072  1.00  0.00     0.016 A 
ATOM     15  N   UNL A   1      33.162  26.891  22.250  1.00  0.00    -0.256 NA
ATOM     16  C   UNL A   1      33.481  26.123  24.511  1.00  0.00     0.000 A 
ATOM     17  C   UNL A   1      33.416  27.141  23.542  1.00  0.00     0.070 A 
ATOM     18  C   UNL A   1      33.699  26.446  25.861  1.00  0.00     0.010 A 
ATOM     19  C   UNL A   1      33.644  28.450  23.944  1.00  0.00     0.029 A 
ATOM     20  C   UNL A   1      33.902  27.771  26.244  1.00  0.00     0.001 A 
ATOM     21  C   UNL A   1      33.897  28.772  25.280  1.00  0.00     0.002 A 
ENDBRANCH  11  12
ENDBRANCH   6  11
ENDBRANCH   4   6
ENDBRANCH   3   4
ENDBRANCH   2   3
ENDBRANCH   1   2
BRANCH   1  22
ATOM     22  O   UNL A   1      37.386  21.558  25.287  1.00  0.00    -0.458 OA
BRANCH  22  23
ATOM     23  C   UNL A   1      38.577  21.203  25.827  1.00  0.00     0.338 C 
ATOM     24  O   UNL A   1      39.134  20.122  25.746  1.00  0.00    -0.246 OA
BRANCH  23  25
ATOM     25  C   UNL A   1      39.233  22.397  26.381  1.00  0.00     0.060 A 
ATOM     26  C   UNL A   1      38.693  23.638  26.038  1.00  0.00     0.016 A 
ATOM     27  C   UNL A   1      40.367  22.311  27.191  1.00  0.00     0.016 A 
ATOM     28  C   UNL A   1      39.293  24.806  26.490  1.00  0.00     0.010 A 
ATOM     29  C   UNL A   1      40.971  23.488  27.646  1.00  0.00     0.010 A 
ATOM     30  C   UNL A   1      40.444  24.740  27.284  1.00  0.00    -0.014 A 
BRANCH  30  31
ATOM     31  C   UNL A   1      41.106  26.003  27.684  1.00  0.00     0.031 A 
ATOM     32  C   UNL A   1      42.526  26.265  27.273  1.00  0.00     0.074 A 
ATOM     33  C   UNL A   1      40.409  26.928  28.368  1.00  0.00     0.049 A 
ATOM     34  N   UNL A   1      43.261  27.326  27.484  1.00  0.00    -0.248 NA
ATOM     35  C   UNL A   1      43.209  25.197  26.526  1.00  0.00     0.031 C 
ATOM     36  C   UNL A   1      39.027  26.773  28.824  1.00  0.00     0.029 A 
ATOM     37  N   UNL A   1      40.769  28.177  28.804  1.00  0.00    -0.354 N 
ATOM     38  C   UNL A   1      44.498  27.049  26.913  1.00  0.00     0.074 A 
ATOM     39  C   UNL A   1      44.419  25.713  26.363  1.00  0.00     0.031 C 
ATOM     40  C   UNL A   1      38.659  27.882  29.488  1.00  0.00     0.029 A 
ATOM     41  C   UNL A   1      39.784  28.813  29.520  1.00  0.00     0.049 A 
ATOM     42  H   UNL A   1      41.649  28.579  28.621  1.00  0.00     0.167 HD
ATOM     43  C   UNL A   1      45.590  27.846  26.835  1.00  0.00     0.034 A 
ATOM     44  C   UNL A   1      39.793  30.008  30.142  1.00  0.00     0.034 A 
ATOM     45  C   UNL A   1      45.656  29.179  27.371  1.00  0.00     0.049 A 
ATOM     46  C   UNL A   1      41.019  30.873  30.034  1.00  0.00     0.074 A 
ATOM     47  C   UNL A   1      46.711  30.073  27.333  1.00  0.00     0.029 A 
ATOM     48  N   UNL A   1      44.622  29.811  28.049  1.00  0.00    -0.354 N 
ATOM     49  N   UNL A   1      42.143  30.638  29.402  1.00  0.00    -0.248 NA
ATOM     50  C   UNL A   1      40.963  32.186  30.693  1.00  0.00     0.031 C 
ATOM     51  C   UNL A   1      46.320  31.241  27.998  1.00  0.00     0.029 A 
ATOM     52  C   UNL A   1      45.013  31.082  28.433  1.00  0.00     0.049 A 
ATOM     53  H   UNL A   1      43.740  29.413  28.230  1.00  0.00     0.167 HD
ATOM     54  C   UNL A   1      42.921  31.778  29.569  1.00  0.00     0.074 A 
ATOM     55  C   UNL A   1      42.122  32.718  30.329  1.00  0.00     0.031 C 
ATOM     56  C   UNL A   1      44.189  32.019  29.153  1.00  0.00     0.034 A 
BRANCH  43  57
ATOM     57  C   UNL A   1      46.793  27.306  26.107  1.00  0.00     0.023 A 
ATOM     58  C   UNL A   1      47.610  26.346  26.738  1.00  0.00     0.012 A 
ATOM     59  C   UNL A   1      47.089  27.706  24.790  1.00  0.00     0.148 A 
ATOM     60  C   UNL A   1      48.718  25.812  26.082  1.00  0.00     0.002 A 
ATOM     61  C   UNL A   1      48.173  27.140  24.126  1.00  0.00     0.091 A 
ATOM     62  F   UNL A   1      46.314  28.636  24.215  1.00  0.00    -0.205 F 
ATOM     63  C   UNL A   1      48.993  26.202  24.774  1.00  0.00     0.022 A 
BRANCH  61  64
ATOM     64  S   UNL A   1      48.573  27.524  22.418  1.00  0.00     0.127 S 
ATOM     65  O   UNL A   1      49.838  28.242  22.565  1.00  0.00    -0.237 OA
ATOM     66  O   UNL A   1      48.694  26.192  21.824  1.00  0.00    -0.237 OA
ATOM     67  O   UNL A   1      47.461  28.316  21.912  1.00  0.00    -0.744 OA
ENDBRANCH  61  64
ENDBRANCH  43  57
BRANCH  44  68
ATOM     68  C   UNL A   1      38.588  30.464  30.891  1.00  0.00     0.023 A 
ATOM     69  C   UNL A   1      38.475  30.194  32.268  1.00  0.00     0.012 A 
ATOM     70  C   UNL A   1      37.565  31.188  30.247  1.00  0.00     0.148 A 
ATOM     71  C   UNL A   1      37.350  30.610  32.982  1.00  0.00     0.002 A 
ATOM     72  C   UNL A   1      36.477  31.650  30.977  1.00  0.00     0.091 A 
ATOM     73  F   UNL A   1      37.680  31.417  28.930  1.00  0.00    -0.205 F 
ATOM     74  C   UNL A   1      36.358  31.348  32.342  1.00  0.00     0.022 A 
BRANCH  72  75
ATOM     75  S   UNL A   1      35.228  32.719  30.253  1.00  0.00     0.127 S 
ATOM     76  O   UNL A   1      34.710  31.885  29.171  1.00  0.00    -0.237 OA
ATOM     77  O   UNL A   1      34.306  32.917  31.373  1.00  0.00    -0.237 OA
ATOM     78  O   UNL A   1      35.938  33.924  29.845  1.00  0.00    -0.744 OA
ENDBRANCH  72  75
ENDBRANCH  44  68
BRANCH  56  79
ATOM     79  C   UNL A   1      44.786  33.357  29.506  1.00  0.00     0.023 A 
ATOM     80  C   UNL A   1      45.497  33.506  30.714  1.00  0.00     0.012 A 
ATOM     81  C   UNL A   1      44.679  34.453  28.627  1.00  0.00     0.148 A 
ATOM     82  C   UNL A   1      46.056  34.735  31.061  1.00  0.00     0.002 A 
ATOM     83  C   UNL A   1      45.280  35.662  28.958  1.00  0.00     0.091 A 
ATOM     84  F   UNL A   1      43.981  34.300  27.493  1.00  0.00    -0.205 F 
ATOM     85  C   UNL A   1      45.957  35.809  30.180  1.00  0.00     0.022 A 
BRANCH  83  86
ATOM     86  S   UNL A   1      45.276  37.066  27.838  1.00  0.00     0.127 S 
ATOM     87  O   UNL A   1      43.847  37.356  27.727  1.00  0.00    -0.237 OA
ATOM     88  O   UNL A   1      46.043  38.066  28.583  1.00  0.00    -0.237 OA
ATOM     89  O   UNL A   1      45.923  36.602  26.619  1.00  0.00    -0.744 OA
ENDBRANCH  83  86
ENDBRANCH  56  79
ENDBRANCH  30  31
ENDBRANCH  23  25
ENDBRANCH  22  23
ENDBRANCH   1  22
TORSDOF 17
ENDMDL
MODEL 3
REMARK VINA RESULT:     -10.1      1.852      2.026
REMARK SMILES [NH3+][C@H](Cc1cnc2ccccc2c1)C(=O)OCCOC(=O)c1ccc(-c2c3nc(c(-c4cccc(S(=O)(=O)[O-])c4F)c4ccc([nH]4)c(-c4cccc(S(=O)(=O)[O-])c4F)c4nc(c(-c5cccc(S(=O)(=O)[O-])c5F)c5ccc2[nH]5)C=C4)C=C3)cc1
REMARK SMILES IDX 18 1 17 2 16 3 14 4 15 5 2 6 1 7 3 11 4 12 5 13 13 14 6 15
REMARK SMILES IDX 12 16 7 17 11 18 8 19 10 20 9 21 19 22 20 23 21 24 22 25
REMARK SMILES IDX 23 26 84 27 24 28 83 29 25 30 26 31 27 32 77 33 28 34 82 35
REMARK SMILES IDX 76 36 78 37 29 38 81 39 75 40 74 41 30 43 62 44 42 45 61 46
REMARK SMILES IDX 43 47 46 48 60 49 79 50 44 51 45 52 59 54 80 55 47 56 31 57
REMARK SMILES IDX 32 58 40 59 33 60 35 61 41 62 34 63 36 64 37 65 38 66 39 67
REMARK SMILES IDX 63 68 64 69 72 70 65 71 67 72 73 73 66 74 68 75 69 76 70 77
REMARK SMILES IDX 71 78 48 79 49 80 57 81 50 82 52 83 58 84 51 85 53 86 54 87
REMARK SMILES IDX 55 88 56 89
REMARK H PARENT 1 8 1 9 1 10 78 42 46 53
REMARK Flexibility Score: inf
ROOT
ATOM      1  C   UNL A   1      34.381  33.609  28.851  1.00  0.00     0.275 C 
ENDROOT
BRANCH   1   2
ATOM      2  C   UNL A   1      33.233  34.617  28.765  1.00  0.00     0.274 C 
BRANCH   2   3
ATOM      3  O   UNL A   1      32.734  34.904  30.085  1.00  0.00    -0.458 OA
BRANCH   3   4
ATOM      4  C   UNL A   1      32.943  36.133  30.613  1.00  0.00     0.365 C 
ATOM      5  O   UNL A   1      32.799  37.180  29.992  1.00  0.00    -0.245 OA
BRANCH   4   6
ATOM      6  C   UNL A   1      33.421  36.074  32.086  1.00  0.00     0.296 C 
BRANCH   6   7
ATOM      7  N   UNL A   1      34.263  37.245  32.425  1.00  0.00    -0.346 N 
ATOM      8  H   UNL A   1      35.215  37.086  32.096  1.00  0.00     0.345 HD
ATOM      9  H   UNL A   1      34.272  37.377  33.437  1.00  0.00     0.345 HD
ATOM     10  H   UNL A   1      33.884  38.079  31.978  1.00  0.00     0.345 HD
ENDBRANCH   6   7
BRANCH   6  11
ATOM     11  C   UNL A   1      34.017  34.739  32.594  1.00  0.00     0.114 C 
BRANCH  11  12
ATOM     12  C   UNL A   1      35.506  34.541  32.764  1.00  0.00    -0.022 A 
ATOM     13  C   UNL A   1      36.189  34.625  33.969  1.00  0.00     0.115 A 
ATOM     14  C   UNL A   1      36.290  34.333  31.623  1.00  0.00     0.016 A 
ATOM     15  N   UNL A   1      37.537  34.635  34.095  1.00  0.00    -0.256 NA
ATOM     16  C   UNL A   1      37.690  34.335  31.710  1.00  0.00     0.000 A 
ATOM     17  C   UNL A   1      38.269  34.537  32.976  1.00  0.00     0.070 A 
ATOM     18  C   UNL A   1      38.508  34.188  30.576  1.00  0.00     0.010 A 
ATOM     19  C   UNL A   1      39.648  34.660  33.060  1.00  0.00     0.029 A 
ATOM     20  C   UNL A   1      39.893  34.292  30.689  1.00  0.00     0.001 A 
ATOM     21  C   UNL A   1      40.463  34.551  31.930  1.00  0.00     0.002 A 
ENDBRANCH  11  12
ENDBRANCH   6  11
ENDBRANCH   4   6
ENDBRANCH   3   4
ENDBRANCH   2   3
ENDBRANCH   1   2
BRANCH   1  22
ATOM     22  O   UNL A   1      34.563  32.958  27.582  1.00  0.00    -0.458 OA
BRANCH  22  23
ATOM     23  C   UNL A   1      34.478  31.607  27.619  1.00  0.00     0.338 C 
ATOM     24  O   UNL A   1      33.587  30.908  27.167  1.00  0.00    -0.246 OA
BRANCH  23  25
ATOM     25  C   UNL A   1      35.745  31.054  28.122  1.00  0.00     0.060 A 
ATOM     26  C   UNL A   1      35.676  29.872  28.861  1.00  0.00     0.016 A 
ATOM     27  C   UNL A   1      36.969  31.690  27.906  1.00  0.00     0.016 A 
ATOM     28  C   UNL A   1      36.830  29.322  29.403  1.00  0.00     0.010 A 
ATOM     29  C   UNL A   1      38.131  31.137  28.452  1.00  0.00     0.010 A 
ATOM     30  C   UNL A   1      38.064  29.958  29.216  1.00  0.00    -0.014 A 
BRANCH  30  31
ATOM     31  C   UNL A   1      39.263  29.392  29.873  1.00  0.00     0.031 A 
ATOM     32  C   UNL A   1      39.667  29.875  31.236  1.00  0.00     0.074 A 
ATOM     33  C   UNL A   1      39.952  28.411  29.263  1.00  0.00     0.049 A 
ATOM     34  N   UNL A   1      40.653  29.471  31.994  1.00  0.00    -0.248 NA
ATOM     35  C   UNL A   1      38.854  30.950  31.827  1.00  0.00     0.031 C 
ATOM     36  C   UNL A   1      39.652  27.873  27.935  1.00  0.00     0.029 A 
ATOM     37  N   UNL A   1      41.047  27.698  29.675  1.00  0.00    -0.354 N 
ATOM     38  C   UNL A   1      40.593  30.252  33.142  1.00  0.00     0.074 A 
ATOM     39  C   UNL A   1      39.484  31.166  32.974  1.00  0.00     0.031 C 
ATOM     40  C   UNL A   1      40.551  26.921  27.636  1.00  0.00     0.029 A 
ATOM     41  C   UNL A   1      41.499  26.797  28.741  1.00  0.00     0.049 A 
ATOM     42  H   UNL A   1      41.470  27.818  30.556  1.00  0.00     0.167 HD
ATOM     43  C   UNL A   1      41.377  30.195  34.244  1.00  0.00     0.034 A 
ATOM     44  C   UNL A   1      42.565  25.974  28.768  1.00  0.00     0.034 A 
ATOM     45  C   UNL A   1      42.469  29.273  34.412  1.00  0.00     0.049 A 
ATOM     46  C   UNL A   1      43.416  25.929  30.009  1.00  0.00     0.074 A 
ATOM     47  C   UNL A   1      43.316  29.126  35.496  1.00  0.00     0.029 A 
ATOM     48  N   UNL A   1      42.869  28.341  33.464  1.00  0.00    -0.354 N 
ATOM     49  N   UNL A   1      43.282  26.601  31.127  1.00  0.00    -0.248 NA
ATOM     50  C   UNL A   1      44.541  24.983  30.007  1.00  0.00     0.031 C 
ATOM     51  C   UNL A   1      44.236  28.113  35.199  1.00  0.00     0.029 A 
ATOM     52  C   UNL A   1      43.949  27.615  33.938  1.00  0.00     0.049 A 
ATOM     53  H   UNL A   1      42.446  28.215  32.584  1.00  0.00     0.167 HD
ATOM     54  C   UNL A   1      44.292  26.148  31.968  1.00  0.00     0.074 A 
ATOM     55  C   UNL A   1      45.004  25.114  31.242  1.00  0.00     0.031 C 
ATOM     56  C   UNL A   1      44.617  26.563  33.217  1.00  0.00     0.034 A 
BRANCH  43  57
ATOM     57  C   UNL A   1      41.054  31.135  35.376  1.00  0.00     0.023 A 
ATOM     58  C   UNL A   1      42.038  32.039  35.826  1.00  0.00     0.012 A 
ATOM     59  C   UNL A   1      39.772  31.162  35.960  1.00  0.00     0.148 A 
ATOM     60  C   UNL A   1      41.762  32.936  36.858  1.00  0.00     0.002 A 
ATOM     61  C   UNL A   1      39.492  32.086  36.961  1.00  0.00     0.091 A 
ATOM     62  F   UNL A   1      38.858  30.280  35.534  1.00  0.00    -0.205 F 
ATOM     63  C   UNL A   1      40.487  32.966  37.417  1.00  0.00     0.022 A 
BRANCH  61  64
ATOM     64  S   UNL A   1      37.863  32.251  37.700  1.00  0.00     0.127 S 
ATOM     65  O   UNL A   1      37.023  32.450  36.520  1.00  0.00    -0.237 OA
ATOM     66  O   UNL A   1      37.692  30.956  38.359  1.00  0.00    -0.237 OA
ATOM     67  O   UNL A   1      37.946  33.388  38.605  1.00  0.00    -0.744 OA
ENDBRANCH  61  64
ENDBRANCH  43  57
BRANCH  44  68
ATOM     68  C   UNL A   1      42.863  25.104  27.595  1.00  0.00     0.023 A 
ATOM     69  C   UNL A   1      43.707  25.574  26.572  1.00  0.00     0.012 A 
ATOM     70  C   UNL A   1      42.331  23.803  27.504  1.00  0.00     0.148 A 
ATOM     71  C   UNL A   1      43.992  24.773  25.463  1.00  0.00     0.002 A 
ATOM     72  C   UNL A   1      42.665  22.991  26.427  1.00  0.00     0.091 A 
ATOM     73  F   UNL A   1      41.510  23.382  28.477  1.00  0.00    -0.205 F 
ATOM     74  C   UNL A   1      43.482  23.480  25.397  1.00  0.00     0.022 A 
BRANCH  72  75
ATOM     75  S   UNL A   1      42.157  21.270  26.338  1.00  0.00     0.127 S 
ATOM     76  O   UNL A   1      40.753  21.392  25.955  1.00  0.00    -0.237 OA
ATOM     77  O   UNL A   1      43.037  20.745  25.293  1.00  0.00    -0.237 OA
ATOM     78  O   UNL A   1      42.412  20.721  27.663  1.00  0.00    -0.744 OA
ENDBRANCH  72  75
ENDBRANCH  44  68
BRANCH  56  79
ATOM     79  C   UNL A   1      45.791  25.890  33.881  1.00  0.00     0.023 A 
ATOM     80  C   UNL A   1      47.084  26.431  33.726  1.00  0.00     0.012 A 
ATOM     81  C   UNL A   1      45.612  24.749  34.689  1.00  0.00     0.148 A 
ATOM     82  C   UNL A   1      48.184  25.824  34.330  1.00  0.00     0.002 A 
ATOM     83  C   UNL A   1      46.707  24.178  35.326  1.00  0.00     0.091 A 
ATOM     84  F   UNL A   1      44.380  24.235  34.808  1.00  0.00    -0.205 F 
ATOM     85  C   UNL A   1      47.995  24.705  35.137  1.00  0.00     0.022 A 
BRANCH  83  86
ATOM     86  S   UNL A   1      46.537  22.791  36.454  1.00  0.00     0.127 S 
ATOM     87  O   UNL A   1      47.931  22.404  36.666  1.00  0.00    -0.237 OA
ATOM     88  O   UNL A   1      45.893  23.406  37.616  1.00  0.00    -0.237 OA
ATOM     89  O   UNL A   1      45.709  21.815  35.758  1.00  0.00    -0.744 OA
ENDBRANCH  83  86
ENDBRANCH  56  79
ENDBRANCH  30  31
ENDBRANCH  23  25
ENDBRANCH  22  23
ENDBRANCH   1  22
TORSDOF 17
ENDMDL
