MODEL 1
REMARK VINA RESULT:     -10.2      0.000      0.000
REMARK SMILES O=C(OCCOC(=O)c1cc2n[nH]cc2cc1[N+](=O)[O-])c1ccc(-c2c3nc(c(-c4cccc(S(=O)(=O)[O-])c4F)c4ccc([nH]4)c(-c4cccc(S(=O)(=O)[O-])c4F)c4nc(c(-c5cccc(S(=O)(=O)[O-])c5F)c5ccc2[nH]5)C=C4)C=C3)cc1
REMARK SMILES IDX 4 1 3 2 2 3 1 4 21 5 22 6 83 7 23 8 82 9 24 10 25 11 26 12
REMARK SMILES IDX 76 13 27 14 81 15 75 16 77 17 28 18 80 19 74 20 73 21 29 23
REMARK SMILES IDX 61 24 41 25 60 26 42 27 45 28 59 29 78 30 43 31 44 32 58 34
REMARK SMILES IDX 79 35 46 36 30 37 31 38 39 39 32 40 34 41 40 42 33 43 35 44
REMARK SMILES IDX 36 45 37 46 38 47 62 48 63 49 71 50 64 51 66 52 72 53 65 54
REMARK SMILES IDX 67 55 68 56 69 57 70 58 47 59 48 60 56 61 49 62 51 63 57 64
REMARK SMILES IDX 50 65 52 66 53 67 54 68 55 69 5 70 6 71 7 72 8 73 9 74 10 75
REMARK SMILES IDX 17 76 11 77 16 78 12 79 15 80 13 81 14 82 18 84 19 85 20 86
REMARK H PARENT 77 22 45 33 13 83
REMARK Flexibility Score: inf
ROOT
ATOM      1  C   UNL A   1      34.777  34.099  27.984  1.00  0.00     0.275 C 
ENDROOT
BRANCH   1   2
ATOM      2  O   UNL A   1      34.799  32.811  27.342  1.00  0.00    -0.458 OA
BRANCH   2   3
ATOM      3  C   UNL A   1      34.727  31.565  27.870  1.00  0.00     0.338 C 
ATOM      4  O   UNL A   1      33.612  31.058  27.990  1.00  0.00    -0.246 OA
BRANCH   3   5
ATOM      5  C   UNL A   1      35.901  30.793  28.397  1.00  0.00     0.060 A 
ATOM      6  C   UNL A   1      35.877  29.868  29.445  1.00  0.00     0.016 A 
ATOM      7  C   UNL A   1      37.136  31.024  27.763  1.00  0.00     0.016 A 
ATOM      8  C   UNL A   1      37.016  29.142  29.800  1.00  0.00     0.010 A 
ATOM      9  C   UNL A   1      38.282  30.302  28.113  1.00  0.00     0.010 A 
ATOM     10  C   UNL A   1      38.223  29.358  29.142  1.00  0.00    -0.014 A 
BRANCH  10  11
ATOM     11  C   UNL A   1      39.453  28.731  29.670  1.00  0.00     0.031 A 
ATOM     12  C   UNL A   1      40.063  29.318  30.903  1.00  0.00     0.074 A 
ATOM     13  C   UNL A   1      39.977  27.632  29.101  1.00  0.00     0.049 A 
ATOM     14  N   UNL A   1      41.075  28.886  31.601  1.00  0.00    -0.248 NA
ATOM     15  C   UNL A   1      39.419  30.527  31.447  1.00  0.00     0.031 C 
ATOM     16  C   UNL A   1      39.396  26.920  27.968  1.00  0.00     0.029 A 
ATOM     17  N   UNL A   1      41.116  26.926  29.382  1.00  0.00    -0.354 N 
ATOM     18  C   UNL A   1      41.179  29.755  32.676  1.00  0.00     0.074 A 
ATOM     19  C   UNL A   1      40.162  30.768  32.513  1.00  0.00     0.031 C 
ATOM     20  C   UNL A   1      40.222  25.932  27.588  1.00  0.00     0.029 A 
ATOM     21  C   UNL A   1      41.376  25.921  28.480  1.00  0.00     0.049 A 
ATOM     22  H   UNL A   1      41.692  27.119  30.157  1.00  0.00     0.167 HD
ATOM     23  C   UNL A   1      42.028  29.690  33.725  1.00  0.00     0.034 A 
ATOM     24  C   UNL A   1      42.425  25.080  28.396  1.00  0.00     0.034 A 
ATOM     25  C   UNL A   1      43.054  28.696  33.851  1.00  0.00     0.049 A 
ATOM     26  C   UNL A   1      43.439  25.106  29.506  1.00  0.00     0.074 A 
ATOM     27  C   UNL A   1      43.978  28.532  34.864  1.00  0.00     0.029 A 
ATOM     28  N   UNL A   1      43.314  27.712  32.904  1.00  0.00    -0.354 N 
ATOM     29  N   UNL A   1      43.464  25.866  30.574  1.00  0.00    -0.248 NA
ATOM     30  C   UNL A   1      44.525  24.119  29.442  1.00  0.00     0.031 C 
ATOM     31  C   UNL A   1      44.827  27.479  34.506  1.00  0.00     0.029 A 
ATOM     32  C   UNL A   1      44.402  26.955  33.294  1.00  0.00     0.049 A 
ATOM     33  H   UNL A   1      42.796  27.574  32.078  1.00  0.00     0.167 HD
ATOM     34  C   UNL A   1      44.524  25.408  31.346  1.00  0.00     0.074 A 
ATOM     35  C   UNL A   1      45.123  24.309  30.612  1.00  0.00     0.031 C 
ATOM     36  C   UNL A   1      44.955  25.846  32.555  1.00  0.00     0.034 A 
BRANCH  23  37
ATOM     37  C   UNL A   1      41.871  30.748  34.781  1.00  0.00     0.023 A 
ATOM     38  C   UNL A   1      40.883  30.609  35.779  1.00  0.00     0.012 A 
ATOM     39  C   UNL A   1      42.663  31.909  34.749  1.00  0.00     0.148 A 
ATOM     40  C   UNL A   1      40.649  31.634  36.694  1.00  0.00     0.002 A 
ATOM     41  C   UNL A   1      42.455  32.908  35.691  1.00  0.00     0.091 A 
ATOM     42  F   UNL A   1      43.572  32.036  33.771  1.00  0.00    -0.205 F 
ATOM     43  C   UNL A   1      41.439  32.781  36.653  1.00  0.00     0.022 A 
BRANCH  41  44
ATOM     44  S   UNL A   1      43.458  34.394  35.753  1.00  0.00     0.127 S 
ATOM     45  O   UNL A   1      43.044  35.080  34.531  1.00  0.00    -0.237 OA
ATOM     46  O   UNL A   1      42.996  35.022  36.993  1.00  0.00    -0.237 OA
ATOM     47  O   UNL A   1      44.842  33.943  35.781  1.00  0.00    -0.744 OA
ENDBRANCH  41  44
ENDBRANCH  23  37
BRANCH  24  48
ATOM     48  C   UNL A   1      42.517  24.105  27.273  1.00  0.00     0.023 A 
ATOM     49  C   UNL A   1      43.179  24.461  26.084  1.00  0.00     0.012 A 
ATOM     50  C   UNL A   1      41.968  22.812  27.392  1.00  0.00     0.148 A 
ATOM     51  C   UNL A   1      43.269  23.559  25.021  1.00  0.00     0.002 A 
ATOM     52  C   UNL A   1      42.091  21.906  26.343  1.00  0.00     0.091 A 
ATOM     53  F   UNL A   1      41.341  22.493  28.533  1.00  0.00    -0.205 F 
ATOM     54  C   UNL A   1      42.731  22.281  25.153  1.00  0.00     0.022 A 
BRANCH  52  55
ATOM     55  S   UNL A   1      41.495  20.214  26.453  1.00  0.00     0.127 S 
ATOM     56  O   UNL A   1      40.060  20.389  26.250  1.00  0.00    -0.237 OA
ATOM     57  O   UNL A   1      42.201  19.573  25.344  1.00  0.00    -0.237 OA
ATOM     58  O   UNL A   1      41.890  19.744  27.774  1.00  0.00    -0.744 OA
ENDBRANCH  52  55
ENDBRANCH  24  48
BRANCH  36  59
ATOM     59  C   UNL A   1      46.104  25.110  33.188  1.00  0.00     0.023 A 
ATOM     60  C   UNL A   1      47.420  25.583  33.031  1.00  0.00     0.012 A 
ATOM     61  C   UNL A   1      45.859  23.995  34.014  1.00  0.00     0.148 A 
ATOM     62  C   UNL A   1      48.482  24.939  33.666  1.00  0.00     0.002 A 
ATOM     63  C   UNL A   1      46.913  23.395  34.688  1.00  0.00     0.091 A 
ATOM     64  F   UNL A   1      44.599  23.549  34.130  1.00  0.00    -0.205 F 
ATOM     65  C   UNL A   1      48.226  23.856  34.505  1.00  0.00     0.022 A 
BRANCH  63  66
ATOM     66  S   UNL A   1      46.662  22.072  35.875  1.00  0.00     0.127 S 
ATOM     67  O   UNL A   1      48.034  21.773  36.282  1.00  0.00    -0.237 OA
ATOM     68  O   UNL A   1      45.848  22.726  36.900  1.00  0.00    -0.237 OA
ATOM     69  O   UNL A   1      45.979  21.007  35.152  1.00  0.00    -0.744 OA
ENDBRANCH  63  66
ENDBRANCH  36  59
ENDBRANCH  10  11
ENDBRANCH   3   5
ENDBRANCH   2   3
ENDBRANCH   1   2
BRANCH   1  70
ATOM     70  C   UNL A   1      33.820  34.189  29.172  1.00  0.00     0.275 C 
BRANCH  70  71
ATOM     71  O   UNL A   1      34.503  34.561  30.378  1.00  0.00    -0.458 OA
BRANCH  71  72
ATOM     72  C   UNL A   1      34.899  33.559  31.193  1.00  0.00     0.345 C 
ATOM     73  O   UNL A   1      34.272  32.564  31.514  1.00  0.00    -0.246 OA
BRANCH  72  74
ATOM     74  C   UNL A   1      36.307  33.780  31.559  1.00  0.00     0.139 A 
ATOM     75  C   UNL A   1      37.238  33.526  30.517  1.00  0.00     0.053 A 
ATOM     76  C   UNL A   1      36.699  34.208  32.874  1.00  0.00     0.284 A 
ATOM     77  C   UNL A   1      38.566  33.831  30.857  1.00  0.00     0.093 A 
ATOM     78  C   UNL A   1      38.042  34.462  33.257  1.00  0.00     0.098 A 
ATOM     79  N   UNL A   1      39.680  33.805  30.107  1.00  0.00    -0.176 NA
ATOM     80  C   UNL A   1      38.901  34.282  32.183  1.00  0.00     0.026 A 
ATOM     81  N   UNL A   1      40.658  34.254  30.924  1.00  0.00    -0.285 N 
ATOM     82  C   UNL A   1      40.240  34.548  32.190  1.00  0.00     0.114 A 
ATOM     83  H   UNL A   1      41.592  34.359  30.633  1.00  0.00     0.189 HD
BRANCH  76  84
ATOM     84  N   UNL A   1      35.687  34.416  33.909  1.00  0.00     0.063 N 
ATOM     85  O   UNL A   1      35.566  33.536  34.767  1.00  0.00    -0.258 OA
ATOM     86  O   UNL A   1      35.040  35.471  33.890  1.00  0.00    -0.258 OA
ENDBRANCH  76  84
ENDBRANCH  72  74
ENDBRANCH  71  72
ENDBRANCH  70  71
ENDBRANCH   1  70
TORSDOF 15
ENDMDL
MODEL 2
REMARK VINA RESULT:     -10.0      4.622     11.873
REMARK SMILES O=C(OCCOC(=O)c1cc2n[nH]cc2cc1[N+](=O)[O-])c1ccc(-c2c3nc(c(-c4cccc(S(=O)(=O)[O-])c4F)c4ccc([nH]4)c(-c4cccc(S(=O)(=O)[O-])c4F)c4nc(c(-c5cccc(S(=O)(=O)[O-])c5F)c5ccc2[nH]5)C=C4)C=C3)cc1
REMARK SMILES IDX 4 1 3 2 2 3 1 4 21 5 22 6 83 7 23 8 82 9 24 10 25 11 26 12
REMARK SMILES IDX 76 13 27 14 81 15 75 16 77 17 28 18 80 19 74 20 73 21 29 23
REMARK SMILES IDX 61 24 41 25 60 26 42 27 45 28 59 29 78 30 43 31 44 32 58 34
REMARK SMILES IDX 79 35 46 36 30 37 31 38 39 39 32 40 34 41 40 42 33 43 35 44
REMARK SMILES IDX 36 45 37 46 38 47 62 48 63 49 71 50 64 51 66 52 72 53 65 54
REMARK SMILES IDX 67 55 68 56 69 57 70 58 47 59 48 60 56 61 49 62 51 63 57 64
REMARK SMILES IDX 50 65 52 66 53 67 54 68 55 69 5 70 6 71 7 72 8 73 9 74 10 75
REMARK SMILES IDX 17 76 11 77 16 78 12 79 15 80 13 81 14 82 18 84 19 85 20 86
REMARK H PARENT 77 22 45 33 13 83
REMARK Flexibility Score: inf
ROOT
ATOM      1  C   UNL A   1      41.072  21.236  27.548  1.00  0.00     0.275 C 
ENDROOT
BRANCH   1   2
ATOM      2  O   UNL A   1      39.792  21.388  26.908  1.00  0.00    -0.458 OA
BRANCH   2   3
ATOM      3  C   UNL A   1      39.182  22.494  26.415  1.00  0.00     0.338 C 
ATOM      4  O   UNL A   1      38.315  22.335  25.556  1.00  0.00    -0.246 OA
BRANCH   3   5
ATOM      5  C   UNL A   1      39.547  23.903  26.779  1.00  0.00     0.060 A 
ATOM      6  C   UNL A   1      40.117  24.854  25.928  1.00  0.00     0.016 A 
ATOM      7  C   UNL A   1      39.278  24.296  28.104  1.00  0.00     0.016 A 
ATOM      8  C   UNL A   1      40.340  26.167  26.349  1.00  0.00     0.010 A 
ATOM      9  C   UNL A   1      39.499  25.608  28.534  1.00  0.00     0.010 A 
ATOM     10  C   UNL A   1      40.039  26.549  27.653  1.00  0.00    -0.014 A 
BRANCH  10  11
ATOM     11  C   UNL A   1      40.472  27.878  28.131  1.00  0.00     0.031 A 
ATOM     12  C   UNL A   1      41.936  28.184  28.114  1.00  0.00     0.074 A 
ATOM     13  C   UNL A   1      39.580  28.808  28.514  1.00  0.00     0.049 A 
ATOM     14  N   UNL A   1      42.541  29.305  28.389  1.00  0.00    -0.248 NA
ATOM     15  C   UNL A   1      42.833  27.097  27.685  1.00  0.00     0.031 C 
ATOM     16  C   UNL A   1      38.131  28.648  28.461  1.00  0.00     0.029 A 
ATOM     17  N   UNL A   1      39.752  30.064  29.032  1.00  0.00    -0.354 N 
ATOM     18  C   UNL A   1      43.885  29.067  28.149  1.00  0.00     0.074 A 
ATOM     19  C   UNL A   1      44.016  27.683  27.755  1.00  0.00     0.031 C 
ATOM     20  C   UNL A   1      37.542  29.722  29.011  1.00  0.00     0.029 A 
ATOM     21  C   UNL A   1      38.577  30.664  29.420  1.00  0.00     0.049 A 
ATOM     22  H   UNL A   1      40.633  30.496  29.118  1.00  0.00     0.167 HD
ATOM     23  C   UNL A   1      44.915  29.939  28.219  1.00  0.00     0.034 A 
ATOM     24  C   UNL A   1      38.366  31.848  30.026  1.00  0.00     0.034 A 
ATOM     25  C   UNL A   1      44.771  31.300  28.646  1.00  0.00     0.049 A 
ATOM     26  C   UNL A   1      39.545  32.761  30.219  1.00  0.00     0.074 A 
ATOM     27  C   UNL A   1      45.740  32.277  28.762  1.00  0.00     0.029 A 
ATOM     28  N   UNL A   1      43.573  31.868  29.063  1.00  0.00    -0.354 N 
ATOM     29  N   UNL A   1      40.798  32.561  29.888  1.00  0.00    -0.248 NA
ATOM     30  C   UNL A   1      39.278  34.084  30.798  1.00  0.00     0.031 C 
ATOM     31  C   UNL A   1      45.138  33.420  29.297  1.00  0.00     0.029 A 
ATOM     32  C   UNL A   1      43.783  33.173  29.467  1.00  0.00     0.049 A 
ATOM     33  H   UNL A   1      42.703  31.409  29.069  1.00  0.00     0.167 HD
ATOM     34  C   UNL A   1      41.460  33.752  30.152  1.00  0.00     0.074 A 
ATOM     35  C   UNL A   1      40.465  34.666  30.684  1.00  0.00     0.031 C 
ATOM     36  C   UNL A   1      42.765  34.068  29.962  1.00  0.00     0.034 A 
BRANCH  23  37
ATOM     37  C   UNL A   1      46.270  29.407  27.844  1.00  0.00     0.023 A 
ATOM     38  C   UNL A   1      46.612  29.239  26.485  1.00  0.00     0.012 A 
ATOM     39  C   UNL A   1      47.183  29.017  28.839  1.00  0.00     0.148 A 
ATOM     40  C   UNL A   1      47.818  28.640  26.125  1.00  0.00     0.002 A 
ATOM     41  C   UNL A   1      48.402  28.463  28.474  1.00  0.00     0.091 A 
ATOM     42  F   UNL A   1      46.824  29.153  30.124  1.00  0.00    -0.205 F 
ATOM     43  C   UNL A   1      48.714  28.257  27.119  1.00  0.00     0.022 A 
BRANCH  41  44
ATOM     44  S   UNL A   1      49.643  27.990  29.679  1.00  0.00     0.127 S 
ATOM     45  O   UNL A   1      50.031  29.288  30.229  1.00  0.00    -0.237 OA
ATOM     46  O   UNL A   1      48.875  27.144  30.594  1.00  0.00    -0.237 OA
ATOM     47  O   UNL A   1      50.681  27.291  28.934  1.00  0.00    -0.744 OA
ENDBRANCH  41  44
ENDBRANCH  23  37
BRANCH  24  48
ATOM     48  C   UNL A   1      36.987  32.258  30.413  1.00  0.00     0.023 A 
ATOM     49  C   UNL A   1      36.492  31.947  31.693  1.00  0.00     0.012 A 
ATOM     50  C   UNL A   1      36.169  32.979  29.518  1.00  0.00     0.148 A 
ATOM     51  C   UNL A   1      35.199  32.321  32.067  1.00  0.00     0.002 A 
ATOM     52  C   UNL A   1      34.895  33.378  29.909  1.00  0.00     0.091 A 
ATOM     53  F   UNL A   1      36.659  33.265  28.303  1.00  0.00    -0.205 F 
ATOM     54  C   UNL A   1      34.404  33.041  31.178  1.00  0.00     0.022 A 
BRANCH  52  55
ATOM     55  S   UNL A   1      33.830  34.374  28.858  1.00  0.00     0.127 S 
ATOM     56  O   UNL A   1      33.428  33.407  27.840  1.00  0.00    -0.237 OA
ATOM     57  O   UNL A   1      32.770  34.766  29.788  1.00  0.00    -0.237 OA
ATOM     58  O   UNL A   1      34.660  35.474  28.388  1.00  0.00    -0.744 OA
ENDBRANCH  52  55
ENDBRANCH  24  48
BRANCH  36  59
ATOM     59  C   UNL A   1      43.192  35.474  30.287  1.00  0.00     0.023 A 
ATOM     60  C   UNL A   1      43.794  35.761  31.526  1.00  0.00     0.012 A 
ATOM     61  C   UNL A   1      43.072  36.489  29.318  1.00  0.00     0.148 A 
ATOM     62  C   UNL A   1      44.246  37.050  31.808  1.00  0.00     0.002 A 
ATOM     63  C   UNL A   1      43.576  37.754  29.583  1.00  0.00     0.091 A 
ATOM     64  F   UNL A   1      42.475  36.195  28.154  1.00  0.00    -0.205 F 
ATOM     65  C   UNL A   1      44.151  38.040  30.832  1.00  0.00     0.022 A 
BRANCH  63  66
ATOM     66  S   UNL A   1      43.601  39.055  28.347  1.00  0.00     0.127 S 
ATOM     67  O   UNL A   1      44.437  40.065  28.994  1.00  0.00    -0.237 OA
ATOM     68  O   UNL A   1      44.224  38.385  27.205  1.00  0.00    -0.237 OA
ATOM     69  O   UNL A   1      42.210  39.436  28.137  1.00  0.00    -0.744 OA
ENDBRANCH  63  66
ENDBRANCH  36  59
ENDBRANCH  10  11
ENDBRANCH   3   5
ENDBRANCH   2   3
ENDBRANCH   1   2
BRANCH   1  70
ATOM     70  C   UNL A   1      41.986  20.209  26.882  1.00  0.00     0.275 C 
BRANCH  70  71
ATOM     71  O   UNL A   1      43.265  20.771  26.552  1.00  0.00    -0.458 OA
BRANCH  71  72
ATOM     72  C   UNL A   1      43.266  21.959  25.909  1.00  0.00     0.345 C 
ATOM     73  O   UNL A   1      42.537  22.319  25.001  1.00  0.00    -0.246 OA
BRANCH  72  74
ATOM     74  C   UNL A   1      44.231  22.851  26.572  1.00  0.00     0.139 A 
ATOM     75  C   UNL A   1      43.799  23.370  27.822  1.00  0.00     0.053 A 
ATOM     76  C   UNL A   1      45.503  23.174  25.988  1.00  0.00     0.284 A 
ATOM     77  C   UNL A   1      44.769  24.143  28.480  1.00  0.00     0.093 A 
ATOM     78  C   UNL A   1      46.474  24.004  26.608  1.00  0.00     0.098 A 
ATOM     79  N   UNL A   1      44.746  24.705  29.700  1.00  0.00    -0.176 NA
ATOM     80  C   UNL A   1      46.039  24.414  27.860  1.00  0.00     0.026 A 
ATOM     81  N   UNL A   1      45.964  25.272  29.842  1.00  0.00    -0.285 N 
ATOM     82  C   UNL A   1      46.778  25.131  28.756  1.00  0.00     0.114 A 
ATOM     83  H   UNL A   1      46.240  25.749  30.658  1.00  0.00     0.189 HD
BRANCH  76  84
ATOM     84  N   UNL A   1      45.868  22.630  24.680  1.00  0.00     0.063 N 
ATOM     85  O   UNL A   1      45.638  23.334  23.691  1.00  0.00    -0.258 OA
ATOM     86  O   UNL A   1      46.416  21.522  24.639  1.00  0.00    -0.258 OA
ENDBRANCH  76  84
ENDBRANCH  72  74
ENDBRANCH  71  72
ENDBRANCH  70  71
ENDBRANCH   1  70
TORSDOF 15
ENDMDL
MODEL 3
REMARK VINA RESULT:      -9.9      3.464      5.703
REMARK SMILES O=C(OCCOC(=O)c1cc2n[nH]cc2cc1[N+](=O)[O-])c1ccc(-c2c3nc(c(-c4cccc(S(=O)(=O)[O-])c4F)c4ccc([nH]4)c(-c4cccc(S(=O)(=O)[O-])c4F)c4nc(c(-c5cccc(S(=O)(=O)[O-])c5F)c5ccc2[nH]5)C=C4)C=C3)cc1
REMARK SMILES IDX 4 1 3 2 2 3 1 4 21 5 22 6 83 7 23 8 82 9 24 10 25 11 26 12
REMARK SMILES IDX 76 13 27 14 81 15 75 16 77 17 28 18 80 19 74 20 73 21 29 23
REMARK SMILES IDX 61 24 41 25 60 26 42 27 45 28 59 29 78 30 43 31 44 32 58 34
REMARK SMILES IDX 79 35 46 36 30 37 31 38 39 39 32 40 34 41 40 42 33 43 35 44
REMARK SMILES IDX 36 45 37 46 38 47 62 48 63 49 71 50 64 51 66 52 72 53 65 54
REMARK SMILES IDX 67 55 68 56 69 57 70 58 47 59 48 60 56 61 49 62 51 63 57 64
REMARK SMILES IDX 50 65 52 66 53 67 54 68 55 69 5 70 6 71 7 72 8 73 9 74 10 75
REMARK SMILES IDX 17 76 11 77 16 78 12 79 15 80 13 81 14 82 18 84 19 85 20 86
REMARK H PARENT 77 22 45 33 13 83
REMARK Flexibility Score: inf
ROOT
ATOM      1  C   UNL A   1      32.349  29.827  26.383  1.00  0.00     0.275 C 
ENDROOT
BRANCH   1   2
ATOM      2  O   UNL A   1      32.763  31.201  26.490  1.00  0.00    -0.458 OA
BRANCH   2   3
ATOM      3  C   UNL A   1      33.523  31.820  27.426  1.00  0.00     0.338 C 
ATOM      4  O   UNL A   1      33.222  32.970  27.740  1.00  0.00    -0.246 OA
BRANCH   3   5
ATOM      5  C   UNL A   1      34.759  31.233  28.044  1.00  0.00     0.060 A 
ATOM      6  C   UNL A   1      34.925  29.909  28.458  1.00  0.00     0.016 A 
ATOM      7  C   UNL A   1      35.850  32.107  28.209  1.00  0.00     0.016 A 
ATOM      8  C   UNL A   1      36.150  29.447  28.945  1.00  0.00     0.010 A 
ATOM      9  C   UNL A   1      37.080  31.653  28.697  1.00  0.00     0.010 A 
ATOM     10  C   UNL A   1      37.230  30.315  29.073  1.00  0.00    -0.014 A 
BRANCH  10  11
ATOM     11  C   UNL A   1      38.444  29.856  29.778  1.00  0.00     0.031 A 
ATOM     12  C   UNL A   1      38.705  30.400  31.147  1.00  0.00     0.074 A 
ATOM     13  C   UNL A   1      39.260  28.933  29.238  1.00  0.00     0.049 A 
ATOM     14  N   UNL A   1      39.642  30.074  31.992  1.00  0.00    -0.248 NA
ATOM     15  C   UNL A   1      37.759  31.411  31.647  1.00  0.00     0.031 C 
ATOM     16  C   UNL A   1      39.032  28.261  27.964  1.00  0.00     0.029 A 
ATOM     17  N   UNL A   1      40.444  28.407  29.679  1.00  0.00    -0.354 N 
ATOM     18  C   UNL A   1      39.389  30.823  33.130  1.00  0.00     0.074 A 
ATOM     19  C   UNL A   1      38.242  31.657  32.852  1.00  0.00     0.031 C 
ATOM     20  C   UNL A   1      40.085  27.478  27.676  1.00  0.00     0.029 A 
ATOM     21  C   UNL A   1      41.045  27.568  28.770  1.00  0.00     0.049 A 
ATOM     22  H   UNL A   1      40.828  28.610  30.563  1.00  0.00     0.167 HD
ATOM     23  C   UNL A   1      40.037  30.790  34.315  1.00  0.00     0.034 A 
ATOM     24  C   UNL A   1      42.233  26.935  28.826  1.00  0.00     0.034 A 
ATOM     25  C   UNL A   1      41.195  29.980  34.560  1.00  0.00     0.049 A 
ATOM     26  C   UNL A   1      43.012  27.013  30.110  1.00  0.00     0.074 A 
ATOM     27  C   UNL A   1      41.941  29.867  35.717  1.00  0.00     0.029 A 
ATOM     28  N   UNL A   1      41.799  29.167  33.609  1.00  0.00    -0.354 N 
ATOM     29  N   UNL A   1      42.704  27.643  31.218  1.00  0.00    -0.248 NA
ATOM     30  C   UNL A   1      44.260  26.241  30.181  1.00  0.00     0.031 C 
ATOM     31  C   UNL A   1      43.024  29.022  35.451  1.00  0.00     0.029 A 
ATOM     32  C   UNL A   1      42.925  28.570  34.142  1.00  0.00     0.049 A 
ATOM     33  H   UNL A   1      41.470  29.033  32.691  1.00  0.00     0.167 HD
ATOM     34  C   UNL A   1      43.679  27.292  32.142  1.00  0.00     0.074 A 
ATOM     35  C   UNL A   1      44.595  26.401  31.455  1.00  0.00     0.031 C 
ATOM     36  C   UNL A   1      43.800  27.661  33.442  1.00  0.00     0.034 A 
BRANCH  23  37
ATOM     37  C   UNL A   1      39.499  31.682  35.399  1.00  0.00     0.023 A 
ATOM     38  C   UNL A   1      38.480  31.215  36.256  1.00  0.00     0.012 A 
ATOM     39  C   UNL A   1      39.961  33.003  35.528  1.00  0.00     0.148 A 
ATOM     40  C   UNL A   1      37.892  32.068  37.189  1.00  0.00     0.002 A 
ATOM     41  C   UNL A   1      39.402  33.835  36.490  1.00  0.00     0.091 A 
ATOM     42  F   UNL A   1      40.905  33.437  34.680  1.00  0.00    -0.205 F 
ATOM     43  C   UNL A   1      38.357  33.376  37.308  1.00  0.00     0.022 A 
BRANCH  41  44
ATOM     44  S   UNL A   1      39.971  35.515  36.756  1.00  0.00     0.127 S 
ATOM     45  O   UNL A   1      39.307  35.855  38.013  1.00  0.00    -0.237 OA
ATOM     46  O   UNL A   1      41.420  35.333  36.860  1.00  0.00    -0.237 OA
ATOM     47  O   UNL A   1      39.537  36.275  35.593  1.00  0.00    -0.744 OA
ENDBRANCH  41  44
ENDBRANCH  23  37
BRANCH  24  48
ATOM     48  C   UNL A   1      42.704  26.121  27.671  1.00  0.00     0.023 A 
ATOM     49  C   UNL A   1      43.587  26.680  26.729  1.00  0.00     0.012 A 
ATOM     50  C   UNL A   1      42.296  24.780  27.518  1.00  0.00     0.148 A 
ATOM     51  C   UNL A   1      44.033  25.929  25.639  1.00  0.00     0.002 A 
ATOM     52  C   UNL A   1      42.771  24.027  26.448  1.00  0.00     0.091 A 
ATOM     53  F   UNL A   1      41.454  24.267  28.426  1.00  0.00    -0.205 F 
ATOM     54  C   UNL A   1      43.631  24.603  25.502  1.00  0.00     0.022 A 
BRANCH  52  55
ATOM     55  S   UNL A   1      42.366  22.289  26.235  1.00  0.00     0.127 S 
ATOM     56  O   UNL A   1      42.844  21.716  27.490  1.00  0.00    -0.237 OA
ATOM     57  O   UNL A   1      40.911  22.333  26.092  1.00  0.00    -0.237 OA
ATOM     58  O   UNL A   1      43.079  21.864  25.037  1.00  0.00    -0.744 OA
ENDBRANCH  52  55
ENDBRANCH  24  48
BRANCH  36  59
ATOM     59  C   UNL A   1      44.939  27.069  34.226  1.00  0.00     0.023 A 
ATOM     60  C   UNL A   1      46.194  27.705  34.241  1.00  0.00     0.012 A 
ATOM     61  C   UNL A   1      44.728  25.925  35.021  1.00  0.00     0.148 A 
ATOM     62  C   UNL A   1      47.235  27.193  35.015  1.00  0.00     0.002 A 
ATOM     63  C   UNL A   1      45.750  25.455  35.833  1.00  0.00     0.091 A 
ATOM     64  F   UNL A   1      43.530  25.324  34.973  1.00  0.00    -0.205 F 
ATOM     65  C   UNL A   1      47.008  26.079  35.821  1.00  0.00     0.022 A 
BRANCH  63  66
ATOM     66  S   UNL A   1      45.513  24.100  36.986  1.00  0.00     0.127 S 
ATOM     67  O   UNL A   1      45.056  23.031  36.099  1.00  0.00    -0.237 OA
ATOM     68  O   UNL A   1      46.860  23.913  37.526  1.00  0.00    -0.237 OA
ATOM     69  O   UNL A   1      44.533  24.567  37.958  1.00  0.00    -0.744 OA
ENDBRANCH  63  66
ENDBRANCH  36  59
ENDBRANCH  10  11
ENDBRANCH   3   5
ENDBRANCH   2   3
ENDBRANCH   1   2
BRANCH   1  70
ATOM     70  C   UNL A   1      32.873  29.111  25.139  1.00  0.00     0.275 C 
BRANCH  70  71
ATOM     71  O   UNL A   1      33.535  27.882  25.471  1.00  0.00    -0.458 OA
BRANCH  71  72
ATOM     72  C   UNL A   1      33.426  26.867  24.585  1.00  0.00     0.345 C 
ATOM     73  O   UNL A   1      33.468  26.928  23.368  1.00  0.00    -0.246 OA
BRANCH  72  74
ATOM     74  C   UNL A   1      33.371  25.599  25.329  1.00  0.00     0.139 A 
ATOM     75  C   UNL A   1      34.580  24.853  25.319  1.00  0.00     0.053 A 
ATOM     76  C   UNL A   1      32.181  25.153  25.999  1.00  0.00     0.284 A 
ATOM     77  C   UNL A   1      34.536  23.693  26.110  1.00  0.00     0.093 A 
ATOM     78  C   UNL A   1      32.097  23.952  26.752  1.00  0.00     0.098 A 
ATOM     79  N   UNL A   1      35.505  22.811  26.407  1.00  0.00    -0.176 NA
ATOM     80  C   UNL A   1      33.324  23.306  26.782  1.00  0.00     0.026 A 
ATOM     81  N   UNL A   1      34.925  21.933  27.254  1.00  0.00    -0.285 N 
ATOM     82  C   UNL A   1      33.607  22.184  27.507  1.00  0.00     0.114 A 
ATOM     83  H   UNL A   1      35.410  21.176  27.655  1.00  0.00     0.189 HD
BRANCH  76  84
ATOM     84  N   UNL A   1      30.961  25.957  25.937  1.00  0.00     0.063 N 
ATOM     85  O   UNL A   1      30.215  25.779  24.968  1.00  0.00    -0.258 OA
ATOM     86  O   UNL A   1      30.725  26.736  26.869  1.00  0.00    -0.258 OA
ENDBRANCH  76  84
ENDBRANCH  72  74
ENDBRANCH  71  72
ENDBRANCH  70  71
ENDBRANCH   1  70
TORSDOF 15
ENDMDL
