MODEL 1
REMARK VINA RESULT:     -10.1      0.000      0.000
REMARK SMILES CCCN(CCC)c1cc(C(=O)OCCOC(=O)c2ccc(-c3c4nc(c(-c5cccc(S(=O)(=O)[O-])c5F)c5ccc([nH]5)c(-c5cccc(S(=O)(=O)[O-])c5F)c5nc(c(-c6cccc(S(=O)(=O)[O-])c6F)c6ccc3[nH]6)C=C5)C=C4)cc2)cc(C(F)(F)F)c1
REMARK SMILES IDX 14 1 13 2 11 3 12 4 10 5 8 6 9 7 88 8 83 9 82 10 4 11 3 12
REMARK SMILES IDX 2 13 1 14 5 15 6 16 7 17 84 18 85 19 86 20 87 21 15 22 16 23
REMARK SMILES IDX 17 24 18 25 19 26 20 27 81 28 21 29 80 30 22 31 23 32 24 33
REMARK SMILES IDX 74 34 25 35 79 36 73 37 75 38 26 39 78 40 72 41 71 42 27 44
REMARK SMILES IDX 59 45 39 46 58 47 40 48 43 49 57 50 76 51 41 52 42 53 56 55
REMARK SMILES IDX 77 56 44 57 28 58 29 59 37 60 30 61 32 62 38 63 31 64 33 65
REMARK SMILES IDX 34 66 35 67 36 68 60 69 61 70 69 71 62 72 64 73 70 74 63 75
REMARK SMILES IDX 65 76 66 77 67 78 68 79 45 80 46 81 54 82 47 83 49 84 55 85
REMARK SMILES IDX 48 86 50 87 51 88 52 89 53 90
REMARK H PARENT 75 43 43 54
REMARK Flexibility Score: inf
ROOT
ATOM      1  C   UNL A   1      32.735  28.201  23.324  1.00  0.00     0.275 C 
ENDROOT
BRANCH   1   2
ATOM      2  O   UNL A   1      33.439  26.954  23.495  1.00  0.00    -0.458 OA
BRANCH   2   3
ATOM      3  C   UNL A   1      33.550  26.144  22.407  1.00  0.00     0.338 C 
ATOM      4  O   UNL A   1      33.652  26.485  21.251  1.00  0.00    -0.246 OA
BRANCH   3   5
ATOM      5  C   UNL A   1      33.618  24.737  22.879  1.00  0.00     0.062 A 
ATOM      6  C   UNL A   1      34.477  23.133  24.500  1.00  0.00     0.038 A 
ATOM      7  C   UNL A   1      34.511  24.401  23.905  1.00  0.00     0.041 A 
ATOM      8  C   UNL A   1      33.576  22.192  23.987  1.00  0.00     0.039 A 
ATOM      9  C   UNL A   1      32.773  22.466  22.870  1.00  0.00     0.058 A 
ATOM     10  C   UNL A   1      32.778  23.760  22.339  1.00  0.00     0.029 A 
BRANCH   6  11
ATOM     11  N   UNL A   1      35.295  22.843  25.581  1.00  0.00    -0.372 N 
BRANCH  11  12
ATOM     12  C   UNL A   1      34.879  21.793  26.524  1.00  0.00     0.116 C 
BRANCH  12  13
ATOM     13  C   UNL A   1      34.088  22.351  27.717  1.00  0.00     0.018 C 
ATOM     14  C   UNL A   1      32.717  22.882  27.319  1.00  0.00     0.006 C 
ENDBRANCH  12  13
ENDBRANCH  11  12
BRANCH  11  15
ATOM     15  C   UNL A   1      36.181  23.896  26.100  1.00  0.00     0.116 C 
BRANCH  15  16
ATOM     16  C   UNL A   1      37.655  23.500  26.072  1.00  0.00     0.018 C 
ATOM     17  C   UNL A   1      38.528  24.465  26.857  1.00  0.00     0.006 C 
ENDBRANCH  15  16
ENDBRANCH  11  15
ENDBRANCH   6  11
BRANCH   9  18
ATOM     18  C   UNL A   1      31.929  21.392  22.241  1.00  0.00     0.416 C 
ATOM     19  F   UNL A   1      30.594  21.623  22.373  1.00  0.00    -0.166 F 
ATOM     20  F   UNL A   1      32.153  21.284  20.899  1.00  0.00    -0.166 F 
ATOM     21  F   UNL A   1      32.147  20.147  22.748  1.00  0.00    -0.166 F 
ENDBRANCH   9  18
ENDBRANCH   3   5
ENDBRANCH   2   3
ENDBRANCH   1   2
BRANCH   1  22
ATOM     22  C   UNL A   1      32.315  28.744  24.688  1.00  0.00     0.275 C 
BRANCH  22  23
ATOM     23  O   UNL A   1      33.345  29.629  25.158  1.00  0.00    -0.458 OA
BRANCH  23  24
ATOM     24  C   UNL A   1      33.011  30.470  26.162  1.00  0.00     0.338 C 
ATOM     25  O   UNL A   1      32.025  31.185  26.225  1.00  0.00    -0.246 OA
BRANCH  24  26
ATOM     26  C   UNL A   1      34.004  30.359  27.252  1.00  0.00     0.060 A 
ATOM     27  C   UNL A   1      34.741  31.479  27.627  1.00  0.00     0.016 A 
ATOM     28  C   UNL A   1      34.345  29.105  27.763  1.00  0.00     0.016 A 
ATOM     29  C   UNL A   1      35.911  31.314  28.372  1.00  0.00     0.010 A 
ATOM     30  C   UNL A   1      35.446  28.974  28.625  1.00  0.00     0.010 A 
ATOM     31  C   UNL A   1      36.299  30.062  28.887  1.00  0.00    -0.014 A 
BRANCH  31  32
ATOM     32  C   UNL A   1      37.612  29.885  29.605  1.00  0.00     0.031 A 
ATOM     33  C   UNL A   1      38.748  29.081  28.991  1.00  0.00     0.074 A 
ATOM     34  C   UNL A   1      37.842  30.472  30.801  1.00  0.00     0.049 A 
ATOM     35  N   UNL A   1      39.858  28.655  29.548  1.00  0.00    -0.248 NA
ATOM     36  C   UNL A   1      38.628  28.703  27.574  1.00  0.00     0.031 C 
ATOM     37  C   UNL A   1      36.898  31.314  31.534  1.00  0.00     0.029 A 
ATOM     38  N   UNL A   1      38.956  30.451  31.615  1.00  0.00    -0.354 N 
ATOM     39  C   UNL A   1      40.509  27.888  28.586  1.00  0.00     0.074 A 
ATOM     40  C   UNL A   1      39.693  27.935  27.394  1.00  0.00     0.031 C 
ATOM     41  C   UNL A   1      37.486  31.788  32.638  1.00  0.00     0.029 A 
ATOM     42  C   UNL A   1      38.791  31.156  32.786  1.00  0.00     0.049 A 
ATOM     43  H   UNL A   1      39.788  29.979  31.381  1.00  0.00     0.167 HD
ATOM     44  C   UNL A   1      41.677  27.204  28.676  1.00  0.00     0.034 A 
ATOM     45  C   UNL A   1      39.544  31.232  33.902  1.00  0.00     0.034 A 
ATOM     46  C   UNL A   1      42.550  27.223  29.821  1.00  0.00     0.049 A 
ATOM     47  C   UNL A   1      40.813  30.439  34.000  1.00  0.00     0.074 A 
ATOM     48  C   UNL A   1      43.766  26.575  29.984  1.00  0.00     0.029 A 
ATOM     49  N   UNL A   1      42.321  27.932  30.987  1.00  0.00    -0.354 N 
ATOM     50  N   UNL A   1      41.390  29.692  33.092  1.00  0.00    -0.248 NA
ATOM     51  C   UNL A   1      41.529  30.491  35.283  1.00  0.00     0.031 C 
ATOM     52  C   UNL A   1      44.262  26.882  31.254  1.00  0.00     0.029 A 
ATOM     53  C   UNL A   1      43.368  27.739  31.873  1.00  0.00     0.049 A 
ATOM     54  H   UNL A   1      41.530  28.492  31.160  1.00  0.00     0.167 HD
ATOM     55  C   UNL A   1      42.538  29.190  33.691  1.00  0.00     0.074 A 
ATOM     56  C   UNL A   1      42.595  29.745  35.027  1.00  0.00     0.031 C 
ATOM     57  C   UNL A   1      43.449  28.324  33.185  1.00  0.00     0.034 A 
BRANCH  44  58
ATOM     58  C   UNL A   1      42.106  26.363  27.499  1.00  0.00     0.023 A 
ATOM     59  C   UNL A   1      42.800  26.950  26.424  1.00  0.00     0.012 A 
ATOM     60  C   UNL A   1      41.915  24.965  27.517  1.00  0.00     0.148 A 
ATOM     61  C   UNL A   1      43.280  26.163  25.376  1.00  0.00     0.002 A 
ATOM     62  C   UNL A   1      42.434  24.183  26.492  1.00  0.00     0.091 A 
ATOM     63  F   UNL A   1      41.234  24.427  28.539  1.00  0.00    -0.205 F 
ATOM     64  C   UNL A   1      43.109  24.781  25.417  1.00  0.00     0.022 A 
BRANCH  62  65
ATOM     65  S   UNL A   1      42.342  22.388  26.508  1.00  0.00     0.127 S 
ATOM     66  O   UNL A   1      40.941  22.161  26.160  1.00  0.00    -0.237 OA
ATOM     67  O   UNL A   1      43.297  22.019  25.461  1.00  0.00    -0.237 OA
ATOM     68  O   UNL A   1      42.730  21.980  27.850  1.00  0.00    -0.744 OA
ENDBRANCH  62  65
ENDBRANCH  44  58
BRANCH  45  69
ATOM     69  C   UNL A   1      39.064  32.052  35.053  1.00  0.00     0.023 A 
ATOM     70  C   UNL A   1      38.187  31.492  35.999  1.00  0.00     0.012 A 
ATOM     71  C   UNL A   1      39.535  33.366  35.247  1.00  0.00     0.148 A 
ATOM     72  C   UNL A   1      37.787  32.226  37.116  1.00  0.00     0.002 A 
ATOM     73  C   UNL A   1      39.204  34.058  36.402  1.00  0.00     0.091 A 
ATOM     74  F   UNL A   1      40.332  33.902  34.311  1.00  0.00    -0.205 F 
ATOM     75  C   UNL A   1      38.315  33.499  37.331  1.00  0.00     0.022 A 
BRANCH  73  76
ATOM     76  S   UNL A   1      40.005  35.607  36.833  1.00  0.00     0.127 S 
ATOM     77  O   UNL A   1      39.653  36.454  35.697  1.00  0.00    -0.237 OA
ATOM     78  O   UNL A   1      39.343  35.955  38.092  1.00  0.00    -0.237 OA
ATOM     79  O   UNL A   1      41.418  35.283  36.977  1.00  0.00    -0.744 OA
ENDBRANCH  73  76
ENDBRANCH  45  69
BRANCH  57  80
ATOM     80  C   UNL A   1      44.609  27.942  34.063  1.00  0.00     0.023 A 
ATOM     81  C   UNL A   1      45.778  28.730  34.059  1.00  0.00     0.012 A 
ATOM     82  C   UNL A   1      44.526  26.832  34.926  1.00  0.00     0.148 A 
ATOM     83  C   UNL A   1      46.859  28.397  34.874  1.00  0.00     0.002 A 
ATOM     84  C   UNL A   1      45.591  26.532  35.767  1.00  0.00     0.091 A 
ATOM     85  F   UNL A   1      43.412  26.084  34.901  1.00  0.00    -0.205 F 
ATOM     86  C   UNL A   1      46.763  27.306  35.734  1.00  0.00     0.022 A 
BRANCH  84  87
ATOM     87  S   UNL A   1      45.525  25.193  36.962  1.00  0.00     0.127 S 
ATOM     88  O   UNL A   1      44.144  25.284  37.434  1.00  0.00    -0.237 OA
ATOM     89  O   UNL A   1      45.810  24.020  36.134  1.00  0.00    -0.237 OA
ATOM     90  O   UNL A   1      46.547  25.492  37.957  1.00  0.00    -0.744 OA
ENDBRANCH  84  87
ENDBRANCH  57  80
ENDBRANCH  31  32
ENDBRANCH  24  26
ENDBRANCH  23  24
ENDBRANCH  22  23
ENDBRANCH   1  22
TORSDOF 20
ENDMDL
MODEL 2
REMARK VINA RESULT:      -9.7      5.498      9.300
REMARK SMILES CCCN(CCC)c1cc(C(=O)OCCOC(=O)c2ccc(-c3c4nc(c(-c5cccc(S(=O)(=O)[O-])c5F)c5ccc([nH]5)c(-c5cccc(S(=O)(=O)[O-])c5F)c5nc(c(-c6cccc(S(=O)(=O)[O-])c6F)c6ccc3[nH]6)C=C5)C=C4)cc2)cc(C(F)(F)F)c1
REMARK SMILES IDX 14 1 13 2 11 3 12 4 10 5 8 6 9 7 88 8 83 9 82 10 4 11 3 12
REMARK SMILES IDX 2 13 1 14 5 15 6 16 7 17 84 18 85 19 86 20 87 21 15 22 16 23
REMARK SMILES IDX 17 24 18 25 19 26 20 27 81 28 21 29 80 30 22 31 23 32 24 33
REMARK SMILES IDX 74 34 25 35 79 36 73 37 75 38 26 39 78 40 72 41 71 42 27 44
REMARK SMILES IDX 59 45 39 46 58 47 40 48 43 49 57 50 76 51 41 52 42 53 56 55
REMARK SMILES IDX 77 56 44 57 28 58 29 59 37 60 30 61 32 62 38 63 31 64 33 65
REMARK SMILES IDX 34 66 35 67 36 68 60 69 61 70 69 71 62 72 64 73 70 74 63 75
REMARK SMILES IDX 65 76 66 77 67 78 68 79 45 80 46 81 54 82 47 83 49 84 55 85
REMARK SMILES IDX 48 86 50 87 51 88 52 89 53 90
REMARK H PARENT 75 43 43 54
REMARK Flexibility Score: inf
ROOT
ATOM      1  C   UNL A   1      43.218  21.022  25.945  1.00  0.00     0.275 C 
ENDROOT
BRANCH   1   2
ATOM      2  O   UNL A   1      41.838  20.693  25.689  1.00  0.00    -0.458 OA
BRANCH   2   3
ATOM      3  C   UNL A   1      40.985  20.707  26.749  1.00  0.00     0.338 C 
ATOM      4  O   UNL A   1      40.983  19.952  27.694  1.00  0.00    -0.246 OA
BRANCH   3   5
ATOM      5  C   UNL A   1      40.085  21.882  26.608  1.00  0.00     0.062 A 
ATOM      6  C   UNL A   1      37.940  22.773  25.870  1.00  0.00     0.038 A 
ATOM      7  C   UNL A   1      38.898  21.750  25.874  1.00  0.00     0.041 A 
ATOM      8  C   UNL A   1      38.240  23.955  26.559  1.00  0.00     0.039 A 
ATOM      9  C   UNL A   1      39.480  24.156  27.181  1.00  0.00     0.058 A 
ATOM     10  C   UNL A   1      40.390  23.096  27.227  1.00  0.00     0.029 A 
BRANCH   6  11
ATOM     11  N   UNL A   1      36.726  22.595  25.224  1.00  0.00    -0.372 N 
BRANCH  11  12
ATOM     12  C   UNL A   1      36.208  23.678  24.375  1.00  0.00     0.116 C 
BRANCH  12  13
ATOM     13  C   UNL A   1      34.930  24.314  24.942  1.00  0.00     0.018 C 
ATOM     14  C   UNL A   1      33.951  24.741  23.855  1.00  0.00     0.006 C 
ENDBRANCH  12  13
ENDBRANCH  11  12
BRANCH  11  15
ATOM     15  C   UNL A   1      35.739  21.677  25.815  1.00  0.00     0.116 C 
BRANCH  15  16
ATOM     16  C   UNL A   1      35.492  20.438  24.958  1.00  0.00     0.018 C 
ATOM     17  C   UNL A   1      34.013  20.119  24.818  1.00  0.00     0.006 C 
ENDBRANCH  15  16
ENDBRANCH  11  15
ENDBRANCH   6  11
BRANCH   9  18
ATOM     18  C   UNL A   1      39.839  25.489  27.780  1.00  0.00     0.416 C 
ATOM     19  F   UNL A   1      39.033  25.836  28.820  1.00  0.00    -0.166 F 
ATOM     20  F   UNL A   1      41.109  25.502  28.277  1.00  0.00    -0.166 F 
ATOM     21  F   UNL A   1      39.782  26.525  26.897  1.00  0.00    -0.166 F 
ENDBRANCH   9  18
ENDBRANCH   3   5
ENDBRANCH   2   3
ENDBRANCH   1   2
BRANCH   1  22
ATOM     22  C   UNL A   1      43.723  21.984  24.872  1.00  0.00     0.275 C 
BRANCH  22  23
ATOM     23  O   UNL A   1      43.244  23.302  25.185  1.00  0.00    -0.458 OA
BRANCH  23  24
ATOM     24  C   UNL A   1      44.144  24.308  25.115  1.00  0.00     0.338 C 
ATOM     25  O   UNL A   1      45.132  24.361  24.402  1.00  0.00    -0.246 OA
BRANCH  24  26
ATOM     26  C   UNL A   1      43.724  25.411  26.006  1.00  0.00     0.060 A 
ATOM     27  C   UNL A   1      42.913  26.426  25.507  1.00  0.00     0.016 A 
ATOM     28  C   UNL A   1      44.295  25.542  27.273  1.00  0.00     0.016 A 
ATOM     29  C   UNL A   1      42.816  27.632  26.204  1.00  0.00     0.010 A 
ATOM     30  C   UNL A   1      44.075  26.708  28.025  1.00  0.00     0.010 A 
ATOM     31  C   UNL A   1      43.396  27.810  27.475  1.00  0.00    -0.014 A 
BRANCH  31  32
ATOM     32  C   UNL A   1      43.364  29.148  28.169  1.00  0.00     0.031 A 
ATOM     33  C   UNL A   1      44.555  30.093  28.122  1.00  0.00     0.074 A 
ATOM     34  C   UNL A   1      42.259  29.575  28.820  1.00  0.00     0.049 A 
ATOM     35  N   UNL A   1      44.780  31.179  28.824  1.00  0.00    -0.248 NA
ATOM     36  C   UNL A   1      45.634  29.783  27.170  1.00  0.00     0.031 C 
ATOM     37  C   UNL A   1      41.003  28.836  28.944  1.00  0.00     0.029 A 
ATOM     38  N   UNL A   1      42.012  30.747  29.503  1.00  0.00    -0.354 N 
ATOM     39  C   UNL A   1      46.053  31.617  28.469  1.00  0.00     0.074 A 
ATOM     40  C   UNL A   1      46.541  30.705  27.460  1.00  0.00     0.031 C 
ATOM     41  C   UNL A   1      40.102  29.589  29.584  1.00  0.00     0.029 A 
ATOM     42  C   UNL A   1      40.757  30.799  30.067  1.00  0.00     0.049 A 
ATOM     43  H   UNL A   1      42.669  31.476  29.581  1.00  0.00     0.167 HD
ATOM     44  C   UNL A   1      46.758  32.679  28.934  1.00  0.00     0.034 A 
ATOM     45  C   UNL A   1      40.200  31.659  30.944  1.00  0.00     0.034 A 
ATOM     46  C   UNL A   1      46.253  33.653  29.867  1.00  0.00     0.049 A 
ATOM     47  C   UNL A   1      41.007  32.805  31.476  1.00  0.00     0.074 A 
ATOM     48  C   UNL A   1      46.897  34.773  30.371  1.00  0.00     0.029 A 
ATOM     49  N   UNL A   1      44.986  33.641  30.423  1.00  0.00    -0.354 N 
ATOM     50  N   UNL A   1      42.220  33.179  31.155  1.00  0.00    -0.248 NA
ATOM     51  C   UNL A   1      40.371  33.642  32.504  1.00  0.00     0.031 C 
ATOM     52  C   UNL A   1      46.022  35.429  31.242  1.00  0.00     0.029 A 
ATOM     53  C   UNL A   1      44.827  34.731  31.263  1.00  0.00     0.049 A 
ATOM     54  H   UNL A   1      44.298  32.958  30.246  1.00  0.00     0.167 HD
ATOM     55  C   UNL A   1      42.490  34.296  31.935  1.00  0.00     0.074 A 
ATOM     56  C   UNL A   1      41.303  34.561  32.719  1.00  0.00     0.031 C 
ATOM     57  C   UNL A   1      43.632  35.021  32.011  1.00  0.00     0.034 A 
BRANCH  44  58
ATOM     58  C   UNL A   1      48.173  32.868  28.444  1.00  0.00     0.023 A 
ATOM     59  C   UNL A   1      49.184  31.969  28.837  1.00  0.00     0.012 A 
ATOM     60  C   UNL A   1      48.472  33.875  27.503  1.00  0.00     0.148 A 
ATOM     61  C   UNL A   1      50.473  32.083  28.317  1.00  0.00     0.002 A 
ATOM     62  C   UNL A   1      49.747  33.955  26.956  1.00  0.00     0.091 A 
ATOM     63  F   UNL A   1      47.502  34.734  27.157  1.00  0.00    -0.205 F 
ATOM     64  C   UNL A   1      50.751  33.065  27.368  1.00  0.00     0.022 A 
BRANCH  62  65
ATOM     65  S   UNL A   1      50.169  35.128  25.662  1.00  0.00     0.127 S 
ATOM     66  O   UNL A   1      50.102  36.398  26.382  1.00  0.00    -0.237 OA
ATOM     67  O   UNL A   1      51.523  34.708  25.292  1.00  0.00    -0.237 OA
ATOM     68  O   UNL A   1      49.174  34.944  24.616  1.00  0.00    -0.744 OA
ENDBRANCH  62  65
ENDBRANCH  44  58
BRANCH  45  69
ATOM     69  C   UNL A   1      38.809  31.415  31.424  1.00  0.00     0.023 A 
ATOM     70  C   UNL A   1      38.589  30.657  32.588  1.00  0.00     0.012 A 
ATOM     71  C   UNL A   1      37.707  31.995  30.765  1.00  0.00     0.148 A 
ATOM     72  C   UNL A   1      37.297  30.481  33.085  1.00  0.00     0.002 A 
ATOM     73  C   UNL A   1      36.437  31.891  31.312  1.00  0.00     0.091 A 
ATOM     74  F   UNL A   1      37.929  32.675  29.630  1.00  0.00    -0.205 F 
ATOM     75  C   UNL A   1      36.224  31.119  32.463  1.00  0.00     0.022 A 
BRANCH  73  76
ATOM     76  S   UNL A   1      35.057  32.849  30.677  1.00  0.00     0.127 S 
ATOM     77  O   UNL A   1      34.046  32.641  31.710  1.00  0.00    -0.237 OA
ATOM     78  O   UNL A   1      35.619  34.200  30.625  1.00  0.00    -0.237 OA
ATOM     79  O   UNL A   1      34.762  32.279  29.369  1.00  0.00    -0.744 OA
ENDBRANCH  73  76
ENDBRANCH  45  69
BRANCH  57  80
ATOM     80  C   UNL A   1      43.650  36.193  32.953  1.00  0.00     0.023 A 
ATOM     81  C   UNL A   1      43.823  35.977  34.335  1.00  0.00     0.012 A 
ATOM     82  C   UNL A   1      43.542  37.511  32.467  1.00  0.00     0.148 A 
ATOM     83  C   UNL A   1      43.853  37.052  35.222  1.00  0.00     0.002 A 
ATOM     84  C   UNL A   1      43.616  38.580  33.353  1.00  0.00     0.091 A 
ATOM     85  F   UNL A   1      43.359  37.695  31.151  1.00  0.00    -0.205 F 
ATOM     86  C   UNL A   1      43.759  38.352  34.731  1.00  0.00     0.022 A 
BRANCH  84  87
ATOM     87  S   UNL A   1      43.583  40.289  32.801  1.00  0.00     0.127 S 
ATOM     88  O   UNL A   1      42.429  40.814  33.528  1.00  0.00    -0.237 OA
ATOM     89  O   UNL A   1      44.877  40.792  33.266  1.00  0.00    -0.237 OA
ATOM     90  O   UNL A   1      43.441  40.240  31.352  1.00  0.00    -0.744 OA
ENDBRANCH  84  87
ENDBRANCH  57  80
ENDBRANCH  31  32
ENDBRANCH  24  26
ENDBRANCH  23  24
ENDBRANCH  22  23
ENDBRANCH   1  22
TORSDOF 20
ENDMDL
MODEL 3
REMARK VINA RESULT:      -9.7      1.427      2.216
REMARK SMILES CCCN(CCC)c1cc(C(=O)OCCOC(=O)c2ccc(-c3c4nc(c(-c5cccc(S(=O)(=O)[O-])c5F)c5ccc([nH]5)c(-c5cccc(S(=O)(=O)[O-])c5F)c5nc(c(-c6cccc(S(=O)(=O)[O-])c6F)c6ccc3[nH]6)C=C5)C=C4)cc2)cc(C(F)(F)F)c1
REMARK SMILES IDX 14 1 13 2 11 3 12 4 10 5 8 6 9 7 88 8 83 9 82 10 4 11 3 12
REMARK SMILES IDX 2 13 1 14 5 15 6 16 7 17 84 18 85 19 86 20 87 21 15 22 16 23
REMARK SMILES IDX 17 24 18 25 19 26 20 27 81 28 21 29 80 30 22 31 23 32 24 33
REMARK SMILES IDX 74 34 25 35 79 36 73 37 75 38 26 39 78 40 72 41 71 42 27 44
REMARK SMILES IDX 59 45 39 46 58 47 40 48 43 49 57 50 76 51 41 52 42 53 56 55
REMARK SMILES IDX 77 56 44 57 28 58 29 59 37 60 30 61 32 62 38 63 31 64 33 65
REMARK SMILES IDX 34 66 35 67 36 68 60 69 61 70 69 71 62 72 64 73 70 74 63 75
REMARK SMILES IDX 65 76 66 77 67 78 68 79 45 80 46 81 54 82 47 83 49 84 55 85
REMARK SMILES IDX 48 86 50 87 51 88 52 89 53 90
REMARK H PARENT 75 43 43 54
REMARK Flexibility Score: inf
ROOT
ATOM      1  C   UNL A   1      31.824  28.260  24.026  1.00  0.00     0.275 C 
ENDROOT
BRANCH   1   2
ATOM      2  O   UNL A   1      32.577  27.054  24.265  1.00  0.00    -0.458 OA
BRANCH   2   3
ATOM      3  C   UNL A   1      33.000  26.356  23.176  1.00  0.00     0.338 C 
ATOM      4  O   UNL A   1      33.050  26.746  22.033  1.00  0.00    -0.246 OA
BRANCH   3   5
ATOM      5  C   UNL A   1      33.490  25.029  23.635  1.00  0.00     0.062 A 
ATOM      6  C   UNL A   1      32.966  22.802  24.472  1.00  0.00     0.038 A 
ATOM      7  C   UNL A   1      32.583  24.121  24.197  1.00  0.00     0.041 A 
ATOM      8  C   UNL A   1      34.299  22.444  24.237  1.00  0.00     0.039 A 
ATOM      9  C   UNL A   1      35.253  23.376  23.806  1.00  0.00     0.058 A 
ATOM     10  C   UNL A   1      34.830  24.668  23.476  1.00  0.00     0.029 A 
BRANCH   6  11
ATOM     11  N   UNL A   1      32.036  21.883  24.935  1.00  0.00    -0.372 N 
BRANCH  11  12
ATOM     12  C   UNL A   1      30.938  22.355  25.792  1.00  0.00     0.116 C 
BRANCH  12  13
ATOM     13  C   UNL A   1      31.437  23.163  27.000  1.00  0.00     0.018 C 
ATOM     14  C   UNL A   1      32.606  22.497  27.714  1.00  0.00     0.006 C 
ENDBRANCH  12  13
ENDBRANCH  11  12
BRANCH  11  15
ATOM     15  C   UNL A   1      32.445  20.478  25.083  1.00  0.00     0.116 C 
BRANCH  15  16
ATOM     16  C   UNL A   1      32.523  19.738  23.749  1.00  0.00     0.018 C 
ATOM     17  C   UNL A   1      32.205  18.259  23.891  1.00  0.00     0.006 C 
ENDBRANCH  15  16
ENDBRANCH  11  15
ENDBRANCH   6  11
BRANCH   9  18
ATOM     18  C   UNL A   1      36.709  23.008  23.710  1.00  0.00     0.416 C 
ATOM     19  F   UNL A   1      36.941  21.695  23.980  1.00  0.00    -0.166 F 
ATOM     20  F   UNL A   1      37.210  23.223  22.460  1.00  0.00    -0.166 F 
ATOM     21  F   UNL A   1      37.514  23.714  24.553  1.00  0.00    -0.166 F 
ENDBRANCH   9  18
ENDBRANCH   3   5
ENDBRANCH   2   3
ENDBRANCH   1   2
BRANCH   1  22
ATOM     22  C   UNL A   1      31.682  29.042  25.330  1.00  0.00     0.275 C 
BRANCH  22  23
ATOM     23  O   UNL A   1      32.867  29.833  25.514  1.00  0.00    -0.458 OA
BRANCH  23  24
ATOM     24  C   UNL A   1      32.779  30.866  26.381  1.00  0.00     0.338 C 
ATOM     25  O   UNL A   1      31.962  31.773  26.364  1.00  0.00    -0.246 OA
BRANCH  24  26
ATOM     26  C   UNL A   1      33.803  30.716  27.437  1.00  0.00     0.060 A 
ATOM     27  C   UNL A   1      34.493  31.837  27.889  1.00  0.00     0.016 A 
ATOM     28  C   UNL A   1      34.219  29.443  27.832  1.00  0.00     0.016 A 
ATOM     29  C   UNL A   1      35.687  31.672  28.593  1.00  0.00     0.010 A 
ATOM     30  C   UNL A   1      35.346  29.298  28.658  1.00  0.00     0.010 A 
ATOM     31  C   UNL A   1      36.150  30.402  28.992  1.00  0.00    -0.014 A 
BRANCH  31  32
ATOM     32  C   UNL A   1      37.488  30.234  29.665  1.00  0.00     0.031 A 
ATOM     33  C   UNL A   1      38.614  29.455  29.004  1.00  0.00     0.074 A 
ATOM     34  C   UNL A   1      37.749  30.808  30.861  1.00  0.00     0.049 A 
ATOM     35  N   UNL A   1      39.747  29.036  29.519  1.00  0.00    -0.248 NA
ATOM     36  C   UNL A   1      38.453  29.094  27.587  1.00  0.00     0.031 C 
ATOM     37  C   UNL A   1      36.817  31.626  31.636  1.00  0.00     0.029 A 
ATOM     38  N   UNL A   1      38.888  30.792  31.639  1.00  0.00    -0.354 N 
ATOM     39  C   UNL A   1      40.377  28.291  28.526  1.00  0.00     0.074 A 
ATOM     40  C   UNL A   1      39.522  28.343  27.361  1.00  0.00     0.031 C 
ATOM     41  C   UNL A   1      37.434  32.094  32.727  1.00  0.00     0.029 A 
ATOM     42  C   UNL A   1      38.752  31.478  32.824  1.00  0.00     0.049 A 
ATOM     43  H   UNL A   1      39.718  30.334  31.372  1.00  0.00     0.167 HD
ATOM     44  C   UNL A   1      41.556  27.623  28.569  1.00  0.00     0.034 A 
ATOM     45  C   UNL A   1      39.539  31.549  33.917  1.00  0.00     0.034 A 
ATOM     46  C   UNL A   1      42.466  27.638  29.686  1.00  0.00     0.049 A 
ATOM     47  C   UNL A   1      40.821  30.773  33.962  1.00  0.00     0.074 A 
ATOM     48  C   UNL A   1      43.694  27.005  29.800  1.00  0.00     0.029 A 
ATOM     49  N   UNL A   1      42.265  28.328  30.868  1.00  0.00    -0.354 N 
ATOM     50  N   UNL A   1      41.378  30.047  33.027  1.00  0.00    -0.248 NA
ATOM     51  C   UNL A   1      41.577  30.817  35.222  1.00  0.00     0.031 C 
ATOM     52  C   UNL A   1      44.228  27.302  31.058  1.00  0.00     0.029 A 
ATOM     53  C   UNL A   1      43.343  28.138  31.717  1.00  0.00     0.049 A 
ATOM     54  H   UNL A   1      41.472  28.875  31.075  1.00  0.00     0.167 HD
ATOM     55  C   UNL A   1      42.552  29.552  33.581  1.00  0.00     0.074 A 
ATOM     56  C   UNL A   1      42.645  30.090  34.922  1.00  0.00     0.031 C 
ATOM     57  C   UNL A   1      43.458  28.706  33.034  1.00  0.00     0.034 A 
BRANCH  44  58
ATOM     58  C   UNL A   1      41.958  26.803  27.368  1.00  0.00     0.023 A 
ATOM     59  C   UNL A   1      42.657  27.404  26.302  1.00  0.00     0.012 A 
ATOM     60  C   UNL A   1      41.738  25.410  27.351  1.00  0.00     0.148 A 
ATOM     61  C   UNL A   1      43.111  26.634  25.231  1.00  0.00     0.002 A 
ATOM     62  C   UNL A   1      42.232  24.644  26.302  1.00  0.00     0.091 A 
ATOM     63  F   UNL A   1      41.053  24.859  28.364  1.00  0.00    -0.205 F 
ATOM     64  C   UNL A   1      42.911  25.255  25.237  1.00  0.00     0.022 A 
BRANCH  62  65
ATOM     65  S   UNL A   1      42.102  22.851  26.272  1.00  0.00     0.127 S 
ATOM     66  O   UNL A   1      42.801  22.525  25.031  1.00  0.00    -0.237 OA
ATOM     67  O   UNL A   1      42.816  22.468  27.492  1.00  0.00    -0.237 OA
ATOM     68  O   UNL A   1      40.677  22.554  26.289  1.00  0.00    -0.744 OA
ENDBRANCH  62  65
ENDBRANCH  44  58
BRANCH  45  69
ATOM     69  C   UNL A   1      39.086  32.347  35.093  1.00  0.00     0.023 A 
ATOM     70  C   UNL A   1      38.233  31.767  36.050  1.00  0.00     0.012 A 
ATOM     71  C   UNL A   1      39.559  33.658  35.300  1.00  0.00     0.148 A 
ATOM     72  C   UNL A   1      37.859  32.481  37.190  1.00  0.00     0.002 A 
ATOM     73  C   UNL A   1      39.254  34.328  36.476  1.00  0.00     0.091 A 
ATOM     74  F   UNL A   1      40.332  34.213  34.355  1.00  0.00    -0.205 F 
ATOM     75  C   UNL A   1      38.390  33.751  37.415  1.00  0.00     0.022 A 
BRANCH  73  76
ATOM     76  S   UNL A   1      40.063  35.871  36.916  1.00  0.00     0.127 S 
ATOM     77  O   UNL A   1      39.451  36.173  38.206  1.00  0.00    -0.237 OA
ATOM     78  O   UNL A   1      41.471  35.473  36.978  1.00  0.00    -0.237 OA
ATOM     79  O   UNL A   1      39.756  36.791  35.829  1.00  0.00    -0.744 OA
ENDBRANCH  73  76
ENDBRANCH  45  69
BRANCH  57  80
ATOM     80  C   UNL A   1      44.650  28.328  33.869  1.00  0.00     0.023 A 
ATOM     81  C   UNL A   1      45.808  29.132  33.839  1.00  0.00     0.012 A 
ATOM     82  C   UNL A   1      44.610  27.206  34.719  1.00  0.00     0.148 A 
ATOM     83  C   UNL A   1      46.919  28.804  34.614  1.00  0.00     0.002 A 
ATOM     84  C   UNL A   1      45.706  26.909  35.520  1.00  0.00     0.091 A 
ATOM     85  F   UNL A   1      43.507  26.443  34.719  1.00  0.00    -0.205 F 
ATOM     86  C   UNL A   1      46.865  27.699  35.461  1.00  0.00     0.022 A 
BRANCH  84  87
ATOM     87  S   UNL A   1      45.696  25.553  36.698  1.00  0.00     0.127 S 
ATOM     88  O   UNL A   1      45.624  24.391  35.815  1.00  0.00    -0.237 OA
ATOM     89  O   UNL A   1      46.981  25.722  37.380  1.00  0.00    -0.237 OA
ATOM     90  O   UNL A   1      44.531  25.767  37.547  1.00  0.00    -0.744 OA
ENDBRANCH  84  87
ENDBRANCH  57  80
ENDBRANCH  31  32
ENDBRANCH  24  26
ENDBRANCH  23  24
ENDBRANCH  22  23
ENDBRANCH   1  22
TORSDOF 20
ENDMDL
