MODEL 1
REMARK VINA RESULT:     -13.6      0.000      0.000
REMARK SMILES CC(=O)O[C@@H]1CC[C@@]23C(=O)O[C@]4(CC[C@]2(O)C1)[C@H]3CC[C@]1(C)[C@H](C(=O)OCCOC(=O)c2ccc(-c3c5nc(c(-c6cccc(S(=O)(=O)[O-])c6F)c6ccc([nH]6)c(-c6cccc(S(=O)(=O)[O-])c6F)c6nc(c(-c7cccc(S(=O)(=O)[O-])c7F)c7ccc3[nH]7)C=C6)C=C5)cc2)CC[C@@H]14
REMARK SMILES IDX 28 1 27 2 26 3 24 4 25 5 23 6 5 7 6 8 17 9 7 10 15 11 8 12
REMARK SMILES IDX 14 13 9 14 18 15 13 16 10 17 11 18 12 19 19 20 97 21 20 22
REMARK SMILES IDX 21 23 96 24 22 25 95 26 4 27 2 28 1 29 3 30 16 31 29 33
REMARK SMILES IDX 30 34 31 35 32 36 33 37 94 38 34 39 93 40 35 41 36 42 37 43
REMARK SMILES IDX 87 44 38 45 92 46 86 47 88 48 39 49 91 50 85 51 84 52 40 54
REMARK SMILES IDX 72 55 52 56 71 57 53 58 56 59 70 60 89 61 54 62 55 63 69 65
REMARK SMILES IDX 90 66 57 67 41 68 42 69 50 70 43 71 45 72 51 73 44 74 46 75
REMARK SMILES IDX 47 76 48 77 49 78 73 79 74 80 82 81 75 82 77 83 83 84 76 85
REMARK SMILES IDX 78 86 79 87 80 88 81 89 58 90 59 91 67 92 60 93 62 94 68 95
REMARK SMILES IDX 61 96 63 97 64 98 65 99 66 100
REMARK H PARENT 16 32 88 53 56 64
REMARK Flexibility Score: inf
ROOT
ATOM      1  C   UNL A   1      36.173  21.068  25.751  1.00  0.00     0.275 C 
ENDROOT
BRANCH   1   2
ATOM      2  C   UNL A   1      35.325  20.249  24.779  1.00  0.00     0.274 C 
BRANCH   2   3
ATOM      3  O   UNL A   1      33.969  20.178  25.259  1.00  0.00    -0.462 OA
BRANCH   3   4
ATOM      4  C   UNL A   1      33.129  21.088  24.714  1.00  0.00     0.309 C 
ATOM      5  O   UNL A   1      32.794  21.088  23.532  1.00  0.00    -0.252 OA
BRANCH   4   6
ATOM      6  C   UNL A   1      32.486  22.029  25.718  1.00  0.00     0.105 C 
ATOM      7  C   UNL A   1      30.430  28.812  22.484  1.00  0.00     0.179 C 
ATOM      8  C   UNL A   1      30.691  27.381  22.078  1.00  0.00     0.047 C 
ATOM      9  C   UNL A   1      31.683  29.303  23.233  1.00  0.00     0.081 C 
ATOM     10  C   UNL A   1      30.958  26.602  23.346  1.00  0.00     0.026 C 
ATOM     11  C   UNL A   1      32.320  28.370  24.308  1.00  0.00     0.085 C 
ATOM     12  C   UNL A   1      32.584  26.935  23.979  1.00  0.00     0.103 C 
ATOM     13  C   UNL A   1      31.403  28.219  25.608  1.00  0.00     0.041 C 
ATOM     14  C   UNL A   1      32.916  25.687  23.348  1.00  0.00     0.316 C 
ATOM     15  C   UNL A   1      33.283  26.307  25.416  1.00  0.00     0.054 C 
ATOM     16  C   UNL A   1      31.130  26.690  26.127  1.00  0.00     0.052 C 
ATOM     17  O   UNL A   1      33.476  25.393  22.307  1.00  0.00    -0.251 OA
ATOM     18  O   UNL A   1      32.222  24.859  24.255  1.00  0.00    -0.458 OA
ATOM     19  C   UNL A   1      32.092  25.497  25.608  1.00  0.00     0.120 C 
ATOM     20  C   UNL A   1      34.560  25.418  25.524  1.00  0.00     0.009 C 
ATOM     21  C   UNL A   1      31.980  24.301  26.515  1.00  0.00     0.040 C 
ATOM     22  C   UNL A   1      34.362  23.876  25.516  1.00  0.00     0.008 C 
ATOM     23  C   UNL A   1      33.163  23.301  26.337  1.00  0.00    -0.013 C 
ATOM     24  C   UNL A   1      30.692  23.538  26.112  1.00  0.00     0.009 C 
ATOM     25  C   UNL A   1      33.642  22.953  27.768  1.00  0.00     0.013 C 
ATOM     26  C   UNL A   1      31.144  22.474  25.138  1.00  0.00     0.016 C 
BRANCH   7  27
ATOM     27  O   UNL A   1      29.271  28.935  23.349  1.00  0.00    -0.462 OA
BRANCH  27  28
ATOM     28  C   UNL A   1      28.093  29.330  22.784  1.00  0.00     0.302 C 
ATOM     29  C   UNL A   1      28.332  30.254  21.625  1.00  0.00     0.139 C 
ATOM     30  O   UNL A   1      26.979  28.959  23.127  1.00  0.00    -0.253 OA
ENDBRANCH  27  28
ENDBRANCH   7  27
BRANCH  11  31
ATOM     31  O   UNL A   1      33.566  29.008  24.630  1.00  0.00    -0.389 OA
ATOM     32  H   UNL A   1      34.257  28.694  24.026  1.00  0.00     0.211 HD
ENDBRANCH  11  31
ENDBRANCH   4   6
ENDBRANCH   3   4
ENDBRANCH   2   3
ENDBRANCH   1   2
BRANCH   1  33
ATOM     33  O   UNL A   1      37.361  21.568  25.103  1.00  0.00    -0.458 OA
BRANCH  33  34
ATOM     34  C   UNL A   1      38.514  21.260  25.739  1.00  0.00     0.338 C 
ATOM     35  O   UNL A   1      39.067  20.172  25.775  1.00  0.00    -0.246 OA
BRANCH  34  36
ATOM     36  C   UNL A   1      39.086  22.433  26.412  1.00  0.00     0.060 A 
ATOM     37  C   UNL A   1      38.607  23.709  26.125  1.00  0.00     0.016 A 
ATOM     38  C   UNL A   1      40.246  22.274  27.165  1.00  0.00     0.016 A 
ATOM     39  C   UNL A   1      39.366  24.827  26.454  1.00  0.00     0.010 A 
ATOM     40  C   UNL A   1      40.923  23.405  27.627  1.00  0.00     0.010 A 
ATOM     41  C   UNL A   1      40.515  24.694  27.240  1.00  0.00    -0.014 A 
BRANCH  41  42
ATOM     42  C   UNL A   1      41.265  25.894  27.702  1.00  0.00     0.031 A 
ATOM     43  C   UNL A   1      40.578  26.963  28.510  1.00  0.00     0.074 A 
ATOM     44  C   UNL A   1      42.553  26.050  27.335  1.00  0.00     0.049 A 
ATOM     45  N   UNL A   1      41.006  28.156  28.834  1.00  0.00    -0.248 NA
ATOM     46  C   UNL A   1      39.223  26.661  29.004  1.00  0.00     0.031 C 
ATOM     47  C   UNL A   1      43.337  25.088  26.554  1.00  0.00     0.029 A 
ATOM     48  N   UNL A   1      43.425  27.090  27.541  1.00  0.00    -0.354 N 
ATOM     49  C   UNL A   1      39.956  28.770  29.506  1.00  0.00     0.074 A 
ATOM     50  C   UNL A   1      38.868  27.816  29.549  1.00  0.00     0.031 C 
ATOM     51  C   UNL A   1      44.566  25.578  26.348  1.00  0.00     0.029 A 
ATOM     52  C   UNL A   1      44.634  26.921  26.904  1.00  0.00     0.049 A 
ATOM     53  H   UNL A   1      43.208  27.878  28.091  1.00  0.00     0.167 HD
ATOM     54  C   UNL A   1      39.905  30.015  30.041  1.00  0.00     0.034 A 
ATOM     55  C   UNL A   1      45.664  27.770  26.731  1.00  0.00     0.034 A 
ATOM     56  C   UNL A   1      41.007  30.941  30.028  1.00  0.00     0.049 A 
ATOM     57  C   UNL A   1      45.575  29.147  27.321  1.00  0.00     0.074 A 
ATOM     58  C   UNL A   1      41.076  32.204  30.589  1.00  0.00     0.029 A 
ATOM     59  N   UNL A   1      42.230  30.709  29.417  1.00  0.00    -0.354 N 
ATOM     60  N   UNL A   1      44.604  29.684  28.020  1.00  0.00    -0.248 NA
ATOM     61  C   UNL A   1      46.732  30.030  27.118  1.00  0.00     0.031 C 
ATOM     62  C   UNL A   1      42.328  32.749  30.288  1.00  0.00     0.029 A 
ATOM     63  C   UNL A   1      43.056  31.809  29.576  1.00  0.00     0.049 A 
ATOM     64  H   UNL A   1      42.476  29.883  28.940  1.00  0.00     0.167 HD
ATOM     65  C   UNL A   1      45.046  30.953  28.370  1.00  0.00     0.074 A 
ATOM     66  C   UNL A   1      46.380  31.096  27.823  1.00  0.00     0.031 C 
ATOM     67  C   UNL A   1      44.400  31.918  29.069  1.00  0.00     0.034 A 
BRANCH  54  68
ATOM     68  C   UNL A   1      38.617  30.451  30.694  1.00  0.00     0.023 A 
ATOM     69  C   UNL A   1      38.410  30.221  32.070  1.00  0.00     0.012 A 
ATOM     70  C   UNL A   1      37.636  31.145  29.957  1.00  0.00     0.148 A 
ATOM     71  C   UNL A   1      37.234  30.641  32.691  1.00  0.00     0.002 A 
ATOM     72  C   UNL A   1      36.487  31.601  30.593  1.00  0.00     0.091 A 
ATOM     73  F   UNL A   1      37.841  31.340  28.646  1.00  0.00    -0.205 F 
ATOM     74  C   UNL A   1      36.279  31.338  31.956  1.00  0.00     0.022 A 
BRANCH  72  75
ATOM     75  S   UNL A   1      35.235  32.580  29.754  1.00  0.00     0.127 S 
ATOM     76  O   UNL A   1      34.747  31.634  28.751  1.00  0.00    -0.237 OA
ATOM     77  O   UNL A   1      34.291  32.862  30.837  1.00  0.00    -0.237 OA
ATOM     78  O   UNL A   1      35.923  33.748  29.226  1.00  0.00    -0.744 OA
ENDBRANCH  72  75
ENDBRANCH  54  68
BRANCH  55  79
ATOM     79  C   UNL A   1      46.868  27.333  25.971  1.00  0.00     0.023 A 
ATOM     80  C   UNL A   1      46.944  27.589  24.588  1.00  0.00     0.012 A 
ATOM     81  C   UNL A   1      47.949  26.695  26.612  1.00  0.00     0.148 A 
ATOM     82  C   UNL A   1      48.060  27.191  23.853  1.00  0.00     0.002 A 
ATOM     83  C   UNL A   1      49.083  26.355  25.885  1.00  0.00     0.091 A 
ATOM     84  F   UNL A   1      47.854  26.452  27.927  1.00  0.00    -0.205 F 
ATOM     85  C   UNL A   1      49.132  26.584  24.502  1.00  0.00     0.022 A 
BRANCH  83  86
ATOM     86  S   UNL A   1      50.563  25.692  26.657  1.00  0.00     0.127 S 
ATOM     87  O   UNL A   1      50.896  26.743  27.615  1.00  0.00    -0.237 OA
ATOM     88  O   UNL A   1      50.061  24.453  27.251  1.00  0.00    -0.237 OA
ATOM     89  O   UNL A   1      51.518  25.496  25.576  1.00  0.00    -0.744 OA
ENDBRANCH  83  86
ENDBRANCH  55  79
BRANCH  67  90
ATOM     90  C   UNL A   1      45.146  33.199  29.334  1.00  0.00     0.023 A 
ATOM     91  C   UNL A   1      45.949  33.325  30.486  1.00  0.00     0.012 A 
ATOM     92  C   UNL A   1      45.101  34.255  28.403  1.00  0.00     0.148 A 
ATOM     93  C   UNL A   1      46.664  34.498  30.724  1.00  0.00     0.002 A 
ATOM     94  C   UNL A   1      45.859  35.397  28.620  1.00  0.00     0.091 A 
ATOM     95  F   UNL A   1      44.316  34.122  27.324  1.00  0.00    -0.205 F 
ATOM     96  C   UNL A   1      46.629  35.528  29.786  1.00  0.00     0.022 A 
BRANCH  94  97
ATOM     97  S   UNL A   1      45.955  36.731  27.420  1.00  0.00     0.127 S 
ATOM     98  O   UNL A   1      44.563  37.174  27.354  1.00  0.00    -0.237 OA
ATOM     99  O   UNL A   1      46.865  37.670  28.075  1.00  0.00    -0.237 OA
ATOM    100  O   UNL A   1      46.477  36.136  26.197  1.00  0.00    -0.744 OA
ENDBRANCH  94  97
ENDBRANCH  67  90
ENDBRANCH  41  42
ENDBRANCH  34  36
ENDBRANCH  33  34
ENDBRANCH   1  33
TORSDOF 17
ENDMDL
MODEL 2
REMARK VINA RESULT:     -13.6      4.560      9.899
REMARK SMILES CC(=O)O[C@@H]1CC[C@@]23C(=O)O[C@]4(CC[C@]2(O)C1)[C@H]3CC[C@]1(C)[C@H](C(=O)OCCOC(=O)c2ccc(-c3c5nc(c(-c6cccc(S(=O)(=O)[O-])c6F)c6ccc([nH]6)c(-c6cccc(S(=O)(=O)[O-])c6F)c6nc(c(-c7cccc(S(=O)(=O)[O-])c7F)c7ccc3[nH]7)C=C6)C=C5)cc2)CC[C@@H]14
REMARK SMILES IDX 28 1 27 2 26 3 24 4 25 5 23 6 5 7 6 8 17 9 7 10 15 11 8 12
REMARK SMILES IDX 14 13 9 14 18 15 13 16 10 17 11 18 12 19 19 20 97 21 20 22
REMARK SMILES IDX 21 23 96 24 22 25 95 26 4 27 2 28 1 29 3 30 16 31 29 33
REMARK SMILES IDX 30 34 31 35 32 36 33 37 94 38 34 39 93 40 35 41 36 42 37 43
REMARK SMILES IDX 87 44 38 45 92 46 86 47 88 48 39 49 91 50 85 51 84 52 40 54
REMARK SMILES IDX 72 55 52 56 71 57 53 58 56 59 70 60 89 61 54 62 55 63 69 65
REMARK SMILES IDX 90 66 57 67 41 68 42 69 50 70 43 71 45 72 51 73 44 74 46 75
REMARK SMILES IDX 47 76 48 77 49 78 73 79 74 80 82 81 75 82 77 83 83 84 76 85
REMARK SMILES IDX 78 86 79 87 80 88 81 89 58 90 59 91 67 92 60 93 62 94 68 95
REMARK SMILES IDX 61 96 63 97 64 98 65 99 66 100
REMARK H PARENT 16 32 88 53 56 64
REMARK Flexibility Score: inf
ROOT
ATOM      1  C   UNL A   1      31.257  30.697  25.892  1.00  0.00     0.275 C 
ENDROOT
BRANCH   1   2
ATOM      2  C   UNL A   1      30.954  30.116  24.512  1.00  0.00     0.274 C 
BRANCH   2   3
ATOM      3  O   UNL A   1      30.714  28.700  24.624  1.00  0.00    -0.462 OA
BRANCH   3   4
ATOM      4  C   UNL A   1      30.525  28.065  23.444  1.00  0.00     0.309 C 
ATOM      5  O   UNL A   1      29.468  28.083  22.819  1.00  0.00    -0.252 OA
BRANCH   4   6
ATOM      6  C   UNL A   1      31.784  27.456  22.851  1.00  0.00     0.105 C 
ATOM      7  C   UNL A   1      33.176  20.312  25.630  1.00  0.00     0.179 C 
ATOM      8  C   UNL A   1      32.017  21.261  25.437  1.00  0.00     0.047 C 
ATOM      9  C   UNL A   1      34.247  21.068  26.439  1.00  0.00     0.081 C 
ATOM     10  C   UNL A   1      32.553  22.473  24.708  1.00  0.00     0.026 C 
ATOM     11  C   UNL A   1      34.595  22.532  26.025  1.00  0.00     0.085 C 
ATOM     12  C   UNL A   1      33.494  23.517  25.795  1.00  0.00     0.103 C 
ATOM     13  C   UNL A   1      35.365  22.605  24.627  1.00  0.00     0.041 C 
ATOM     14  C   UNL A   1      32.286  24.294  25.840  1.00  0.00     0.316 C 
ATOM     15  C   UNL A   1      34.319  24.964  25.381  1.00  0.00     0.054 C 
ATOM     16  C   UNL A   1      34.778  23.674  23.534  1.00  0.00     0.052 C 
ATOM     17  O   UNL A   1      31.386  24.405  26.654  1.00  0.00    -0.251 OA
ATOM     18  O   UNL A   1      32.367  24.795  24.525  1.00  0.00    -0.458 OA
ATOM     19  C   UNL A   1      33.785  24.850  24.033  1.00  0.00     0.120 C 
ATOM     20  C   UNL A   1      34.045  26.392  25.946  1.00  0.00     0.009 C 
ATOM     21  C   UNL A   1      33.728  25.956  23.015  1.00  0.00     0.040 C 
ATOM     22  C   UNL A   1      33.056  27.297  25.160  1.00  0.00     0.008 C 
ATOM     23  C   UNL A   1      33.150  27.281  23.600  1.00  0.00    -0.013 C 
ATOM     24  C   UNL A   1      32.750  25.503  21.899  1.00  0.00     0.009 C 
ATOM     25  C   UNL A   1      34.112  28.403  23.135  1.00  0.00     0.013 C 
ATOM     26  C   UNL A   1      31.409  26.089  22.280  1.00  0.00     0.016 C 
BRANCH   7  27
ATOM     27  O   UNL A   1      33.743  19.873  24.369  1.00  0.00    -0.462 OA
BRANCH  27  28
ATOM     28  C   UNL A   1      33.689  18.541  24.074  1.00  0.00     0.302 C 
ATOM     29  C   UNL A   1      32.470  18.218  23.261  1.00  0.00     0.139 C 
ATOM     30  O   UNL A   1      34.532  17.710  24.379  1.00  0.00    -0.253 OA
ENDBRANCH  27  28
ENDBRANCH   7  27
BRANCH  11  31
ATOM     31  O   UNL A   1      35.427  23.008  27.095  1.00  0.00    -0.389 OA
ATOM     32  H   UNL A   1      35.273  23.957  27.227  1.00  0.00     0.211 HD
ENDBRANCH  11  31
ENDBRANCH   4   6
ENDBRANCH   3   4
ENDBRANCH   2   3
ENDBRANCH   1   2
BRANCH   1  33
ATOM     33  O   UNL A   1      32.650  30.533  26.227  1.00  0.00    -0.458 OA
BRANCH  33  34
ATOM     34  C   UNL A   1      33.144  31.489  27.045  1.00  0.00     0.338 C 
ATOM     35  O   UNL A   1      32.585  32.515  27.400  1.00  0.00    -0.246 OA
BRANCH  34  36
ATOM     36  C   UNL A   1      34.496  31.154  27.509  1.00  0.00     0.060 A 
ATOM     37  C   UNL A   1      34.812  29.843  27.858  1.00  0.00     0.016 A 
ATOM     38  C   UNL A   1      35.380  32.188  27.803  1.00  0.00     0.016 A 
ATOM     39  C   UNL A   1      35.935  29.581  28.636  1.00  0.00     0.010 A 
ATOM     40  C   UNL A   1      36.583  31.899  28.449  1.00  0.00     0.010 A 
ATOM     41  C   UNL A   1      36.855  30.599  28.912  1.00  0.00    -0.014 A 
BRANCH  41  42
ATOM     42  C   UNL A   1      38.121  30.304  29.637  1.00  0.00     0.031 A 
ATOM     43  C   UNL A   1      39.148  29.378  29.041  1.00  0.00     0.074 A 
ATOM     44  C   UNL A   1      38.314  30.823  30.867  1.00  0.00     0.049 A 
ATOM     45  N   UNL A   1      40.209  28.854  29.599  1.00  0.00    -0.248 NA
ATOM     46  C   UNL A   1      38.947  28.970  27.640  1.00  0.00     0.031 C 
ATOM     47  C   UNL A   1      37.398  31.736  31.558  1.00  0.00     0.029 A 
ATOM     48  N   UNL A   1      39.330  30.634  31.771  1.00  0.00    -0.354 N 
ATOM     49  C   UNL A   1      40.763  28.006  28.647  1.00  0.00     0.074 A 
ATOM     50  C   UNL A   1      39.922  28.087  27.471  1.00  0.00     0.031 C 
ATOM     51  C   UNL A   1      37.888  32.026  32.769  1.00  0.00     0.029 A 
ATOM     52  C   UNL A   1      39.107  31.257  32.979  1.00  0.00     0.049 A 
ATOM     53  H   UNL A   1      40.138  30.106  31.575  1.00  0.00     0.167 HD
ATOM     54  C   UNL A   1      41.872  27.233  28.744  1.00  0.00     0.034 A 
ATOM     55  C   UNL A   1      39.770  31.176  34.146  1.00  0.00     0.034 A 
ATOM     56  C   UNL A   1      42.723  27.190  29.904  1.00  0.00     0.049 A 
ATOM     57  C   UNL A   1      40.986  30.301  34.231  1.00  0.00     0.074 A 
ATOM     58  C   UNL A   1      43.898  26.483  30.082  1.00  0.00     0.029 A 
ATOM     59  N   UNL A   1      42.488  27.877  31.085  1.00  0.00    -0.354 N 
ATOM     60  N   UNL A   1      41.539  29.566  33.296  1.00  0.00    -0.248 NA
ATOM     61  C   UNL A   1      41.684  30.260  35.522  1.00  0.00     0.031 C 
ATOM     62  C   UNL A   1      44.356  26.715  31.384  1.00  0.00     0.029 A 
ATOM     63  C   UNL A   1      43.488  27.601  32.002  1.00  0.00     0.049 A 
ATOM     64  H   UNL A   1      41.722  28.474  31.249  1.00  0.00     0.167 HD
ATOM     65  C   UNL A   1      42.669  29.002  33.876  1.00  0.00     0.074 A 
ATOM     66  C   UNL A   1      42.731  29.499  35.235  1.00  0.00     0.031 C 
ATOM     67  C   UNL A   1      43.565  28.141  33.335  1.00  0.00     0.034 A 
BRANCH  54  68
ATOM     68  C   UNL A   1      42.238  26.371  27.561  1.00  0.00     0.023 A 
ATOM     69  C   UNL A   1      43.028  26.899  26.520  1.00  0.00     0.012 A 
ATOM     70  C   UNL A   1      41.849  25.016  27.511  1.00  0.00     0.148 A 
ATOM     71  C   UNL A   1      43.393  26.106  25.433  1.00  0.00     0.002 A 
ATOM     72  C   UNL A   1      42.256  24.220  26.447  1.00  0.00     0.091 A 
ATOM     73  F   UNL A   1      41.083  24.535  28.500  1.00  0.00    -0.205 F 
ATOM     74  C   UNL A   1      43.017  24.766  25.401  1.00  0.00     0.022 A 
BRANCH  72  75
ATOM     75  S   UNL A   1      41.892  22.463  26.354  1.00  0.00     0.127 S 
ATOM     76  O   UNL A   1      42.582  22.084  25.121  1.00  0.00    -0.237 OA
ATOM     77  O   UNL A   1      42.512  21.956  27.579  1.00  0.00    -0.237 OA
ATOM     78  O   UNL A   1      40.442  22.353  26.315  1.00  0.00    -0.744 OA
ENDBRANCH  72  75
ENDBRANCH  54  68
BRANCH  55  79
ATOM     79  C   UNL A   1      39.297  31.955  35.325  1.00  0.00     0.023 A 
ATOM     80  C   UNL A   1      38.412  31.353  36.241  1.00  0.00     0.012 A 
ATOM     81  C   UNL A   1      39.742  33.271  35.562  1.00  0.00     0.148 A 
ATOM     82  C   UNL A   1      37.954  32.059  37.354  1.00  0.00     0.002 A 
ATOM     83  C   UNL A   1      39.329  33.947  36.704  1.00  0.00     0.091 A 
ATOM     84  F   UNL A   1      40.577  33.828  34.674  1.00  0.00    -0.205 F 
ATOM     85  C   UNL A   1      38.420  33.351  37.590  1.00  0.00     0.022 A 
BRANCH  83  86
ATOM     86  S   UNL A   1      39.978  35.559  37.159  1.00  0.00     0.127 S 
ATOM     87  O   UNL A   1      39.276  35.820  38.412  1.00  0.00    -0.237 OA
ATOM     88  O   UNL A   1      41.407  35.278  37.299  1.00  0.00    -0.237 OA
ATOM     89  O   UNL A   1      39.646  36.445  36.051  1.00  0.00    -0.744 OA
ENDBRANCH  83  86
ENDBRANCH  55  79
BRANCH  67  90
ATOM     90  C   UNL A   1      44.726  27.720  34.196  1.00  0.00     0.023 A 
ATOM     91  C   UNL A   1      45.900  28.500  34.232  1.00  0.00     0.012 A 
ATOM     92  C   UNL A   1      44.626  26.581  35.019  1.00  0.00     0.148 A 
ATOM     93  C   UNL A   1      46.969  28.130  35.047  1.00  0.00     0.002 A 
ATOM     94  C   UNL A   1      45.673  26.251  35.868  1.00  0.00     0.091 A 
ATOM     95  F   UNL A   1      43.508  25.842  34.954  1.00  0.00    -0.205 F 
ATOM     96  C   UNL A   1      46.851  27.015  35.874  1.00  0.00     0.022 A 
BRANCH  94  97
ATOM     97  S   UNL A   1      45.571  24.893  37.040  1.00  0.00     0.127 S 
ATOM     98  O   UNL A   1      45.700  23.731  36.161  1.00  0.00    -0.237 OA
ATOM     99  O   UNL A   1      46.728  25.140  37.900  1.00  0.00    -0.237 OA
ATOM    100  O   UNL A   1      44.282  25.030  37.705  1.00  0.00    -0.744 OA
ENDBRANCH  94  97
ENDBRANCH  67  90
ENDBRANCH  41  42
ENDBRANCH  34  36
ENDBRANCH  33  34
ENDBRANCH   1  33
TORSDOF 17
ENDMDL
MODEL 3
REMARK VINA RESULT:     -13.0      1.800      2.093
REMARK SMILES CC(=O)O[C@@H]1CC[C@@]23C(=O)O[C@]4(CC[C@]2(O)C1)[C@H]3CC[C@]1(C)[C@H](C(=O)OCCOC(=O)c2ccc(-c3c5nc(c(-c6cccc(S(=O)(=O)[O-])c6F)c6ccc([nH]6)c(-c6cccc(S(=O)(=O)[O-])c6F)c6nc(c(-c7cccc(S(=O)(=O)[O-])c7F)c7ccc3[nH]7)C=C6)C=C5)cc2)CC[C@@H]14
REMARK SMILES IDX 28 1 27 2 26 3 24 4 25 5 23 6 5 7 6 8 17 9 7 10 15 11 8 12
REMARK SMILES IDX 14 13 9 14 18 15 13 16 10 17 11 18 12 19 19 20 97 21 20 22
REMARK SMILES IDX 21 23 96 24 22 25 95 26 4 27 2 28 1 29 3 30 16 31 29 33
REMARK SMILES IDX 30 34 31 35 32 36 33 37 94 38 34 39 93 40 35 41 36 42 37 43
REMARK SMILES IDX 87 44 38 45 92 46 86 47 88 48 39 49 91 50 85 51 84 52 40 54
REMARK SMILES IDX 72 55 52 56 71 57 53 58 56 59 70 60 89 61 54 62 55 63 69 65
REMARK SMILES IDX 90 66 57 67 41 68 42 69 50 70 43 71 45 72 51 73 44 74 46 75
REMARK SMILES IDX 47 76 48 77 49 78 73 79 74 80 82 81 75 82 77 83 83 84 76 85
REMARK SMILES IDX 78 86 79 87 80 88 81 89 58 90 59 91 67 92 60 93 62 94 68 95
REMARK SMILES IDX 61 96 63 97 64 98 65 99 66 100
REMARK H PARENT 16 32 88 53 56 64
REMARK Flexibility Score: inf
ROOT
ATOM      1  C   UNL A   1      36.135  21.075  25.841  1.00  0.00     0.275 C 
ENDROOT
BRANCH   1   2
ATOM      2  C   UNL A   1      35.314  20.107  24.992  1.00  0.00     0.274 C 
BRANCH   2   3
ATOM      3  O   UNL A   1      33.951  20.088  25.458  1.00  0.00    -0.462 OA
BRANCH   3   4
ATOM      4  C   UNL A   1      33.134  20.977  24.849  1.00  0.00     0.309 C 
ATOM      5  O   UNL A   1      32.845  20.935  23.655  1.00  0.00    -0.252 OA
BRANCH   4   6
ATOM      6  C   UNL A   1      32.454  21.952  25.793  1.00  0.00     0.105 C 
ATOM      7  C   UNL A   1      30.829  28.740  22.332  1.00  0.00     0.179 C 
ATOM      8  C   UNL A   1      31.074  27.296  21.964  1.00  0.00     0.047 C 
ATOM      9  C   UNL A   1      32.043  29.206  23.157  1.00  0.00     0.081 C 
ATOM     10  C   UNL A   1      31.230  26.529  23.258  1.00  0.00     0.026 C 
ATOM     11  C   UNL A   1      32.577  28.272  24.286  1.00  0.00     0.085 C 
ATOM     12  C   UNL A   1      32.819  26.825  23.997  1.00  0.00     0.103 C 
ATOM     13  C   UNL A   1      31.569  28.169  25.522  1.00  0.00     0.041 C 
ATOM     14  C   UNL A   1      33.155  25.558  23.408  1.00  0.00     0.316 C 
ATOM     15  C   UNL A   1      33.399  26.200  25.486  1.00  0.00     0.054 C 
ATOM     16  C   UNL A   1      31.216  26.658  26.043  1.00  0.00     0.052 C 
ATOM     17  O   UNL A   1      33.775  25.231  22.411  1.00  0.00    -0.251 OA
ATOM     18  O   UNL A   1      32.376  24.765  24.276  1.00  0.00    -0.458 OA
ATOM     19  C   UNL A   1      32.174  25.428  25.608  1.00  0.00     0.120 C 
ATOM     20  C   UNL A   1      34.638  25.275  25.694  1.00  0.00     0.009 C 
ATOM     21  C   UNL A   1      31.964  24.251  26.522  1.00  0.00     0.040 C 
ATOM     22  C   UNL A   1      34.394  23.740  25.694  1.00  0.00     0.008 C 
ATOM     23  C   UNL A   1      33.125  23.213  26.439  1.00  0.00    -0.013 C 
ATOM     24  C   UNL A   1      30.683  23.519  26.042  1.00  0.00     0.009 C 
ATOM     25  C   UNL A   1      33.495  22.875  27.904  1.00  0.00     0.013 C 
ATOM     26  C   UNL A   1      31.168  22.427  25.117  1.00  0.00     0.016 C 
BRANCH   7  27
ATOM     27  O   UNL A   1      29.619  28.911  23.113  1.00  0.00    -0.462 OA
BRANCH  27  28
ATOM     28  C   UNL A   1      28.641  29.719  22.607  1.00  0.00     0.302 C 
ATOM     29  C   UNL A   1      28.200  30.732  23.623  1.00  0.00     0.139 C 
ATOM     30  O   UNL A   1      28.199  29.675  21.468  1.00  0.00    -0.253 OA
ENDBRANCH  27  28
ENDBRANCH   7  27
BRANCH  11  31
ATOM     31  O   UNL A   1      33.817  28.879  24.684  1.00  0.00    -0.389 OA
ATOM     32  H   UNL A   1      33.922  29.729  24.229  1.00  0.00     0.211 HD
ENDBRANCH  11  31
ENDBRANCH   4   6
ENDBRANCH   3   4
ENDBRANCH   2   3
ENDBRANCH   1   2
BRANCH   1  33
ATOM     33  O   UNL A   1      37.259  21.589  25.098  1.00  0.00    -0.458 OA
BRANCH  33  34
ATOM     34  C   UNL A   1      38.465  21.280  25.626  1.00  0.00     0.338 C 
ATOM     35  O   UNL A   1      39.058  20.216  25.537  1.00  0.00    -0.246 OA
BRANCH  34  36
ATOM     36  C   UNL A   1      39.043  22.419  26.350  1.00  0.00     0.060 A 
ATOM     37  C   UNL A   1      38.591  23.713  26.095  1.00  0.00     0.016 A 
ATOM     38  C   UNL A   1      40.183  22.216  27.121  1.00  0.00     0.016 A 
ATOM     39  C   UNL A   1      39.362  24.806  26.477  1.00  0.00     0.010 A 
ATOM     40  C   UNL A   1      40.869  23.318  27.635  1.00  0.00     0.010 A 
ATOM     41  C   UNL A   1      40.492  24.627  27.283  1.00  0.00    -0.014 A 
BRANCH  41  42
ATOM     42  C   UNL A   1      41.252  25.797  27.800  1.00  0.00     0.031 A 
ATOM     43  C   UNL A   1      40.562  26.861  28.613  1.00  0.00     0.074 A 
ATOM     44  C   UNL A   1      42.555  25.933  27.479  1.00  0.00     0.049 A 
ATOM     45  N   UNL A   1      41.005  28.035  28.982  1.00  0.00    -0.248 NA
ATOM     46  C   UNL A   1      39.184  26.577  29.054  1.00  0.00     0.031 C 
ATOM     47  C   UNL A   1      43.342  24.974  26.699  1.00  0.00     0.029 A 
ATOM     48  N   UNL A   1      43.441  26.948  27.741  1.00  0.00    -0.354 N 
ATOM     49  C   UNL A   1      39.946  28.656  29.635  1.00  0.00     0.074 A 
ATOM     50  C   UNL A   1      38.837  27.726  29.617  1.00  0.00     0.031 C 
ATOM     51  C   UNL A   1      44.588  25.441  26.546  1.00  0.00     0.029 A 
ATOM     52  C   UNL A   1      44.667  26.768  27.139  1.00  0.00     0.049 A 
ATOM     53  H   UNL A   1      43.224  27.726  28.304  1.00  0.00     0.167 HD
ATOM     54  C   UNL A   1      39.905  29.887  30.199  1.00  0.00     0.034 A 
ATOM     55  C   UNL A   1      45.720  27.597  27.023  1.00  0.00     0.034 A 
ATOM     56  C   UNL A   1      41.027  30.788  30.247  1.00  0.00     0.049 A 
ATOM     57  C   UNL A   1      45.642  28.961  27.644  1.00  0.00     0.074 A 
ATOM     58  C   UNL A   1      41.104  32.034  30.843  1.00  0.00     0.029 A 
ATOM     59  N   UNL A   1      42.264  30.544  29.670  1.00  0.00    -0.354 N 
ATOM     60  N   UNL A   1      44.660  29.501  28.325  1.00  0.00    -0.248 NA
ATOM     61  C   UNL A   1      46.823  29.822  27.502  1.00  0.00     0.031 C 
ATOM     62  C   UNL A   1      42.377  32.559  30.597  1.00  0.00     0.029 A 
ATOM     63  C   UNL A   1      43.108  31.621  29.885  1.00  0.00     0.049 A 
ATOM     64  H   UNL A   1      42.507  29.725  29.180  1.00  0.00     0.167 HD
ATOM     65  C   UNL A   1      45.118  30.751  28.723  1.00  0.00     0.074 A 
ATOM     66  C   UNL A   1      46.472  30.877  28.224  1.00  0.00     0.031 C 
ATOM     67  C   UNL A   1      44.470  31.712  29.425  1.00  0.00     0.034 A 
BRANCH  54  68
ATOM     68  C   UNL A   1      38.606  30.336  30.822  1.00  0.00     0.023 A 
ATOM     69  C   UNL A   1      38.389  30.164  32.204  1.00  0.00     0.012 A 
ATOM     70  C   UNL A   1      37.624  30.985  30.046  1.00  0.00     0.148 A 
ATOM     71  C   UNL A   1      37.202  30.595  32.796  1.00  0.00     0.002 A 
ATOM     72  C   UNL A   1      36.464  31.455  30.652  1.00  0.00     0.091 A 
ATOM     73  F   UNL A   1      37.839  31.126  28.730  1.00  0.00    -0.205 F 
ATOM     74  C   UNL A   1      36.245  31.248  32.023  1.00  0.00     0.022 A 
BRANCH  72  75
ATOM     75  S   UNL A   1      35.209  32.381  29.760  1.00  0.00     0.127 S 
ATOM     76  O   UNL A   1      36.010  33.426  29.124  1.00  0.00    -0.237 OA
ATOM     77  O   UNL A   1      34.681  31.372  28.839  1.00  0.00    -0.237 OA
ATOM     78  O   UNL A   1      34.262  32.845  30.762  1.00  0.00    -0.744 OA
ENDBRANCH  72  75
ENDBRANCH  54  68
BRANCH  55  79
ATOM     79  C   UNL A   1      46.939  27.152  26.291  1.00  0.00     0.023 A 
ATOM     80  C   UNL A   1      47.849  26.284  26.926  1.00  0.00     0.012 A 
ATOM     81  C   UNL A   1      47.186  27.556  24.963  1.00  0.00     0.148 A 
ATOM     82  C   UNL A   1      48.997  25.851  26.263  1.00  0.00     0.002 A 
ATOM     83  C   UNL A   1      48.301  27.073  24.288  1.00  0.00     0.091 A 
ATOM     84  F   UNL A   1      46.313  28.388  24.379  1.00  0.00    -0.205 F 
ATOM     85  C   UNL A   1      49.218  26.237  24.943  1.00  0.00     0.022 A 
BRANCH  83  86
ATOM     86  S   UNL A   1      48.597  27.408  22.549  1.00  0.00     0.127 S 
ATOM     87  O   UNL A   1      49.955  27.944  22.574  1.00  0.00    -0.237 OA
ATOM     88  O   UNL A   1      48.471  26.074  21.961  1.00  0.00    -0.237 OA
ATOM     89  O   UNL A   1      47.556  28.343  22.145  1.00  0.00    -0.744 OA
ENDBRANCH  83  86
ENDBRANCH  55  79
BRANCH  67  90
ATOM     90  C   UNL A   1      45.235  32.968  29.748  1.00  0.00     0.023 A 
ATOM     91  C   UNL A   1      45.181  34.074  28.875  1.00  0.00     0.012 A 
ATOM     92  C   UNL A   1      45.957  33.073  30.953  1.00  0.00     0.148 A 
ATOM     93  C   UNL A   1      45.865  35.250  29.180  1.00  0.00     0.002 A 
ATOM     94  C   UNL A   1      46.590  34.266  31.275  1.00  0.00     0.091 A 
ATOM     95  F   UNL A   1      46.012  32.003  31.760  1.00  0.00    -0.205 F 
ATOM     96  C   UNL A   1      46.558  35.350  30.385  1.00  0.00     0.022 A 
BRANCH  94  97
ATOM     97  S   UNL A   1      47.420  34.520  32.848  1.00  0.00     0.127 S 
ATOM     98  O   UNL A   1      46.311  34.399  33.793  1.00  0.00    -0.237 OA
ATOM     99  O   UNL A   1      48.372  33.411  32.878  1.00  0.00    -0.237 OA
ATOM    100  O   UNL A   1      48.031  35.841  32.772  1.00  0.00    -0.744 OA
ENDBRANCH  94  97
ENDBRANCH  67  90
ENDBRANCH  41  42
ENDBRANCH  34  36
ENDBRANCH  33  34
ENDBRANCH   1  33
TORSDOF 17
ENDMDL
