MODEL 1
REMARK VINA RESULT:     -12.9      0.000      0.000
REMARK SMILES Cc1c(C(=O)OCCOC(=O)c2ccc(-c3c4nc(c(-c5cccc(S(=O)(=O)[O-])c5F)c5ccc([nH]5)c(-c5cccc(S(=O)(=O)[O-])c5F)c5nc(c(-c6cccc(S(=O)(=O)[O-])c6F)c6ccc3[nH]6)C=C5)C=C4)cc2)oc2c1/C(=N/NC(=O)C(c1ccccc1)c1ccccc1)CCC2
REMARK SMILES IDX 7 1 6 2 4 3 5 4 3 5 1 6 2 7 77 8 75 9 76 10 78 11 98 12
REMARK SMILES IDX 79 13 96 14 97 15 80 16 81 17 82 19 83 20 84 21 85 22 89 23
REMARK SMILES IDX 86 24 88 25 87 26 90 27 91 28 95 29 92 30 94 31 93 32 8 33
REMARK SMILES IDX 9 34 10 35 11 36 12 37 13 38 74 39 14 40 73 41 15 42 16 43
REMARK SMILES IDX 17 44 67 45 18 46 72 47 66 48 68 49 19 50 71 51 65 52 64 53
REMARK SMILES IDX 20 55 52 56 32 57 51 58 33 59 36 60 50 61 69 62 34 63 35 64
REMARK SMILES IDX 49 66 70 67 37 68 21 69 22 70 30 71 23 72 25 73 31 74 24 75
REMARK SMILES IDX 26 76 27 77 28 78 29 79 53 80 54 81 62 82 55 83 57 84 63 85
REMARK SMILES IDX 56 86 58 87 59 88 60 89 61 90 38 91 39 92 47 93 40 94 42 95
REMARK SMILES IDX 48 96 41 97 43 98 44 99 45 100 46 101
REMARK H PARENT 80 18 68 54 36 65
REMARK Flexibility Score: inf
ROOT
ATOM      1  C   UNL A   1      37.066  20.468  24.566  1.00  0.00     0.275 C 
ENDROOT
BRANCH   1   2
ATOM      2  O   UNL A   1      35.939  20.320  25.428  1.00  0.00    -0.456 OA
BRANCH   2   3
ATOM      3  C   UNL A   1      34.707  20.109  24.860  1.00  0.00     0.374 C 
ATOM      4  O   UNL A   1      34.208  19.031  24.627  1.00  0.00    -0.242 OA
BRANCH   3   5
ATOM      5  C   UNL A   1      34.103  21.406  24.667  1.00  0.00     0.215 A 
ATOM      6  C   UNL A   1      33.490  22.391  27.004  1.00  0.00     0.049 C 
ATOM      7  C   UNL A   1      33.584  22.378  25.519  1.00  0.00     0.012 A 
ATOM      8  C   UNL A   1      33.064  23.376  24.644  1.00  0.00     0.043 A 
ATOM      9  O   UNL A   1      34.021  21.821  23.366  1.00  0.00    -0.453 OA
ATOM     10  C   UNL A   1      33.411  23.003  23.368  1.00  0.00     0.114 A 
ATOM     11  C   UNL A   1      32.193  24.519  24.859  1.00  0.00     0.072 C 
ATOM     12  C   UNL A   1      33.076  23.590  22.060  1.00  0.00     0.076 C 
ATOM     13  N   UNL A   1      32.197  24.924  26.105  1.00  0.00    -0.177 NA
ATOM     14  C   UNL A   1      31.428  24.792  23.530  1.00  0.00     0.059 C 
ATOM     15  C   UNL A   1      32.338  24.896  22.295  1.00  0.00     0.014 C 
BRANCH  13  16
ATOM     16  N   UNL A   1      31.544  25.851  26.906  1.00  0.00    -0.246 N 
ATOM     17  C   UNL A   1      31.385  27.227  26.884  1.00  0.00     0.252 C 
ATOM     18  H   UNL A   1      31.085  25.431  27.670  1.00  0.00     0.193 HD
ATOM     19  O   UNL A   1      30.702  27.797  27.740  1.00  0.00    -0.272 OA
BRANCH  17  20
ATOM     20  C   UNL A   1      32.057  28.000  25.774  1.00  0.00     0.140 C 
BRANCH  20  21
ATOM     21  C   UNL A   1      30.882  28.339  24.703  1.00  0.00    -0.031 A 
ATOM     22  C   UNL A   1      30.639  29.666  24.216  1.00  0.00     0.005 A 
ATOM     23  C   UNL A   1      29.969  27.395  24.213  1.00  0.00     0.005 A 
ATOM     24  C   UNL A   1      29.749  30.004  23.191  1.00  0.00     0.000 A 
ATOM     25  C   UNL A   1      28.991  27.752  23.238  1.00  0.00     0.000 A 
ATOM     26  C   UNL A   1      28.916  29.035  22.691  1.00  0.00     0.000 A 
ENDBRANCH  20  21
BRANCH  20  27
ATOM     27  C   UNL A   1      33.111  28.989  26.517  1.00  0.00    -0.031 A 
ATOM     28  C   UNL A   1      34.432  28.641  26.828  1.00  0.00     0.005 A 
ATOM     29  C   UNL A   1      32.745  30.296  26.983  1.00  0.00     0.005 A 
ATOM     30  C   UNL A   1      35.317  29.578  27.438  1.00  0.00     0.000 A 
ATOM     31  C   UNL A   1      33.633  31.257  27.482  1.00  0.00     0.000 A 
ATOM     32  C   UNL A   1      34.937  30.895  27.711  1.00  0.00     0.000 A 
ENDBRANCH  20  27
ENDBRANCH  17  20
ENDBRANCH  13  16
ENDBRANCH   3   5
ENDBRANCH   2   3
ENDBRANCH   1   2
BRANCH   1  33
ATOM     33  C   UNL A   1      37.906  21.668  24.974  1.00  0.00     0.275 C 
BRANCH  33  34
ATOM     34  O   UNL A   1      38.679  21.327  26.114  1.00  0.00    -0.458 OA
BRANCH  34  35
ATOM     35  C   UNL A   1      39.758  20.548  25.888  1.00  0.00     0.338 C 
ATOM     36  O   UNL A   1      39.779  19.435  25.389  1.00  0.00    -0.246 OA
BRANCH  35  37
ATOM     37  C   UNL A   1      40.928  21.203  26.470  1.00  0.00     0.060 A 
ATOM     38  C   UNL A   1      41.126  21.044  27.846  1.00  0.00     0.016 A 
ATOM     39  C   UNL A   1      41.519  22.232  25.729  1.00  0.00     0.016 A 
ATOM     40  C   UNL A   1      41.691  22.091  28.531  1.00  0.00     0.010 A 
ATOM     41  C   UNL A   1      42.039  23.287  26.414  1.00  0.00     0.010 A 
ATOM     42  C   UNL A   1      42.015  23.238  27.805  1.00  0.00    -0.014 A 
BRANCH  42  43
ATOM     43  C   UNL A   1      42.392  24.434  28.514  1.00  0.00     0.031 A 
ATOM     44  C   UNL A   1      41.379  25.497  28.331  1.00  0.00     0.074 A 
ATOM     45  C   UNL A   1      43.456  24.401  29.342  1.00  0.00     0.049 A 
ATOM     46  N   UNL A   1      41.494  26.586  27.646  1.00  0.00    -0.248 NA
ATOM     47  C   UNL A   1      39.987  25.180  28.709  1.00  0.00     0.031 C 
ATOM     48  C   UNL A   1      44.262  23.238  29.741  1.00  0.00     0.029 A 
ATOM     49  N   UNL A   1      43.944  25.374  30.147  1.00  0.00    -0.354 N 
ATOM     50  C   UNL A   1      40.251  27.206  27.764  1.00  0.00     0.074 A 
ATOM     51  C   UNL A   1      39.327  26.169  28.110  1.00  0.00     0.031 C 
ATOM     52  C   UNL A   1      44.898  23.517  30.902  1.00  0.00     0.029 A 
ATOM     53  C   UNL A   1      44.622  24.897  31.264  1.00  0.00     0.049 A 
ATOM     54  H   UNL A   1      43.830  26.334  29.957  1.00  0.00     0.167 HD
ATOM     55  C   UNL A   1      40.162  28.552  27.950  1.00  0.00     0.034 A 
ATOM     56  C   UNL A   1      44.802  25.565  32.436  1.00  0.00     0.034 A 
ATOM     57  C   UNL A   1      41.414  29.186  27.608  1.00  0.00     0.049 A 
ATOM     58  C   UNL A   1      44.492  26.996  32.169  1.00  0.00     0.074 A 
ATOM     59  C   UNL A   1      42.193  29.247  26.471  1.00  0.00     0.029 A 
ATOM     60  N   UNL A   1      42.235  29.520  28.661  1.00  0.00    -0.354 N 
ATOM     61  N   UNL A   1      45.202  27.743  31.367  1.00  0.00    -0.248 NA
ATOM     62  C   UNL A   1      43.114  27.427  32.369  1.00  0.00     0.031 C 
ATOM     63  C   UNL A   1      43.535  29.159  26.944  1.00  0.00     0.029 A 
ATOM     64  C   UNL A   1      43.510  29.144  28.341  1.00  0.00     0.049 A 
ATOM     65  H   UNL A   1      41.954  29.954  29.499  1.00  0.00     0.167 HD
ATOM     66  C   UNL A   1      44.259  28.440  30.619  1.00  0.00     0.074 A 
ATOM     67  C   UNL A   1      42.994  28.268  31.337  1.00  0.00     0.031 C 
ATOM     68  C   UNL A   1      44.511  28.799  29.326  1.00  0.00     0.034 A 
BRANCH  55  69
ATOM     69  C   UNL A   1      39.162  29.243  28.866  1.00  0.00     0.023 A 
ATOM     70  C   UNL A   1      38.613  30.450  28.375  1.00  0.00     0.012 A 
ATOM     71  C   UNL A   1      38.962  28.974  30.242  1.00  0.00     0.148 A 
ATOM     72  C   UNL A   1      38.022  31.391  29.223  1.00  0.00     0.002 A 
ATOM     73  C   UNL A   1      38.332  29.892  31.075  1.00  0.00     0.091 A 
ATOM     74  F   UNL A   1      39.452  27.874  30.805  1.00  0.00    -0.205 F 
ATOM     75  C   UNL A   1      37.894  31.118  30.578  1.00  0.00     0.022 A 
BRANCH  73  76
ATOM     76  S   UNL A   1      38.119  29.580  32.836  1.00  0.00     0.127 S 
ATOM     77  O   UNL A   1      39.504  29.588  33.300  1.00  0.00    -0.237 OA
ATOM     78  O   UNL A   1      37.318  30.734  33.244  1.00  0.00    -0.237 OA
ATOM     79  O   UNL A   1      37.425  28.303  32.940  1.00  0.00    -0.744 OA
ENDBRANCH  73  76
ENDBRANCH  55  69
BRANCH  56  80
ATOM     80  C   UNL A   1      44.852  25.015  33.818  1.00  0.00     0.023 A 
ATOM     81  C   UNL A   1      43.660  24.762  34.529  1.00  0.00     0.012 A 
ATOM     82  C   UNL A   1      46.056  24.500  34.355  1.00  0.00     0.148 A 
ATOM     83  C   UNL A   1      43.668  24.020  35.721  1.00  0.00     0.002 A 
ATOM     84  C   UNL A   1      46.062  23.778  35.546  1.00  0.00     0.091 A 
ATOM     85  F   UNL A   1      47.186  24.635  33.650  1.00  0.00    -0.205 F 
ATOM     86  C   UNL A   1      44.868  23.526  36.229  1.00  0.00     0.022 A 
BRANCH  84  87
ATOM     87  S   UNL A   1      47.578  23.101  36.242  1.00  0.00     0.127 S 
ATOM     88  O   UNL A   1      48.117  24.250  36.970  1.00  0.00    -0.237 OA
ATOM     89  O   UNL A   1      47.069  22.024  37.088  1.00  0.00    -0.237 OA
ATOM     90  O   UNL A   1      48.387  22.682  35.105  1.00  0.00    -0.744 OA
ENDBRANCH  84  87
ENDBRANCH  56  80
BRANCH  68  91
ATOM     91  C   UNL A   1      45.905  28.622  28.786  1.00  0.00     0.023 A 
ATOM     92  C   UNL A   1      46.974  29.480  29.126  1.00  0.00     0.012 A 
ATOM     93  C   UNL A   1      46.182  27.413  28.132  1.00  0.00     0.148 A 
ATOM     94  C   UNL A   1      48.293  29.130  28.819  1.00  0.00     0.002 A 
ATOM     95  C   UNL A   1      47.494  27.044  27.881  1.00  0.00     0.091 A 
ATOM     96  F   UNL A   1      45.149  26.615  27.824  1.00  0.00    -0.205 F 
ATOM     97  C   UNL A   1      48.555  27.902  28.214  1.00  0.00     0.022 A 
BRANCH  95  98
ATOM     98  S   UNL A   1      47.894  25.412  27.256  1.00  0.00     0.127 S 
ATOM     99  O   UNL A   1      47.506  25.522  25.852  1.00  0.00    -0.237 OA
ATOM    100  O   UNL A   1      49.337  25.333  27.491  1.00  0.00    -0.237 OA
ATOM    101  O   UNL A   1      47.110  24.472  28.050  1.00  0.00    -0.744 OA
ENDBRANCH  95  98
ENDBRANCH  68  91
ENDBRANCH  42  43
ENDBRANCH  35  37
ENDBRANCH  34  35
ENDBRANCH  33  34
ENDBRANCH   1  33
TORSDOF 18
ENDMDL
MODEL 2
REMARK VINA RESULT:     -12.5      3.548      4.942
REMARK SMILES Cc1c(C(=O)OCCOC(=O)c2ccc(-c3c4nc(c(-c5cccc(S(=O)(=O)[O-])c5F)c5ccc([nH]5)c(-c5cccc(S(=O)(=O)[O-])c5F)c5nc(c(-c6cccc(S(=O)(=O)[O-])c6F)c6ccc3[nH]6)C=C5)C=C4)cc2)oc2c1/C(=N/NC(=O)C(c1ccccc1)c1ccccc1)CCC2
REMARK SMILES IDX 7 1 6 2 4 3 5 4 3 5 1 6 2 7 77 8 75 9 76 10 78 11 98 12
REMARK SMILES IDX 79 13 96 14 97 15 80 16 81 17 82 19 83 20 84 21 85 22 89 23
REMARK SMILES IDX 86 24 88 25 87 26 90 27 91 28 95 29 92 30 94 31 93 32 8 33
REMARK SMILES IDX 9 34 10 35 11 36 12 37 13 38 74 39 14 40 73 41 15 42 16 43
REMARK SMILES IDX 17 44 67 45 18 46 72 47 66 48 68 49 19 50 71 51 65 52 64 53
REMARK SMILES IDX 20 55 52 56 32 57 51 58 33 59 36 60 50 61 69 62 34 63 35 64
REMARK SMILES IDX 49 66 70 67 37 68 21 69 22 70 30 71 23 72 25 73 31 74 24 75
REMARK SMILES IDX 26 76 27 77 28 78 29 79 53 80 54 81 62 82 55 83 57 84 63 85
REMARK SMILES IDX 56 86 58 87 59 88 60 89 61 90 38 91 39 92 47 93 40 94 42 95
REMARK SMILES IDX 48 96 41 97 43 98 44 99 45 100 46 101
REMARK H PARENT 80 18 68 54 36 65
REMARK Flexibility Score: inf
ROOT
ATOM      1  C   UNL A   1      38.390  22.270  26.042  1.00  0.00     0.275 C 
ENDROOT
BRANCH   1   2
ATOM      2  O   UNL A   1      37.723  21.985  24.813  1.00  0.00    -0.456 OA
BRANCH   2   3
ATOM      3  C   UNL A   1      36.532  21.304  24.861  1.00  0.00     0.374 C 
ATOM      4  O   UNL A   1      36.399  20.123  25.095  1.00  0.00    -0.242 OA
BRANCH   3   5
ATOM      5  C   UNL A   1      35.482  22.272  24.654  1.00  0.00     0.215 A 
ATOM      6  C   UNL A   1      35.016  23.485  26.917  1.00  0.00     0.049 C 
ATOM      7  C   UNL A   1      34.824  23.189  25.472  1.00  0.00     0.012 A 
ATOM      8  C   UNL A   1      33.828  23.763  24.630  1.00  0.00     0.043 A 
ATOM      9  O   UNL A   1      35.012  22.356  23.372  1.00  0.00    -0.453 OA
ATOM     10  C   UNL A   1      34.035  23.258  23.368  1.00  0.00     0.114 A 
ATOM     11  C   UNL A   1      32.666  24.593  24.902  1.00  0.00     0.072 C 
ATOM     12  C   UNL A   1      33.272  23.419  22.120  1.00  0.00     0.076 C 
ATOM     13  N   UNL A   1      32.762  25.232  26.040  1.00  0.00    -0.177 NA
ATOM     14  C   UNL A   1      31.616  24.323  23.783  1.00  0.00     0.059 C 
ATOM     15  C   UNL A   1      32.177  24.445  22.356  1.00  0.00     0.014 C 
BRANCH  13  16
ATOM     16  N   UNL A   1      31.988  26.052  26.849  1.00  0.00    -0.246 N 
ATOM     17  C   UNL A   1      31.693  27.406  26.876  1.00  0.00     0.252 C 
ATOM     18  H   UNL A   1      31.543  25.556  27.574  1.00  0.00     0.193 HD
ATOM     19  O   UNL A   1      30.923  27.867  27.723  1.00  0.00    -0.272 OA
BRANCH  17  20
ATOM     20  C   UNL A   1      32.329  28.291  25.830  1.00  0.00     0.140 C 
BRANCH  20  21
ATOM     21  C   UNL A   1      31.143  28.643  24.776  1.00  0.00    -0.031 A 
ATOM     22  C   UNL A   1      30.445  27.633  24.032  1.00  0.00     0.005 A 
ATOM     23  C   UNL A   1      30.740  29.946  24.450  1.00  0.00     0.005 A 
ATOM     24  C   UNL A   1      29.322  27.850  23.226  1.00  0.00     0.000 A 
ATOM     25  C   UNL A   1      29.658  30.181  23.551  1.00  0.00     0.000 A 
ATOM     26  C   UNL A   1      28.920  29.140  22.984  1.00  0.00     0.000 A 
ENDBRANCH  20  21
BRANCH  20  27
ATOM     27  C   UNL A   1      33.325  29.278  26.650  1.00  0.00    -0.031 A 
ATOM     28  C   UNL A   1      33.007  30.593  27.012  1.00  0.00     0.005 A 
ATOM     29  C   UNL A   1      34.660  28.898  27.015  1.00  0.00     0.005 A 
ATOM     30  C   UNL A   1      33.913  31.388  27.776  1.00  0.00     0.000 A 
ATOM     31  C   UNL A   1      35.511  29.628  27.853  1.00  0.00     0.000 A 
ATOM     32  C   UNL A   1      35.132  30.889  28.241  1.00  0.00     0.000 A 
ENDBRANCH  20  27
ENDBRANCH  17  20
ENDBRANCH  13  16
ENDBRANCH   3   5
ENDBRANCH   2   3
ENDBRANCH   1   2
BRANCH   1  33
ATOM     33  C   UNL A   1      38.601  23.767  26.208  1.00  0.00     0.275 C 
BRANCH  33  34
ATOM     34  O   UNL A   1      39.662  23.987  27.124  1.00  0.00    -0.458 OA
BRANCH  34  35
ATOM     35  C   UNL A   1      40.480  25.024  26.847  1.00  0.00     0.338 C 
ATOM     36  O   UNL A   1      41.557  24.989  26.276  1.00  0.00    -0.246 OA
BRANCH  35  37
ATOM     37  C   UNL A   1      39.927  26.225  27.470  1.00  0.00     0.060 A 
ATOM     38  C   UNL A   1      40.159  27.442  26.822  1.00  0.00     0.016 A 
ATOM     39  C   UNL A   1      39.570  26.137  28.821  1.00  0.00     0.016 A 
ATOM     40  C   UNL A   1      40.312  28.560  27.604  1.00  0.00     0.010 A 
ATOM     41  C   UNL A   1      39.764  27.236  29.600  1.00  0.00     0.010 A 
ATOM     42  C   UNL A   1      40.234  28.395  28.988  1.00  0.00    -0.014 A 
BRANCH  42  43
ATOM     43  C   UNL A   1      40.613  29.487  29.847  1.00  0.00     0.031 A 
ATOM     44  C   UNL A   1      39.418  30.174  30.386  1.00  0.00     0.074 A 
ATOM     45  C   UNL A   1      41.911  29.645  30.179  1.00  0.00     0.049 A 
ATOM     46  N   UNL A   1      38.981  31.351  30.083  1.00  0.00    -0.248 NA
ATOM     47  C   UNL A   1      38.437  29.351  31.123  1.00  0.00     0.031 C 
ATOM     48  C   UNL A   1      43.041  28.756  29.873  1.00  0.00     0.029 A 
ATOM     49  N   UNL A   1      42.477  30.549  31.012  1.00  0.00    -0.354 N 
ATOM     50  C   UNL A   1      37.813  31.494  30.830  1.00  0.00     0.074 A 
ATOM     51  C   UNL A   1      37.384  30.165  31.145  1.00  0.00     0.031 C 
ATOM     52  C   UNL A   1      44.043  28.999  30.750  1.00  0.00     0.029 A 
ATOM     53  C   UNL A   1      43.661  30.115  31.598  1.00  0.00     0.049 A 
ATOM     54  H   UNL A   1      42.085  31.436  31.187  1.00  0.00     0.167 HD
ATOM     55  C   UNL A   1      37.524  32.673  31.447  1.00  0.00     0.034 A 
ATOM     56  C   UNL A   1      44.185  30.563  32.771  1.00  0.00     0.034 A 
ATOM     57  C   UNL A   1      38.329  33.736  30.891  1.00  0.00     0.049 A 
ATOM     58  C   UNL A   1      43.486  31.837  33.096  1.00  0.00     0.074 A 
ATOM     59  C   UNL A   1      38.498  34.268  29.629  1.00  0.00     0.029 A 
ATOM     60  N   UNL A   1      39.433  34.110  31.622  1.00  0.00    -0.354 N 
ATOM     61  N   UNL A   1      43.592  32.916  32.368  1.00  0.00    -0.248 NA
ATOM     62  C   UNL A   1      42.277  31.745  33.907  1.00  0.00     0.031 C 
ATOM     63  C   UNL A   1      39.894  34.535  29.531  1.00  0.00     0.029 A 
ATOM     64  C   UNL A   1      40.487  34.242  30.762  1.00  0.00     0.049 A 
ATOM     65  H   UNL A   1      39.459  34.257  32.595  1.00  0.00     0.167 HD
ATOM     66  C   UNL A   1      42.291  33.396  32.271  1.00  0.00     0.074 A 
ATOM     67  C   UNL A   1      41.538  32.683  33.306  1.00  0.00     0.031 C 
ATOM     68  C   UNL A   1      41.866  34.061  31.156  1.00  0.00     0.034 A 
BRANCH  55  69
ATOM     69  C   UNL A   1      36.902  32.807  32.830  1.00  0.00     0.023 A 
ATOM     70  C   UNL A   1      35.821  33.713  32.931  1.00  0.00     0.012 A 
ATOM     71  C   UNL A   1      37.469  32.364  34.049  1.00  0.00     0.148 A 
ATOM     72  C   UNL A   1      35.420  34.248  34.158  1.00  0.00     0.002 A 
ATOM     73  C   UNL A   1      37.037  32.864  35.272  1.00  0.00     0.091 A 
ATOM     74  F   UNL A   1      38.500  31.524  34.063  1.00  0.00    -0.205 F 
ATOM     75  C   UNL A   1      36.038  33.834  35.330  1.00  0.00     0.022 A 
BRANCH  73  76
ATOM     76  S   UNL A   1      37.787  32.345  36.825  1.00  0.00     0.127 S 
ATOM     77  O   UNL A   1      39.123  32.925  36.708  1.00  0.00    -0.237 OA
ATOM     78  O   UNL A   1      36.912  32.990  37.805  1.00  0.00    -0.237 OA
ATOM     79  O   UNL A   1      37.728  30.889  36.836  1.00  0.00    -0.744 OA
ENDBRANCH  73  76
ENDBRANCH  55  69
BRANCH  56  80
ATOM     80  C   UNL A   1      44.954  29.803  33.795  1.00  0.00     0.023 A 
ATOM     81  C   UNL A   1      46.211  30.268  34.232  1.00  0.00     0.012 A 
ATOM     82  C   UNL A   1      44.350  28.757  34.531  1.00  0.00     0.148 A 
ATOM     83  C   UNL A   1      46.838  29.717  35.362  1.00  0.00     0.002 A 
ATOM     84  C   UNL A   1      44.980  28.202  35.642  1.00  0.00     0.091 A 
ATOM     85  F   UNL A   1      43.112  28.367  34.201  1.00  0.00    -0.205 F 
ATOM     86  C   UNL A   1      46.222  28.685  36.068  1.00  0.00     0.022 A 
BRANCH  84  87
ATOM     87  S   UNL A   1      44.228  26.879  36.604  1.00  0.00     0.127 S 
ATOM     88  O   UNL A   1      45.309  26.518  37.521  1.00  0.00    -0.237 OA
ATOM     89  O   UNL A   1      43.098  27.562  37.227  1.00  0.00    -0.237 OA
ATOM     90  O   UNL A   1      43.885  25.835  35.646  1.00  0.00    -0.744 OA
ENDBRANCH  84  87
ENDBRANCH  56  80
BRANCH  68  91
ATOM     91  C   UNL A   1      42.885  34.459  30.121  1.00  0.00     0.023 A 
ATOM     92  C   UNL A   1      43.697  35.607  30.247  1.00  0.00     0.012 A 
ATOM     93  C   UNL A   1      43.197  33.507  29.141  1.00  0.00     0.148 A 
ATOM     94  C   UNL A   1      44.800  35.795  29.407  1.00  0.00     0.002 A 
ATOM     95  C   UNL A   1      44.323  33.667  28.349  1.00  0.00     0.091 A 
ATOM     96  F   UNL A   1      42.412  32.423  29.046  1.00  0.00    -0.205 F 
ATOM     97  C   UNL A   1      45.125  34.814  28.471  1.00  0.00     0.022 A 
BRANCH  95  98
ATOM     98  S   UNL A   1      44.876  32.366  27.248  1.00  0.00     0.127 S 
ATOM     99  O   UNL A   1      46.302  32.295  27.554  1.00  0.00    -0.237 OA
ATOM    100  O   UNL A   1      44.091  31.217  27.704  1.00  0.00    -0.237 OA
ATOM    101  O   UNL A   1      44.546  32.812  25.899  1.00  0.00    -0.744 OA
ENDBRANCH  95  98
ENDBRANCH  68  91
ENDBRANCH  42  43
ENDBRANCH  35  37
ENDBRANCH  34  35
ENDBRANCH  33  34
ENDBRANCH   1  33
TORSDOF 18
ENDMDL
MODEL 3
REMARK VINA RESULT:     -12.4      5.082     10.606
REMARK SMILES Cc1c(C(=O)OCCOC(=O)c2ccc(-c3c4nc(c(-c5cccc(S(=O)(=O)[O-])c5F)c5ccc([nH]5)c(-c5cccc(S(=O)(=O)[O-])c5F)c5nc(c(-c6cccc(S(=O)(=O)[O-])c6F)c6ccc3[nH]6)C=C5)C=C4)cc2)oc2c1/C(=N/NC(=O)C(c1ccccc1)c1ccccc1)CCC2
REMARK SMILES IDX 7 1 6 2 4 3 5 4 3 5 1 6 2 7 77 8 75 9 76 10 78 11 98 12
REMARK SMILES IDX 79 13 96 14 97 15 80 16 81 17 82 19 83 20 84 21 85 22 89 23
REMARK SMILES IDX 86 24 88 25 87 26 90 27 91 28 95 29 92 30 94 31 93 32 8 33
REMARK SMILES IDX 9 34 10 35 11 36 12 37 13 38 74 39 14 40 73 41 15 42 16 43
REMARK SMILES IDX 17 44 67 45 18 46 72 47 66 48 68 49 19 50 71 51 65 52 64 53
REMARK SMILES IDX 20 55 52 56 32 57 51 58 33 59 36 60 50 61 69 62 34 63 35 64
REMARK SMILES IDX 49 66 70 67 37 68 21 69 22 70 30 71 23 72 25 73 31 74 24 75
REMARK SMILES IDX 26 76 27 77 28 78 29 79 53 80 54 81 62 82 55 83 57 84 63 85
REMARK SMILES IDX 56 86 58 87 59 88 60 89 61 90 38 91 39 92 47 93 40 94 42 95
REMARK SMILES IDX 48 96 41 97 43 98 44 99 45 100 46 101
REMARK H PARENT 80 18 68 54 36 65
REMARK Flexibility Score: inf
ROOT
ATOM      1  C   UNL A   1      34.285  33.821  29.117  1.00  0.00     0.275 C 
ENDROOT
BRANCH   1   2
ATOM      2  O   UNL A   1      34.912  34.394  30.264  1.00  0.00    -0.456 OA
BRANCH   2   3
ATOM      3  C   UNL A   1      34.286  34.268  31.479  1.00  0.00     0.374 C 
ATOM      4  O   UNL A   1      33.228  34.770  31.787  1.00  0.00    -0.242 OA
BRANCH   3   5
ATOM      5  C   UNL A   1      35.089  33.373  32.278  1.00  0.00     0.215 A 
ATOM      6  C   UNL A   1      35.745  34.598  34.486  1.00  0.00     0.049 C 
ATOM      7  C   UNL A   1      35.713  33.468  33.520  1.00  0.00     0.012 A 
ATOM      8  C   UNL A   1      36.417  32.236  33.658  1.00  0.00     0.043 A 
ATOM      9  O   UNL A   1      35.288  32.132  31.739  1.00  0.00    -0.453 OA
ATOM     10  C   UNL A   1      36.071  31.459  32.578  1.00  0.00     0.114 A 
ATOM     11  C   UNL A   1      37.442  31.784  34.584  1.00  0.00     0.072 C 
ATOM     12  C   UNL A   1      36.547  30.136  32.141  1.00  0.00     0.076 C 
ATOM     13  N   UNL A   1      37.447  32.470  35.699  1.00  0.00    -0.177 NA
ATOM     14  C   UNL A   1      38.295  30.702  33.857  1.00  0.00     0.059 C 
ATOM     15  C   UNL A   1      37.465  29.579  33.214  1.00  0.00     0.014 C 
BRANCH  13  16
ATOM     16  N   UNL A   1      38.200  32.573  36.860  1.00  0.00    -0.246 N 
ATOM     17  C   UNL A   1      39.107  33.492  37.363  1.00  0.00     0.252 C 
ATOM     18  H   UNL A   1      38.057  31.814  37.472  1.00  0.00     0.193 HD
ATOM     19  O   UNL A   1      39.616  33.333  38.475  1.00  0.00    -0.272 OA
BRANCH  17  20
ATOM     20  C   UNL A   1      39.437  34.698  36.514  1.00  0.00     0.140 C 
BRANCH  20  21
ATOM     21  C   UNL A   1      40.020  35.811  37.546  1.00  0.00    -0.031 A 
ATOM     22  C   UNL A   1      39.181  36.538  38.454  1.00  0.00     0.005 A 
ATOM     23  C   UNL A   1      41.365  36.206  37.599  1.00  0.00     0.005 A 
ATOM     24  C   UNL A   1      39.630  37.396  39.464  1.00  0.00     0.000 A 
ATOM     25  C   UNL A   1      41.817  37.156  38.563  1.00  0.00     0.000 A 
ATOM     26  C   UNL A   1      40.965  37.707  39.523  1.00  0.00     0.000 A 
ENDBRANCH  20  21
BRANCH  20  27
ATOM     27  C   UNL A   1      40.082  34.099  35.149  1.00  0.00    -0.031 A 
ATOM     28  C   UNL A   1      41.110  33.148  35.115  1.00  0.00     0.005 A 
ATOM     29  C   UNL A   1      39.690  34.556  33.846  1.00  0.00     0.005 A 
ATOM     30  C   UNL A   1      41.595  32.629  33.878  1.00  0.00     0.000 A 
ATOM     31  C   UNL A   1      40.082  33.977  32.633  1.00  0.00     0.000 A 
ATOM     32  C   UNL A   1      41.046  33.000  32.648  1.00  0.00     0.000 A 
ENDBRANCH  20  27
ENDBRANCH  17  20
ENDBRANCH  13  16
ENDBRANCH   3   5
ENDBRANCH   2   3
ENDBRANCH   1   2
BRANCH   1  33
ATOM     33  C   UNL A   1      35.281  33.664  27.978  1.00  0.00     0.275 C 
BRANCH  33  34
ATOM     34  O   UNL A   1      36.417  32.956  28.449  1.00  0.00    -0.458 OA
BRANCH  34  35
ATOM     35  C   UNL A   1      36.453  31.636  28.167  1.00  0.00     0.338 C 
ATOM     36  O   UNL A   1      35.778  31.033  27.350  1.00  0.00    -0.246 OA
BRANCH  35  37
ATOM     37  C   UNL A   1      37.362  30.990  29.111  1.00  0.00     0.060 A 
ATOM     38  C   UNL A   1      38.332  31.797  29.714  1.00  0.00     0.016 A 
ATOM     39  C   UNL A   1      37.464  29.595  29.047  1.00  0.00     0.016 A 
ATOM     40  C   UNL A   1      39.546  31.225  30.001  1.00  0.00     0.010 A 
ATOM     41  C   UNL A   1      38.681  29.037  29.291  1.00  0.00     0.010 A 
ATOM     42  C   UNL A   1      39.724  29.883  29.661  1.00  0.00    -0.014 A 
BRANCH  42  43
ATOM     43  C   UNL A   1      41.043  29.310  29.732  1.00  0.00     0.031 A 
ATOM     44  C   UNL A   1      41.426  29.039  31.136  1.00  0.00     0.074 A 
ATOM     45  C   UNL A   1      41.668  28.949  28.592  1.00  0.00     0.049 A 
ATOM     46  N   UNL A   1      42.309  29.660  31.845  1.00  0.00    -0.248 NA
ATOM     47  C   UNL A   1      40.527  28.178  31.931  1.00  0.00     0.031 C 
ATOM     48  C   UNL A   1      41.131  28.947  27.224  1.00  0.00     0.029 A 
ATOM     49  N   UNL A   1      42.866  28.342  28.429  1.00  0.00    -0.354 N 
ATOM     50  C   UNL A   1      42.245  29.047  33.096  1.00  0.00     0.074 A 
ATOM     51  C   UNL A   1      40.955  28.431  33.166  1.00  0.00     0.031 C 
ATOM     52  C   UNL A   1      41.864  28.101  26.463  1.00  0.00     0.029 A 
ATOM     53  C   UNL A   1      42.965  27.591  27.261  1.00  0.00     0.049 A 
ATOM     54  H   UNL A   1      43.603  28.424  29.078  1.00  0.00     0.167 HD
ATOM     55  C   UNL A   1      43.382  28.772  33.793  1.00  0.00     0.034 A 
ATOM     56  C   UNL A   1      43.806  26.542  27.053  1.00  0.00     0.034 A 
ATOM     57  C   UNL A   1      44.489  29.531  33.258  1.00  0.00     0.049 A 
ATOM     58  C   UNL A   1      44.838  26.597  28.126  1.00  0.00     0.074 A 
ATOM     59  C   UNL A   1      44.750  30.873  33.078  1.00  0.00     0.029 A 
ATOM     60  N   UNL A   1      45.343  28.852  32.419  1.00  0.00    -0.354 N 
ATOM     61  N   UNL A   1      45.703  27.569  28.235  1.00  0.00    -0.248 NA
ATOM     62  C   UNL A   1      44.559  25.867  29.356  1.00  0.00     0.031 C 
ATOM     63  C   UNL A   1      45.410  30.950  31.817  1.00  0.00     0.029 A 
ATOM     64  C   UNL A   1      45.600  29.650  31.339  1.00  0.00     0.049 A 
ATOM     65  H   UNL A   1      45.705  27.949  32.569  1.00  0.00     0.167 HD
ATOM     66  C   UNL A   1      45.720  27.867  29.593  1.00  0.00     0.074 A 
ATOM     67  C   UNL A   1      45.060  26.733  30.244  1.00  0.00     0.031 C 
ATOM     68  C   UNL A   1      45.951  29.138  30.033  1.00  0.00     0.034 A 
BRANCH  55  69
ATOM     69  C   UNL A   1      43.623  27.511  34.610  1.00  0.00     0.023 A 
ATOM     70  C   UNL A   1      43.990  27.716  35.961  1.00  0.00     0.012 A 
ATOM     71  C   UNL A   1      43.811  26.205  34.098  1.00  0.00     0.148 A 
ATOM     72  C   UNL A   1      44.627  26.723  36.710  1.00  0.00     0.002 A 
ATOM     73  C   UNL A   1      44.403  25.205  34.862  1.00  0.00     0.091 A 
ATOM     74  F   UNL A   1      43.512  25.912  32.836  1.00  0.00    -0.205 F 
ATOM     75  C   UNL A   1      44.847  25.470  36.156  1.00  0.00     0.022 A 
BRANCH  73  76
ATOM     76  S   UNL A   1      44.692  23.555  34.201  1.00  0.00     0.127 S 
ATOM     77  O   UNL A   1      45.686  23.829  33.166  1.00  0.00    -0.237 OA
ATOM     78  O   UNL A   1      45.198  22.851  35.380  1.00  0.00    -0.237 OA
ATOM     79  O   UNL A   1      43.400  23.077  33.727  1.00  0.00    -0.744 OA
ENDBRANCH  73  76
ENDBRANCH  55  69
BRANCH  56  80
ATOM     80  C   UNL A   1      43.574  25.312  26.247  1.00  0.00     0.023 A 
ATOM     81  C   UNL A   1      44.437  24.986  25.180  1.00  0.00     0.012 A 
ATOM     82  C   UNL A   1      42.659  24.323  26.675  1.00  0.00     0.148 A 
ATOM     83  C   UNL A   1      44.393  23.722  24.570  1.00  0.00     0.002 A 
ATOM     84  C   UNL A   1      42.607  23.075  26.057  1.00  0.00     0.091 A 
ATOM     85  F   UNL A   1      41.900  24.567  27.751  1.00  0.00    -0.205 F 
ATOM     86  C   UNL A   1      43.479  22.765  25.009  1.00  0.00     0.022 A 
BRANCH  84  87
ATOM     87  S   UNL A   1      41.460  21.794  26.591  1.00  0.00     0.127 S 
ATOM     88  O   UNL A   1      41.834  20.674  25.727  1.00  0.00    -0.237 OA
ATOM     89  O   UNL A   1      41.821  21.630  27.996  1.00  0.00    -0.237 OA
ATOM     90  O   UNL A   1      40.126  22.323  26.339  1.00  0.00    -0.744 OA
ENDBRANCH  84  87
ENDBRANCH  56  80
BRANCH  68  91
ATOM     91  C   UNL A   1      46.404  30.175  29.040  1.00  0.00     0.023 A 
ATOM     92  C   UNL A   1      47.731  30.256  28.567  1.00  0.00     0.012 A 
ATOM     93  C   UNL A   1      45.401  30.907  28.387  1.00  0.00     0.148 A 
ATOM     94  C   UNL A   1      48.046  31.052  27.460  1.00  0.00     0.002 A 
ATOM     95  C   UNL A   1      45.706  31.649  27.257  1.00  0.00     0.091 A 
ATOM     96  F   UNL A   1      44.147  30.808  28.854  1.00  0.00    -0.205 F 
ATOM     97  C   UNL A   1      47.029  31.733  26.793  1.00  0.00     0.022 A 
BRANCH  95  98
ATOM     98  S   UNL A   1      44.416  32.408  26.271  1.00  0.00     0.127 S 
ATOM     99  O   UNL A   1      43.931  33.458  27.163  1.00  0.00    -0.237 OA
ATOM    100  O   UNL A   1      45.158  32.887  25.103  1.00  0.00    -0.237 OA
ATOM    101  O   UNL A   1      43.459  31.349  25.973  1.00  0.00    -0.744 OA
ENDBRANCH  95  98
ENDBRANCH  68  91
ENDBRANCH  42  43
ENDBRANCH  35  37
ENDBRANCH  34  35
ENDBRANCH  33  34
ENDBRANCH   1  33
TORSDOF 18
ENDMDL
