MODEL 1
REMARK VINA RESULT:     -12.9      0.000      0.000
REMARK SMILES COC(=O)c1ccc(C)c2c1[C@H]1C=CC[C@H]1[C@@H](c1ccc(C(=O)OCCOC(=O)c3ccc(-c4c5nc(c(-c6cccc(S(=O)(=O)[O-])c6F)c6ccc([nH]6)c(-c6cccc(S(=O)(=O)[O-])c6F)c6nc(c(-c7cccc(S(=O)(=O)[O-])c7F)c7ccc4[nH]7)C=C6)C=C5)cc3)cc1)N2
REMARK SMILES IDX 25 1 24 2 22 3 23 4 21 5 18 6 19 7 94 8 20 9 93 10 17 11
REMARK SMILES IDX 5 12 6 13 11 14 7 15 10 16 12 17 8 18 95 19 13 20 16 21 9 22
REMARK SMILES IDX 14 24 15 25 3 26 4 27 2 28 1 29 26 30 27 31 28 32 29 33
REMARK SMILES IDX 30 34 31 35 92 36 32 37 91 38 33 39 34 40 35 41 85 42 36 43
REMARK SMILES IDX 90 44 84 45 86 46 37 47 89 48 83 49 82 50 38 52 70 53 50 54
REMARK SMILES IDX 69 55 51 56 54 57 68 58 87 59 52 60 53 61 67 63 88 64 55 65
REMARK SMILES IDX 39 66 40 67 48 68 41 69 43 70 49 71 42 72 44 73 45 74 46 75
REMARK SMILES IDX 47 76 71 77 72 78 80 79 73 80 75 81 81 82 74 83 76 84 77 85
REMARK SMILES IDX 78 86 79 87 56 88 57 89 65 90 58 91 60 92 66 93 59 94 61 95
REMARK SMILES IDX 62 96 63 97 64 98
REMARK H PARENT 95 23 86 51 54 62
REMARK Flexibility Score: inf
ROOT
ATOM      1  C   UNL A   1      37.281  20.778  24.822  1.00  0.00     0.275 C 
ENDROOT
BRANCH   1   2
ATOM      2  O   UNL A   1      37.462  22.205  24.757  1.00  0.00    -0.458 OA
BRANCH   2   3
ATOM      3  C   UNL A   1      36.570  22.891  24.001  1.00  0.00     0.338 C 
ATOM      4  O   UNL A   1      36.555  22.971  22.784  1.00  0.00    -0.246 OA
BRANCH   3   5
ATOM      5  C   UNL A   1      35.494  23.429  24.867  1.00  0.00     0.060 A 
ATOM      6  C   UNL A   1      33.160  24.447  26.097  1.00  0.00    -0.025 A 
ATOM      7  C   UNL A   1      33.991  25.266  25.313  1.00  0.00     0.007 A 
ATOM      8  C   UNL A   1      33.629  23.150  26.381  1.00  0.00     0.007 A 
ATOM      9  C   UNL A   1      35.159  24.774  24.729  1.00  0.00     0.016 A 
ATOM     10  C   UNL A   1      34.759  22.628  25.741  1.00  0.00     0.016 A 
BRANCH   6  11
ATOM     11  C   UNL A   1      31.782  24.899  26.605  1.00  0.00     0.114 C 
ATOM     12  C   UNL A   1      30.813  28.170  23.996  1.00  0.00     0.065 A 
ATOM     13  C   UNL A   1      31.329  29.437  24.251  1.00  0.00     0.016 A 
ATOM     14  C   UNL A   1      31.006  27.100  24.902  1.00  0.00    -0.003 A 
ATOM     15  C   UNL A   1      31.996  29.661  25.449  1.00  0.00     0.006 A 
ATOM     16  C   UNL A   1      31.650  27.337  26.136  1.00  0.00     0.042 A 
ATOM     17  C   UNL A   1      30.464  25.735  24.569  1.00  0.00     0.050 C 
ATOM     18  C   UNL A   1      32.131  28.639  26.414  1.00  0.00    -0.028 A 
ATOM     19  N   UNL A   1      31.814  26.294  27.046  1.00  0.00    -0.377 N 
ATOM     20  C   UNL A   1      31.170  24.984  23.468  1.00  0.00    -0.023 C 
ATOM     21  C   UNL A   1      30.526  24.704  25.708  1.00  0.00     0.031 C 
ATOM     22  C   UNL A   1      32.832  29.024  27.692  1.00  0.00     0.046 C 
ATOM     23  H   UNL A   1      31.954  26.499  27.999  1.00  0.00     0.161 HD
ATOM     24  C   UNL A   1      31.111  23.662  23.673  1.00  0.00    -0.030 C 
ATOM     25  C   UNL A   1      30.412  23.364  24.961  1.00  0.00     0.034 C 
BRANCH  12  26
ATOM     26  C   UNL A   1      29.892  28.013  22.857  1.00  0.00     0.338 C 
ATOM     27  O   UNL A   1      30.286  27.825  21.719  1.00  0.00    -0.246 OA
BRANCH  26  28
ATOM     28  O   UNL A   1      28.622  28.241  23.259  1.00  0.00    -0.465 OA
ATOM     29  C   UNL A   1      27.998  29.305  22.535  1.00  0.00     0.282 C 
ENDBRANCH  26  28
ENDBRANCH  12  26
ENDBRANCH   6  11
ENDBRANCH   3   5
ENDBRANCH   2   3
ENDBRANCH   1   2
BRANCH   1  30
ATOM     30  C   UNL A   1      38.539  20.103  25.373  1.00  0.00     0.275 C 
BRANCH  30  31
ATOM     31  O   UNL A   1      39.595  21.060  25.587  1.00  0.00    -0.458 OA
BRANCH  31  32
ATOM     32  C   UNL A   1      40.262  20.943  26.761  1.00  0.00     0.338 C 
ATOM     33  O   UNL A   1      40.618  19.914  27.307  1.00  0.00    -0.246 OA
BRANCH  32  34
ATOM     34  C   UNL A   1      40.596  22.287  27.265  1.00  0.00     0.060 A 
ATOM     35  C   UNL A   1      40.013  23.384  26.631  1.00  0.00     0.016 A 
ATOM     36  C   UNL A   1      41.525  22.477  28.288  1.00  0.00     0.016 A 
ATOM     37  C   UNL A   1      40.353  24.680  27.010  1.00  0.00     0.010 A 
ATOM     38  C   UNL A   1      41.872  23.781  28.668  1.00  0.00     0.010 A 
ATOM     39  C   UNL A   1      41.301  24.891  28.019  1.00  0.00    -0.014 A 
BRANCH  39  40
ATOM     40  C   UNL A   1      41.734  26.276  28.331  1.00  0.00     0.031 A 
ATOM     41  C   UNL A   1      43.135  26.716  28.015  1.00  0.00     0.074 A 
ATOM     42  C   UNL A   1      40.866  27.162  28.850  1.00  0.00     0.049 A 
ATOM     43  N   UNL A   1      43.653  27.916  28.057  1.00  0.00    -0.248 NA
ATOM     44  C   UNL A   1      44.071  25.675  27.573  1.00  0.00     0.031 C 
ATOM     45  C   UNL A   1      39.474  26.881  29.197  1.00  0.00     0.029 A 
ATOM     46  N   UNL A   1      41.041  28.479  29.191  1.00  0.00    -0.354 N 
ATOM     47  C   UNL A   1      44.953  27.782  27.589  1.00  0.00     0.074 A 
ATOM     48  C   UNL A   1      45.166  26.379  27.323  1.00  0.00     0.031 C 
ATOM     49  C   UNL A   1      38.928  27.988  29.729  1.00  0.00     0.029 A 
ATOM     50  C   UNL A   1      39.933  29.049  29.770  1.00  0.00     0.049 A 
ATOM     51  H   UNL A   1      41.880  28.970  29.037  1.00  0.00     0.167 HD
ATOM     52  C   UNL A   1      45.879  28.742  27.369  1.00  0.00     0.034 A 
ATOM     53  C   UNL A   1      39.755  30.280  30.287  1.00  0.00     0.034 A 
ATOM     54  C   UNL A   1      45.712  30.122  27.723  1.00  0.00     0.049 A 
ATOM     55  C   UNL A   1      40.871  31.286  30.224  1.00  0.00     0.074 A 
ATOM     56  C   UNL A   1      46.605  31.164  27.553  1.00  0.00     0.029 A 
ATOM     57  N   UNL A   1      44.606  30.637  28.372  1.00  0.00    -0.354 N 
ATOM     58  N   UNL A   1      42.033  31.188  29.626  1.00  0.00    -0.248 NA
ATOM     59  C   UNL A   1      40.648  32.579  30.889  1.00  0.00     0.031 C 
ATOM     60  C   UNL A   1      46.053  32.306  28.142  1.00  0.00     0.029 A 
ATOM     61  C   UNL A   1      44.810  31.975  28.656  1.00  0.00     0.049 A 
ATOM     62  H   UNL A   1      43.794  30.129  28.599  1.00  0.00     0.167 HD
ATOM     63  C   UNL A   1      42.667  32.411  29.815  1.00  0.00     0.074 A 
ATOM     64  C   UNL A   1      41.761  33.238  30.584  1.00  0.00     0.031 C 
ATOM     65  C   UNL A   1      43.891  32.805  29.391  1.00  0.00     0.034 A 
BRANCH  52  66
ATOM     66  C   UNL A   1      47.147  28.343  26.674  1.00  0.00     0.023 A 
ATOM     67  C   UNL A   1      48.290  28.079  27.457  1.00  0.00     0.012 A 
ATOM     68  C   UNL A   1      47.193  28.148  25.283  1.00  0.00     0.148 A 
ATOM     69  C   UNL A   1      49.463  27.622  26.863  1.00  0.00     0.002 A 
ATOM     70  C   UNL A   1      48.364  27.679  24.698  1.00  0.00     0.091 A 
ATOM     71  F   UNL A   1      46.095  28.419  24.565  1.00  0.00    -0.205 F 
ATOM     72  C   UNL A   1      49.498  27.413  25.486  1.00  0.00     0.022 A 
BRANCH  70  73
ATOM     73  S   UNL A   1      48.517  27.374  22.935  1.00  0.00     0.127 S 
ATOM     74  O   UNL A   1      49.901  27.778  22.684  1.00  0.00    -0.237 OA
ATOM     75  O   UNL A   1      48.275  25.935  22.853  1.00  0.00    -0.237 OA
ATOM     76  O   UNL A   1      47.513  28.211  22.292  1.00  0.00    -0.744 OA
ENDBRANCH  70  73
ENDBRANCH  52  66
BRANCH  53  77
ATOM     77  C   UNL A   1      38.441  30.632  30.889  1.00  0.00     0.023 A 
ATOM     78  C   UNL A   1      38.185  30.301  32.232  1.00  0.00     0.012 A 
ATOM     79  C   UNL A   1      37.472  31.341  30.152  1.00  0.00     0.148 A 
ATOM     80  C   UNL A   1      36.980  30.668  32.832  1.00  0.00     0.002 A 
ATOM     81  C   UNL A   1      36.291  31.735  30.766  1.00  0.00     0.091 A 
ATOM     82  F   UNL A   1      37.739  31.630  28.871  1.00  0.00    -0.205 F 
ATOM     83  C   UNL A   1      36.039  31.393  32.103  1.00  0.00     0.022 A 
BRANCH  81  84
ATOM     84  S   UNL A   1      35.060  32.748  29.938  1.00  0.00     0.127 S 
ATOM     85  O   UNL A   1      34.126  33.030  31.027  1.00  0.00    -0.237 OA
ATOM     86  O   UNL A   1      35.859  33.893  29.500  1.00  0.00    -0.237 OA
ATOM     87  O   UNL A   1      34.531  31.928  28.857  1.00  0.00    -0.744 OA
ENDBRANCH  81  84
ENDBRANCH  53  77
BRANCH  65  88
ATOM     88  C   UNL A   1      44.359  34.194  29.728  1.00  0.00     0.023 A 
ATOM     89  C   UNL A   1      45.170  34.389  30.862  1.00  0.00     0.012 A 
ATOM     90  C   UNL A   1      44.133  35.263  28.840  1.00  0.00     0.148 A 
ATOM     91  C   UNL A   1      45.754  35.632  31.105  1.00  0.00     0.002 A 
ATOM     92  C   UNL A   1      44.750  36.487  29.068  1.00  0.00     0.091 A 
ATOM     93  F   UNL A   1      43.348  35.051  27.773  1.00  0.00    -0.205 F 
ATOM     94  C   UNL A   1      45.557  36.674  30.202  1.00  0.00     0.022 A 
BRANCH  92  95
ATOM     95  S   UNL A   1      44.631  37.859  27.913  1.00  0.00     0.127 S 
ATOM     96  O   UNL A   1      44.836  39.008  28.792  1.00  0.00    -0.237 OA
ATOM     97  O   UNL A   1      45.738  37.587  26.995  1.00  0.00    -0.237 OA
ATOM     98  O   UNL A   1      43.308  37.765  27.311  1.00  0.00    -0.744 OA
ENDBRANCH  92  95
ENDBRANCH  65  88
ENDBRANCH  39  40
ENDBRANCH  32  34
ENDBRANCH  31  32
ENDBRANCH  30  31
ENDBRANCH   1  30
TORSDOF 17
ENDMDL
MODEL 2
REMARK VINA RESULT:     -12.6      5.091     10.459
REMARK SMILES COC(=O)c1ccc(C)c2c1[C@H]1C=CC[C@H]1[C@@H](c1ccc(C(=O)OCCOC(=O)c3ccc(-c4c5nc(c(-c6cccc(S(=O)(=O)[O-])c6F)c6ccc([nH]6)c(-c6cccc(S(=O)(=O)[O-])c6F)c6nc(c(-c7cccc(S(=O)(=O)[O-])c7F)c7ccc4[nH]7)C=C6)C=C5)cc3)cc1)N2
REMARK SMILES IDX 25 1 24 2 22 3 23 4 21 5 18 6 19 7 94 8 20 9 93 10 17 11
REMARK SMILES IDX 5 12 6 13 11 14 7 15 10 16 12 17 8 18 95 19 13 20 16 21 9 22
REMARK SMILES IDX 14 24 15 25 3 26 4 27 2 28 1 29 26 30 27 31 28 32 29 33
REMARK SMILES IDX 30 34 31 35 92 36 32 37 91 38 33 39 34 40 35 41 85 42 36 43
REMARK SMILES IDX 90 44 84 45 86 46 37 47 89 48 83 49 82 50 38 52 70 53 50 54
REMARK SMILES IDX 69 55 51 56 54 57 68 58 87 59 52 60 53 61 67 63 88 64 55 65
REMARK SMILES IDX 39 66 40 67 48 68 41 69 43 70 49 71 42 72 44 73 45 74 46 75
REMARK SMILES IDX 47 76 71 77 72 78 80 79 73 80 75 81 81 82 74 83 76 84 77 85
REMARK SMILES IDX 78 86 79 87 56 88 57 89 65 90 58 91 60 92 66 93 59 94 61 95
REMARK SMILES IDX 62 96 63 97 64 98
REMARK H PARENT 95 23 86 51 54 62
REMARK Flexibility Score: inf
ROOT
ATOM      1  C   UNL A   1      32.411  30.812  26.796  1.00  0.00     0.275 C 
ENDROOT
BRANCH   1   2
ATOM      2  O   UNL A   1      31.361  29.835  26.674  1.00  0.00    -0.458 OA
BRANCH   2   3
ATOM      3  C   UNL A   1      31.666  28.571  27.059  1.00  0.00     0.338 C 
ATOM      4  O   UNL A   1      31.289  28.008  28.073  1.00  0.00    -0.246 OA
BRANCH   3   5
ATOM      5  C   UNL A   1      32.421  27.892  25.980  1.00  0.00     0.060 A 
ATOM      6  C   UNL A   1      33.539  26.213  23.998  1.00  0.00    -0.025 A 
ATOM      7  C   UNL A   1      33.814  26.018  25.363  1.00  0.00     0.007 A 
ATOM      8  C   UNL A   1      32.826  27.376  23.652  1.00  0.00     0.007 A 
ATOM      9  C   UNL A   1      33.288  26.863  26.341  1.00  0.00     0.016 A 
ATOM     10  C   UNL A   1      32.235  28.186  24.629  1.00  0.00     0.016 A 
BRANCH   6  11
ATOM     11  C   UNL A   1      33.949  25.205  22.913  1.00  0.00     0.114 C 
ATOM     12  C   UNL A   1      33.614  21.425  24.922  1.00  0.00     0.065 A 
ATOM     13  C   UNL A   1      34.650  20.977  25.736  1.00  0.00     0.016 A 
ATOM     14  C   UNL A   1      33.742  22.600  24.145  1.00  0.00    -0.003 A 
ATOM     15  C   UNL A   1      35.852  21.674  25.736  1.00  0.00     0.006 A 
ATOM     16  C   UNL A   1      34.976  23.287  24.116  1.00  0.00     0.042 A 
ATOM     17  C   UNL A   1      32.583  23.071  23.308  1.00  0.00     0.050 C 
ATOM     18  C   UNL A   1      36.044  22.802  24.908  1.00  0.00    -0.028 A 
ATOM     19  N   UNL A   1      35.118  24.429  23.328  1.00  0.00    -0.377 N 
ATOM     20  C   UNL A   1      31.405  23.643  24.056  1.00  0.00    -0.023 C 
ATOM     21  C   UNL A   1      32.893  24.220  22.334  1.00  0.00     0.031 C 
ATOM     22  C   UNL A   1      37.409  23.439  24.964  1.00  0.00     0.046 C 
ATOM     23  H   UNL A   1      36.016  24.716  23.048  1.00  0.00     0.161 HD
ATOM     24  C   UNL A   1      30.785  24.583  23.329  1.00  0.00    -0.030 C 
ATOM     25  C   UNL A   1      31.500  24.799  22.035  1.00  0.00     0.034 C 
BRANCH  12  26
ATOM     26  C   UNL A   1      32.451  20.541  24.731  1.00  0.00     0.338 C 
ATOM     27  O   UNL A   1      31.420  20.671  25.370  1.00  0.00    -0.246 OA
BRANCH  26  28
ATOM     28  O   UNL A   1      32.768  19.541  23.879  1.00  0.00    -0.465 OA
ATOM     29  C   UNL A   1      32.500  18.247  24.423  1.00  0.00     0.282 C 
ENDBRANCH  26  28
ENDBRANCH  12  26
ENDBRANCH   6  11
ENDBRANCH   3   5
ENDBRANCH   2   3
ENDBRANCH   1   2
BRANCH   1  30
ATOM     30  C   UNL A   1      31.822  32.208  27.016  1.00  0.00     0.275 C 
BRANCH  30  31
ATOM     31  O   UNL A   1      32.823  33.231  26.848  1.00  0.00    -0.458 OA
BRANCH  31  32
ATOM     32  C   UNL A   1      33.285  33.791  27.992  1.00  0.00     0.338 C 
ATOM     33  O   UNL A   1      32.764  34.685  28.638  1.00  0.00    -0.246 OA
BRANCH  32  34
ATOM     34  C   UNL A   1      34.505  33.085  28.421  1.00  0.00     0.060 A 
ATOM     35  C   UNL A   1      34.360  32.009  29.296  1.00  0.00     0.016 A 
ATOM     36  C   UNL A   1      35.776  33.516  28.040  1.00  0.00     0.016 A 
ATOM     37  C   UNL A   1      35.481  31.354  29.800  1.00  0.00     0.010 A 
ATOM     38  C   UNL A   1      36.906  32.861  28.550  1.00  0.00     0.010 A 
ATOM     39  C   UNL A   1      36.766  31.787  29.447  1.00  0.00    -0.014 A 
BRANCH  39  40
ATOM     40  C   UNL A   1      37.947  31.151  30.082  1.00  0.00     0.031 A 
ATOM     41  C   UNL A   1      38.350  31.535  31.476  1.00  0.00     0.074 A 
ATOM     42  C   UNL A   1      38.635  30.192  29.436  1.00  0.00     0.049 A 
ATOM     43  N   UNL A   1      39.240  30.982  32.260  1.00  0.00    -0.248 NA
ATOM     44  C   UNL A   1      37.645  32.673  32.078  1.00  0.00     0.031 C 
ATOM     45  C   UNL A   1      38.352  29.710  28.086  1.00  0.00     0.029 A 
ATOM     46  N   UNL A   1      39.728  29.465  29.834  1.00  0.00    -0.354 N 
ATOM     47  C   UNL A   1      39.157  31.668  33.465  1.00  0.00     0.074 A 
ATOM     48  C   UNL A   1      38.174  32.711  33.294  1.00  0.00     0.031 C 
ATOM     49  C   UNL A   1      39.268  28.784  27.755  1.00  0.00     0.029 A 
ATOM     50  C   UNL A   1      40.206  28.617  28.866  1.00  0.00     0.049 A 
ATOM     51  H   UNL A   1      40.131  29.543  30.729  1.00  0.00     0.167 HD
ATOM     52  C   UNL A   1      39.816  31.432  34.622  1.00  0.00     0.034 A 
ATOM     53  C   UNL A   1      41.285  27.811  28.867  1.00  0.00     0.034 A 
ATOM     54  C   UNL A   1      40.864  30.465  34.772  1.00  0.00     0.049 A 
ATOM     55  C   UNL A   1      42.141  27.711  30.100  1.00  0.00     0.074 A 
ATOM     56  C   UNL A   1      41.601  30.169  35.905  1.00  0.00     0.029 A 
ATOM     57  N   UNL A   1      41.364  29.683  33.747  1.00  0.00    -0.354 N 
ATOM     58  N   UNL A   1      41.944  28.241  31.282  1.00  0.00    -0.248 NA
ATOM     59  C   UNL A   1      43.357  26.888  30.008  1.00  0.00     0.031 C 
ATOM     60  C   UNL A   1      42.580  29.235  35.551  1.00  0.00     0.029 A 
ATOM     61  C   UNL A   1      42.434  28.937  34.206  1.00  0.00     0.049 A 
ATOM     62  H   UNL A   1      41.011  29.660  32.828  1.00  0.00     0.167 HD
ATOM     63  C   UNL A   1      42.990  27.795  32.082  1.00  0.00     0.074 A 
ATOM     64  C   UNL A   1      43.822  26.948  31.251  1.00  0.00     0.031 C 
ATOM     65  C   UNL A   1      43.237  28.068  33.385  1.00  0.00     0.034 A 
BRANCH  52  66
ATOM     66  C   UNL A   1      39.395  32.207  35.835  1.00  0.00     0.023 A 
ATOM     67  C   UNL A   1      39.870  33.525  35.990  1.00  0.00     0.012 A 
ATOM     68  C   UNL A   1      38.482  31.680  36.764  1.00  0.00     0.148 A 
ATOM     69  C   UNL A   1      39.437  34.312  37.054  1.00  0.00     0.002 A 
ATOM     70  C   UNL A   1      38.043  32.475  37.816  1.00  0.00     0.091 A 
ATOM     71  F   UNL A   1      38.058  30.420  36.596  1.00  0.00    -0.205 F 
ATOM     72  C   UNL A   1      38.518  33.791  37.962  1.00  0.00     0.022 A 
BRANCH  70  73
ATOM     73  S   UNL A   1      36.860  31.904  39.041  1.00  0.00     0.127 S 
ATOM     74  O   UNL A   1      36.719  30.493  38.681  1.00  0.00    -0.237 OA
ATOM     75  O   UNL A   1      37.576  32.148  40.292  1.00  0.00    -0.237 OA
ATOM     76  O   UNL A   1      35.659  32.705  38.846  1.00  0.00    -0.744 OA
ENDBRANCH  70  73
ENDBRANCH  52  66
BRANCH  53  77
ATOM     77  C   UNL A   1      41.596  27.009  27.653  1.00  0.00     0.023 A 
ATOM     78  C   UNL A   1      42.160  27.643  26.532  1.00  0.00     0.012 A 
ATOM     79  C   UNL A   1      41.385  25.616  27.631  1.00  0.00     0.148 A 
ATOM     80  C   UNL A   1      42.507  26.902  25.403  1.00  0.00     0.002 A 
ATOM     81  C   UNL A   1      41.767  24.879  26.518  1.00  0.00     0.091 A 
ATOM     82  F   UNL A   1      40.833  25.043  28.709  1.00  0.00    -0.205 F 
ATOM     83  C   UNL A   1      42.321  25.520  25.399  1.00  0.00     0.022 A 
BRANCH  81  84
ATOM     84  S   UNL A   1      41.651  23.088  26.456  1.00  0.00     0.127 S 
ATOM     85  O   UNL A   1      42.280  22.794  25.170  1.00  0.00    -0.237 OA
ATOM     86  O   UNL A   1      42.433  22.695  27.628  1.00  0.00    -0.237 OA
ATOM     87  O   UNL A   1      40.230  22.778  26.543  1.00  0.00    -0.744 OA
ENDBRANCH  81  84
ENDBRANCH  53  77
BRANCH  65  88
ATOM     88  C   UNL A   1      44.449  27.459  34.034  1.00  0.00     0.023 A 
ATOM     89  C   UNL A   1      45.664  28.171  34.026  1.00  0.00     0.012 A 
ATOM     90  C   UNL A   1      44.342  26.272  34.784  1.00  0.00     0.148 A 
ATOM     91  C   UNL A   1      46.756  27.710  34.760  1.00  0.00     0.002 A 
ATOM     92  C   UNL A   1      45.422  25.840  35.543  1.00  0.00     0.091 A 
ATOM     93  F   UNL A   1      43.176  25.609  34.765  1.00  0.00    -0.205 F 
ATOM     94  C   UNL A   1      46.631  26.555  35.530  1.00  0.00     0.022 A 
BRANCH  92  95
ATOM     95  S   UNL A   1      45.326  24.417  36.638  1.00  0.00     0.127 S 
ATOM     96  O   UNL A   1      45.010  23.342  35.701  1.00  0.00    -0.237 OA
ATOM     97  O   UNL A   1      46.678  24.364  37.196  1.00  0.00    -0.237 OA
ATOM     98  O   UNL A   1      44.282  24.725  37.606  1.00  0.00    -0.744 OA
ENDBRANCH  92  95
ENDBRANCH  65  88
ENDBRANCH  39  40
ENDBRANCH  32  34
ENDBRANCH  31  32
ENDBRANCH  30  31
ENDBRANCH   1  30
TORSDOF 17
ENDMDL
MODEL 3
REMARK VINA RESULT:     -12.5      1.857      2.401
REMARK SMILES COC(=O)c1ccc(C)c2c1[C@H]1C=CC[C@H]1[C@@H](c1ccc(C(=O)OCCOC(=O)c3ccc(-c4c5nc(c(-c6cccc(S(=O)(=O)[O-])c6F)c6ccc([nH]6)c(-c6cccc(S(=O)(=O)[O-])c6F)c6nc(c(-c7cccc(S(=O)(=O)[O-])c7F)c7ccc4[nH]7)C=C6)C=C5)cc3)cc1)N2
REMARK SMILES IDX 25 1 24 2 22 3 23 4 21 5 18 6 19 7 94 8 20 9 93 10 17 11
REMARK SMILES IDX 5 12 6 13 11 14 7 15 10 16 12 17 8 18 95 19 13 20 16 21 9 22
REMARK SMILES IDX 14 24 15 25 3 26 4 27 2 28 1 29 26 30 27 31 28 32 29 33
REMARK SMILES IDX 30 34 31 35 92 36 32 37 91 38 33 39 34 40 35 41 85 42 36 43
REMARK SMILES IDX 90 44 84 45 86 46 37 47 89 48 83 49 82 50 38 52 70 53 50 54
REMARK SMILES IDX 69 55 51 56 54 57 68 58 87 59 52 60 53 61 67 63 88 64 55 65
REMARK SMILES IDX 39 66 40 67 48 68 41 69 43 70 49 71 42 72 44 73 45 74 46 75
REMARK SMILES IDX 47 76 71 77 72 78 80 79 73 80 75 81 81 82 74 83 76 84 77 85
REMARK SMILES IDX 78 86 79 87 56 88 57 89 65 90 58 91 60 92 66 93 59 94 61 95
REMARK SMILES IDX 62 96 63 97 64 98
REMARK H PARENT 95 23 86 51 54 62
REMARK Flexibility Score: inf
ROOT
ATOM      1  C   UNL A   1      38.451  21.263  25.488  1.00  0.00     0.275 C 
ENDROOT
BRANCH   1   2
ATOM      2  O   UNL A   1      37.135  21.139  24.917  1.00  0.00    -0.458 OA
BRANCH   2   3
ATOM      3  C   UNL A   1      36.656  22.227  24.264  1.00  0.00     0.338 C 
ATOM      4  O   UNL A   1      36.912  22.561  23.120  1.00  0.00    -0.246 OA
BRANCH   3   5
ATOM      5  C   UNL A   1      35.634  22.897  25.101  1.00  0.00     0.060 A 
ATOM      6  C   UNL A   1      33.396  24.165  26.278  1.00  0.00    -0.025 A 
ATOM      7  C   UNL A   1      34.278  24.868  25.438  1.00  0.00     0.007 A 
ATOM      8  C   UNL A   1      33.769  22.857  26.641  1.00  0.00     0.007 A 
ATOM      9  C   UNL A   1      35.399  24.253  24.880  1.00  0.00     0.016 A 
ATOM     10  C   UNL A   1      34.850  22.212  26.029  1.00  0.00     0.016 A 
BRANCH   6  11
ATOM     11  C   UNL A   1      32.061  24.752  26.764  1.00  0.00     0.114 C 
ATOM     12  C   UNL A   1      31.265  27.852  23.902  1.00  0.00     0.065 A 
ATOM     13  C   UNL A   1      31.869  29.098  24.042  1.00  0.00     0.016 A 
ATOM     14  C   UNL A   1      31.402  26.851  24.892  1.00  0.00    -0.003 A 
ATOM     15  C   UNL A   1      32.573  29.375  25.208  1.00  0.00     0.006 A 
ATOM     16  C   UNL A   1      32.085  27.145  26.093  1.00  0.00     0.042 A 
ATOM     17  C   UNL A   1      30.764  25.503  24.683  1.00  0.00     0.050 C 
ATOM     18  C   UNL A   1      32.657  28.430  26.253  1.00  0.00    -0.028 A 
ATOM     19  N   UNL A   1      32.196  26.173  27.086  1.00  0.00    -0.377 N 
ATOM     20  C   UNL A   1      31.396  24.617  23.640  1.00  0.00    -0.023 C 
ATOM     21  C   UNL A   1      30.778  24.569  25.904  1.00  0.00     0.031 C 
ATOM     22  C   UNL A   1      33.407  28.871  27.485  1.00  0.00     0.046 C 
ATOM     23  H   UNL A   1      32.367  26.446  28.016  1.00  0.00     0.161 HD
ATOM     24  C   UNL A   1      31.252  23.324  23.957  1.00  0.00    -0.030 C 
ATOM     25  C   UNL A   1      30.560  23.182  25.274  1.00  0.00     0.034 C 
BRANCH  12  26
ATOM     26  C   UNL A   1      30.314  27.664  22.793  1.00  0.00     0.338 C 
ATOM     27  O   UNL A   1      30.677  27.509  21.639  1.00  0.00    -0.246 OA
BRANCH  26  28
ATOM     28  O   UNL A   1      29.049  27.827  23.241  1.00  0.00    -0.465 OA
ATOM     29  C   UNL A   1      28.404  28.968  22.669  1.00  0.00     0.282 C 
ENDBRANCH  26  28
ENDBRANCH  12  26
ENDBRANCH   6  11
ENDBRANCH   3   5
ENDBRANCH   2   3
ENDBRANCH   1   2
BRANCH   1  30
ATOM     30  C   UNL A   1      39.201  19.932  25.401  1.00  0.00     0.275 C 
BRANCH  30  31
ATOM     31  O   UNL A   1      40.137  19.787  26.487  1.00  0.00    -0.458 OA
BRANCH  31  32
ATOM     32  C   UNL A   1      41.444  19.759  26.133  1.00  0.00     0.338 C 
ATOM     33  O   UNL A   1      42.048  18.837  25.611  1.00  0.00    -0.246 OA
BRANCH  32  34
ATOM     34  C   UNL A   1      42.045  21.080  26.388  1.00  0.00     0.060 A 
ATOM     35  C   UNL A   1      42.226  21.468  27.715  1.00  0.00     0.016 A 
ATOM     36  C   UNL A   1      42.352  21.960  25.349  1.00  0.00     0.016 A 
ATOM     37  C   UNL A   1      42.713  22.738  28.018  1.00  0.00     0.010 A 
ATOM     38  C   UNL A   1      42.838  23.239  25.652  1.00  0.00     0.010 A 
ATOM     39  C   UNL A   1      43.004  23.643  26.990  1.00  0.00    -0.014 A 
BRANCH  39  40
ATOM     40  C   UNL A   1      43.414  25.027  27.334  1.00  0.00     0.031 A 
ATOM     41  C   UNL A   1      44.852  25.440  27.210  1.00  0.00     0.074 A 
ATOM     42  C   UNL A   1      42.496  25.936  27.711  1.00  0.00     0.049 A 
ATOM     43  N   UNL A   1      45.379  26.633  27.302  1.00  0.00    -0.248 NA
ATOM     44  C   UNL A   1      45.822  24.376  26.922  1.00  0.00     0.031 C 
ATOM     45  C   UNL A   1      41.065  25.683  27.864  1.00  0.00     0.029 A 
ATOM     46  N   UNL A   1      42.645  27.257  28.049  1.00  0.00    -0.354 N 
ATOM     47  C   UNL A   1      46.729  26.470  27.023  1.00  0.00     0.074 A 
ATOM     48  C   UNL A   1      46.954  25.059  26.815  1.00  0.00     0.031 C 
ATOM     49  C   UNL A   1      40.469  26.808  28.294  1.00  0.00     0.029 A 
ATOM     50  C   UNL A   1      41.477  27.855  28.456  1.00  0.00     0.049 A 
ATOM     51  H   UNL A   1      43.506  27.732  28.005  1.00  0.00     0.167 HD
ATOM     52  C   UNL A   1      47.694  27.412  26.918  1.00  0.00     0.034 A 
ATOM     53  C   UNL A   1      41.250  29.098  28.921  1.00  0.00     0.034 A 
ATOM     54  C   UNL A   1      47.504  28.801  27.220  1.00  0.00     0.049 A 
ATOM     55  C   UNL A   1      42.381  30.086  28.997  1.00  0.00     0.074 A 
ATOM     56  C   UNL A   1      48.430  29.827  27.158  1.00  0.00     0.029 A 
ATOM     57  N   UNL A   1      46.326  29.346  27.699  1.00  0.00    -0.354 N 
ATOM     58  N   UNL A   1      43.613  29.959  28.569  1.00  0.00    -0.248 NA
ATOM     59  C   UNL A   1      42.090  31.396  29.601  1.00  0.00     0.031 C 
ATOM     60  C   UNL A   1      47.820  30.988  27.644  1.00  0.00     0.029 A 
ATOM     61  C   UNL A   1      46.512  30.685  27.984  1.00  0.00     0.049 A 
ATOM     62  H   UNL A   1      45.482  28.854  27.818  1.00  0.00     0.167 HD
ATOM     63  C   UNL A   1      44.236  31.176  28.823  1.00  0.00     0.074 A 
ATOM     64  C   UNL A   1      43.245  32.032  29.443  1.00  0.00     0.031 C 
ATOM     65  C   UNL A   1      45.514  31.544  28.568  1.00  0.00     0.034 A 
BRANCH  52  66
ATOM     66  C   UNL A   1      49.039  26.980  26.415  1.00  0.00     0.023 A 
ATOM     67  C   UNL A   1      49.840  26.170  27.245  1.00  0.00     0.012 A 
ATOM     68  C   UNL A   1      49.475  27.295  25.117  1.00  0.00     0.148 A 
ATOM     69  C   UNL A   1      51.058  25.673  26.786  1.00  0.00     0.002 A 
ATOM     70  C   UNL A   1      50.685  26.786  24.660  1.00  0.00     0.091 A 
ATOM     71  F   UNL A   1      48.697  28.078  24.357  1.00  0.00    -0.205 F 
ATOM     72  C   UNL A   1      51.476  25.974  25.492  1.00  0.00     0.022 A 
BRANCH  70  73
ATOM     73  S   UNL A   1      51.318  27.110  23.011  1.00  0.00     0.127 S 
ATOM     74  O   UNL A   1      51.564  28.551  23.066  1.00  0.00    -0.237 OA
ATOM     75  O   UNL A   1      52.523  26.283  22.979  1.00  0.00    -0.237 OA
ATOM     76  O   UNL A   1      50.265  26.708  22.088  1.00  0.00    -0.744 OA
ENDBRANCH  70  73
ENDBRANCH  52  66
BRANCH  53  77
ATOM     77  C   UNL A   1      39.871  29.482  29.327  1.00  0.00     0.023 A 
ATOM     78  C   UNL A   1      38.929  29.821  28.339  1.00  0.00     0.012 A 
ATOM     79  C   UNL A   1      39.481  29.458  30.681  1.00  0.00     0.148 A 
ATOM     80  C   UNL A   1      37.616  30.133  28.694  1.00  0.00     0.002 A 
ATOM     81  C   UNL A   1      38.164  29.734  31.023  1.00  0.00     0.091 A 
ATOM     82  F   UNL A   1      40.404  29.145  31.600  1.00  0.00    -0.205 F 
ATOM     83  C   UNL A   1      37.232  30.080  30.033  1.00  0.00     0.022 A 
BRANCH  81  84
ATOM     84  S   UNL A   1      37.553  29.603  32.707  1.00  0.00     0.127 S 
ATOM     85  O   UNL A   1      36.225  30.203  32.589  1.00  0.00    -0.237 OA
ATOM     86  O   UNL A   1      37.558  28.155  32.916  1.00  0.00    -0.237 OA
ATOM     87  O   UNL A   1      38.500  30.339  33.533  1.00  0.00    -0.744 OA
ENDBRANCH  81  84
ENDBRANCH  53  77
BRANCH  65  88
ATOM     88  C   UNL A   1      45.954  32.932  28.942  1.00  0.00     0.023 A 
ATOM     89  C   UNL A   1      46.647  33.131  30.152  1.00  0.00     0.012 A 
ATOM     90  C   UNL A   1      45.827  33.996  28.029  1.00  0.00     0.148 A 
ATOM     91  C   UNL A   1      47.211  34.371  30.445  1.00  0.00     0.002 A 
ATOM     92  C   UNL A   1      46.425  35.219  28.311  1.00  0.00     0.091 A 
ATOM     93  F   UNL A   1      45.153  33.782  26.889  1.00  0.00    -0.205 F 
ATOM     94  C   UNL A   1      47.114  35.409  29.520  1.00  0.00     0.022 A 
BRANCH  92  95
ATOM     95  S   UNL A   1      46.434  36.583  27.141  1.00  0.00     0.127 S 
ATOM     96  O   UNL A   1      47.234  37.578  27.850  1.00  0.00    -0.237 OA
ATOM     97  O   UNL A   1      47.091  35.987  25.976  1.00  0.00    -0.237 OA
ATOM     98  O   UNL A   1      45.038  36.942  26.931  1.00  0.00    -0.744 OA
ENDBRANCH  92  95
ENDBRANCH  65  88
ENDBRANCH  39  40
ENDBRANCH  32  34
ENDBRANCH  31  32
ENDBRANCH  30  31
ENDBRANCH   1  30
TORSDOF 17
ENDMDL
