MODEL 1
REMARK VINA RESULT:     -11.7      0.000      0.000
REMARK SMILES CC(=O)N[C@@H](CCc1nc2ccccc2[nH]1)C(=O)OCCOC(=O)c1ccc(-c2c3nc(c(-c4cccc(S(=O)(=O)[O-])c4F)c4ccc([nH]4)c(-c4cccc(S(=O)(=O)[O-])c4F)c4nc(c(-c5cccc(S(=O)(=O)[O-])c5F)c5ccc2[nH]5)C=C4)C=C3)cc1
REMARK SMILES IDX 20 1 19 2 17 3 18 4 5 5 4 6 1 7 2 8 3 9 6 11 7 12 8 13 9 14
REMARK SMILES IDX 16 15 10 16 15 17 11 19 14 20 12 21 13 22 21 23 22 24 23 25
REMARK SMILES IDX 24 26 25 27 26 28 87 29 27 30 86 31 28 32 29 33 30 34 80 35
REMARK SMILES IDX 31 36 85 37 79 38 81 39 32 40 84 41 78 42 77 43 33 45 65 46
REMARK SMILES IDX 45 47 64 48 46 49 49 50 63 51 82 52 47 53 48 54 62 56 83 57
REMARK SMILES IDX 50 58 34 59 35 60 43 61 36 62 38 63 44 64 37 65 39 66 40 67
REMARK SMILES IDX 41 68 42 69 66 70 67 71 75 72 68 73 70 74 76 75 69 76 71 77
REMARK SMILES IDX 72 78 73 79 74 80 51 81 52 82 60 83 53 84 55 85 61 86 54 87
REMARK SMILES IDX 56 88 57 89 58 90 59 91
REMARK H PARENT 4 10 16 18 81 44 49 55
REMARK Flexibility Score: inf
ROOT
ATOM      1  C   UNL A   1      32.419  28.709  25.209  1.00  0.00     0.274 C 
ENDROOT
BRANCH   1   2
ATOM      2  O   UNL A   1      31.251  27.883  25.037  1.00  0.00    -0.461 OA
BRANCH   2   3
ATOM      3  C   UNL A   1      31.032  26.924  25.974  1.00  0.00     0.328 C 
ATOM      4  O   UNL A   1      31.078  27.092  27.189  1.00  0.00    -0.250 OA
BRANCH   3   5
ATOM      5  C   UNL A   1      30.785  25.535  25.359  1.00  0.00     0.192 C 
BRANCH   5   6
ATOM      6  N   UNL A   1      29.944  24.642  26.154  1.00  0.00    -0.343 N 
ATOM      7  C   UNL A   1      31.757  23.164  26.978  1.00  0.00     0.114 C 
ATOM      8  C   UNL A   1      30.311  23.580  26.929  1.00  0.00     0.217 C 
ATOM      9  O   UNL A   1      29.447  22.973  27.561  1.00  0.00    -0.275 OA
ATOM     10  H   UNL A   1      28.979  24.834  26.127  1.00  0.00     0.164 HD
ENDBRANCH   5   6
BRANCH   5  11
ATOM     11  C   UNL A   1      30.276  25.643  23.908  1.00  0.00     0.045 C 
BRANCH  11  12
ATOM     12  C   UNL A   1      31.251  25.223  22.799  1.00  0.00     0.078 C 
BRANCH  12  13
ATOM     13  C   UNL A   1      32.046  23.995  23.098  1.00  0.00     0.107 A 
ATOM     14  N   UNL A   1      33.298  23.966  23.507  1.00  0.00    -0.233 NA
ATOM     15  N   UNL A   1      31.529  22.721  23.024  1.00  0.00    -0.342 N 
ATOM     16  C   UNL A   1      33.552  22.655  23.832  1.00  0.00     0.089 A 
ATOM     17  C   UNL A   1      32.445  21.859  23.571  1.00  0.00     0.065 A 
ATOM     18  H   UNL A   1      30.655  22.472  22.644  1.00  0.00     0.168 HD
ATOM     19  C   UNL A   1      34.686  22.078  24.423  1.00  0.00     0.030 A 
ATOM     20  C   UNL A   1      32.378  20.503  23.897  1.00  0.00     0.028 A 
ATOM     21  C   UNL A   1      34.640  20.723  24.779  1.00  0.00     0.002 A 
ATOM     22  C   UNL A   1      33.502  19.954  24.524  1.00  0.00     0.002 A 
ENDBRANCH  12  13
ENDBRANCH  11  12
ENDBRANCH   5  11
ENDBRANCH   3   5
ENDBRANCH   2   3
ENDBRANCH   1   2
BRANCH   1  23
ATOM     23  C   UNL A   1      32.061  30.111  25.696  1.00  0.00     0.275 C 
BRANCH  23  24
ATOM     24  O   UNL A   1      32.465  30.301  27.059  1.00  0.00    -0.458 OA
BRANCH  24  25
ATOM     25  C   UNL A   1      33.109  31.468  27.280  1.00  0.00     0.338 C 
ATOM     26  O   UNL A   1      32.636  32.591  27.295  1.00  0.00    -0.246 OA
BRANCH  25  27
ATOM     27  C   UNL A   1      34.490  31.197  27.681  1.00  0.00     0.060 A 
ATOM     28  C   UNL A   1      34.808  29.879  28.011  1.00  0.00     0.016 A 
ATOM     29  C   UNL A   1      35.409  32.228  27.854  1.00  0.00     0.016 A 
ATOM     30  C   UNL A   1      36.025  29.586  28.602  1.00  0.00     0.010 A 
ATOM     31  C   UNL A   1      36.647  31.929  28.421  1.00  0.00     0.010 A 
ATOM     32  C   UNL A   1      36.939  30.617  28.835  1.00  0.00    -0.014 A 
BRANCH  32  33
ATOM     33  C   UNL A   1      38.166  30.337  29.607  1.00  0.00     0.031 A 
ATOM     34  C   UNL A   1      39.202  29.427  29.017  1.00  0.00     0.074 A 
ATOM     35  C   UNL A   1      38.332  30.897  30.817  1.00  0.00     0.049 A 
ATOM     36  N   UNL A   1      40.279  28.938  29.569  1.00  0.00    -0.248 NA
ATOM     37  C   UNL A   1      38.994  29.004  27.621  1.00  0.00     0.031 C 
ATOM     38  C   UNL A   1      37.389  31.818  31.455  1.00  0.00     0.029 A 
ATOM     39  N   UNL A   1      39.337  30.751  31.734  1.00  0.00    -0.354 N 
ATOM     40  C   UNL A   1      40.842  28.099  28.616  1.00  0.00     0.074 A 
ATOM     41  C   UNL A   1      39.997  28.156  27.442  1.00  0.00     0.031 C 
ATOM     42  C   UNL A   1      37.851  32.136  32.674  1.00  0.00     0.029 A 
ATOM     43  C   UNL A   1      39.091  31.406  32.917  1.00  0.00     0.049 A 
ATOM     44  H   UNL A   1      40.155  30.229  31.565  1.00  0.00     0.167 HD
ATOM     45  C   UNL A   1      41.968  27.355  28.714  1.00  0.00     0.034 A 
ATOM     46  C   UNL A   1      39.774  31.385  34.077  1.00  0.00     0.034 A 
ATOM     47  C   UNL A   1      42.821  27.355  29.870  1.00  0.00     0.049 A 
ATOM     48  C   UNL A   1      41.031  30.564  34.153  1.00  0.00     0.074 A 
ATOM     49  C   UNL A   1      44.006  26.673  30.068  1.00  0.00     0.029 A 
ATOM     50  N   UNL A   1      42.578  28.085  31.025  1.00  0.00    -0.354 N 
ATOM     51  N   UNL A   1      41.590  29.827  33.223  1.00  0.00    -0.248 NA
ATOM     52  C   UNL A   1      41.763  30.585  35.426  1.00  0.00     0.031 C 
ATOM     53  C   UNL A   1      44.479  26.988  31.348  1.00  0.00     0.029 A 
ATOM     54  C   UNL A   1      43.590  27.872  31.942  1.00  0.00     0.049 A 
ATOM     55  H   UNL A   1      41.798  28.669  31.170  1.00  0.00     0.167 HD
ATOM     56  C   UNL A   1      42.750  29.313  33.788  1.00  0.00     0.074 A 
ATOM     57  C   UNL A   1      42.825  29.845  35.135  1.00  0.00     0.031 C 
ATOM     58  C   UNL A   1      43.661  28.461  33.255  1.00  0.00     0.034 A 
BRANCH  45  59
ATOM     59  C   UNL A   1      42.346  26.502  27.534  1.00  0.00     0.023 A 
ATOM     60  C   UNL A   1      43.090  27.063  26.477  1.00  0.00     0.012 A 
ATOM     61  C   UNL A   1      41.997  25.139  27.486  1.00  0.00     0.148 A 
ATOM     62  C   UNL A   1      43.457  26.287  25.377  1.00  0.00     0.002 A 
ATOM     63  C   UNL A   1      42.397  24.362  26.404  1.00  0.00     0.091 A 
ATOM     64  F   UNL A   1      41.262  24.630  28.486  1.00  0.00    -0.205 F 
ATOM     65  C   UNL A   1      43.120  24.936  25.345  1.00  0.00     0.022 A 
BRANCH  63  66
ATOM     66  S   UNL A   1      42.064  22.599  26.307  1.00  0.00     0.127 S 
ATOM     67  O   UNL A   1      42.748  22.103  27.500  1.00  0.00    -0.237 OA
ATOM     68  O   UNL A   1      40.603  22.554  26.380  1.00  0.00    -0.237 OA
ATOM     69  O   UNL A   1      42.618  22.159  25.035  1.00  0.00    -0.744 OA
ENDBRANCH  63  66
ENDBRANCH  45  59
BRANCH  46  70
ATOM     70  C   UNL A   1      39.291  32.194  35.230  1.00  0.00     0.023 A 
ATOM     71  C   UNL A   1      38.418  31.609  36.168  1.00  0.00     0.012 A 
ATOM     72  C   UNL A   1      39.743  33.511  35.443  1.00  0.00     0.148 A 
ATOM     73  C   UNL A   1      37.996  32.326  37.288  1.00  0.00     0.002 A 
ATOM     74  C   UNL A   1      39.364  34.199  36.590  1.00  0.00     0.091 A 
ATOM     75  F   UNL A   1      40.555  34.062  34.528  1.00  0.00    -0.205 F 
ATOM     76  C   UNL A   1      38.479  33.613  37.508  1.00  0.00     0.022 A 
BRANCH  74  77
ATOM     77  S   UNL A   1      40.066  35.797  37.017  1.00  0.00     0.127 S 
ATOM     78  O   UNL A   1      39.660  36.618  35.880  1.00  0.00    -0.237 OA
ATOM     79  O   UNL A   1      39.386  36.107  38.275  1.00  0.00    -0.237 OA
ATOM     80  O   UNL A   1      41.498  35.562  37.160  1.00  0.00    -0.744 OA
ENDBRANCH  74  77
ENDBRANCH  46  70
BRANCH  58  81
ATOM     81  C   UNL A   1      44.823  28.066  34.122  1.00  0.00     0.023 A 
ATOM     82  C   UNL A   1      45.959  28.897  34.177  1.00  0.00     0.012 A 
ATOM     83  C   UNL A   1      44.755  26.924  34.941  1.00  0.00     0.148 A 
ATOM     84  C   UNL A   1      47.023  28.583  35.019  1.00  0.00     0.002 A 
ATOM     85  C   UNL A   1      45.803  26.638  35.808  1.00  0.00     0.091 A 
ATOM     86  F   UNL A   1      43.675  26.135  34.854  1.00  0.00    -0.205 F 
ATOM     87  C   UNL A   1      46.941  27.461  35.843  1.00  0.00     0.022 A 
BRANCH  85  88
ATOM     88  S   UNL A   1      45.733  25.263  36.961  1.00  0.00     0.127 S 
ATOM     89  O   UNL A   1      44.311  25.227  37.297  1.00  0.00    -0.237 OA
ATOM     90  O   UNL A   1      46.195  24.141  36.143  1.00  0.00    -0.237 OA
ATOM     91  O   UNL A   1      46.631  25.618  38.051  1.00  0.00    -0.744 OA
ENDBRANCH  85  88
ENDBRANCH  58  81
ENDBRANCH  32  33
ENDBRANCH  25  27
ENDBRANCH  24  25
ENDBRANCH  23  24
ENDBRANCH   1  23
TORSDOF 18
ENDMDL
MODEL 2
REMARK VINA RESULT:     -11.5      5.300      9.970
REMARK SMILES CC(=O)N[C@@H](CCc1nc2ccccc2[nH]1)C(=O)OCCOC(=O)c1ccc(-c2c3nc(c(-c4cccc(S(=O)(=O)[O-])c4F)c4ccc([nH]4)c(-c4cccc(S(=O)(=O)[O-])c4F)c4nc(c(-c5cccc(S(=O)(=O)[O-])c5F)c5ccc2[nH]5)C=C4)C=C3)cc1
REMARK SMILES IDX 20 1 19 2 17 3 18 4 5 5 4 6 1 7 2 8 3 9 6 11 7 12 8 13 9 14
REMARK SMILES IDX 16 15 10 16 15 17 11 19 14 20 12 21 13 22 21 23 22 24 23 25
REMARK SMILES IDX 24 26 25 27 26 28 87 29 27 30 86 31 28 32 29 33 30 34 80 35
REMARK SMILES IDX 31 36 85 37 79 38 81 39 32 40 84 41 78 42 77 43 33 45 65 46
REMARK SMILES IDX 45 47 64 48 46 49 49 50 63 51 82 52 47 53 48 54 62 56 83 57
REMARK SMILES IDX 50 58 34 59 35 60 43 61 36 62 38 63 44 64 37 65 39 66 40 67
REMARK SMILES IDX 41 68 42 69 66 70 67 71 75 72 68 73 70 74 76 75 69 76 71 77
REMARK SMILES IDX 72 78 73 79 74 80 51 81 52 82 60 83 53 84 55 85 61 86 54 87
REMARK SMILES IDX 56 88 57 89 58 90 59 91
REMARK H PARENT 4 10 16 18 81 44 49 55
REMARK Flexibility Score: inf
ROOT
ATOM      1  C   UNL A   1      35.954  20.920  24.646  1.00  0.00     0.274 C 
ENDROOT
BRANCH   1   2
ATOM      2  O   UNL A   1      35.477  22.272  24.789  1.00  0.00    -0.461 OA
BRANCH   2   3
ATOM      3  C   UNL A   1      35.405  23.022  23.660  1.00  0.00     0.328 C 
ATOM      4  O   UNL A   1      36.207  22.989  22.730  1.00  0.00    -0.250 OA
BRANCH   3   5
ATOM      5  C   UNL A   1      34.228  24.013  23.676  1.00  0.00     0.192 C 
BRANCH   5   6
ATOM      6  N   UNL A   1      33.657  24.325  22.367  1.00  0.00    -0.343 N 
ATOM      7  C   UNL A   1      33.566  26.787  22.650  1.00  0.00     0.114 C 
ATOM      8  C   UNL A   1      33.363  25.543  21.826  1.00  0.00     0.217 C 
ATOM      9  O   UNL A   1      32.922  25.599  20.679  1.00  0.00    -0.275 OA
ATOM     10  H   UNL A   1      33.458  23.549  21.796  1.00  0.00     0.164 HD
ENDBRANCH   5   6
BRANCH   5  11
ATOM     11  C   UNL A   1      33.138  23.576  24.675  1.00  0.00     0.045 C 
BRANCH  11  12
ATOM     12  C   UNL A   1      31.941  22.805  24.099  1.00  0.00     0.078 C 
BRANCH  12  13
ATOM     13  C   UNL A   1      32.082  21.320  24.125  1.00  0.00     0.107 A 
ATOM     14  N   UNL A   1      32.215  20.538  23.073  1.00  0.00    -0.233 NA
ATOM     15  N   UNL A   1      32.141  20.584  25.288  1.00  0.00    -0.342 N 
ATOM     16  C   UNL A   1      32.499  19.289  23.571  1.00  0.00     0.089 A 
ATOM     17  C   UNL A   1      32.493  19.300  24.959  1.00  0.00     0.065 A 
ATOM     18  H   UNL A   1      31.960  20.921  26.195  1.00  0.00     0.168 HD
ATOM     19  C   UNL A   1      32.843  18.108  22.897  1.00  0.00     0.030 A 
ATOM     20  C   UNL A   1      32.847  18.197  25.739  1.00  0.00     0.028 A 
ATOM     21  C   UNL A   1      33.222  16.990  23.654  1.00  0.00     0.002 A 
ATOM     22  C   UNL A   1      33.228  17.040  25.050  1.00  0.00     0.002 A 
ENDBRANCH  12  13
ENDBRANCH  11  12
ENDBRANCH   5  11
ENDBRANCH   3   5
ENDBRANCH   2   3
ENDBRANCH   1   2
BRANCH   1  23
ATOM     23  C   UNL A   1      37.476  20.837  24.741  1.00  0.00     0.275 C 
BRANCH  23  24
ATOM     24  O   UNL A   1      37.932  21.215  26.048  1.00  0.00    -0.458 OA
BRANCH  24  25
ATOM     25  C   UNL A   1      39.272  21.146  26.199  1.00  0.00     0.338 C 
ATOM     26  O   UNL A   1      40.032  20.300  25.761  1.00  0.00    -0.246 OA
BRANCH  25  27
ATOM     27  C   UNL A   1      39.753  22.365  26.852  1.00  0.00     0.060 A 
ATOM     28  C   UNL A   1      39.221  23.576  26.406  1.00  0.00     0.016 A 
ATOM     29  C   UNL A   1      40.791  22.329  27.779  1.00  0.00     0.016 A 
ATOM     30  C   UNL A   1      39.780  24.773  26.820  1.00  0.00     0.010 A 
ATOM     31  C   UNL A   1      41.334  23.534  28.219  1.00  0.00     0.010 A 
ATOM     32  C   UNL A   1      40.858  24.755  27.708  1.00  0.00    -0.014 A 
BRANCH  32  33
ATOM     33  C   UNL A   1      41.557  26.016  28.026  1.00  0.00     0.031 A 
ATOM     34  C   UNL A   1      40.821  27.083  28.780  1.00  0.00     0.074 A 
ATOM     35  C   UNL A   1      42.831  26.187  27.634  1.00  0.00     0.049 A 
ATOM     36  N   UNL A   1      41.188  28.308  29.043  1.00  0.00    -0.248 NA
ATOM     37  C   UNL A   1      39.490  26.726  29.302  1.00  0.00     0.031 C 
ATOM     38  C   UNL A   1      43.633  25.190  26.922  1.00  0.00     0.029 A 
ATOM     39  N   UNL A   1      43.662  27.267  27.756  1.00  0.00    -0.354 N 
ATOM     40  C   UNL A   1      40.111  28.889  29.700  1.00  0.00     0.074 A 
ATOM     41  C   UNL A   1      39.081  27.879  29.812  1.00  0.00     0.031 C 
ATOM     42  C   UNL A   1      44.837  25.718  26.647  1.00  0.00     0.029 A 
ATOM     43  C   UNL A   1      44.870  27.097  27.122  1.00  0.00     0.049 A 
ATOM     44  H   UNL A   1      43.420  28.085  28.249  1.00  0.00     0.167 HD
ATOM     45  C   UNL A   1      40.000  30.152  30.173  1.00  0.00     0.034 A 
ATOM     46  C   UNL A   1      45.870  27.974  26.915  1.00  0.00     0.034 A 
ATOM     47  C   UNL A   1      41.057  31.123  30.099  1.00  0.00     0.049 A 
ATOM     48  C   UNL A   1      45.728  29.365  27.466  1.00  0.00     0.074 A 
ATOM     49  C   UNL A   1      41.073  32.419  30.578  1.00  0.00     0.029 A 
ATOM     50  N   UNL A   1      42.293  30.894  29.510  1.00  0.00    -0.354 N 
ATOM     51  N   UNL A   1      44.732  29.884  28.145  1.00  0.00    -0.248 NA
ATOM     52  C   UNL A   1      46.850  30.286  27.244  1.00  0.00     0.031 C 
ATOM     53  C   UNL A   1      42.321  32.977  30.274  1.00  0.00     0.029 A 
ATOM     54  C   UNL A   1      43.082  32.024  29.613  1.00  0.00     0.049 A 
ATOM     55  H   UNL A   1      42.567  30.052  29.082  1.00  0.00     0.167 HD
ATOM     56  C   UNL A   1      45.114  31.184  28.451  1.00  0.00     0.074 A 
ATOM     57  C   UNL A   1      46.445  31.364  27.903  1.00  0.00     0.031 C 
ATOM     58  C   UNL A   1      44.423  32.152  29.104  1.00  0.00     0.034 A 
BRANCH  45  59
ATOM     59  C   UNL A   1      38.702  30.541  30.828  1.00  0.00     0.023 A 
ATOM     60  C   UNL A   1      38.499  30.262  32.194  1.00  0.00     0.012 A 
ATOM     61  C   UNL A   1      37.700  31.212  30.102  1.00  0.00     0.148 A 
ATOM     62  C   UNL A   1      37.306  30.622  32.822  1.00  0.00     0.002 A 
ATOM     63  C   UNL A   1      36.528  31.600  30.743  1.00  0.00     0.091 A 
ATOM     64  F   UNL A   1      37.899  31.441  28.796  1.00  0.00    -0.205 F 
ATOM     65  C   UNL A   1      36.326  31.298  32.100  1.00  0.00     0.022 A 
BRANCH  63  66
ATOM     66  S   UNL A   1      35.237  32.532  29.910  1.00  0.00     0.127 S 
ATOM     67  O   UNL A   1      34.805  31.586  28.882  1.00  0.00    -0.237 OA
ATOM     68  O   UNL A   1      34.267  32.750  30.984  1.00  0.00    -0.237 OA
ATOM     69  O   UNL A   1      35.876  33.745  29.419  1.00  0.00    -0.744 OA
ENDBRANCH  63  66
ENDBRANCH  45  59
BRANCH  46  70
ATOM     70  C   UNL A   1      47.092  27.537  26.185  1.00  0.00     0.023 A 
ATOM     71  C   UNL A   1      48.034  26.721  26.839  1.00  0.00     0.012 A 
ATOM     72  C   UNL A   1      47.292  27.864  24.829  1.00  0.00     0.148 A 
ATOM     73  C   UNL A   1      49.159  26.250  26.160  1.00  0.00     0.002 A 
ATOM     74  C   UNL A   1      48.384  27.345  24.142  1.00  0.00     0.091 A 
ATOM     75  F   UNL A   1      46.397  28.661  24.226  1.00  0.00    -0.205 F 
ATOM     76  C   UNL A   1      49.327  26.548  24.810  1.00  0.00     0.022 A 
BRANCH  74  77
ATOM     77  S   UNL A   1      48.583  27.558  22.369  1.00  0.00     0.127 S 
ATOM     78  O   UNL A   1      48.640  26.175  21.904  1.00  0.00    -0.237 OA
ATOM     79  O   UNL A   1      47.364  28.282  22.006  1.00  0.00    -0.237 OA
ATOM     80  O   UNL A   1      49.804  28.339  22.212  1.00  0.00    -0.744 OA
ENDBRANCH  74  77
ENDBRANCH  46  70
BRANCH  58  81
ATOM     81  C   UNL A   1      45.100  33.482  29.276  1.00  0.00     0.023 A 
ATOM     82  C   UNL A   1      45.913  33.705  30.403  1.00  0.00     0.012 A 
ATOM     83  C   UNL A   1      44.998  34.476  28.283  1.00  0.00     0.148 A 
ATOM     84  C   UNL A   1      46.598  34.909  30.554  1.00  0.00     0.002 A 
ATOM     85  C   UNL A   1      45.715  35.658  28.421  1.00  0.00     0.091 A 
ATOM     86  F   UNL A   1      44.199  34.252  27.230  1.00  0.00    -0.205 F 
ATOM     87  C   UNL A   1      46.508  35.880  29.558  1.00  0.00     0.022 A 
BRANCH  85  88
ATOM     88  S   UNL A   1      45.722  36.919  27.141  1.00  0.00     0.127 S 
ATOM     89  O   UNL A   1      46.334  36.205  26.023  1.00  0.00    -0.237 OA
ATOM     90  O   UNL A   1      44.296  37.205  26.974  1.00  0.00    -0.237 OA
ATOM     91  O   UNL A   1      46.495  38.026  27.685  1.00  0.00    -0.744 OA
ENDBRANCH  85  88
ENDBRANCH  58  81
ENDBRANCH  32  33
ENDBRANCH  25  27
ENDBRANCH  24  25
ENDBRANCH  23  24
ENDBRANCH   1  23
TORSDOF 18
ENDMDL
MODEL 3
REMARK VINA RESULT:     -11.4      1.466      2.326
REMARK SMILES CC(=O)N[C@@H](CCc1nc2ccccc2[nH]1)C(=O)OCCOC(=O)c1ccc(-c2c3nc(c(-c4cccc(S(=O)(=O)[O-])c4F)c4ccc([nH]4)c(-c4cccc(S(=O)(=O)[O-])c4F)c4nc(c(-c5cccc(S(=O)(=O)[O-])c5F)c5ccc2[nH]5)C=C4)C=C3)cc1
REMARK SMILES IDX 20 1 19 2 17 3 18 4 5 5 4 6 1 7 2 8 3 9 6 11 7 12 8 13 9 14
REMARK SMILES IDX 16 15 10 16 15 17 11 19 14 20 12 21 13 22 21 23 22 24 23 25
REMARK SMILES IDX 24 26 25 27 26 28 87 29 27 30 86 31 28 32 29 33 30 34 80 35
REMARK SMILES IDX 31 36 85 37 79 38 81 39 32 40 84 41 78 42 77 43 33 45 65 46
REMARK SMILES IDX 45 47 64 48 46 49 49 50 63 51 82 52 47 53 48 54 62 56 83 57
REMARK SMILES IDX 50 58 34 59 35 60 43 61 36 62 38 63 44 64 37 65 39 66 40 67
REMARK SMILES IDX 41 68 42 69 66 70 67 71 75 72 68 73 70 74 76 75 69 76 71 77
REMARK SMILES IDX 72 78 73 79 74 80 51 81 52 82 60 83 53 84 55 85 61 86 54 87
REMARK SMILES IDX 56 88 57 89 58 90 59 91
REMARK H PARENT 4 10 16 18 81 44 49 55
REMARK Flexibility Score: inf
ROOT
ATOM      1  C   UNL A   1      31.818  28.967  25.423  1.00  0.00     0.274 C 
ENDROOT
BRANCH   1   2
ATOM      2  O   UNL A   1      33.030  28.739  24.677  1.00  0.00    -0.461 OA
BRANCH   2   3
ATOM      3  C   UNL A   1      32.951  28.851  23.326  1.00  0.00     0.328 C 
ATOM      4  O   UNL A   1      33.827  29.309  22.597  1.00  0.00    -0.250 OA
BRANCH   3   5
ATOM      5  C   UNL A   1      31.587  28.408  22.770  1.00  0.00     0.192 C 
BRANCH   5   6
ATOM      6  N   UNL A   1      30.905  29.393  21.933  1.00  0.00    -0.343 N 
ATOM      7  C   UNL A   1      28.609  28.968  22.767  1.00  0.00     0.114 C 
ATOM      8  C   UNL A   1      29.580  29.722  21.898  1.00  0.00     0.217 C 
ATOM      9  O   UNL A   1      29.205  30.619  21.144  1.00  0.00    -0.275 OA
ATOM     10  H   UNL A   1      31.481  29.889  21.308  1.00  0.00     0.164 HD
ENDBRANCH   5   6
BRANCH   5  11
ATOM     11  C   UNL A   1      31.684  27.041  22.063  1.00  0.00     0.045 C 
BRANCH  11  12
ATOM     12  C   UNL A   1      33.090  26.449  21.891  1.00  0.00     0.078 C 
BRANCH  12  13
ATOM     13  C   UNL A   1      33.447  25.387  22.878  1.00  0.00     0.107 A 
ATOM     14  N   UNL A   1      33.160  24.105  22.770  1.00  0.00    -0.233 NA
ATOM     15  N   UNL A   1      34.179  25.627  24.019  1.00  0.00    -0.342 N 
ATOM     16  C   UNL A   1      33.836  23.487  23.794  1.00  0.00     0.089 A 
ATOM     17  C   UNL A   1      34.512  24.417  24.571  1.00  0.00     0.065 A 
ATOM     18  H   UNL A   1      34.419  26.513  24.376  1.00  0.00     0.168 HD
ATOM     19  C   UNL A   1      33.977  22.121  24.083  1.00  0.00     0.030 A 
ATOM     20  C   UNL A   1      35.364  24.069  25.621  1.00  0.00     0.028 A 
ATOM     21  C   UNL A   1      34.841  21.741  25.120  1.00  0.00     0.002 A 
ATOM     22  C   UNL A   1      35.525  22.701  25.869  1.00  0.00     0.002 A 
ENDBRANCH  12  13
ENDBRANCH  11  12
ENDBRANCH   5  11
ENDBRANCH   3   5
ENDBRANCH   2   3
ENDBRANCH   1   2
BRANCH   1  23
ATOM     23  C   UNL A   1      31.728  30.400  25.944  1.00  0.00     0.275 C 
BRANCH  23  24
ATOM     24  O   UNL A   1      32.414  30.536  27.197  1.00  0.00    -0.458 OA
BRANCH  24  25
ATOM     25  C   UNL A   1      33.124  31.680  27.309  1.00  0.00     0.338 C 
ATOM     26  O   UNL A   1      32.712  32.825  27.238  1.00  0.00    -0.246 OA
BRANCH  25  27
ATOM     27  C   UNL A   1      34.496  31.367  27.711  1.00  0.00     0.060 A 
ATOM     28  C   UNL A   1      34.771  30.041  28.050  1.00  0.00     0.016 A 
ATOM     29  C   UNL A   1      35.449  32.368  27.876  1.00  0.00     0.016 A 
ATOM     30  C   UNL A   1      35.979  29.713  28.642  1.00  0.00     0.010 A 
ATOM     31  C   UNL A   1      36.677  32.033  28.443  1.00  0.00     0.010 A 
ATOM     32  C   UNL A   1      36.926  30.716  28.866  1.00  0.00    -0.014 A 
BRANCH  32  33
ATOM     33  C   UNL A   1      38.145  30.402  29.639  1.00  0.00     0.031 A 
ATOM     34  C   UNL A   1      39.160  29.470  29.046  1.00  0.00     0.074 A 
ATOM     35  C   UNL A   1      38.322  30.951  30.853  1.00  0.00     0.049 A 
ATOM     36  N   UNL A   1      40.223  28.951  29.597  1.00  0.00    -0.248 NA
ATOM     37  C   UNL A   1      38.944  29.059  27.647  1.00  0.00     0.031 C 
ATOM     38  C   UNL A   1      37.401  31.891  31.494  1.00  0.00     0.029 A 
ATOM     39  N   UNL A   1      39.321  30.775  31.771  1.00  0.00    -0.354 N 
ATOM     40  C   UNL A   1      40.767  28.104  28.640  1.00  0.00     0.074 A 
ATOM     41  C   UNL A   1      39.926  28.188  27.466  1.00  0.00     0.031 C 
ATOM     42  C   UNL A   1      37.868  32.191  32.716  1.00  0.00     0.029 A 
ATOM     43  C   UNL A   1      39.090  31.430  32.957  1.00  0.00     0.049 A 
ATOM     44  H   UNL A   1      40.126  30.235  31.600  1.00  0.00     0.167 HD
ATOM     45  C   UNL A   1      41.874  27.332  28.736  1.00  0.00     0.034 A 
ATOM     46  C   UNL A   1      39.769  31.386  34.118  1.00  0.00     0.034 A 
ATOM     47  C   UNL A   1      42.725  27.306  29.894  1.00  0.00     0.049 A 
ATOM     48  C   UNL A   1      41.006  30.533  34.192  1.00  0.00     0.074 A 
ATOM     49  C   UNL A   1      43.893  26.593  30.090  1.00  0.00     0.029 A 
ATOM     50  N   UNL A   1      42.497  28.035  31.053  1.00  0.00    -0.354 N 
ATOM     51  N   UNL A   1      41.549  29.788  33.258  1.00  0.00    -0.248 NA
ATOM     52  C   UNL A   1      41.736  30.530  35.466  1.00  0.00     0.031 C 
ATOM     53  C   UNL A   1      44.370  26.890  31.373  1.00  0.00     0.029 A 
ATOM     54  C   UNL A   1      43.503  27.792  31.970  1.00  0.00     0.049 A 
ATOM     55  H   UNL A   1      41.732  28.636  31.200  1.00  0.00     0.167 HD
ATOM     56  C   UNL A   1      42.694  29.243  33.822  1.00  0.00     0.074 A 
ATOM     57  C   UNL A   1      42.780  29.766  35.173  1.00  0.00     0.031 C 
ATOM     58  C   UNL A   1      43.585  28.372  33.286  1.00  0.00     0.034 A 
BRANCH  45  59
ATOM     59  C   UNL A   1      42.234  26.477  27.552  1.00  0.00     0.023 A 
ATOM     60  C   UNL A   1      42.952  27.038  26.478  1.00  0.00     0.012 A 
ATOM     61  C   UNL A   1      41.892  25.111  27.517  1.00  0.00     0.148 A 
ATOM     62  C   UNL A   1      43.302  26.260  25.374  1.00  0.00     0.002 A 
ATOM     63  C   UNL A   1      42.275  24.333  26.430  1.00  0.00     0.091 A 
ATOM     64  F   UNL A   1      41.181  24.603  28.533  1.00  0.00    -0.205 F 
ATOM     65  C   UNL A   1      42.972  24.907  25.355  1.00  0.00     0.022 A 
BRANCH  63  66
ATOM     66  S   UNL A   1      41.951  22.568  26.347  1.00  0.00     0.127 S 
ATOM     67  O   UNL A   1      42.616  22.202  25.098  1.00  0.00    -0.237 OA
ATOM     68  O   UNL A   1      42.611  22.073  27.556  1.00  0.00    -0.237 OA
ATOM     69  O   UNL A   1      40.501  22.429  26.353  1.00  0.00    -0.744 OA
ENDBRANCH  63  66
ENDBRANCH  45  59
BRANCH  46  70
ATOM     70  C   UNL A   1      39.304  32.200  35.275  1.00  0.00     0.023 A 
ATOM     71  C   UNL A   1      38.450  31.617  36.231  1.00  0.00     0.012 A 
ATOM     72  C   UNL A   1      39.755  33.520  35.472  1.00  0.00     0.148 A 
ATOM     73  C   UNL A   1      38.045  32.340  37.354  1.00  0.00     0.002 A 
ATOM     74  C   UNL A   1      39.394  34.213  36.621  1.00  0.00     0.091 A 
ATOM     75  F   UNL A   1      40.550  34.068  34.540  1.00  0.00    -0.205 F 
ATOM     76  C   UNL A   1      38.527  33.630  37.558  1.00  0.00     0.022 A 
BRANCH  74  77
ATOM     77  S   UNL A   1      40.098  35.816  37.026  1.00  0.00     0.127 S 
ATOM     78  O   UNL A   1      41.526  35.513  37.080  1.00  0.00    -0.237 OA
ATOM     79  O   UNL A   1      39.684  36.633  35.885  1.00  0.00    -0.237 OA
ATOM     80  O   UNL A   1      39.477  36.200  38.288  1.00  0.00    -0.744 OA
ENDBRANCH  74  77
ENDBRANCH  46  70
BRANCH  58  81
ATOM     81  C   UNL A   1      44.736  27.944  34.153  1.00  0.00     0.023 A 
ATOM     82  C   UNL A   1      45.912  28.718  34.174  1.00  0.00     0.012 A 
ATOM     83  C   UNL A   1      44.620  26.830  35.005  1.00  0.00     0.148 A 
ATOM     84  C   UNL A   1      46.968  28.375  35.015  1.00  0.00     0.002 A 
ATOM     85  C   UNL A   1      45.662  26.516  35.870  1.00  0.00     0.091 A 
ATOM     86  F   UNL A   1      43.501  26.093  34.951  1.00  0.00    -0.205 F 
ATOM     87  C   UNL A   1      46.839  27.282  35.871  1.00  0.00     0.022 A 
BRANCH  85  88
ATOM     88  S   UNL A   1      45.536  25.179  37.063  1.00  0.00     0.127 S 
ATOM     89  O   UNL A   1      45.414  24.013  36.191  1.00  0.00    -0.237 OA
ATOM     90  O   UNL A   1      46.810  25.275  37.778  1.00  0.00    -0.237 OA
ATOM     91  O   UNL A   1      44.369  25.487  37.876  1.00  0.00    -0.744 OA
ENDBRANCH  85  88
ENDBRANCH  58  81
ENDBRANCH  32  33
ENDBRANCH  25  27
ENDBRANCH  24  25
ENDBRANCH  23  24
ENDBRANCH   1  23
TORSDOF 18
ENDMDL
