MODEL 1
REMARK VINA RESULT:     -13.0      0.000      0.000
REMARK SMILES Cc1ccc(-c2cc3cccnc3n2CCC(=O)OCCOC(=O)c2ccc(-c3c4nc(c(-c5cccc(S(=O)(=O)[O-])c5F)c5ccc([nH]5)c(-c5cccc(S(=O)(=O)[O-])c5F)c5nc(c(-c6cccc(S(=O)(=O)[O-])c6F)c6ccc3[nH]6)C=C5)C=C4)cc2)cn1
REMARK SMILES IDX 20 1 19 2 17 3 18 4 16 5 15 6 14 7 6 8 7 9 8 10 13 11 9 12
REMARK SMILES IDX 12 13 10 14 11 15 5 16 1 17 2 18 3 19 89 20 4 21 88 22 21 23
REMARK SMILES IDX 22 24 23 25 24 26 25 27 26 28 87 29 27 30 86 31 28 32 29 33
REMARK SMILES IDX 30 34 80 35 31 36 85 37 79 38 81 39 32 40 84 41 78 42 77 43
REMARK SMILES IDX 33 45 65 46 45 47 64 48 46 49 49 50 63 51 82 52 47 53 48 54
REMARK SMILES IDX 62 56 83 57 50 58 34 59 35 60 43 61 36 62 38 63 44 64 37 65
REMARK SMILES IDX 39 66 40 67 41 68 42 69 66 70 67 71 75 72 68 73 70 74 76 75
REMARK SMILES IDX 69 76 71 77 72 78 73 79 74 80 51 81 52 82 60 83 53 84 55 85
REMARK SMILES IDX 61 86 54 87 56 88 57 89 58 90 59 91
REMARK H PARENT 81 44 49 55
REMARK Flexibility Score: inf
ROOT
ATOM      1  C   UNL A   1      33.303  28.118  26.733  1.00  0.00     0.274 C 
ENDROOT
BRANCH   1   2
ATOM      2  O   UNL A   1      34.149  27.219  25.959  1.00  0.00    -0.462 OA
BRANCH   2   3
ATOM      3  C   UNL A   1      33.738  26.910  24.699  1.00  0.00     0.307 C 
ATOM      4  O   UNL A   1      34.074  25.887  24.108  1.00  0.00    -0.252 OA
BRANCH   3   5
ATOM      5  C   UNL A   1      32.771  27.915  24.072  1.00  0.00     0.144 C 
BRANCH   5   6
ATOM      6  C   UNL A   1      32.025  27.545  22.785  1.00  0.00     0.136 C 
BRANCH   6   7
ATOM      7  N   UNL A   1      30.600  27.404  22.980  1.00  0.00    -0.325 N 
ATOM      8  C   UNL A   1      29.963  26.405  23.681  1.00  0.00     0.052 A 
ATOM      9  C   UNL A   1      28.642  26.811  23.822  1.00  0.00     0.039 A 
ATOM     10  C   UNL A   1      28.475  28.053  23.179  1.00  0.00     0.020 A 
ATOM     11  C   UNL A   1      29.695  28.368  22.599  1.00  0.00     0.140 A 
ATOM     12  C   UNL A   1      27.422  28.966  23.045  1.00  0.00     0.013 A 
ATOM     13  N   UNL A   1      29.976  29.462  21.860  1.00  0.00    -0.238 NA
ATOM     14  C   UNL A   1      27.658  30.104  22.280  1.00  0.00     0.021 A 
ATOM     15  C   UNL A   1      28.910  30.280  21.706  1.00  0.00     0.113 A 
BRANCH   8  16
ATOM     16  C   UNL A   1      30.569  25.251  24.341  1.00  0.00     0.017 A 
ATOM     17  C   UNL A   1      32.927  21.724  27.126  1.00  0.00     0.066 C 
ATOM     18  C   UNL A   1      32.289  22.765  26.265  1.00  0.00     0.037 A 
ATOM     19  C   UNL A   1      32.194  22.553  24.496  1.00  0.00     0.024 A 
ATOM     20  N   UNL A   1      31.587  24.155  27.068  1.00  0.00    -0.261 NA
ATOM     21  C   UNL A   1      31.284  23.772  23.524  1.00  0.00     0.014 A 
ATOM     22  C   UNL A   1      30.713  25.367  26.138  1.00  0.00     0.121 A 
ENDBRANCH   8  16
ENDBRANCH   6   7
ENDBRANCH   5   6
ENDBRANCH   3   5
ENDBRANCH   2   3
ENDBRANCH   1   2
BRANCH   1  23
ATOM     23  C   UNL A   1      33.947  29.556  27.336  1.00  0.00     0.275 C 
BRANCH  23  24
ATOM     24  O   UNL A   1      33.109  31.401  27.352  1.00  0.00    -0.458 OA
BRANCH  24  25
ATOM     25  C   UNL A   1      32.969  32.772  27.595  1.00  0.00     0.338 C 
ATOM     26  O   UNL A   1      32.005  33.507  27.384  1.00  0.00    -0.246 OA
BRANCH  25  27
ATOM     27  C   UNL A   1      34.044  33.280  28.421  1.00  0.00     0.060 A 
ATOM     28  C   UNL A   1      35.111  33.899  27.749  1.00  0.00     0.016 A 
ATOM     29  C   UNL A   1      34.139  32.719  29.687  1.00  0.00     0.016 A 
ATOM     30  C   UNL A   1      36.370  33.746  28.273  1.00  0.00     0.010 A 
ATOM     31  C   UNL A   1      35.390  32.595  30.222  1.00  0.00     0.010 A 
ATOM     32  C   UNL A   1      36.483  32.993  29.440  1.00  0.00    -0.014 A 
BRANCH  32  33
ATOM     33  C   UNL A   1      37.775  32.429  29.766  1.00  0.00     0.031 A 
ATOM     34  C   UNL A   1      37.931  31.001  29.445  1.00  0.00     0.074 A 
ATOM     35  C   UNL A   1      38.779  33.258  30.114  1.00  0.00     0.049 A 
ATOM     36  N   UNL A   1      38.303  30.043  30.228  1.00  0.00    -0.248 NA
ATOM     37  C   UNL A   1      37.518  30.571  28.100  1.00  0.00     0.031 C 
ATOM     38  C   UNL A   1      38.747  34.729  30.142  1.00  0.00     0.029 A 
ATOM     39  N   UNL A   1      40.095  32.973  30.305  1.00  0.00    -0.354 N 
ATOM     40  C   UNL A   1      38.376  28.926  29.408  1.00  0.00     0.074 A 
ATOM     41  C   UNL A   1      37.718  29.258  28.170  1.00  0.00     0.031 C 
ATOM     42  C   UNL A   1      40.011  35.194  30.044  1.00  0.00     0.029 A 
ATOM     43  C   UNL A   1      40.925  34.067  30.068  1.00  0.00     0.049 A 
ATOM     44  H   UNL A   1      40.426  32.088  30.583  1.00  0.00     0.167 HD
ATOM     45  C   UNL A   1      39.197  27.879  29.673  1.00  0.00     0.034 A 
ATOM     46  C   UNL A   1      42.249  34.016  29.793  1.00  0.00     0.034 A 
ATOM     47  C   UNL A   1      39.705  27.878  31.010  1.00  0.00     0.049 A 
ATOM     48  C   UNL A   1      42.726  32.677  30.223  1.00  0.00     0.074 A 
ATOM     49  C   UNL A   1      39.141  27.821  32.266  1.00  0.00     0.029 A 
ATOM     50  N   UNL A   1      40.996  28.315  31.180  1.00  0.00    -0.354 N 
ATOM     51  N   UNL A   1      42.778  32.277  31.462  1.00  0.00    -0.248 NA
ATOM     52  C   UNL A   1      42.822  31.622  29.224  1.00  0.00     0.031 C 
ATOM     53  C   UNL A   1      39.985  28.618  33.091  1.00  0.00     0.029 A 
ATOM     54  C   UNL A   1      41.019  29.114  32.293  1.00  0.00     0.049 A 
ATOM     55  H   UNL A   1      41.765  28.095  30.606  1.00  0.00     0.167 HD
ATOM     56  C   UNL A   1      42.494  30.918  31.408  1.00  0.00     0.074 A 
ATOM     57  C   UNL A   1      42.676  30.552  30.008  1.00  0.00     0.031 C 
ATOM     58  C   UNL A   1      41.854  30.288  32.437  1.00  0.00     0.034 A 
BRANCH  45  59
ATOM     59  C   UNL A   1      39.790  27.051  28.580  1.00  0.00     0.023 A 
ATOM     60  C   UNL A   1      39.436  25.697  28.478  1.00  0.00     0.012 A 
ATOM     61  C   UNL A   1      40.833  27.526  27.754  1.00  0.00     0.148 A 
ATOM     62  C   UNL A   1      40.074  24.858  27.557  1.00  0.00     0.002 A 
ATOM     63  C   UNL A   1      41.391  26.719  26.777  1.00  0.00     0.091 A 
ATOM     64  F   UNL A   1      41.362  28.738  27.983  1.00  0.00    -0.205 F 
ATOM     65  C   UNL A   1      41.029  25.375  26.685  1.00  0.00     0.022 A 
BRANCH  63  66
ATOM     66  S   UNL A   1      42.525  27.416  25.573  1.00  0.00     0.127 S 
ATOM     67  O   UNL A   1      43.695  27.701  26.395  1.00  0.00    -0.237 OA
ATOM     68  O   UNL A   1      42.685  26.316  24.621  1.00  0.00    -0.237 OA
ATOM     69  O   UNL A   1      41.809  28.566  25.030  1.00  0.00    -0.744 OA
ENDBRANCH  63  66
ENDBRANCH  45  59
BRANCH  46  70
ATOM     70  C   UNL A   1      43.102  34.937  28.997  1.00  0.00     0.023 A 
ATOM     71  C   UNL A   1      43.229  34.708  27.612  1.00  0.00     0.012 A 
ATOM     72  C   UNL A   1      43.601  36.157  29.509  1.00  0.00     0.148 A 
ATOM     73  C   UNL A   1      43.790  35.668  26.762  1.00  0.00     0.002 A 
ATOM     74  C   UNL A   1      44.188  37.098  28.663  1.00  0.00     0.091 A 
ATOM     75  F   UNL A   1      43.420  36.452  30.803  1.00  0.00    -0.205 F 
ATOM     76  C   UNL A   1      44.268  36.864  27.286  1.00  0.00     0.022 A 
BRANCH  74  77
ATOM     77  S   UNL A   1      44.845  38.651  29.293  1.00  0.00     0.127 S 
ATOM     78  O   UNL A   1      43.671  39.257  29.926  1.00  0.00    -0.237 OA
ATOM     79  O   UNL A   1      45.872  38.195  30.225  1.00  0.00    -0.237 OA
ATOM     80  O   UNL A   1      45.318  39.371  28.117  1.00  0.00    -0.744 OA
ENDBRANCH  74  77
ENDBRANCH  46  70
BRANCH  58  81
ATOM     81  C   UNL A   1      41.722  31.027  33.746  1.00  0.00     0.023 A 
ATOM     82  C   UNL A   1      42.754  31.008  34.706  1.00  0.00     0.012 A 
ATOM     83  C   UNL A   1      40.649  31.919  33.915  1.00  0.00     0.148 A 
ATOM     84  C   UNL A   1      42.713  31.849  35.820  1.00  0.00     0.002 A 
ATOM     85  C   UNL A   1      40.633  32.786  35.002  1.00  0.00     0.091 A 
ATOM     86  F   UNL A   1      39.686  31.936  32.981  1.00  0.00    -0.205 F 
ATOM     87  C   UNL A   1      41.659  32.749  35.960  1.00  0.00     0.022 A 
BRANCH  85  88
ATOM     88  S   UNL A   1      39.381  34.061  35.183  1.00  0.00     0.127 S 
ATOM     89  O   UNL A   1      39.531  34.817  33.942  1.00  0.00    -0.237 OA
ATOM     90  O   UNL A   1      38.147  33.276  35.275  1.00  0.00    -0.237 OA
ATOM     91  O   UNL A   1      39.716  34.788  36.401  1.00  0.00    -0.744 OA
ENDBRANCH  85  88
ENDBRANCH  58  81
ENDBRANCH  32  33
ENDBRANCH  25  27
ENDBRANCH  24  25
ENDBRANCH  23  24
ENDBRANCH   1  23
TORSDOF 17
ENDMDL
MODEL 2
REMARK VINA RESULT:     -12.4      0.854      3.176
REMARK SMILES Cc1ccc(-c2cc3cccnc3n2CCC(=O)OCCOC(=O)c2ccc(-c3c4nc(c(-c5cccc(S(=O)(=O)[O-])c5F)c5ccc([nH]5)c(-c5cccc(S(=O)(=O)[O-])c5F)c5nc(c(-c6cccc(S(=O)(=O)[O-])c6F)c6ccc3[nH]6)C=C5)C=C4)cc2)cn1
REMARK SMILES IDX 20 1 19 2 17 3 18 4 16 5 15 6 14 7 6 8 7 9 8 10 13 11 9 12
REMARK SMILES IDX 12 13 10 14 11 15 5 16 1 17 2 18 3 19 89 20 4 21 88 22 21 23
REMARK SMILES IDX 22 24 23 25 24 26 25 27 26 28 87 29 27 30 86 31 28 32 29 33
REMARK SMILES IDX 30 34 80 35 31 36 85 37 79 38 81 39 32 40 84 41 78 42 77 43
REMARK SMILES IDX 33 45 65 46 45 47 64 48 46 49 49 50 63 51 82 52 47 53 48 54
REMARK SMILES IDX 62 56 83 57 50 58 34 59 35 60 43 61 36 62 38 63 44 64 37 65
REMARK SMILES IDX 39 66 40 67 41 68 42 69 66 70 67 71 75 72 68 73 70 74 76 75
REMARK SMILES IDX 69 76 71 77 72 78 73 79 74 80 51 81 52 82 60 83 53 84 55 85
REMARK SMILES IDX 61 86 54 87 56 88 57 89 58 90 59 91
REMARK H PARENT 81 44 49 55
REMARK Flexibility Score: inf
ROOT
ATOM      1  C   UNL A   1      33.658  28.153  26.874  1.00  0.00     0.274 C 
ENDROOT
BRANCH   1   2
ATOM      2  O   UNL A   1      33.872  27.063  25.931  1.00  0.00    -0.462 OA
BRANCH   2   3
ATOM      3  C   UNL A   1      33.198  25.903  26.159  1.00  0.00     0.307 C 
ATOM      4  O   UNL A   1      33.736  24.799  26.178  1.00  0.00    -0.252 OA
BRANCH   3   5
ATOM      5  C   UNL A   1      31.706  26.071  26.444  1.00  0.00     0.144 C 
BRANCH   5   6
ATOM      6  C   UNL A   1      30.759  24.880  26.249  1.00  0.00     0.136 C 
BRANCH   6   7
ATOM      7  N   UNL A   1      30.842  24.304  24.927  1.00  0.00    -0.325 N 
ATOM      8  C   UNL A   1      30.577  24.942  23.736  1.00  0.00     0.052 A 
ATOM      9  C   UNL A   1      31.032  24.096  22.732  1.00  0.00     0.039 A 
ATOM     10  C   UNL A   1      31.552  22.928  23.321  1.00  0.00     0.020 A 
ATOM     11  C   UNL A   1      31.357  23.050  24.689  1.00  0.00     0.140 A 
ATOM     12  C   UNL A   1      32.197  21.780  22.844  1.00  0.00     0.013 A 
ATOM     13  N   UNL A   1      31.683  22.143  25.633  1.00  0.00    -0.238 NA
ATOM     14  C   UNL A   1      32.542  20.808  23.778  1.00  0.00     0.021 A 
ATOM     15  C   UNL A   1      32.244  21.026  25.117  1.00  0.00     0.113 A 
BRANCH   8  16
ATOM     16  C   UNL A   1      30.115  26.315  23.541  1.00  0.00     0.017 A 
ATOM     17  C   UNL A   1      27.874  30.781  22.652  1.00  0.00     0.066 C 
ATOM     18  C   UNL A   1      28.561  29.469  22.849  1.00  0.00     0.037 A 
ATOM     19  C   UNL A   1      30.313  29.302  22.551  1.00  0.00     0.024 A 
ATOM     20  N   UNL A   1      27.594  28.134  23.445  1.00  0.00    -0.261 NA
ATOM     21  C   UNL A   1      31.114  27.734  22.947  1.00  0.00     0.014 A 
ATOM     22  C   UNL A   1      28.351  26.590  23.818  1.00  0.00     0.121 A 
ENDBRANCH   8  16
ENDBRANCH   6   7
ENDBRANCH   5   6
ENDBRANCH   3   5
ENDBRANCH   2   3
ENDBRANCH   1   2
BRANCH   1  23
ATOM     23  C   UNL A   1      33.724  29.750  26.332  1.00  0.00     0.275 C 
BRANCH  23  24
ATOM     24  O   UNL A   1      33.026  31.418  27.244  1.00  0.00    -0.458 OA
BRANCH  24  25
ATOM     25  C   UNL A   1      32.865  32.777  27.542  1.00  0.00     0.338 C 
ATOM     26  O   UNL A   1      31.876  33.495  27.394  1.00  0.00    -0.246 OA
BRANCH  25  27
ATOM     27  C   UNL A   1      33.959  33.280  28.343  1.00  0.00     0.060 A 
ATOM     28  C   UNL A   1      35.045  33.831  27.644  1.00  0.00     0.016 A 
ATOM     29  C   UNL A   1      34.039  32.770  29.632  1.00  0.00     0.016 A 
ATOM     30  C   UNL A   1      36.300  33.656  28.172  1.00  0.00     0.010 A 
ATOM     31  C   UNL A   1      35.286  32.625  30.169  1.00  0.00     0.010 A 
ATOM     32  C   UNL A   1      36.390  32.950  29.369  1.00  0.00    -0.014 A 
BRANCH  32  33
ATOM     33  C   UNL A   1      37.662  32.354  29.716  1.00  0.00     0.031 A 
ATOM     34  C   UNL A   1      37.810  30.937  29.346  1.00  0.00     0.074 A 
ATOM     35  C   UNL A   1      38.665  33.154  30.131  1.00  0.00     0.049 A 
ATOM     36  N   UNL A   1      38.141  29.944  30.103  1.00  0.00    -0.248 NA
ATOM     37  C   UNL A   1      37.437  30.565  27.972  1.00  0.00     0.031 C 
ATOM     38  C   UNL A   1      38.652  34.623  30.214  1.00  0.00     0.029 A 
ATOM     39  N   UNL A   1      39.970  32.842  30.355  1.00  0.00    -0.354 N 
ATOM     40  C   UNL A   1      38.226  28.858  29.244  1.00  0.00     0.074 A 
ATOM     41  C   UNL A   1      37.616  29.248  27.998  1.00  0.00     0.031 C 
ATOM     42  C   UNL A   1      39.925  35.072  30.177  1.00  0.00     0.029 A 
ATOM     43  C   UNL A   1      40.822  33.931  30.188  1.00  0.00     0.049 A 
ATOM     44  H   UNL A   1      40.278  31.942  30.609  1.00  0.00     0.167 HD
ATOM     45  C   UNL A   1      39.024  27.790  29.496  1.00  0.00     0.034 A 
ATOM     46  C   UNL A   1      42.155  33.871  29.956  1.00  0.00     0.034 A 
ATOM     47  C   UNL A   1      39.485  27.730  30.848  1.00  0.00     0.049 A 
ATOM     48  C   UNL A   1      42.597  32.510  30.350  1.00  0.00     0.074 A 
ATOM     49  C   UNL A   1      38.878  27.634  32.082  1.00  0.00     0.029 A 
ATOM     50  N   UNL A   1      40.775  28.141  31.079  1.00  0.00    -0.354 N 
ATOM     51  N   UNL A   1      42.602  32.062  31.574  1.00  0.00    -0.248 NA
ATOM     52  C   UNL A   1      42.713  31.492  29.314  1.00  0.00     0.031 C 
ATOM     53  C   UNL A   1      39.704  28.386  32.965  1.00  0.00     0.029 A 
ATOM     54  C   UNL A   1      40.772  28.896  32.222  1.00  0.00     0.049 A 
ATOM     55  H   UNL A   1      41.561  27.931  30.523  1.00  0.00     0.167 HD
ATOM     56  C   UNL A   1      42.301  30.710  31.457  1.00  0.00     0.074 A 
ATOM     57  C   UNL A   1      42.525  30.395  30.052  1.00  0.00     0.031 C 
ATOM     58  C   UNL A   1      41.617  30.052  32.439  1.00  0.00     0.034 A 
BRANCH  45  59
ATOM     59  C   UNL A   1      39.642  26.996  28.392  1.00  0.00     0.023 A 
ATOM     60  C   UNL A   1      39.247  25.662  28.205  1.00  0.00     0.012 A 
ATOM     61  C   UNL A   1      40.742  27.472  27.643  1.00  0.00     0.148 A 
ATOM     62  C   UNL A   1      39.902  24.846  27.275  1.00  0.00     0.002 A 
ATOM     63  C   UNL A   1      41.320  26.693  26.655  1.00  0.00     0.091 A 
ATOM     64  F   UNL A   1      41.300  28.650  27.960  1.00  0.00    -0.205 F 
ATOM     65  C   UNL A   1      40.917  25.370  26.477  1.00  0.00     0.022 A 
BRANCH  63  66
ATOM     66  S   UNL A   1      42.537  27.406  25.546  1.00  0.00     0.127 S 
ATOM     67  O   UNL A   1      41.797  28.521  24.966  1.00  0.00    -0.237 OA
ATOM     68  O   UNL A   1      43.613  27.784  26.463  1.00  0.00    -0.237 OA
ATOM     69  O   UNL A   1      42.886  26.312  24.645  1.00  0.00    -0.744 OA
ENDBRANCH  63  66
ENDBRANCH  45  59
BRANCH  46  70
ATOM     70  C   UNL A   1      43.047  34.808  29.226  1.00  0.00     0.023 A 
ATOM     71  C   UNL A   1      43.158  34.679  27.827  1.00  0.00     0.012 A 
ATOM     72  C   UNL A   1      43.603  35.963  29.824  1.00  0.00     0.148 A 
ATOM     73  C   UNL A   1      43.760  35.674  27.047  1.00  0.00     0.002 A 
ATOM     74  C   UNL A   1      44.231  36.936  29.047  1.00  0.00     0.091 A 
ATOM     75  F   UNL A   1      43.441  36.168  31.138  1.00  0.00    -0.205 F 
ATOM     76  C   UNL A   1      44.296  36.803  27.657  1.00  0.00     0.022 A 
BRANCH  74  77
ATOM     77  S   UNL A   1      44.962  38.405  29.787  1.00  0.00     0.127 S 
ATOM     78  O   UNL A   1      45.940  37.836  30.719  1.00  0.00    -0.237 OA
ATOM     79  O   UNL A   1      45.544  39.077  28.629  1.00  0.00    -0.237 OA
ATOM     80  O   UNL A   1      43.856  39.094  30.441  1.00  0.00    -0.744 OA
ENDBRANCH  74  77
ENDBRANCH  46  70
BRANCH  58  81
ATOM     81  C   UNL A   1      41.450  30.742  33.771  1.00  0.00     0.023 A 
ATOM     82  C   UNL A   1      42.458  30.690  34.755  1.00  0.00     0.012 A 
ATOM     83  C   UNL A   1      40.371  31.624  33.946  1.00  0.00     0.148 A 
ATOM     84  C   UNL A   1      42.387  31.490  35.897  1.00  0.00     0.002 A 
ATOM     85  C   UNL A   1      40.324  32.450  35.063  1.00  0.00     0.091 A 
ATOM     86  F   UNL A   1      39.431  31.673  32.989  1.00  0.00    -0.205 F 
ATOM     87  C   UNL A   1      41.327  32.381  36.043  1.00  0.00     0.022 A 
BRANCH  85  88
ATOM     88  S   UNL A   1      39.064  33.715  35.259  1.00  0.00     0.127 S 
ATOM     89  O   UNL A   1      37.870  32.919  35.531  1.00  0.00    -0.237 OA
ATOM     90  O   UNL A   1      39.564  34.478  36.406  1.00  0.00    -0.237 OA
ATOM     91  O   UNL A   1      39.044  34.464  34.009  1.00  0.00    -0.744 OA
ENDBRANCH  85  88
ENDBRANCH  58  81
ENDBRANCH  32  33
ENDBRANCH  25  27
ENDBRANCH  24  25
ENDBRANCH  23  24
ENDBRANCH   1  23
TORSDOF 17
ENDMDL
MODEL 3
REMARK VINA RESULT:     -12.2      4.004      5.356
REMARK SMILES Cc1ccc(-c2cc3cccnc3n2CCC(=O)OCCOC(=O)c2ccc(-c3c4nc(c(-c5cccc(S(=O)(=O)[O-])c5F)c5ccc([nH]5)c(-c5cccc(S(=O)(=O)[O-])c5F)c5nc(c(-c6cccc(S(=O)(=O)[O-])c6F)c6ccc3[nH]6)C=C5)C=C4)cc2)cn1
REMARK SMILES IDX 20 1 19 2 17 3 18 4 16 5 15 6 14 7 6 8 7 9 8 10 13 11 9 12
REMARK SMILES IDX 12 13 10 14 11 15 5 16 1 17 2 18 3 19 89 20 4 21 88 22 21 23
REMARK SMILES IDX 22 24 23 25 24 26 25 27 26 28 87 29 27 30 86 31 28 32 29 33
REMARK SMILES IDX 30 34 80 35 31 36 85 37 79 38 81 39 32 40 84 41 78 42 77 43
REMARK SMILES IDX 33 45 65 46 45 47 64 48 46 49 49 50 63 51 82 52 47 53 48 54
REMARK SMILES IDX 62 56 83 57 50 58 34 59 35 60 43 61 36 62 38 63 44 64 37 65
REMARK SMILES IDX 39 66 40 67 41 68 42 69 66 70 67 71 75 72 68 73 70 74 76 75
REMARK SMILES IDX 69 76 71 77 72 78 73 79 74 80 51 81 52 82 60 83 53 84 55 85
REMARK SMILES IDX 61 86 54 87 56 88 57 89 58 90 59 91
REMARK H PARENT 81 44 49 55
REMARK Flexibility Score: inf
ROOT
ATOM      1  C   UNL A   1      33.194  30.111  26.845  1.00  0.00     0.274 C 
ENDROOT
BRANCH   1   2
ATOM      2  O   UNL A   1      33.741  28.760  26.806  1.00  0.00    -0.462 OA
BRANCH   2   3
ATOM      3  C   UNL A   1      33.241  27.915  25.863  1.00  0.00     0.307 C 
ATOM      4  O   UNL A   1      33.419  26.701  25.880  1.00  0.00    -0.252 OA
BRANCH   3   5
ATOM      5  C   UNL A   1      32.386  28.584  24.787  1.00  0.00     0.144 C 
BRANCH   5   6
ATOM      6  C   UNL A   1      32.031  27.809  23.512  1.00  0.00     0.136 C 
BRANCH   6   7
ATOM      7  N   UNL A   1      30.618  27.537  23.392  1.00  0.00    -0.325 N 
ATOM      8  C   UNL A   1      29.972  26.375  23.749  1.00  0.00     0.052 A 
ATOM      9  C   UNL A   1      28.613  26.655  23.703  1.00  0.00     0.039 A 
ATOM     10  C   UNL A   1      28.435  27.990  23.290  1.00  0.00     0.020 A 
ATOM     11  C   UNL A   1      29.700  28.498  23.033  1.00  0.00     0.140 A 
ATOM     12  C   UNL A   1      27.334  28.840  23.129  1.00  0.00     0.013 A 
ATOM     13  N   UNL A   1      29.994  29.738  22.588  1.00  0.00    -0.238 NA
ATOM     14  C   UNL A   1      27.584  30.125  22.659  1.00  0.00     0.021 A 
ATOM     15  C   UNL A   1      28.894  30.498  22.387  1.00  0.00     0.113 A 
BRANCH   8  16
ATOM     16  C   UNL A   1      30.567  25.150  24.281  1.00  0.00     0.017 A 
ATOM     17  C   UNL A   1      32.452  20.594  25.484  1.00  0.00     0.066 C 
ATOM     18  C   UNL A   1      31.838  21.918  25.163  1.00  0.00     0.037 A 
ATOM     19  C   UNL A   1      31.105  22.920  26.444  1.00  0.00     0.024 A 
ATOM     20  N   UNL A   1      31.928  22.465  23.500  1.00  0.00    -0.261 NA
ATOM     21  C   UNL A   1      30.511  24.571  26.021  1.00  0.00     0.014 A 
ATOM     22  C   UNL A   1      31.336  24.063  23.060  1.00  0.00     0.121 A 
ENDBRANCH   8  16
ENDBRANCH   6   7
ENDBRANCH   5   6
ENDBRANCH   3   5
ENDBRANCH   2   3
ENDBRANCH   1   2
BRANCH   1  23
ATOM     23  C   UNL A   1      34.046  31.332  27.639  1.00  0.00     0.275 C 
BRANCH  23  24
ATOM     24  O   UNL A   1      35.847  31.216  28.558  1.00  0.00    -0.458 OA
BRANCH  24  25
ATOM     25  C   UNL A   1      36.821  30.822  29.483  1.00  0.00     0.338 C 
ATOM     26  O   UNL A   1      37.011  31.220  30.632  1.00  0.00    -0.246 OA
BRANCH  25  27
ATOM     27  C   UNL A   1      37.509  29.623  29.055  1.00  0.00     0.060 A 
ATOM     28  C   UNL A   1      37.749  28.653  30.043  1.00  0.00     0.016 A 
ATOM     29  C   UNL A   1      38.243  29.742  27.884  1.00  0.00     0.016 A 
ATOM     30  C   UNL A   1      38.909  27.926  29.954  1.00  0.00     0.010 A 
ATOM     31  C   UNL A   1      39.381  28.994  27.783  1.00  0.00     0.010 A 
ATOM     32  C   UNL A   1      39.751  28.205  28.880  1.00  0.00    -0.014 A 
BRANCH  32  33
ATOM     33  C   UNL A   1      41.142  27.822  28.986  1.00  0.00     0.031 A 
ATOM     34  C   UNL A   1      41.481  26.527  28.373  1.00  0.00     0.074 A 
ATOM     35  C   UNL A   1      42.038  28.732  29.417  1.00  0.00     0.049 A 
ATOM     36  N   UNL A   1      42.078  25.518  28.916  1.00  0.00    -0.248 NA
ATOM     37  C   UNL A   1      40.995  26.289  27.005  1.00  0.00     0.031 C 
ATOM     38  C   UNL A   1      41.784  30.144  29.742  1.00  0.00     0.029 A 
ATOM     39  N   UNL A   1      43.396  28.647  29.445  1.00  0.00    -0.354 N 
ATOM     40  C   UNL A   1      42.232  24.602  27.885  1.00  0.00     0.074 A 
ATOM     41  C   UNL A   1      41.400  25.041  26.793  1.00  0.00     0.031 C 
ATOM     42  C   UNL A   1      42.943  30.829  29.643  1.00  0.00     0.029 A 
ATOM     43  C   UNL A   1      44.017  29.892  29.369  1.00  0.00     0.049 A 
ATOM     44  H   UNL A   1      43.887  27.796  29.512  1.00  0.00     0.167 HD
ATOM     45  C   UNL A   1      43.229  23.682  27.871  1.00  0.00     0.034 A 
ATOM     46  C   UNL A   1      45.296  30.122  28.989  1.00  0.00     0.034 A 
ATOM     47  C   UNL A   1      43.873  23.520  29.137  1.00  0.00     0.049 A 
ATOM     48  C   UNL A   1      46.016  28.828  29.103  1.00  0.00     0.074 A 
ATOM     49  C   UNL A   1      43.465  23.134  30.396  1.00  0.00     0.029 A 
ATOM     50  N   UNL A   1      45.092  24.133  29.293  1.00  0.00    -0.354 N 
ATOM     51  N   UNL A   1      46.264  28.220  30.229  1.00  0.00    -0.248 NA
ATOM     52  C   UNL A   1      46.164  28.011  27.908  1.00  0.00     0.031 C 
ATOM     53  C   UNL A   1      44.261  23.897  31.297  1.00  0.00     0.029 A 
ATOM     54  C   UNL A   1      45.114  24.703  30.539  1.00  0.00     0.049 A 
ATOM     55  H   UNL A   1      45.819  24.159  28.629  1.00  0.00     0.167 HD
ATOM     56  C   UNL A   1      46.188  26.867  29.924  1.00  0.00     0.074 A 
ATOM     57  C   UNL A   1      46.271  26.804  28.470  1.00  0.00     0.031 C 
ATOM     58  C   UNL A   1      45.768  25.956  30.851  1.00  0.00     0.034 A 
BRANCH  45  59
ATOM     59  C   UNL A   1      43.820  23.187  26.591  1.00  0.00     0.023 A 
ATOM     60  C   UNL A   1      44.384  24.109  25.696  1.00  0.00     0.012 A 
ATOM     61  C   UNL A   1      43.670  21.850  26.157  1.00  0.00     0.148 A 
ATOM     62  C   UNL A   1      44.820  23.702  24.430  1.00  0.00     0.002 A 
ATOM     63  C   UNL A   1      44.193  21.433  24.945  1.00  0.00     0.091 A 
ATOM     64  F   UNL A   1      42.926  20.998  26.878  1.00  0.00    -0.205 F 
ATOM     65  C   UNL A   1      44.754  22.359  24.066  1.00  0.00     0.022 A 
BRANCH  63  66
ATOM     66  S   UNL A   1      44.222  19.688  24.531  1.00  0.00     0.127 S 
ATOM     67  O   UNL A   1      44.479  19.724  23.096  1.00  0.00    -0.237 OA
ATOM     68  O   UNL A   1      45.329  19.190  25.349  1.00  0.00    -0.237 OA
ATOM     69  O   UNL A   1      42.913  19.197  24.951  1.00  0.00    -0.744 OA
ENDBRANCH  63  66
ENDBRANCH  45  59
BRANCH  46  70
ATOM     70  C   UNL A   1      45.905  31.307  28.333  1.00  0.00     0.023 A 
ATOM     71  C   UNL A   1      47.279  31.553  28.529  1.00  0.00     0.012 A 
ATOM     72  C   UNL A   1      45.239  32.062  27.339  1.00  0.00     0.148 A 
ATOM     73  C   UNL A   1      47.974  32.482  27.745  1.00  0.00     0.002 A 
ATOM     74  C   UNL A   1      45.929  33.009  26.582  1.00  0.00     0.091 A 
ATOM     75  F   UNL A   1      43.957  31.796  27.059  1.00  0.00    -0.205 F 
ATOM     76  C   UNL A   1      47.300  33.208  26.770  1.00  0.00     0.022 A 
BRANCH  74  77
ATOM     77  S   UNL A   1      45.099  33.994  25.324  1.00  0.00     0.127 S 
ATOM     78  O   UNL A   1      46.214  34.707  24.695  1.00  0.00    -0.237 OA
ATOM     79  O   UNL A   1      44.483  32.969  24.486  1.00  0.00    -0.237 OA
ATOM     80  O   UNL A   1      44.184  34.859  26.057  1.00  0.00    -0.744 OA
ENDBRANCH  74  77
ENDBRANCH  46  70
BRANCH  58  81
ATOM     81  C   UNL A   1      45.667  26.405  32.289  1.00  0.00     0.023 A 
ATOM     82  C   UNL A   1      46.791  26.401  33.139  1.00  0.00     0.012 A 
ATOM     83  C   UNL A   1      44.488  27.036  32.720  1.00  0.00     0.148 A 
ATOM     84  C   UNL A   1      46.740  27.002  34.398  1.00  0.00     0.002 A 
ATOM     85  C   UNL A   1      44.453  27.670  33.957  1.00  0.00     0.091 A 
ATOM     86  F   UNL A   1      43.434  27.045  31.889  1.00  0.00    -0.205 F 
ATOM     87  C   UNL A   1      45.575  27.649  34.801  1.00  0.00     0.022 A 
BRANCH  85  88
ATOM     88  S   UNL A   1      43.036  28.636  34.491  1.00  0.00     0.127 S 
ATOM     89  O   UNL A   1      42.085  27.597  34.881  1.00  0.00    -0.237 OA
ATOM     90  O   UNL A   1      43.588  29.408  35.607  1.00  0.00    -0.237 OA
ATOM     91  O   UNL A   1      42.642  29.444  33.344  1.00  0.00    -0.744 OA
ENDBRANCH  85  88
ENDBRANCH  58  81
ENDBRANCH  32  33
ENDBRANCH  25  27
ENDBRANCH  24  25
ENDBRANCH  23  24
ENDBRANCH   1  23
TORSDOF 17
ENDMDL
