MODEL 1
REMARK VINA RESULT:     -11.5      0.000      0.000
REMARK SMILES O=C(N[C@@H](Cc1ccccc1)C(=O)N[C@@H](CS)C(=O)N[C@@H](CO)C(=O)OCCOC(=O)c1ccc(-c2c3nc(c(-c4cccc(S(=O)(=O)[O-])c4F)c4ccc([nH]4)c(-c4cccc(S(=O)(=O)[O-])c4F)c4nc(c(-c5cccc(S(=O)(=O)[O-])c5F)c5ccc2[nH]5)C=C4)C=C3)cc1)c1ccc(F)cc1
REMARK SMILES IDX 26 1 24 2 25 3 21 4 20 5 18 6 19 7 15 9 14 10 12 11 13 12
REMARK SMILES IDX 4 14 3 15 1 16 2 17 95 19 96 20 101 21 97 22 100 23 98 24
REMARK SMILES IDX 99 25 5 26 6 27 7 28 11 29 8 30 10 31 9 32 16 33 17 34 22 36
REMARK SMILES IDX 23 37 27 39 28 40 29 41 30 42 31 43 32 44 33 45 94 46 34 47
REMARK SMILES IDX 93 48 35 49 36 50 37 51 87 52 38 53 92 54 86 55 88 56 39 57
REMARK SMILES IDX 91 58 85 59 84 60 40 62 72 63 52 64 71 65 53 66 56 67 70 68
REMARK SMILES IDX 89 69 54 70 55 71 69 73 90 74 57 75 41 76 42 77 50 78 43 79
REMARK SMILES IDX 45 80 51 81 44 82 46 83 47 84 48 85 49 86 73 87 74 88 82 89
REMARK SMILES IDX 75 90 77 91 83 92 76 93 78 94 79 95 80 96 81 97 58 98 59 99
REMARK SMILES IDX 67 100 60 101 62 102 68 103 61 104 63 105 64 106 65 107
REMARK SMILES IDX 66 108
REMARK H PARENT 20 8 14 13 3 18 17 35 23 38 88 61 56 72
REMARK Flexibility Score: inf
ROOT
ATOM      1  O   UNL A   1      34.882  20.109  24.479  1.00  0.00    -0.460 OA
ENDROOT
BRANCH   1   2
ATOM      2  C   UNL A   1      34.065  20.775  25.347  1.00  0.00     0.331 C 
ATOM      3  O   UNL A   1      34.419  21.269  26.410  1.00  0.00    -0.250 OA
BRANCH   2   4
ATOM      4  C   UNL A   1      32.596  20.726  24.881  1.00  0.00     0.218 C 
BRANCH   4   5
ATOM      5  N   UNL A   1      31.986  22.065  24.879  1.00  0.00    -0.339 N 
ATOM      6  C   UNL A   1      31.905  22.889  23.791  1.00  0.00     0.244 C 
ATOM      7  O   UNL A   1      30.768  23.202  23.427  1.00  0.00    -0.273 OA
ATOM      8  H   UNL A   1      31.607  22.393  25.726  1.00  0.00     0.164 HD
BRANCH   6   9
ATOM      9  C   UNL A   1      33.149  23.332  22.978  1.00  0.00     0.181 C 
BRANCH   9  10
ATOM     10  N   UNL A   1      32.861  24.121  21.783  1.00  0.00    -0.342 N 
ATOM     11  C   UNL A   1      32.396  25.392  21.638  1.00  0.00     0.243 C 
ATOM     12  O   UNL A   1      32.285  25.792  20.471  1.00  0.00    -0.273 OA
ATOM     13  H   UNL A   1      33.033  23.652  20.935  1.00  0.00     0.164 HD
BRANCH  11  14
ATOM     14  C   UNL A   1      32.175  26.382  22.809  1.00  0.00     0.176 C 
BRANCH  14  15
ATOM     15  N   UNL A   1      31.254  25.951  23.863  1.00  0.00    -0.340 N 
ATOM     16  O   UNL A   1      29.527  26.059  25.274  1.00  0.00    -0.269 OA
ATOM     17  C   UNL A   1      30.038  26.467  24.237  1.00  0.00     0.251 C 
ATOM     18  H   UNL A   1      31.553  25.171  24.383  1.00  0.00     0.164 HD
BRANCH  17  19
ATOM     19  C   UNL A   1      29.399  27.559  23.467  1.00  0.00     0.040 A 
ATOM     20  C   UNL A   1      30.143  28.429  22.660  1.00  0.00     0.017 A 
ATOM     21  C   UNL A   1      28.009  27.712  23.569  1.00  0.00     0.017 A 
ATOM     22  C   UNL A   1      29.510  29.507  22.038  1.00  0.00     0.040 A 
ATOM     23  C   UNL A   1      27.378  28.784  22.934  1.00  0.00     0.040 A 
ATOM     24  C   UNL A   1      28.137  29.682  22.192  1.00  0.00     0.123 A 
ATOM     25  F   UNL A   1      27.542  30.738  21.621  1.00  0.00    -0.207 F 
ENDBRANCH  17  19
ENDBRANCH  14  15
BRANCH  14  26
ATOM     26  C   UNL A   1      33.500  26.939  23.366  1.00  0.00     0.070 C 
BRANCH  26  27
ATOM     27  C   UNL A   1      33.395  27.848  24.565  1.00  0.00    -0.045 A 
ATOM     28  C   UNL A   1      33.758  27.380  25.837  1.00  0.00     0.004 A 
ATOM     29  C   UNL A   1      32.921  29.161  24.431  1.00  0.00     0.004 A 
ATOM     30  C   UNL A   1      33.638  28.207  26.954  1.00  0.00     0.000 A 
ATOM     31  C   UNL A   1      32.793  29.981  25.552  1.00  0.00     0.000 A 
ATOM     32  C   UNL A   1      33.152  29.505  26.812  1.00  0.00     0.000 A 
ENDBRANCH  26  27
ENDBRANCH  14  26
ENDBRANCH  11  14
ENDBRANCH   9  10
BRANCH   9  33
ATOM     33  C   UNL A   1      34.221  23.946  23.885  1.00  0.00     0.101 C 
BRANCH  33  34
ATOM     34  S   UNL A   1      35.936  23.415  23.544  1.00  0.00    -0.177 SA
ATOM     35  H   UNL A   1      36.792  24.429  23.846  1.00  0.00     0.102 HD
ENDBRANCH  33  34
ENDBRANCH   9  33
ENDBRANCH   6   9
ENDBRANCH   4   5
BRANCH   4  36
ATOM     36  C   UNL A   1      32.573  20.098  23.486  1.00  0.00     0.193 C 
BRANCH  36  37
ATOM     37  O   UNL A   1      32.407  18.679  23.552  1.00  0.00    -0.394 OA
ATOM     38  H   UNL A   1      33.265  18.246  23.425  1.00  0.00     0.210 HD
ENDBRANCH  36  37
ENDBRANCH   4  36
ENDBRANCH   2   4
ENDBRANCH   1   2
BRANCH   1  39
ATOM     39  C   UNL A   1      35.984  19.375  25.049  1.00  0.00     0.274 C 
BRANCH  39  40
ATOM     40  C   UNL A   1      37.294  20.009  24.592  1.00  0.00     0.275 C 
BRANCH  40  41
ATOM     41  O   UNL A   1      37.650  21.031  25.536  1.00  0.00    -0.458 OA
BRANCH  41  42
ATOM     42  C   UNL A   1      38.950  21.030  25.923  1.00  0.00     0.338 C 
ATOM     43  O   UNL A   1      39.743  20.119  25.758  1.00  0.00    -0.246 OA
BRANCH  42  44
ATOM     44  C   UNL A   1      39.302  22.339  26.543  1.00  0.00     0.060 A 
ATOM     45  C   UNL A   1      38.529  23.482  26.337  1.00  0.00     0.016 A 
ATOM     46  C   UNL A   1      40.486  22.452  27.275  1.00  0.00     0.016 A 
ATOM     47  C   UNL A   1      39.014  24.736  26.734  1.00  0.00     0.010 A 
ATOM     48  C   UNL A   1      40.919  23.706  27.739  1.00  0.00     0.010 A 
ATOM     49  C   UNL A   1      40.236  24.888  27.407  1.00  0.00    -0.014 A 
BRANCH  49  50
ATOM     50  C   UNL A   1      40.855  26.242  27.656  1.00  0.00     0.031 A 
ATOM     51  C   UNL A   1      42.238  26.556  27.109  1.00  0.00     0.074 A 
ATOM     52  C   UNL A   1      40.230  27.233  28.333  1.00  0.00     0.049 A 
ATOM     53  N   UNL A   1      43.095  27.470  27.494  1.00  0.00    -0.248 NA
ATOM     54  C   UNL A   1      42.735  25.706  26.013  1.00  0.00     0.031 C 
ATOM     55  C   UNL A   1      38.884  27.176  28.899  1.00  0.00     0.029 A 
ATOM     56  N   UNL A   1      40.663  28.503  28.659  1.00  0.00    -0.354 N 
ATOM     57  C   UNL A   1      44.269  27.214  26.790  1.00  0.00     0.074 A 
ATOM     58  C   UNL A   1      44.003  26.085  25.926  1.00  0.00     0.031 C 
ATOM     59  C   UNL A   1      38.576  28.363  29.439  1.00  0.00     0.029 A 
ATOM     60  C   UNL A   1      39.750  29.229  29.391  1.00  0.00     0.049 A 
ATOM     61  H   UNL A   1      41.543  28.856  28.394  1.00  0.00     0.167 HD
ATOM     62  C   UNL A   1      45.461  27.855  26.858  1.00  0.00     0.034 A 
ATOM     63  C   UNL A   1      39.847  30.420  30.018  1.00  0.00     0.034 A 
ATOM     64  C   UNL A   1      45.680  29.093  27.560  1.00  0.00     0.049 A 
ATOM     65  C   UNL A   1      41.150  31.170  30.006  1.00  0.00     0.074 A 
ATOM     66  C   UNL A   1      46.850  29.828  27.666  1.00  0.00     0.029 A 
ATOM     67  N   UNL A   1      44.697  29.817  28.210  1.00  0.00    -0.354 N 
ATOM     68  N   UNL A   1      42.276  30.858  29.417  1.00  0.00    -0.248 NA
ATOM     69  C   UNL A   1      41.197  32.436  30.756  1.00  0.00     0.031 C 
ATOM     70  C   UNL A   1      46.569  31.007  28.364  1.00  0.00     0.029 A 
ATOM     71  C   UNL A   1      45.224  31.004  28.691  1.00  0.00     0.049 A 
ATOM     72  H   UNL A   1      43.761  29.532  28.316  1.00  0.00     0.167 HD
ATOM     73  C   UNL A   1      43.161  31.889  29.716  1.00  0.00     0.074 A 
ATOM     74  C   UNL A   1      42.429  32.857  30.504  1.00  0.00     0.031 C 
ATOM     75  C   UNL A   1      44.473  32.002  29.401  1.00  0.00     0.034 A 
BRANCH  62  76
ATOM     76  C   UNL A   1      46.642  27.260  26.137  1.00  0.00     0.023 A 
ATOM     77  C   UNL A   1      47.326  26.158  26.682  1.00  0.00     0.012 A 
ATOM     78  C   UNL A   1      46.987  27.723  24.849  1.00  0.00     0.148 A 
ATOM     79  C   UNL A   1      48.346  25.534  25.963  1.00  0.00     0.002 A 
ATOM     80  C   UNL A   1      47.973  27.068  24.121  1.00  0.00     0.091 A 
ATOM     81  F   UNL A   1      46.337  28.786  24.356  1.00  0.00    -0.205 F 
ATOM     82  C   UNL A   1      48.658  25.978  24.679  1.00  0.00     0.022 A 
BRANCH  80  83
ATOM     83  S   UNL A   1      48.373  27.505  22.423  1.00  0.00     0.127 S 
ATOM     84  O   UNL A   1      48.630  26.193  21.832  1.00  0.00    -0.237 OA
ATOM     85  O   UNL A   1      47.137  28.145  21.968  1.00  0.00    -0.237 OA
ATOM     86  O   UNL A   1      49.522  28.396  22.496  1.00  0.00    -0.744 OA
ENDBRANCH  80  83
ENDBRANCH  62  76
BRANCH  63  87
ATOM     87  C   UNL A   1      38.665  30.972  30.745  1.00  0.00     0.023 A 
ATOM     88  C   UNL A   1      38.651  30.977  32.153  1.00  0.00     0.012 A 
ATOM     89  C   UNL A   1      37.573  31.529  30.052  1.00  0.00     0.148 A 
ATOM     90  C   UNL A   1      37.569  31.514  32.854  1.00  0.00     0.002 A 
ATOM     91  C   UNL A   1      36.541  32.138  30.754  1.00  0.00     0.091 A 
ATOM     92  F   UNL A   1      37.571  31.479  28.712  1.00  0.00    -0.205 F 
ATOM     93  C   UNL A   1      36.524  32.113  32.155  1.00  0.00     0.022 A 
BRANCH  91  94
ATOM     94  S   UNL A   1      35.288  33.098  29.896  1.00  0.00     0.127 S 
ATOM     95  O   UNL A   1      34.680  32.098  29.025  1.00  0.00    -0.237 OA
ATOM     96  O   UNL A   1      34.436  33.560  30.993  1.00  0.00    -0.237 OA
ATOM     97  O   UNL A   1      36.032  34.166  29.239  1.00  0.00    -0.744 OA
ENDBRANCH  91  94
ENDBRANCH  63  87
BRANCH  75  98
ATOM     98  C   UNL A   1      45.200  33.235  29.865  1.00  0.00     0.023 A 
ATOM     99  C   UNL A   1      45.863  33.223  31.108  1.00  0.00     0.012 A 
ATOM    100  C   UNL A   1      45.273  34.382  29.053  1.00  0.00     0.148 A 
ATOM    101  C   UNL A   1      46.561  34.346  31.550  1.00  0.00     0.002 A 
ATOM    102  C   UNL A   1      46.000  35.486  29.484  1.00  0.00     0.091 A 
ATOM    103  F   UNL A   1      44.617  34.384  27.883  1.00  0.00    -0.205 F 
ATOM    104  C   UNL A   1      46.637  35.473  30.736  1.00  0.00     0.022 A 
BRANCH 102 105
ATOM    105  S   UNL A   1      46.204  36.947  28.458  1.00  0.00     0.127 S 
ATOM    106  O   UNL A   1      47.248  37.674  29.175  1.00  0.00    -0.237 OA
ATOM    107  O   UNL A   1      46.627  36.380  27.177  1.00  0.00    -0.237 OA
ATOM    108  O   UNL A   1      44.895  37.586  28.424  1.00  0.00    -0.744 OA
ENDBRANCH 102 105
ENDBRANCH  75  98
ENDBRANCH  49  50
ENDBRANCH  42  44
ENDBRANCH  41  42
ENDBRANCH  40  41
ENDBRANCH  39  40
ENDBRANCH   1  39
TORSDOF 26
ENDMDL
MODEL 2
REMARK VINA RESULT:     -10.8      0.949      7.094
REMARK SMILES O=C(N[C@@H](Cc1ccccc1)C(=O)N[C@@H](CS)C(=O)N[C@@H](CO)C(=O)OCCOC(=O)c1ccc(-c2c3nc(c(-c4cccc(S(=O)(=O)[O-])c4F)c4ccc([nH]4)c(-c4cccc(S(=O)(=O)[O-])c4F)c4nc(c(-c5cccc(S(=O)(=O)[O-])c5F)c5ccc2[nH]5)C=C4)C=C3)cc1)c1ccc(F)cc1
REMARK SMILES IDX 26 1 24 2 25 3 21 4 20 5 18 6 19 7 15 9 14 10 12 11 13 12
REMARK SMILES IDX 4 14 3 15 1 16 2 17 95 19 96 20 101 21 97 22 100 23 98 24
REMARK SMILES IDX 99 25 5 26 6 27 7 28 11 29 8 30 10 31 9 32 16 33 17 34 22 36
REMARK SMILES IDX 23 37 27 39 28 40 29 41 30 42 31 43 32 44 33 45 94 46 34 47
REMARK SMILES IDX 93 48 35 49 36 50 37 51 87 52 38 53 92 54 86 55 88 56 39 57
REMARK SMILES IDX 91 58 85 59 84 60 40 62 72 63 52 64 71 65 53 66 56 67 70 68
REMARK SMILES IDX 89 69 54 70 55 71 69 73 90 74 57 75 41 76 42 77 50 78 43 79
REMARK SMILES IDX 45 80 51 81 44 82 46 83 47 84 48 85 49 86 73 87 74 88 82 89
REMARK SMILES IDX 75 90 77 91 83 92 76 93 78 94 79 95 80 96 81 97 58 98 59 99
REMARK SMILES IDX 67 100 60 101 62 102 68 103 61 104 63 105 64 106 65 107
REMARK SMILES IDX 66 108
REMARK H PARENT 20 8 14 13 3 18 17 35 23 38 88 61 56 72
REMARK Flexibility Score: inf
ROOT
ATOM      1  O   UNL A   1      34.518  20.842  24.750  1.00  0.00    -0.460 OA
ENDROOT
BRANCH   1   2
ATOM      2  C   UNL A   1      33.381  20.914  25.502  1.00  0.00     0.331 C 
ATOM      3  O   UNL A   1      33.346  20.935  26.727  1.00  0.00    -0.250 OA
BRANCH   2   4
ATOM      4  C   UNL A   1      32.120  20.842  24.619  1.00  0.00     0.218 C 
BRANCH   4   5
ATOM      5  N   UNL A   1      31.318  22.073  24.722  1.00  0.00    -0.339 N 
ATOM      6  C   UNL A   1      31.524  23.208  23.990  1.00  0.00     0.244 C 
ATOM      7  O   UNL A   1      30.591  23.566  23.265  1.00  0.00    -0.273 OA
ATOM      8  H   UNL A   1      30.576  22.078  25.370  1.00  0.00     0.164 HD
BRANCH   6   9
ATOM      9  C   UNL A   1      32.879  23.960  23.967  1.00  0.00     0.181 C 
BRANCH   9  10
ATOM     10  N   UNL A   1      32.994  25.005  22.953  1.00  0.00    -0.342 N 
ATOM     11  C   UNL A   1      32.384  26.217  22.842  1.00  0.00     0.243 C 
ATOM     12  O   UNL A   1      32.723  26.899  21.865  1.00  0.00    -0.273 OA
ATOM     13  H   UNL A   1      33.620  24.796  22.223  1.00  0.00     0.164 HD
BRANCH  11  14
ATOM     14  C   UNL A   1      31.462  26.835  23.923  1.00  0.00     0.176 C 
BRANCH  14  15
ATOM     15  N   UNL A   1      30.098  26.308  23.996  1.00  0.00    -0.340 N 
ATOM     16  O   UNL A   1      27.865  26.339  24.027  1.00  0.00    -0.269 OA
ATOM     17  C   UNL A   1      28.900  26.917  23.713  1.00  0.00     0.251 C 
ATOM     18  H   UNL A   1      30.030  25.372  24.294  1.00  0.00     0.164 HD
BRANCH  17  19
ATOM     19  C   UNL A   1      28.851  28.279  23.134  1.00  0.00     0.040 A 
ATOM     20  C   UNL A   1      27.736  29.112  23.295  1.00  0.00     0.017 A 
ATOM     21  C   UNL A   1      29.960  28.724  22.400  1.00  0.00     0.017 A 
ATOM     22  C   UNL A   1      27.695  30.345  22.642  1.00  0.00     0.040 A 
ATOM     23  C   UNL A   1      29.919  29.964  21.759  1.00  0.00     0.040 A 
ATOM     24  C   UNL A   1      28.779  30.753  21.869  1.00  0.00     0.123 A 
ATOM     25  F   UNL A   1      28.718  31.921  21.216  1.00  0.00    -0.207 F 
ENDBRANCH  17  19
ENDBRANCH  14  15
BRANCH  14  26
ATOM     26  C   UNL A   1      32.145  26.917  25.302  1.00  0.00     0.070 C 
BRANCH  26  27
ATOM     27  C   UNL A   1      32.371  28.300  25.859  1.00  0.00    -0.045 A 
ATOM     28  C   UNL A   1      31.561  29.368  25.443  1.00  0.00     0.004 A 
ATOM     29  C   UNL A   1      33.398  28.543  26.782  1.00  0.00     0.004 A 
ATOM     30  C   UNL A   1      31.782  30.655  25.934  1.00  0.00     0.000 A 
ATOM     31  C   UNL A   1      33.622  29.833  27.263  1.00  0.00     0.000 A 
ATOM     32  C   UNL A   1      32.815  30.887  26.839  1.00  0.00     0.000 A 
ENDBRANCH  26  27
ENDBRANCH  14  26
ENDBRANCH  11  14
ENDBRANCH   9  10
BRANCH   9  33
ATOM     33  C   UNL A   1      33.293  24.410  25.373  1.00  0.00     0.101 C 
BRANCH  33  34
ATOM     34  S   UNL A   1      35.090  24.402  25.704  1.00  0.00    -0.177 SA
ATOM     35  H   UNL A   1      35.767  24.379  24.524  1.00  0.00     0.102 HD
ENDBRANCH  33  34
ENDBRANCH   9  33
ENDBRANCH   6   9
ENDBRANCH   4   5
BRANCH   4  36
ATOM     36  C   UNL A   1      32.576  20.592  23.179  1.00  0.00     0.193 C 
BRANCH  36  37
ATOM     37  O   UNL A   1      31.872  19.496  22.590  1.00  0.00    -0.394 OA
ATOM     38  H   UNL A   1      32.170  18.665  22.992  1.00  0.00     0.210 HD
ENDBRANCH  36  37
ENDBRANCH   4  36
ENDBRANCH   2   4
ENDBRANCH   1   2
BRANCH   1  39
ATOM     39  C   UNL A   1      35.766  20.705  25.460  1.00  0.00     0.274 C 
BRANCH  39  40
ATOM     40  C   UNL A   1      36.917  20.817  24.466  1.00  0.00     0.275 C 
BRANCH  40  41
ATOM     41  O   UNL A   1      37.787  21.872  24.907  1.00  0.00    -0.458 OA
BRANCH  41  42
ATOM     42  C   UNL A   1      38.776  21.487  25.752  1.00  0.00     0.338 C 
ATOM     43  O   UNL A   1      39.229  20.359  25.854  1.00  0.00    -0.246 OA
BRANCH  42  44
ATOM     44  C   UNL A   1      39.281  22.660  26.519  1.00  0.00     0.060 A 
ATOM     45  C   UNL A   1      38.700  23.922  26.400  1.00  0.00     0.016 A 
ATOM     46  C   UNL A   1      40.423  22.519  27.310  1.00  0.00     0.016 A 
ATOM     47  C   UNL A   1      39.341  25.043  26.945  1.00  0.00     0.010 A 
ATOM     48  C   UNL A   1      41.010  23.642  27.921  1.00  0.00     0.010 A 
ATOM     49  C   UNL A   1      40.530  24.942  27.683  1.00  0.00    -0.014 A 
BRANCH  49  50
ATOM     50  C   UNL A   1      41.327  26.154  28.099  1.00  0.00     0.031 A 
ATOM     51  C   UNL A   1      40.691  27.214  28.982  1.00  0.00     0.074 A 
ATOM     52  C   UNL A   1      42.619  26.350  27.748  1.00  0.00     0.049 A 
ATOM     53  N   UNL A   1      41.035  28.468  29.153  1.00  0.00    -0.248 NA
ATOM     54  C   UNL A   1      39.490  26.824  29.740  1.00  0.00     0.031 C 
ATOM     55  C   UNL A   1      43.445  25.443  26.955  1.00  0.00     0.029 A 
ATOM     56  N   UNL A   1      43.470  27.401  28.027  1.00  0.00    -0.354 N 
ATOM     57  C   UNL A   1      40.021  29.042  29.917  1.00  0.00     0.074 A 
ATOM     58  C   UNL A   1      39.072  27.991  30.211  1.00  0.00     0.031 C 
ATOM     59  C   UNL A   1      44.689  25.936  26.864  1.00  0.00     0.029 A 
ATOM     60  C   UNL A   1      44.722  27.263  27.469  1.00  0.00     0.049 A 
ATOM     61  H   UNL A   1      43.207  28.176  28.573  1.00  0.00     0.167 HD
ATOM     62  C   UNL A   1      39.891  30.324  30.334  1.00  0.00     0.034 A 
ATOM     63  C   UNL A   1      45.764  28.118  27.380  1.00  0.00     0.034 A 
ATOM     64  C   UNL A   1      40.919  31.326  30.220  1.00  0.00     0.049 A 
ATOM     65  C   UNL A   1      45.640  29.510  27.933  1.00  0.00     0.074 A 
ATOM     66  C   UNL A   1      40.883  32.648  30.634  1.00  0.00     0.029 A 
ATOM     67  N   UNL A   1      42.189  31.101  29.721  1.00  0.00    -0.354 N 
ATOM     68  N   UNL A   1      44.634  30.063  28.563  1.00  0.00    -0.248 NA
ATOM     69  C   UNL A   1      46.797  30.404  27.753  1.00  0.00     0.031 C 
ATOM     70  C   UNL A   1      42.140  33.216  30.403  1.00  0.00     0.029 A 
ATOM     71  C   UNL A   1      42.956  32.247  29.846  1.00  0.00     0.049 A 
ATOM     72  H   UNL A   1      42.502  30.252  29.334  1.00  0.00     0.167 HD
ATOM     73  C   UNL A   1      45.037  31.359  28.861  1.00  0.00     0.074 A 
ATOM     74  C   UNL A   1      46.395  31.500  28.381  1.00  0.00     0.031 C 
ATOM     75  C   UNL A   1      44.331  32.357  29.444  1.00  0.00     0.034 A 
BRANCH  62  76
ATOM     76  C   UNL A   1      38.598  30.742  30.986  1.00  0.00     0.023 A 
ATOM     77  C   UNL A   1      38.401  30.544  32.364  1.00  0.00     0.012 A 
ATOM     78  C   UNL A   1      37.631  31.450  30.241  1.00  0.00     0.148 A 
ATOM     79  C   UNL A   1      37.254  31.032  32.991  1.00  0.00     0.002 A 
ATOM     80  C   UNL A   1      36.514  31.973  30.880  1.00  0.00     0.091 A 
ATOM     81  F   UNL A   1      37.829  31.612  28.925  1.00  0.00    -0.205 F 
ATOM     82  C   UNL A   1      36.320  31.760  32.254  1.00  0.00     0.022 A 
BRANCH  80  83
ATOM     83  S   UNL A   1      35.310  33.007  30.033  1.00  0.00     0.127 S 
ATOM     84  O   UNL A   1      35.832  34.347  30.299  1.00  0.00    -0.237 OA
ATOM     85  O   UNL A   1      35.445  32.566  28.644  1.00  0.00    -0.237 OA
ATOM     86  O   UNL A   1      34.022  32.706  30.641  1.00  0.00    -0.744 OA
ENDBRANCH  80  83
ENDBRANCH  62  76
BRANCH  63  87
ATOM     87  C   UNL A   1      47.023  27.682  26.707  1.00  0.00     0.023 A 
ATOM     88  C   UNL A   1      48.005  26.992  27.444  1.00  0.00     0.012 A 
ATOM     89  C   UNL A   1      47.237  27.910  25.334  1.00  0.00     0.148 A 
ATOM     90  C   UNL A   1      49.178  26.550  26.828  1.00  0.00     0.002 A 
ATOM     91  C   UNL A   1      48.366  27.394  24.711  1.00  0.00     0.091 A 
ATOM     92  F   UNL A   1      46.320  28.609  24.649  1.00  0.00    -0.205 F 
ATOM     93  C   UNL A   1      49.350  26.732  25.458  1.00  0.00     0.022 A 
BRANCH  91  94
ATOM     94  S   UNL A   1      48.522  27.425  22.922  1.00  0.00     0.127 S 
ATOM     95  O   UNL A   1      49.842  28.019  22.740  1.00  0.00    -0.237 OA
ATOM     96  O   UNL A   1      48.431  26.007  22.570  1.00  0.00    -0.237 OA
ATOM     97  O   UNL A   1      47.384  28.217  22.469  1.00  0.00    -0.744 OA
ENDBRANCH  91  94
ENDBRANCH  63  87
BRANCH  75  98
ATOM     98  C   UNL A   1      45.019  33.680  29.640  1.00  0.00     0.023 A 
ATOM     99  C   UNL A   1      45.760  33.909  30.816  1.00  0.00     0.012 A 
ATOM    100  C   UNL A   1      44.979  34.674  28.644  1.00  0.00     0.148 A 
ATOM    101  C   UNL A   1      46.424  35.119  31.012  1.00  0.00     0.002 A 
ATOM    102  C   UNL A   1      45.672  35.864  28.829  1.00  0.00     0.091 A 
ATOM    103  F   UNL A   1      44.250  34.448  27.541  1.00  0.00    -0.205 F 
ATOM    104  C   UNL A   1      46.388  36.093  30.016  1.00  0.00     0.022 A 
BRANCH 102 105
ATOM    105  S   UNL A   1      45.732  37.135  27.560  1.00  0.00     0.127 S 
ATOM    106  O   UNL A   1      44.651  36.721  26.669  1.00  0.00    -0.237 OA
ATOM    107  O   UNL A   1      45.460  38.357  28.319  1.00  0.00    -0.237 OA
ATOM    108  O   UNL A   1      47.076  37.067  27.002  1.00  0.00    -0.744 OA
ENDBRANCH 102 105
ENDBRANCH  75  98
ENDBRANCH  49  50
ENDBRANCH  42  44
ENDBRANCH  41  42
ENDBRANCH  40  41
ENDBRANCH  39  40
ENDBRANCH   1  39
TORSDOF 26
ENDMDL
MODEL 3
REMARK VINA RESULT:     -10.3      3.753      9.191
REMARK SMILES O=C(N[C@@H](Cc1ccccc1)C(=O)N[C@@H](CS)C(=O)N[C@@H](CO)C(=O)OCCOC(=O)c1ccc(-c2c3nc(c(-c4cccc(S(=O)(=O)[O-])c4F)c4ccc([nH]4)c(-c4cccc(S(=O)(=O)[O-])c4F)c4nc(c(-c5cccc(S(=O)(=O)[O-])c5F)c5ccc2[nH]5)C=C4)C=C3)cc1)c1ccc(F)cc1
REMARK SMILES IDX 26 1 24 2 25 3 21 4 20 5 18 6 19 7 15 9 14 10 12 11 13 12
REMARK SMILES IDX 4 14 3 15 1 16 2 17 95 19 96 20 101 21 97 22 100 23 98 24
REMARK SMILES IDX 99 25 5 26 6 27 7 28 11 29 8 30 10 31 9 32 16 33 17 34 22 36
REMARK SMILES IDX 23 37 27 39 28 40 29 41 30 42 31 43 32 44 33 45 94 46 34 47
REMARK SMILES IDX 93 48 35 49 36 50 37 51 87 52 38 53 92 54 86 55 88 56 39 57
REMARK SMILES IDX 91 58 85 59 84 60 40 62 72 63 52 64 71 65 53 66 56 67 70 68
REMARK SMILES IDX 89 69 54 70 55 71 69 73 90 74 57 75 41 76 42 77 50 78 43 79
REMARK SMILES IDX 45 80 51 81 44 82 46 83 47 84 48 85 49 86 73 87 74 88 82 89
REMARK SMILES IDX 75 90 77 91 83 92 76 93 78 94 79 95 80 96 81 97 58 98 59 99
REMARK SMILES IDX 67 100 60 101 62 102 68 103 61 104 63 105 64 106 65 107
REMARK SMILES IDX 66 108
REMARK H PARENT 20 8 14 13 3 18 17 35 23 38 88 61 56 72
REMARK Flexibility Score: inf
ROOT
ATOM      1  O   UNL A   1      31.376  29.856  26.109  1.00  0.00    -0.460 OA
ENDROOT
BRANCH   1   2
ATOM      2  C   UNL A   1      31.819  28.748  25.446  1.00  0.00     0.331 C 
ATOM      3  O   UNL A   1      32.174  28.725  24.273  1.00  0.00    -0.250 OA
BRANCH   2   4
ATOM      4  C   UNL A   1      31.706  27.487  26.324  1.00  0.00     0.218 C 
BRANCH   4   5
ATOM      5  N   UNL A   1      30.593  26.627  25.892  1.00  0.00    -0.339 N 
ATOM      6  C   UNL A   1      30.471  25.296  26.178  1.00  0.00     0.244 C 
ATOM      7  O   UNL A   1      29.475  24.966  26.828  1.00  0.00    -0.273 OA
ATOM      8  H   UNL A   1      29.880  27.043  25.356  1.00  0.00     0.164 HD
BRANCH   6   9
ATOM      9  C   UNL A   1      31.562  24.255  25.816  1.00  0.00     0.181 C 
BRANCH   9  10
ATOM     10  N   UNL A   1      32.270  23.674  26.953  1.00  0.00    -0.342 N 
ATOM     11  C   UNL A   1      33.046  22.561  27.053  1.00  0.00     0.243 C 
ATOM     12  O   UNL A   1      33.540  22.350  28.168  1.00  0.00    -0.273 OA
ATOM     13  H   UNL A   1      32.168  24.176  27.794  1.00  0.00     0.164 HD
BRANCH  11  14
ATOM     14  C   UNL A   1      33.469  21.679  25.851  1.00  0.00     0.176 C 
BRANCH  14  15
ATOM     15  N   UNL A   1      34.864  21.788  25.421  1.00  0.00    -0.340 N 
ATOM     16  O   UNL A   1      36.587  22.250  24.076  1.00  0.00    -0.269 OA
ATOM     17  C   UNL A   1      35.409  22.453  24.349  1.00  0.00     0.251 C 
ATOM     18  H   UNL A   1      35.513  21.311  25.988  1.00  0.00     0.164 HD
BRANCH  17  19
ATOM     19  C   UNL A   1      34.576  23.318  23.482  1.00  0.00     0.040 A 
ATOM     20  C   UNL A   1      33.887  22.809  22.373  1.00  0.00     0.017 A 
ATOM     21  C   UNL A   1      34.496  24.682  23.794  1.00  0.00     0.017 A 
ATOM     22  C   UNL A   1      33.202  23.682  21.526  1.00  0.00     0.040 A 
ATOM     23  C   UNL A   1      33.799  25.550  22.950  1.00  0.00     0.040 A 
ATOM     24  C   UNL A   1      33.176  25.044  21.813  1.00  0.00     0.123 A 
ATOM     25  F   UNL A   1      32.548  25.880  20.977  1.00  0.00    -0.207 F 
ENDBRANCH  17  19
ENDBRANCH  14  15
BRANCH  14  26
ATOM     26  C   UNL A   1      33.004  20.217  26.001  1.00  0.00     0.070 C 
BRANCH  26  27
ATOM     27  C   UNL A   1      33.057  19.365  24.758  1.00  0.00    -0.045 A 
ATOM     28  C   UNL A   1      32.296  19.715  23.632  1.00  0.00     0.004 A 
ATOM     29  C   UNL A   1      33.848  18.208  24.714  1.00  0.00     0.004 A 
ATOM     30  C   UNL A   1      32.319  18.916  22.488  1.00  0.00     0.000 A 
ATOM     31  C   UNL A   1      33.861  17.407  23.571  1.00  0.00     0.000 A 
ATOM     32  C   UNL A   1      33.098  17.761  22.461  1.00  0.00     0.000 A 
ENDBRANCH  26  27
ENDBRANCH  14  26
ENDBRANCH  11  14
ENDBRANCH   9  10
BRANCH   9  33
ATOM     33  C   UNL A   1      31.035  23.219  24.816  1.00  0.00     0.101 C 
BRANCH  33  34
ATOM     34  S   UNL A   1      30.290  23.902  23.294  1.00  0.00    -0.177 SA
ATOM     35  H   UNL A   1      31.172  24.750  22.699  1.00  0.00     0.102 HD
ENDBRANCH  33  34
ENDBRANCH   9  33
ENDBRANCH   6   9
ENDBRANCH   4   5
BRANCH   4  36
ATOM     36  C   UNL A   1      33.045  26.748  26.248  1.00  0.00     0.193 C 
BRANCH  36  37
ATOM     37  O   UNL A   1      34.135  27.657  26.077  1.00  0.00    -0.394 OA
ATOM     38  H   UNL A   1      33.803  28.569  26.089  1.00  0.00     0.210 HD
ENDBRANCH  36  37
ENDBRANCH   4  36
ENDBRANCH   2   4
ENDBRANCH   1   2
BRANCH   1  39
ATOM     39  C   UNL A   1      32.340  30.897  26.366  1.00  0.00     0.274 C 
BRANCH  39  40
ATOM     40  C   UNL A   1      33.263  30.452  27.496  1.00  0.00     0.275 C 
BRANCH  40  41
ATOM     41  O   UNL A   1      34.441  31.274  27.462  1.00  0.00    -0.458 OA
BRANCH  41  42
ATOM     42  C   UNL A   1      35.034  31.481  28.665  1.00  0.00     0.338 C 
ATOM     43  O   UNL A   1      34.678  32.289  29.505  1.00  0.00    -0.246 OA
BRANCH  42  44
ATOM     44  C   UNL A   1      36.168  30.533  28.847  1.00  0.00     0.060 A 
ATOM     45  C   UNL A   1      36.312  29.772  30.007  1.00  0.00     0.016 A 
ATOM     46  C   UNL A   1      37.167  30.467  27.873  1.00  0.00     0.016 A 
ATOM     47  C   UNL A   1      37.506  29.077  30.245  1.00  0.00     0.010 A 
ATOM     48  C   UNL A   1      38.323  29.698  28.089  1.00  0.00     0.010 A 
ATOM     49  C   UNL A   1      38.557  29.053  29.317  1.00  0.00    -0.014 A 
BRANCH  49  50
ATOM     50  C   UNL A   1      39.913  28.478  29.648  1.00  0.00     0.031 A 
ATOM     51  C   UNL A   1      40.703  29.028  30.825  1.00  0.00     0.074 A 
ATOM     52  C   UNL A   1      40.476  27.457  28.962  1.00  0.00     0.049 A 
ATOM     53  N   UNL A   1      41.990  28.958  31.065  1.00  0.00    -0.248 NA
ATOM     54  C   UNL A   1      39.953  29.787  31.840  1.00  0.00     0.031 C 
ATOM     55  C   UNL A   1      39.880  26.742  27.835  1.00  0.00     0.029 A 
ATOM     56  N   UNL A   1      41.701  26.840  29.124  1.00  0.00    -0.354 N 
ATOM     57  C   UNL A   1      42.217  29.774  32.171  1.00  0.00     0.074 A 
ATOM     58  C   UNL A   1      40.931  30.296  32.578  1.00  0.00     0.031 C 
ATOM     59  C   UNL A   1      40.699  25.752  27.452  1.00  0.00     0.029 A 
ATOM     60  C   UNL A   1      41.945  25.843  28.205  1.00  0.00     0.049 A 
ATOM     61  H   UNL A   1      42.340  27.089  29.830  1.00  0.00     0.167 HD
ATOM     62  C   UNL A   1      43.386  30.065  32.789  1.00  0.00     0.034 A 
ATOM     63  C   UNL A   1      43.055  25.124  27.935  1.00  0.00     0.034 A 
ATOM     64  C   UNL A   1      44.636  29.402  32.521  1.00  0.00     0.049 A 
ATOM     65  C   UNL A   1      44.324  25.391  28.696  1.00  0.00     0.074 A 
ATOM     66  C   UNL A   1      45.871  29.617  33.114  1.00  0.00     0.029 A 
ATOM     67  N   UNL A   1      44.798  28.348  31.640  1.00  0.00    -0.354 N 
ATOM     68  N   UNL A   1      44.541  26.239  29.669  1.00  0.00    -0.248 NA
ATOM     69  C   UNL A   1      45.509  24.605  28.312  1.00  0.00     0.031 C 
ATOM     70  C   UNL A   1      46.773  28.678  32.605  1.00  0.00     0.029 A 
ATOM     71  C   UNL A   1      46.100  27.881  31.696  1.00  0.00     0.049 A 
ATOM     72  H   UNL A   1      44.092  27.984  31.058  1.00  0.00     0.167 HD
ATOM     73  C   UNL A   1      45.877  26.084  30.019  1.00  0.00     0.074 A 
ATOM     74  C   UNL A   1      46.413  25.032  29.183  1.00  0.00     0.031 C 
ATOM     75  C   UNL A   1      46.607  26.780  30.924  1.00  0.00     0.034 A 
BRANCH  62  76
ATOM     76  C   UNL A   1      43.394  31.136  33.849  1.00  0.00     0.023 A 
ATOM     77  C   UNL A   1      43.297  30.791  35.209  1.00  0.00     0.012 A 
ATOM     78  C   UNL A   1      43.630  32.480  33.489  1.00  0.00     0.148 A 
ATOM     79  C   UNL A   1      43.418  31.769  36.196  1.00  0.00     0.002 A 
ATOM     80  C   UNL A   1      43.795  33.442  34.479  1.00  0.00     0.091 A 
ATOM     81  F   UNL A   1      43.701  32.792  32.187  1.00  0.00    -0.205 F 
ATOM     82  C   UNL A   1      43.684  33.089  35.833  1.00  0.00     0.022 A 
BRANCH  80  83
ATOM     83  S   UNL A   1      44.238  35.145  34.109  1.00  0.00     0.127 S 
ATOM     84  O   UNL A   1      43.880  35.821  35.356  1.00  0.00    -0.237 OA
ATOM     85  O   UNL A   1      45.678  35.045  33.864  1.00  0.00    -0.237 OA
ATOM     86  O   UNL A   1      43.451  35.522  32.944  1.00  0.00    -0.744 OA
ENDBRANCH  80  83
ENDBRANCH  62  76
BRANCH  63  87
ATOM     87  C   UNL A   1      43.022  24.085  26.863  1.00  0.00     0.023 A 
ATOM     88  C   UNL A   1      43.727  24.299  25.662  1.00  0.00     0.012 A 
ATOM     89  C   UNL A   1      42.332  22.871  27.040  1.00  0.00     0.148 A 
ATOM     90  C   UNL A   1      43.733  23.330  24.658  1.00  0.00     0.002 A 
ATOM     91  C   UNL A   1      42.412  21.878  26.072  1.00  0.00     0.091 A 
ATOM     92  F   UNL A   1      41.623  22.694  28.165  1.00  0.00    -0.205 F 
ATOM     93  C   UNL A   1      43.094  22.111  24.870  1.00  0.00     0.022 A 
BRANCH  91  94
ATOM     94  S   UNL A   1      41.781  20.228  26.397  1.00  0.00     0.127 S 
ATOM     95  O   UNL A   1      42.310  19.471  25.266  1.00  0.00    -0.237 OA
ATOM     96  O   UNL A   1      42.386  19.905  27.690  1.00  0.00    -0.237 OA
ATOM     97  O   UNL A   1      40.333  20.392  26.449  1.00  0.00    -0.744 OA
ENDBRANCH  91  94
ENDBRANCH  63  87
BRANCH  75  98
ATOM     98  C   UNL A   1      48.052  26.403  31.097  1.00  0.00     0.023 A 
ATOM     99  C   UNL A   1      48.415  25.483  32.100  1.00  0.00     0.012 A 
ATOM    100  C   UNL A   1      49.043  26.914  30.236  1.00  0.00     0.148 A 
ATOM    101  C   UNL A   1      49.746  25.103  32.266  1.00  0.00     0.002 A 
ATOM    102  C   UNL A   1      50.363  26.504  30.384  1.00  0.00     0.091 A 
ATOM    103  F   UNL A   1      48.683  27.806  29.301  1.00  0.00    -0.205 F 
ATOM    104  C   UNL A   1      50.718  25.606  31.403  1.00  0.00     0.022 A 
BRANCH 102 105
ATOM    105  S   UNL A   1      51.657  27.052  29.265  1.00  0.00     0.127 S 
ATOM    106  O   UNL A   1      51.106  26.683  27.964  1.00  0.00    -0.237 OA
ATOM    107  O   UNL A   1      51.709  28.493  29.518  1.00  0.00    -0.237 OA
ATOM    108  O   UNL A   1      52.856  26.332  29.673  1.00  0.00    -0.744 OA
ENDBRANCH 102 105
ENDBRANCH  75  98
ENDBRANCH  49  50
ENDBRANCH  42  44
ENDBRANCH  41  42
ENDBRANCH  40  41
ENDBRANCH  39  40
ENDBRANCH   1  39
TORSDOF 26
ENDMDL
