MODEL 1
REMARK VINA RESULT:     -12.1      0.000      0.000
REMARK SMILES C[C@H]1SC[C@H](C(=O)OCCOC(=O)c2ccc(-c3c4nc(c(-c5cccc(S(=O)(=O)[O-])c5F)c5ccc([nH]5)c(-c5cccc(S(=O)(=O)[O-])c5F)c5nc(c(-c6cccc(S(=O)(=O)[O-])c6F)c6ccc3[nH]6)C=C5)C=C4)cc2)N1C(=O)[C@@H]1CSc2ccccc21
REMARK SMILES IDX 10 1 9 2 8 3 6 4 7 5 5 6 1 7 2 8 3 9 77 10 4 11 78 12 79 13
REMARK SMILES IDX 80 14 81 15 88 16 82 17 83 18 87 19 84 20 86 21 85 22 11 23
REMARK SMILES IDX 12 24 13 25 14 26 15 27 76 28 16 29 75 30 17 31 18 32 19 33
REMARK SMILES IDX 69 34 20 35 74 36 68 37 70 38 21 39 73 40 67 41 66 42 22 44
REMARK SMILES IDX 54 45 34 46 53 47 35 48 38 49 52 50 71 51 36 52 37 53 51 55
REMARK SMILES IDX 72 56 39 57 23 58 24 59 32 60 25 61 27 62 33 63 26 64 28 65
REMARK SMILES IDX 29 66 30 67 31 68 55 69 56 70 64 71 57 72 59 73 65 74 58 75
REMARK SMILES IDX 60 76 61 77 62 78 63 79 40 80 41 81 49 82 42 83 44 84 50 85
REMARK SMILES IDX 43 86 45 87 46 88 47 89 48 90
REMARK H PARENT 70 43 38 54
REMARK Flexibility Score: inf
ROOT
ATOM      1  C   UNL A   1      36.939  20.048  24.965  1.00  0.00     0.275 C 
ENDROOT
BRANCH   1   2
ATOM      2  C   UNL A   1      35.468  20.452  25.005  1.00  0.00     0.274 C 
BRANCH   2   3
ATOM      3  O   UNL A   1      35.370  21.853  24.695  1.00  0.00    -0.461 OA
BRANCH   3   4
ATOM      4  C   UNL A   1      34.660  22.621  25.565  1.00  0.00     0.329 C 
ATOM      5  O   UNL A   1      35.166  23.233  26.498  1.00  0.00    -0.250 OA
BRANCH   4   6
ATOM      6  C   UNL A   1      33.176  22.694  25.152  1.00  0.00     0.206 C 
ATOM      7  C   UNL A   1      30.650  23.852  23.484  1.00  0.00     0.043 C 
ATOM      8  C   UNL A   1      31.274  24.161  24.848  1.00  0.00     0.141 C 
ATOM      9  S   UNL A   1      30.672  22.937  26.050  1.00  0.00    -0.135 SA
ATOM     10  N   UNL A   1      32.728  24.059  24.859  1.00  0.00    -0.316 N 
ATOM     11  C   UNL A   1      32.289  22.158  26.273  1.00  0.00     0.109 C 
BRANCH  10  12
ATOM     12  C   UNL A   1      33.444  24.784  23.915  1.00  0.00     0.232 C 
ATOM     13  O   UNL A   1      33.845  24.258  22.876  1.00  0.00    -0.274 OA
BRANCH  12  14
ATOM     14  C   UNL A   1      33.735  26.252  24.236  1.00  0.00     0.120 C 
ATOM     15  C   UNL A   1      34.059  26.492  25.721  1.00  0.00     0.093 C 
ATOM     16  C   UNL A   1      32.600  27.163  23.859  1.00  0.00    -0.021 A 
ATOM     17  S   UNL A   1      32.611  27.283  26.502  1.00  0.00    -0.125 SA
ATOM     18  C   UNL A   1      31.900  27.705  24.938  1.00  0.00     0.011 A 
ATOM     19  C   UNL A   1      32.173  27.391  22.554  1.00  0.00     0.006 A 
ATOM     20  C   UNL A   1      30.731  28.422  24.740  1.00  0.00     0.015 A 
ATOM     21  C   UNL A   1      31.007  28.125  22.345  1.00  0.00     0.000 A 
ATOM     22  C   UNL A   1      30.281  28.624  23.433  1.00  0.00     0.001 A 
ENDBRANCH  12  14
ENDBRANCH  10  12
ENDBRANCH   4   6
ENDBRANCH   3   4
ENDBRANCH   2   3
ENDBRANCH   1   2
BRANCH   1  23
ATOM     23  O   UNL A   1      37.779  21.200  25.184  1.00  0.00    -0.458 OA
BRANCH  23  24
ATOM     24  C   UNL A   1      38.930  20.939  25.844  1.00  0.00     0.338 C 
ATOM     25  O   UNL A   1      39.523  19.871  25.909  1.00  0.00    -0.246 OA
BRANCH  24  26
ATOM     26  C   UNL A   1      39.454  22.159  26.467  1.00  0.00     0.060 A 
ATOM     27  C   UNL A   1      38.897  23.392  26.131  1.00  0.00     0.016 A 
ATOM     28  C   UNL A   1      40.607  22.092  27.246  1.00  0.00     0.016 A 
ATOM     29  C   UNL A   1      39.554  24.569  26.484  1.00  0.00     0.010 A 
ATOM     30  C   UNL A   1      41.206  23.275  27.683  1.00  0.00     0.010 A 
ATOM     31  C   UNL A   1      40.713  24.526  27.272  1.00  0.00    -0.014 A 
BRANCH  31  32
ATOM     32  C   UNL A   1      41.421  25.778  27.664  1.00  0.00     0.031 A 
ATOM     33  C   UNL A   1      40.719  26.831  28.477  1.00  0.00     0.074 A 
ATOM     34  C   UNL A   1      42.689  25.990  27.250  1.00  0.00     0.049 A 
ATOM     35  N   UNL A   1      41.097  28.052  28.754  1.00  0.00    -0.248 NA
ATOM     36  C   UNL A   1      39.404  26.473  29.041  1.00  0.00     0.031 C 
ATOM     37  C   UNL A   1      43.489  25.057  26.455  1.00  0.00     0.029 A 
ATOM     38  N   UNL A   1      43.520  27.072  27.425  1.00  0.00    -0.354 N 
ATOM     39  C   UNL A   1      40.044  28.632  29.450  1.00  0.00     0.074 A 
ATOM     40  C   UNL A   1      39.013  27.624  29.571  1.00  0.00     0.031 C 
ATOM     41  C   UNL A   1      44.693  25.599  26.220  1.00  0.00     0.029 A 
ATOM     42  C   UNL A   1      44.729  26.943  26.787  1.00  0.00     0.049 A 
ATOM     43  H   UNL A   1      43.272  27.863  27.958  1.00  0.00     0.167 HD
ATOM     44  C   UNL A   1      39.948  29.886  29.954  1.00  0.00     0.034 A 
ATOM     45  C   UNL A   1      45.744  27.815  26.638  1.00  0.00     0.034 A 
ATOM     46  C   UNL A   1      41.006  30.859  29.912  1.00  0.00     0.049 A 
ATOM     47  C   UNL A   1      45.630  29.184  27.246  1.00  0.00     0.074 A 
ATOM     48  C   UNL A   1      41.021  32.137  30.444  1.00  0.00     0.029 A 
ATOM     49  N   UNL A   1      42.244  30.657  29.322  1.00  0.00    -0.354 N 
ATOM     50  N   UNL A   1      44.650  29.691  27.954  1.00  0.00    -0.248 NA
ATOM     51  C   UNL A   1      46.766  30.095  27.050  1.00  0.00     0.031 C 
ATOM     52  C   UNL A   1      42.271  32.707  30.180  1.00  0.00     0.029 A 
ATOM     53  C   UNL A   1      43.034  31.784  29.482  1.00  0.00     0.049 A 
ATOM     54  H   UNL A   1      42.521  29.834  28.858  1.00  0.00     0.167 HD
ATOM     55  C   UNL A   1      45.054  30.975  28.296  1.00  0.00     0.074 A 
ATOM     56  C   UNL A   1      46.382  31.158  27.747  1.00  0.00     0.031 C 
ATOM     57  C   UNL A   1      44.374  31.928  28.980  1.00  0.00     0.034 A 
BRANCH  44  58
ATOM     58  C   UNL A   1      38.662  30.273  30.635  1.00  0.00     0.023 A 
ATOM     59  C   UNL A   1      38.464  29.935  31.988  1.00  0.00     0.012 A 
ATOM     60  C   UNL A   1      37.682  31.024  29.957  1.00  0.00     0.148 A 
ATOM     61  C   UNL A   1      37.301  30.322  32.652  1.00  0.00     0.002 A 
ATOM     62  C   UNL A   1      36.538  31.435  30.636  1.00  0.00     0.091 A 
ATOM     63  F   UNL A   1      37.875  31.312  28.662  1.00  0.00    -0.205 F 
ATOM     64  C   UNL A   1      36.344  31.080  31.980  1.00  0.00     0.022 A 
BRANCH  62  65
ATOM     65  S   UNL A   1      35.288  32.469  29.864  1.00  0.00     0.127 S 
ATOM     66  O   UNL A   1      34.760  31.577  28.834  1.00  0.00    -0.237 OA
ATOM     67  O   UNL A   1      34.368  32.730  30.973  1.00  0.00    -0.237 OA
ATOM     68  O   UNL A   1      35.994  33.647  29.380  1.00  0.00    -0.744 OA
ENDBRANCH  62  65
ENDBRANCH  44  58
BRANCH  45  69
ATOM     69  C   UNL A   1      46.969  27.397  25.901  1.00  0.00     0.023 A 
ATOM     70  C   UNL A   1      47.896  26.547  26.533  1.00  0.00     0.012 A 
ATOM     71  C   UNL A   1      47.186  27.773  24.561  1.00  0.00     0.148 A 
ATOM     72  C   UNL A   1      49.022  26.089  25.849  1.00  0.00     0.002 A 
ATOM     73  C   UNL A   1      48.279  27.267  23.867  1.00  0.00     0.091 A 
ATOM     74  F   UNL A   1      46.308  28.605  23.981  1.00  0.00    -0.205 F 
ATOM     75  C   UNL A   1      49.205  26.435  24.512  1.00  0.00     0.022 A 
BRANCH  73  76
ATOM     76  S   UNL A   1      48.489  27.550  22.105  1.00  0.00     0.127 S 
ATOM     77  O   UNL A   1      49.694  28.372  22.073  1.00  0.00    -0.237 OA
ATOM     78  O   UNL A   1      48.656  26.191  21.588  1.00  0.00    -0.237 OA
ATOM     79  O   UNL A   1      47.255  28.198  21.676  1.00  0.00    -0.744 OA
ENDBRANCH  73  76
ENDBRANCH  45  69
BRANCH  57  80
ATOM     80  C   UNL A   1      45.054  33.255  29.181  1.00  0.00     0.023 A 
ATOM     81  C   UNL A   1      45.925  33.421  30.275  1.00  0.00     0.012 A 
ATOM     82  C   UNL A   1      44.892  34.304  28.257  1.00  0.00     0.148 A 
ATOM     83  C   UNL A   1      46.610  34.622  30.458  1.00  0.00     0.002 A 
ATOM     84  C   UNL A   1      45.605  35.485  28.427  1.00  0.00     0.091 A 
ATOM     85  F   UNL A   1      44.038  34.135  27.236  1.00  0.00    -0.205 F 
ATOM     86  C   UNL A   1      46.459  35.649  29.529  1.00  0.00     0.022 A 
BRANCH  84  87
ATOM     87  S   UNL A   1      45.523  36.821  27.227  1.00  0.00     0.127 S 
ATOM     88  O   UNL A   1      44.094  36.863  26.923  1.00  0.00    -0.237 OA
ATOM     89  O   UNL A   1      46.018  37.967  27.991  1.00  0.00    -0.237 OA
ATOM     90  O   UNL A   1      46.393  36.414  26.131  1.00  0.00    -0.744 OA
ENDBRANCH  84  87
ENDBRANCH  57  80
ENDBRANCH  31  32
ENDBRANCH  24  26
ENDBRANCH  23  24
ENDBRANCH   1  23
TORSDOF 16
ENDMDL
MODEL 2
REMARK VINA RESULT:     -11.7      5.222      9.988
REMARK SMILES C[C@H]1SC[C@H](C(=O)OCCOC(=O)c2ccc(-c3c4nc(c(-c5cccc(S(=O)(=O)[O-])c5F)c5ccc([nH]5)c(-c5cccc(S(=O)(=O)[O-])c5F)c5nc(c(-c6cccc(S(=O)(=O)[O-])c6F)c6ccc3[nH]6)C=C5)C=C4)cc2)N1C(=O)[C@@H]1CSc2ccccc21
REMARK SMILES IDX 10 1 9 2 8 3 6 4 7 5 5 6 1 7 2 8 3 9 77 10 4 11 78 12 79 13
REMARK SMILES IDX 80 14 81 15 88 16 82 17 83 18 87 19 84 20 86 21 85 22 11 23
REMARK SMILES IDX 12 24 13 25 14 26 15 27 76 28 16 29 75 30 17 31 18 32 19 33
REMARK SMILES IDX 69 34 20 35 74 36 68 37 70 38 21 39 73 40 67 41 66 42 22 44
REMARK SMILES IDX 54 45 34 46 53 47 35 48 38 49 52 50 71 51 36 52 37 53 51 55
REMARK SMILES IDX 72 56 39 57 23 58 24 59 32 60 25 61 27 62 33 63 26 64 28 65
REMARK SMILES IDX 29 66 30 67 31 68 55 69 56 70 64 71 57 72 59 73 65 74 58 75
REMARK SMILES IDX 60 76 61 77 62 78 63 79 40 80 41 81 49 82 42 83 44 84 50 85
REMARK SMILES IDX 43 86 45 87 46 88 47 89 48 90
REMARK H PARENT 70 43 38 54
REMARK Flexibility Score: inf
ROOT
ATOM      1  C   UNL A   1      33.331  29.711  25.080  1.00  0.00     0.275 C 
ENDROOT
BRANCH   1   2
ATOM      2  C   UNL A   1      33.676  28.226  24.998  1.00  0.00     0.274 C 
BRANCH   2   3
ATOM      3  O   UNL A   1      33.923  27.890  23.622  1.00  0.00    -0.461 OA
BRANCH   3   4
ATOM      4  C   UNL A   1      33.217  26.845  23.114  1.00  0.00     0.329 C 
ATOM      5  O   UNL A   1      33.590  26.172  22.160  1.00  0.00    -0.250 OA
BRANCH   4   6
ATOM      6  C   UNL A   1      31.957  26.567  23.961  1.00  0.00     0.206 C 
ATOM      7  C   UNL A   1      30.167  24.918  26.099  1.00  0.00     0.043 C 
ATOM      8  C   UNL A   1      30.310  24.903  24.574  1.00  0.00     0.141 C 
ATOM      9  S   UNL A   1      29.306  26.255  23.887  1.00  0.00    -0.135 SA
ATOM     10  N   UNL A   1      31.673  25.138  24.115  1.00  0.00    -0.316 N 
ATOM     11  C   UNL A   1      30.732  27.204  23.308  1.00  0.00     0.109 C 
BRANCH  10  12
ATOM     12  C   UNL A   1      32.684  24.330  24.622  1.00  0.00     0.232 C 
ATOM     13  O   UNL A   1      33.388  24.703  25.561  1.00  0.00    -0.274 OA
BRANCH  12  14
ATOM     14  C   UNL A   1      32.900  22.975  23.945  1.00  0.00     0.120 C 
ATOM     15  C   UNL A   1      32.133  21.830  24.628  1.00  0.00     0.093 C 
ATOM     16  C   UNL A   1      34.351  22.584  23.881  1.00  0.00    -0.021 A 
ATOM     17  S   UNL A   1      33.328  20.820  25.567  1.00  0.00    -0.125 SA
ATOM     18  C   UNL A   1      34.710  21.529  24.721  1.00  0.00     0.011 A 
ATOM     19  C   UNL A   1      35.317  23.261  23.143  1.00  0.00     0.006 A 
ATOM     20  C   UNL A   1      36.039  21.177  24.891  1.00  0.00     0.015 A 
ATOM     21  C   UNL A   1      36.655  22.903  23.296  1.00  0.00     0.000 A 
ATOM     22  C   UNL A   1      37.016  21.877  24.178  1.00  0.00     0.001 A 
ENDBRANCH  12  14
ENDBRANCH  10  12
ENDBRANCH   4   6
ENDBRANCH   3   4
ENDBRANCH   2   3
ENDBRANCH   1   2
BRANCH   1  23
ATOM     23  O   UNL A   1      32.657  29.998  26.323  1.00  0.00    -0.458 OA
BRANCH  23  24
ATOM     24  C   UNL A   1      33.160  31.050  27.006  1.00  0.00     0.338 C 
ATOM     25  O   UNL A   1      32.604  32.111  27.252  1.00  0.00    -0.246 OA
BRANCH  24  26
ATOM     26  C   UNL A   1      34.508  30.746  27.498  1.00  0.00     0.060 A 
ATOM     27  C   UNL A   1      34.795  29.462  27.959  1.00  0.00     0.016 A 
ATOM     28  C   UNL A   1      35.429  31.779  27.663  1.00  0.00     0.016 A 
ATOM     29  C   UNL A   1      35.962  29.230  28.684  1.00  0.00     0.010 A 
ATOM     30  C   UNL A   1      36.642  31.518  28.302  1.00  0.00     0.010 A 
ATOM     31  C   UNL A   1      36.905  30.253  28.858  1.00  0.00    -0.014 A 
BRANCH  31  32
ATOM     32  C   UNL A   1      38.161  30.016  29.625  1.00  0.00     0.031 A 
ATOM     33  C   UNL A   1      39.242  29.131  29.067  1.00  0.00     0.074 A 
ATOM     34  C   UNL A   1      38.313  30.564  30.849  1.00  0.00     0.049 A 
ATOM     35  N   UNL A   1      40.310  28.658  29.655  1.00  0.00    -0.248 NA
ATOM     36  C   UNL A   1      39.095  28.702  27.663  1.00  0.00     0.031 C 
ATOM     37  C   UNL A   1      37.346  31.439  31.514  1.00  0.00     0.029 A 
ATOM     38  N   UNL A   1      39.335  30.447  31.763  1.00  0.00    -0.354 N 
ATOM     39  C   UNL A   1      40.918  27.820  28.729  1.00  0.00     0.074 A 
ATOM     40  C   UNL A   1      40.109  27.858  27.530  1.00  0.00     0.031 C 
ATOM     41  C   UNL A   1      37.822  31.787  32.719  1.00  0.00     0.029 A 
ATOM     42  C   UNL A   1      39.094  31.107  32.942  1.00  0.00     0.049 A 
ATOM     43  H   UNL A   1      40.161  29.939  31.588  1.00  0.00     0.167 HD
ATOM     44  C   UNL A   1      42.053  27.091  28.861  1.00  0.00     0.034 A 
ATOM     45  C   UNL A   1      39.792  31.138  34.093  1.00  0.00     0.034 A 
ATOM     46  C   UNL A   1      42.905  27.120  30.019  1.00  0.00     0.049 A 
ATOM     47  C   UNL A   1      41.072  30.358  34.197  1.00  0.00     0.074 A 
ATOM     48  C   UNL A   1      44.104  26.459  30.223  1.00  0.00     0.029 A 
ATOM     49  N   UNL A   1      42.660  27.865  31.162  1.00  0.00    -0.354 N 
ATOM     50  N   UNL A   1      41.660  29.620  33.288  1.00  0.00    -0.248 NA
ATOM     51  C   UNL A   1      41.791  30.427  35.476  1.00  0.00     0.031 C 
ATOM     52  C   UNL A   1      44.587  26.808  31.489  1.00  0.00     0.029 A 
ATOM     53  C   UNL A   1      43.688  27.686  32.073  1.00  0.00     0.049 A 
ATOM     54  H   UNL A   1      41.872  28.438  31.306  1.00  0.00     0.167 HD
ATOM     55  C   UNL A   1      42.823  29.144  33.880  1.00  0.00     0.074 A 
ATOM     56  C   UNL A   1      42.874  29.705  35.216  1.00  0.00     0.031 C 
ATOM     57  C   UNL A   1      43.752  28.296  33.374  1.00  0.00     0.034 A 
BRANCH  44  58
ATOM     58  C   UNL A   1      42.469  26.223  27.703  1.00  0.00     0.023 A 
ATOM     59  C   UNL A   1      43.355  26.734  26.735  1.00  0.00     0.012 A 
ATOM     60  C   UNL A   1      42.037  24.885  27.610  1.00  0.00     0.148 A 
ATOM     61  C   UNL A   1      43.789  25.934  25.679  1.00  0.00     0.002 A 
ATOM     62  C   UNL A   1      42.500  24.083  26.572  1.00  0.00     0.091 A 
ATOM     63  F   UNL A   1      41.172  24.425  28.526  1.00  0.00    -0.205 F 
ATOM     64  C   UNL A   1      43.371  24.607  25.603  1.00  0.00     0.022 A 
BRANCH  62  65
ATOM     65  S   UNL A   1      42.064  22.345  26.438  1.00  0.00     0.127 S 
ATOM     66  O   UNL A   1      40.613  22.416  26.279  1.00  0.00    -0.237 OA
ATOM     67  O   UNL A   1      42.788  21.931  25.234  1.00  0.00    -0.237 OA
ATOM     68  O   UNL A   1      42.537  21.723  27.667  1.00  0.00    -0.744 OA
ENDBRANCH  62  65
ENDBRANCH  44  58
BRANCH  45  69
ATOM     69  C   UNL A   1      39.299  31.969  35.228  1.00  0.00     0.023 A 
ATOM     70  C   UNL A   1      38.453  31.385  36.191  1.00  0.00     0.012 A 
ATOM     71  C   UNL A   1      39.717  33.302  35.400  1.00  0.00     0.148 A 
ATOM     72  C   UNL A   1      38.024  32.119  37.297  1.00  0.00     0.002 A 
ATOM     73  C   UNL A   1      39.333  34.009  36.534  1.00  0.00     0.091 A 
ATOM     74  F   UNL A   1      40.501  33.852  34.460  1.00  0.00    -0.205 F 
ATOM     75  C   UNL A   1      38.476  33.423  37.478  1.00  0.00     0.022 A 
BRANCH  73  76
ATOM     76  S   UNL A   1      40.003  35.636  36.902  1.00  0.00     0.127 S 
ATOM     77  O   UNL A   1      39.397  35.925  38.197  1.00  0.00    -0.237 OA
ATOM     78  O   UNL A   1      41.443  35.379  36.939  1.00  0.00    -0.237 OA
ATOM     79  O   UNL A   1      39.581  36.479  35.790  1.00  0.00    -0.744 OA
ENDBRANCH  73  76
ENDBRANCH  45  69
BRANCH  57  80
ATOM     80  C   UNL A   1      44.908  27.925  34.262  1.00  0.00     0.023 A 
ATOM     81  C   UNL A   1      46.061  28.734  34.263  1.00  0.00     0.012 A 
ATOM     82  C   UNL A   1      44.829  26.829  35.141  1.00  0.00     0.148 A 
ATOM     83  C   UNL A   1      47.128  28.445  35.113  1.00  0.00     0.002 A 
ATOM     84  C   UNL A   1      45.881  26.568  36.011  1.00  0.00     0.091 A 
ATOM     85  F   UNL A   1      43.733  26.055  35.107  1.00  0.00    -0.205 F 
ATOM     86  C   UNL A   1      47.034  27.370  35.994  1.00  0.00     0.022 A 
BRANCH  84  87
ATOM     87  S   UNL A   1      45.798  25.249  37.230  1.00  0.00     0.127 S 
ATOM     88  O   UNL A   1      47.002  25.495  38.020  1.00  0.00    -0.237 OA
ATOM     89  O   UNL A   1      44.542  25.536  37.925  1.00  0.00    -0.237 OA
ATOM     90  O   UNL A   1      45.785  24.010  36.462  1.00  0.00    -0.744 OA
ENDBRANCH  84  87
ENDBRANCH  57  80
ENDBRANCH  31  32
ENDBRANCH  24  26
ENDBRANCH  23  24
ENDBRANCH   1  23
TORSDOF 16
ENDMDL
MODEL 3
REMARK VINA RESULT:     -11.6      5.307     10.338
REMARK SMILES C[C@H]1SC[C@H](C(=O)OCCOC(=O)c2ccc(-c3c4nc(c(-c5cccc(S(=O)(=O)[O-])c5F)c5ccc([nH]5)c(-c5cccc(S(=O)(=O)[O-])c5F)c5nc(c(-c6cccc(S(=O)(=O)[O-])c6F)c6ccc3[nH]6)C=C5)C=C4)cc2)N1C(=O)[C@@H]1CSc2ccccc21
REMARK SMILES IDX 10 1 9 2 8 3 6 4 7 5 5 6 1 7 2 8 3 9 77 10 4 11 78 12 79 13
REMARK SMILES IDX 80 14 81 15 88 16 82 17 83 18 87 19 84 20 86 21 85 22 11 23
REMARK SMILES IDX 12 24 13 25 14 26 15 27 76 28 16 29 75 30 17 31 18 32 19 33
REMARK SMILES IDX 69 34 20 35 74 36 68 37 70 38 21 39 73 40 67 41 66 42 22 44
REMARK SMILES IDX 54 45 34 46 53 47 35 48 38 49 52 50 71 51 36 52 37 53 51 55
REMARK SMILES IDX 72 56 39 57 23 58 24 59 32 60 25 61 27 62 33 63 26 64 28 65
REMARK SMILES IDX 29 66 30 67 31 68 55 69 56 70 64 71 57 72 59 73 65 74 58 75
REMARK SMILES IDX 60 76 61 77 62 78 63 79 40 80 41 81 49 82 42 83 44 84 50 85
REMARK SMILES IDX 43 86 45 87 46 88 47 89 48 90
REMARK H PARENT 70 43 38 54
REMARK Flexibility Score: inf
ROOT
ATOM      1  C   UNL A   1      32.039  31.449  26.426  1.00  0.00     0.275 C 
ENDROOT
BRANCH   1   2
ATOM      2  C   UNL A   1      31.809  30.006  25.984  1.00  0.00     0.274 C 
BRANCH   2   3
ATOM      3  O   UNL A   1      32.696  29.716  24.891  1.00  0.00    -0.461 OA
BRANCH   3   4
ATOM      4  C   UNL A   1      32.210  28.910  23.909  1.00  0.00     0.329 C 
ATOM      5  O   UNL A   1      32.608  28.935  22.751  1.00  0.00    -0.250 OA
BRANCH   4   6
ATOM      6  C   UNL A   1      31.184  27.907  24.477  1.00  0.00     0.206 C 
ATOM      7  C   UNL A   1      30.261  25.266  26.111  1.00  0.00     0.043 C 
ATOM      8  C   UNL A   1      30.585  25.568  24.645  1.00  0.00     0.141 C 
ATOM      9  S   UNL A   1      29.122  26.322  23.872  1.00  0.00    -0.135 SA
ATOM     10  N   UNL A   1      31.671  26.525  24.475  1.00  0.00    -0.316 N 
ATOM     11  C   UNL A   1      29.904  27.937  23.646  1.00  0.00     0.109 C 
BRANCH  10  12
ATOM     12  C   UNL A   1      32.880  26.266  25.109  1.00  0.00     0.232 C 
ATOM     13  O   UNL A   1      33.098  26.664  26.254  1.00  0.00    -0.274 OA
BRANCH  12  14
ATOM     14  C   UNL A   1      33.934  25.491  24.314  1.00  0.00     0.120 C 
ATOM     15  C   UNL A   1      33.649  25.464  22.803  1.00  0.00     0.093 C 
ATOM     16  C   UNL A   1      34.082  24.069  24.782  1.00  0.00    -0.021 A 
ATOM     17  S   UNL A   1      33.037  23.800  22.366  1.00  0.00    -0.125 SA
ATOM     18  C   UNL A   1      33.596  23.108  23.894  1.00  0.00     0.011 A 
ATOM     19  C   UNL A   1      34.557  23.698  26.036  1.00  0.00     0.006 A 
ATOM     20  C   UNL A   1      33.513  21.776  24.266  1.00  0.00     0.015 A 
ATOM     21  C   UNL A   1      34.491  22.357  26.411  1.00  0.00     0.000 A 
ATOM     22  C   UNL A   1      33.957  21.403  25.537  1.00  0.00     0.001 A 
ENDBRANCH  12  14
ENDBRANCH  10  12
ENDBRANCH   4   6
ENDBRANCH   3   4
ENDBRANCH   2   3
ENDBRANCH   1   2
BRANCH   1  23
ATOM     23  O   UNL A   1      32.820  31.481  27.639  1.00  0.00    -0.458 OA
BRANCH  23  24
ATOM     24  C   UNL A   1      33.755  32.456  27.679  1.00  0.00     0.338 C 
ATOM     25  O   UNL A   1      33.593  33.650  27.467  1.00  0.00    -0.246 OA
BRANCH  24  26
ATOM     26  C   UNL A   1      35.054  31.907  28.082  1.00  0.00     0.060 A 
ATOM     27  C   UNL A   1      35.140  30.573  28.476  1.00  0.00     0.016 A 
ATOM     28  C   UNL A   1      36.144  32.761  28.234  1.00  0.00     0.016 A 
ATOM     29  C   UNL A   1      36.285  30.113  29.125  1.00  0.00     0.010 A 
ATOM     30  C   UNL A   1      37.325  32.270  28.793  1.00  0.00     0.010 A 
ATOM     31  C   UNL A   1      37.395  30.953  29.284  1.00  0.00    -0.014 A 
BRANCH  31  32
ATOM     32  C   UNL A   1      38.629  30.473  29.969  1.00  0.00     0.031 A 
ATOM     33  C   UNL A   1      39.523  29.458  29.310  1.00  0.00     0.074 A 
ATOM     34  C   UNL A   1      38.926  30.918  31.209  1.00  0.00     0.049 A 
ATOM     35  N   UNL A   1      40.524  28.785  29.816  1.00  0.00    -0.248 NA
ATOM     36  C   UNL A   1      39.244  29.139  27.898  1.00  0.00     0.031 C 
ATOM     37  C   UNL A   1      38.147  31.899  31.967  1.00  0.00     0.029 A 
ATOM     38  N   UNL A   1      39.955  30.584  32.059  1.00  0.00    -0.354 N 
ATOM     39  C   UNL A   1      40.943  27.913  28.819  1.00  0.00     0.074 A 
ATOM     40  C   UNL A   1      40.097  28.151  27.668  1.00  0.00     0.031 C 
ATOM     41  C   UNL A   1      38.728  32.095  33.160  1.00  0.00     0.029 A 
ATOM     42  C   UNL A   1      39.880  31.206  33.280  1.00  0.00     0.049 A 
ATOM     43  H   UNL A   1      40.676  29.960  31.814  1.00  0.00     0.167 HD
ATOM     44  C   UNL A   1      41.947  27.003  28.852  1.00  0.00     0.034 A 
ATOM     45  C   UNL A   1      40.625  31.059  34.392  1.00  0.00     0.034 A 
ATOM     46  C   UNL A   1      42.843  26.828  29.963  1.00  0.00     0.049 A 
ATOM     47  C   UNL A   1      41.762  30.077  34.387  1.00  0.00     0.074 A 
ATOM     48  C   UNL A   1      43.925  25.970  30.068  1.00  0.00     0.029 A 
ATOM     49  N   UNL A   1      42.778  27.536  31.153  1.00  0.00    -0.354 N 
ATOM     50  N   UNL A   1      42.179  29.305  33.413  1.00  0.00    -0.248 NA
ATOM     51  C   UNL A   1      42.541  29.954  35.627  1.00  0.00     0.031 C 
ATOM     52  C   UNL A   1      44.517  26.164  31.322  1.00  0.00     0.029 A 
ATOM     53  C   UNL A   1      43.802  27.140  31.996  1.00  0.00     0.049 A 
ATOM     54  H   UNL A   1      42.102  28.220  31.367  1.00  0.00     0.167 HD
ATOM     55  C   UNL A   1      43.273  28.615  33.917  1.00  0.00     0.074 A 
ATOM     56  C   UNL A   1      43.476  29.082  35.273  1.00  0.00     0.031 C 
ATOM     57  C   UNL A   1      44.025  27.657  33.321  1.00  0.00     0.034 A 
BRANCH  44  58
ATOM     58  C   UNL A   1      42.160  26.147  27.633  1.00  0.00     0.023 A 
ATOM     59  C   UNL A   1      42.833  26.683  26.517  1.00  0.00     0.012 A 
ATOM     60  C   UNL A   1      41.756  24.797  27.616  1.00  0.00     0.148 A 
ATOM     61  C   UNL A   1      43.082  25.894  25.395  1.00  0.00     0.002 A 
ATOM     62  C   UNL A   1      42.037  24.008  26.506  1.00  0.00     0.091 A 
ATOM     63  F   UNL A   1      41.093  24.313  28.676  1.00  0.00    -0.205 F 
ATOM     64  C   UNL A   1      42.694  24.556  25.392  1.00  0.00     0.022 A 
BRANCH  62  65
ATOM     65  S   UNL A   1      41.631  22.259  26.448  1.00  0.00     0.127 S 
ATOM     66  O   UNL A   1      42.466  21.797  25.340  1.00  0.00    -0.237 OA
ATOM     67  O   UNL A   1      42.061  21.793  27.768  1.00  0.00    -0.237 OA
ATOM     68  O   UNL A   1      40.193  22.194  26.227  1.00  0.00    -0.744 OA
ENDBRANCH  62  65
ENDBRANCH  44  58
BRANCH  45  69
ATOM     69  C   UNL A   1      40.329  31.891  35.591  1.00  0.00     0.023 A 
ATOM     70  C   UNL A   1      41.129  33.017  35.862  1.00  0.00     0.012 A 
ATOM     71  C   UNL A   1      39.223  31.620  36.420  1.00  0.00     0.148 A 
ATOM     72  C   UNL A   1      40.840  33.851  36.943  1.00  0.00     0.002 A 
ATOM     73  C   UNL A   1      38.907  32.487  37.459  1.00  0.00     0.091 A 
ATOM     74  F   UNL A   1      38.486  30.529  36.165  1.00  0.00    -0.205 F 
ATOM     75  C   UNL A   1      39.721  33.596  37.731  1.00  0.00     0.022 A 
BRANCH  73  76
ATOM     76  S   UNL A   1      37.395  32.301  38.414  1.00  0.00     0.127 S 
ATOM     77  O   UNL A   1      37.754  32.941  39.675  1.00  0.00    -0.237 OA
ATOM     78  O   UNL A   1      36.422  33.037  37.605  1.00  0.00    -0.237 OA
ATOM     79  O   UNL A   1      37.154  30.864  38.465  1.00  0.00    -0.744 OA
ENDBRANCH  73  76
ENDBRANCH  45  69
BRANCH  57  80
ATOM     80  C   UNL A   1      45.144  27.053  34.124  1.00  0.00     0.023 A 
ATOM     81  C   UNL A   1      46.423  27.640  34.071  1.00  0.00     0.012 A 
ATOM     82  C   UNL A   1      44.917  25.961  34.982  1.00  0.00     0.148 A 
ATOM     83  C   UNL A   1      47.467  27.134  34.845  1.00  0.00     0.002 A 
ATOM     84  C   UNL A   1      45.953  25.485  35.778  1.00  0.00     0.091 A 
ATOM     85  F   UNL A   1      43.698  25.400  34.999  1.00  0.00    -0.205 F 
ATOM     86  C   UNL A   1      47.229  26.065  35.706  1.00  0.00     0.022 A 
BRANCH  84  87
ATOM     87  S   UNL A   1      45.701  24.163  36.969  1.00  0.00     0.127 S 
ATOM     88  O   UNL A   1      44.482  24.599  37.648  1.00  0.00    -0.237 OA
ATOM     89  O   UNL A   1      45.535  22.988  36.112  1.00  0.00    -0.237 OA
ATOM     90  O   UNL A   1      46.908  24.139  37.786  1.00  0.00    -0.744 OA
ENDBRANCH  84  87
ENDBRANCH  57  80
ENDBRANCH  31  32
ENDBRANCH  24  26
ENDBRANCH  23  24
ENDBRANCH   1  23
TORSDOF 16
ENDMDL
