MODEL 1
REMARK VINA RESULT:     -12.2      0.000      0.000
REMARK SMILES Cc1cccc(-c2cccnc2C(=O)OCCOC(=O)c2ccc(-c3c4nc(c(-c5cccc(S(=O)(=O)[O-])c5F)c5ccc([nH]5)c(-c5cccc(S(=O)(=O)[O-])c5F)c5nc(c(-c6cccc(S(=O)(=O)[O-])c6F)c6ccc3[nH]6)C=C5)C=C4)cc2)c1
REMARK SMILES IDX 17 1 16 2 15 3 13 4 14 5 12 6 7 7 8 8 9 9 11 10 10 11 6 12
REMARK SMILES IDX 1 13 2 14 3 15 84 16 4 17 5 18 18 19 19 20 20 21 21 22 22 23
REMARK SMILES IDX 83 24 23 25 82 26 24 27 25 28 26 29 76 30 27 31 81 32 75 33
REMARK SMILES IDX 77 34 28 35 80 36 74 37 73 38 29 40 61 41 41 42 60 43 42 44
REMARK SMILES IDX 45 45 59 46 78 47 43 48 44 49 58 51 79 52 46 53 30 54 31 55
REMARK SMILES IDX 39 56 32 57 34 58 40 59 33 60 35 61 36 62 37 63 38 64 62 65
REMARK SMILES IDX 63 66 71 67 64 68 66 69 72 70 65 71 67 72 68 73 69 74 70 75
REMARK SMILES IDX 47 76 48 77 56 78 49 79 51 80 57 81 50 82 52 83 53 84 54 85
REMARK SMILES IDX 55 86
REMARK H PARENT 77 39 45 50
REMARK Flexibility Score: inf
ROOT
ATOM      1  C   UNL A   1      33.543  30.251  26.726  1.00  0.00     0.275 C 
ENDROOT
BRANCH   1   2
ATOM      2  C   UNL A   1      32.781  28.946  27.002  1.00  0.00     0.275 C 
BRANCH   2   3
ATOM      3  O   UNL A   1      31.675  28.700  26.147  1.00  0.00    -0.457 OA
BRANCH   3   4
ATOM      4  C   UNL A   1      31.316  27.406  25.943  1.00  0.00     0.357 C 
ATOM      5  O   UNL A   1      30.684  26.712  26.702  1.00  0.00    -0.244 OA
BRANCH   4   6
ATOM      6  C   UNL A   1      31.873  27.020  24.607  1.00  0.00     0.156 A 
ATOM      7  C   UNL A   1      31.222  27.415  23.427  1.00  0.00     0.015 A 
ATOM      8  C   UNL A   1      31.861  27.097  22.223  1.00  0.00     0.013 A 
ATOM      9  C   UNL A   1      33.091  26.440  22.241  1.00  0.00     0.021 A 
ATOM     10  N   UNL A   1      33.049  26.337  24.652  1.00  0.00    -0.249 NA
ATOM     11  C   UNL A   1      33.644  26.096  23.465  1.00  0.00     0.112 A 
BRANCH   7  12
ATOM     12  C   UNL A   1      29.948  28.144  23.456  1.00  0.00    -0.016 A 
ATOM     13  C   UNL A   1      28.674  31.643  22.685  1.00  0.00     0.044 C 
ATOM     14  C   UNL A   1      28.693  30.189  23.041  1.00  0.00    -0.051 A 
ATOM     15  C   UNL A   1      27.494  29.473  23.126  1.00  0.00     0.003 A 
ATOM     16  C   UNL A   1      29.911  29.526  23.246  1.00  0.00     0.012 A 
ATOM     17  C   UNL A   1      27.512  28.104  23.370  1.00  0.00     0.001 A 
ATOM     18  C   UNL A   1      28.733  27.450  23.508  1.00  0.00     0.009 A 
ENDBRANCH   7  12
ENDBRANCH   4   6
ENDBRANCH   3   4
ENDBRANCH   2   3
ENDBRANCH   1   2
BRANCH   1  19
ATOM     19  O   UNL A   1      34.183  30.987  27.813  1.00  0.00    -0.458 OA
BRANCH  19  20
ATOM     20  C   UNL A   1      35.438  31.490  27.972  1.00  0.00     0.338 C 
ATOM     21  O   UNL A   1      35.675  32.678  27.798  1.00  0.00    -0.246 OA
BRANCH  20  22
ATOM     22  C   UNL A   1      36.512  30.564  28.358  1.00  0.00     0.060 A 
ATOM     23  C   UNL A   1      36.493  29.871  29.580  1.00  0.00     0.016 A 
ATOM     24  C   UNL A   1      37.520  30.340  27.440  1.00  0.00     0.016 A 
ATOM     25  C   UNL A   1      37.488  28.930  29.865  1.00  0.00     0.010 A 
ATOM     26  C   UNL A   1      38.323  29.246  27.605  1.00  0.00     0.010 A 
ATOM     27  C   UNL A   1      38.416  28.641  28.872  1.00  0.00    -0.014 A 
BRANCH  27  28
ATOM     28  C   UNL A   1      39.737  28.050  29.076  1.00  0.00     0.031 A 
ATOM     29  C   UNL A   1      40.102  26.673  28.732  1.00  0.00     0.074 A 
ATOM     30  C   UNL A   1      40.668  29.002  29.349  1.00  0.00     0.049 A 
ATOM     31  N   UNL A   1      41.331  26.313  28.689  1.00  0.00    -0.248 NA
ATOM     32  C   UNL A   1      39.191  25.588  28.393  1.00  0.00     0.031 C 
ATOM     33  C   UNL A   1      42.104  29.035  29.153  1.00  0.00     0.029 A 
ATOM     34  N   UNL A   1      40.406  30.238  29.956  1.00  0.00    -0.354 N 
ATOM     35  C   UNL A   1      41.412  25.052  28.156  1.00  0.00     0.074 A 
ATOM     36  C   UNL A   1      40.044  24.642  27.967  1.00  0.00     0.031 C 
ATOM     37  C   UNL A   1      42.609  30.061  29.866  1.00  0.00     0.029 A 
ATOM     38  C   UNL A   1      41.532  30.581  30.697  1.00  0.00     0.049 A 
ATOM     39  H   UNL A   1      39.578  30.766  29.874  1.00  0.00     0.167 HD
ATOM     40  C   UNL A   1      42.665  24.585  27.909  1.00  0.00     0.034 A 
ATOM     41  C   UNL A   1      41.458  30.570  32.063  1.00  0.00     0.034 A 
ATOM     42  C   UNL A   1      43.636  25.365  28.711  1.00  0.00     0.049 A 
ATOM     43  C   UNL A   1      42.309  29.433  32.635  1.00  0.00     0.074 A 
ATOM     44  C   UNL A   1      44.530  26.393  28.465  1.00  0.00     0.029 A 
ATOM     45  N   UNL A   1      43.487  25.326  30.093  1.00  0.00    -0.354 N 
ATOM     46  N   UNL A   1      43.076  28.635  31.938  1.00  0.00    -0.248 NA
ATOM     47  C   UNL A   1      42.243  29.042  34.039  1.00  0.00     0.031 C 
ATOM     48  C   UNL A   1      44.846  27.013  29.724  1.00  0.00     0.029 A 
ATOM     49  C   UNL A   1      44.193  26.331  30.737  1.00  0.00     0.049 A 
ATOM     50  H   UNL A   1      42.938  24.657  30.563  1.00  0.00     0.167 HD
ATOM     51  C   UNL A   1      43.424  27.546  32.694  1.00  0.00     0.074 A 
ATOM     52  C   UNL A   1      42.874  27.859  34.008  1.00  0.00     0.031 C 
ATOM     53  C   UNL A   1      44.063  26.436  32.196  1.00  0.00     0.034 A 
BRANCH  40  54
ATOM     54  C   UNL A   1      43.065  23.515  26.909  1.00  0.00     0.023 A 
ATOM     55  C   UNL A   1      43.765  23.961  25.763  1.00  0.00     0.012 A 
ATOM     56  C   UNL A   1      42.703  22.144  26.919  1.00  0.00     0.148 A 
ATOM     57  C   UNL A   1      44.056  23.124  24.680  1.00  0.00     0.002 A 
ATOM     58  C   UNL A   1      43.021  21.297  25.847  1.00  0.00     0.091 A 
ATOM     59  F   UNL A   1      42.003  21.645  27.941  1.00  0.00    -0.205 F 
ATOM     60  C   UNL A   1      43.685  21.790  24.720  1.00  0.00     0.022 A 
BRANCH  58  61
ATOM     61  S   UNL A   1      42.583  19.545  25.800  1.00  0.00     0.127 S 
ATOM     62  O   UNL A   1      41.141  19.597  25.550  1.00  0.00    -0.237 OA
ATOM     63  O   UNL A   1      43.373  19.053  24.671  1.00  0.00    -0.237 OA
ATOM     64  O   UNL A   1      42.957  18.992  27.095  1.00  0.00    -0.744 OA
ENDBRANCH  58  61
ENDBRANCH  40  54
BRANCH  41  65
ATOM     65  C   UNL A   1      40.077  30.962  32.572  1.00  0.00     0.023 A 
ATOM     66  C   UNL A   1      39.188  29.916  32.943  1.00  0.00     0.012 A 
ATOM     67  C   UNL A   1      39.807  32.248  33.078  1.00  0.00     0.148 A 
ATOM     68  C   UNL A   1      38.187  30.117  33.905  1.00  0.00     0.002 A 
ATOM     69  C   UNL A   1      38.796  32.444  34.021  1.00  0.00     0.091 A 
ATOM     70  F   UNL A   1      40.581  33.276  32.715  1.00  0.00    -0.205 F 
ATOM     71  C   UNL A   1      38.011  31.377  34.469  1.00  0.00     0.022 A 
BRANCH  69  72
ATOM     72  S   UNL A   1      38.615  34.068  34.772  1.00  0.00     0.127 S 
ATOM     73  O   UNL A   1      39.910  34.298  35.412  1.00  0.00    -0.237 OA
ATOM     74  O   UNL A   1      38.357  34.947  33.637  1.00  0.00    -0.237 OA
ATOM     75  O   UNL A   1      37.505  33.849  35.694  1.00  0.00    -0.744 OA
ENDBRANCH  69  72
ENDBRANCH  41  65
BRANCH  53  76
ATOM     76  C   UNL A   1      44.550  25.293  33.089  1.00  0.00     0.023 A 
ATOM     77  C   UNL A   1      43.658  24.313  33.569  1.00  0.00     0.012 A 
ATOM     78  C   UNL A   1      45.880  25.202  33.573  1.00  0.00     0.148 A 
ATOM     79  C   UNL A   1      44.085  23.215  34.323  1.00  0.00     0.002 A 
ATOM     80  C   UNL A   1      46.299  24.134  34.360  1.00  0.00     0.091 A 
ATOM     81  F   UNL A   1      46.755  26.182  33.334  1.00  0.00    -0.205 F 
ATOM     82  C   UNL A   1      45.413  23.114  34.702  1.00  0.00     0.022 A 
BRANCH  80  83
ATOM     83  S   UNL A   1      47.969  24.031  35.021  1.00  0.00     0.127 S 
ATOM     84  O   UNL A   1      48.005  25.201  35.898  1.00  0.00    -0.237 OA
ATOM     85  O   UNL A   1      47.939  22.745  35.717  1.00  0.00    -0.237 OA
ATOM     86  O   UNL A   1      48.865  24.081  33.875  1.00  0.00    -0.744 OA
ENDBRANCH  80  83
ENDBRANCH  53  76
ENDBRANCH  27  28
ENDBRANCH  20  22
ENDBRANCH  19  20
ENDBRANCH   1  19
TORSDOF 15
ENDMDL
MODEL 2
REMARK VINA RESULT:     -12.1      2.081      3.314
REMARK SMILES Cc1cccc(-c2cccnc2C(=O)OCCOC(=O)c2ccc(-c3c4nc(c(-c5cccc(S(=O)(=O)[O-])c5F)c5ccc([nH]5)c(-c5cccc(S(=O)(=O)[O-])c5F)c5nc(c(-c6cccc(S(=O)(=O)[O-])c6F)c6ccc3[nH]6)C=C5)C=C4)cc2)c1
REMARK SMILES IDX 17 1 16 2 15 3 13 4 14 5 12 6 7 7 8 8 9 9 11 10 10 11 6 12
REMARK SMILES IDX 1 13 2 14 3 15 84 16 4 17 5 18 18 19 19 20 20 21 21 22 22 23
REMARK SMILES IDX 83 24 23 25 82 26 24 27 25 28 26 29 76 30 27 31 81 32 75 33
REMARK SMILES IDX 77 34 28 35 80 36 74 37 73 38 29 40 61 41 41 42 60 43 42 44
REMARK SMILES IDX 45 45 59 46 78 47 43 48 44 49 58 51 79 52 46 53 30 54 31 55
REMARK SMILES IDX 39 56 32 57 34 58 40 59 33 60 35 61 36 62 37 63 38 64 62 65
REMARK SMILES IDX 63 66 71 67 64 68 66 69 72 70 65 71 67 72 68 73 69 74 70 75
REMARK SMILES IDX 47 76 48 77 56 78 49 79 51 80 57 81 50 82 52 83 53 84 54 85
REMARK SMILES IDX 55 86
REMARK H PARENT 77 39 45 50
REMARK Flexibility Score: inf
ROOT
ATOM      1  C   UNL A   1      33.424  29.747  26.879  1.00  0.00     0.275 C 
ENDROOT
BRANCH   1   2
ATOM      2  C   UNL A   1      34.177  28.493  26.407  1.00  0.00     0.275 C 
BRANCH   2   3
ATOM      3  O   UNL A   1      33.406  27.301  26.378  1.00  0.00    -0.457 OA
BRANCH   3   4
ATOM      4  C   UNL A   1      33.199  26.717  25.170  1.00  0.00     0.357 C 
ATOM      5  O   UNL A   1      33.623  27.102  24.108  1.00  0.00    -0.244 OA
BRANCH   4   6
ATOM      6  C   UNL A   1      32.332  25.522  25.424  1.00  0.00     0.156 A 
ATOM      7  C   UNL A   1      32.841  24.226  25.237  1.00  0.00     0.015 A 
ATOM      8  C   UNL A   1      31.998  23.165  25.590  1.00  0.00     0.013 A 
ATOM      9  C   UNL A   1      30.734  23.429  26.118  1.00  0.00     0.021 A 
ATOM     10  N   UNL A   1      31.087  25.805  25.892  1.00  0.00    -0.249 NA
ATOM     11  C   UNL A   1      30.332  24.748  26.259  1.00  0.00     0.112 A 
BRANCH   7  12
ATOM     12  C   UNL A   1      34.195  23.996  24.719  1.00  0.00    -0.016 A 
ATOM     13  C   UNL A   1      37.715  23.577  26.096  1.00  0.00     0.044 C 
ATOM     14  C   UNL A   1      36.564  23.623  25.139  1.00  0.00    -0.051 A 
ATOM     15  C   UNL A   1      36.730  23.180  23.822  1.00  0.00     0.003 A 
ATOM     16  C   UNL A   1      35.305  24.065  25.567  1.00  0.00     0.012 A 
ATOM     17  C   UNL A   1      35.644  23.138  22.955  1.00  0.00     0.001 A 
ATOM     18  C   UNL A   1      34.387  23.522  23.416  1.00  0.00     0.009 A 
ENDBRANCH   7  12
ENDBRANCH   4   6
ENDBRANCH   3   4
ENDBRANCH   2   3
ENDBRANCH   1   2
BRANCH   1  19
ATOM     19  O   UNL A   1      34.151  30.946  27.288  1.00  0.00    -0.458 OA
BRANCH  19  20
ATOM     20  C   UNL A   1      34.869  31.252  28.404  1.00  0.00     0.338 C 
ATOM     21  O   UNL A   1      34.539  32.170  29.142  1.00  0.00    -0.246 OA
BRANCH  20  22
ATOM     22  C   UNL A   1      36.063  30.449  28.703  1.00  0.00     0.060 A 
ATOM     23  C   UNL A   1      36.236  29.808  29.942  1.00  0.00     0.016 A 
ATOM     24  C   UNL A   1      36.989  30.283  27.691  1.00  0.00     0.016 A 
ATOM     25  C   UNL A   1      37.344  28.978  30.150  1.00  0.00     0.010 A 
ATOM     26  C   UNL A   1      37.908  29.277  27.805  1.00  0.00     0.010 A 
ATOM     27  C   UNL A   1      38.189  28.737  29.074  1.00  0.00    -0.014 A 
BRANCH  27  28
ATOM     28  C   UNL A   1      39.576  28.283  29.155  1.00  0.00     0.031 A 
ATOM     29  C   UNL A   1      40.025  26.912  28.902  1.00  0.00     0.074 A 
ATOM     30  C   UNL A   1      40.438  29.332  29.207  1.00  0.00     0.049 A 
ATOM     31  N   UNL A   1      41.269  26.651  28.730  1.00  0.00    -0.248 NA
ATOM     32  C   UNL A   1      39.188  25.725  28.796  1.00  0.00     0.031 C 
ATOM     33  C   UNL A   1      41.829  29.462  28.819  1.00  0.00     0.029 A 
ATOM     34  N   UNL A   1      40.136  30.602  29.721  1.00  0.00    -0.354 N 
ATOM     35  C   UNL A   1      41.403  25.351  28.317  1.00  0.00     0.074 A 
ATOM     36  C   UNL A   1      40.068  24.811  28.353  1.00  0.00     0.031 C 
ATOM     37  C   UNL A   1      42.318  30.598  29.354  1.00  0.00     0.029 A 
ATOM     38  C   UNL A   1      41.307  31.115  30.267  1.00  0.00     0.049 A 
ATOM     39  H   UNL A   1      39.258  31.048  29.699  1.00  0.00     0.167 HD
ATOM     40  C   UNL A   1      42.654  24.964  27.951  1.00  0.00     0.034 A 
ATOM     41  C   UNL A   1      41.406  31.248  31.625  1.00  0.00     0.034 A 
ATOM     42  C   UNL A   1      43.638  25.905  28.535  1.00  0.00     0.049 A 
ATOM     43  C   UNL A   1      42.427  30.254  32.186  1.00  0.00     0.074 A 
ATOM     44  C   UNL A   1      44.392  26.970  28.073  1.00  0.00     0.029 A 
ATOM     45  N   UNL A   1      43.667  26.005  29.922  1.00  0.00    -0.354 N 
ATOM     46  N   UNL A   1      43.174  29.450  31.473  1.00  0.00    -0.248 NA
ATOM     47  C   UNL A   1      42.574  30.015  33.617  1.00  0.00     0.031 C 
ATOM     48  C   UNL A   1      44.802  27.748  29.212  1.00  0.00     0.029 A 
ATOM     49  C   UNL A   1      44.348  27.129  30.365  1.00  0.00     0.049 A 
ATOM     50  H   UNL A   1      43.248  25.348  30.525  1.00  0.00     0.167 HD
ATOM     51  C   UNL A   1      43.716  28.483  32.279  1.00  0.00     0.074 A 
ATOM     52  C   UNL A   1      43.307  28.891  33.618  1.00  0.00     0.031 C 
ATOM     53  C   UNL A   1      44.392  27.382  31.811  1.00  0.00     0.034 A 
BRANCH  40  54
ATOM     54  C   UNL A   1      43.027  23.829  27.016  1.00  0.00     0.023 A 
ATOM     55  C   UNL A   1      43.799  24.179  25.883  1.00  0.00     0.012 A 
ATOM     56  C   UNL A   1      42.582  22.483  27.069  1.00  0.00     0.148 A 
ATOM     57  C   UNL A   1      44.081  23.278  24.849  1.00  0.00     0.002 A 
ATOM     58  C   UNL A   1      42.889  21.571  26.048  1.00  0.00     0.091 A 
ATOM     59  F   UNL A   1      41.811  22.075  28.080  1.00  0.00    -0.205 F 
ATOM     60  C   UNL A   1      43.627  21.972  24.931  1.00  0.00     0.022 A 
BRANCH  58  61
ATOM     61  S   UNL A   1      42.346  19.849  26.057  1.00  0.00     0.127 S 
ATOM     62  O   UNL A   1      40.901  19.982  25.863  1.00  0.00    -0.237 OA
ATOM     63  O   UNL A   1      43.060  19.287  24.911  1.00  0.00    -0.237 OA
ATOM     64  O   UNL A   1      42.738  19.300  27.349  1.00  0.00    -0.744 OA
ENDBRANCH  58  61
ENDBRANCH  40  54
BRANCH  41  65
ATOM     65  C   UNL A   1      40.068  31.578  32.273  1.00  0.00     0.023 A 
ATOM     66  C   UNL A   1      39.141  30.514  32.452  1.00  0.00     0.012 A 
ATOM     67  C   UNL A   1      39.885  32.732  33.058  1.00  0.00     0.148 A 
ATOM     68  C   UNL A   1      38.188  30.543  33.482  1.00  0.00     0.002 A 
ATOM     69  C   UNL A   1      38.923  32.761  34.070  1.00  0.00     0.091 A 
ATOM     70  F   UNL A   1      40.698  33.780  32.889  1.00  0.00    -0.205 F 
ATOM     71  C   UNL A   1      38.100  31.656  34.313  1.00  0.00     0.022 A 
BRANCH  69  72
ATOM     72  S   UNL A   1      38.856  34.188  35.163  1.00  0.00     0.127 S 
ATOM     73  O   UNL A   1      40.159  34.175  35.826  1.00  0.00    -0.237 OA
ATOM     74  O   UNL A   1      38.673  35.312  34.252  1.00  0.00    -0.237 OA
ATOM     75  O   UNL A   1      37.725  33.853  36.022  1.00  0.00    -0.744 OA
ENDBRANCH  69  72
ENDBRANCH  41  65
BRANCH  53  76
ATOM     76  C   UNL A   1      45.094  26.387  32.737  1.00  0.00     0.023 A 
ATOM     77  C   UNL A   1      46.468  26.105  32.596  1.00  0.00     0.012 A 
ATOM     78  C   UNL A   1      44.406  25.617  33.710  1.00  0.00     0.148 A 
ATOM     79  C   UNL A   1      47.154  25.260  33.473  1.00  0.00     0.002 A 
ATOM     80  C   UNL A   1      45.079  24.741  34.557  1.00  0.00     0.091 A 
ATOM     81  F   UNL A   1      43.075  25.669  33.794  1.00  0.00    -0.205 F 
ATOM     82  C   UNL A   1      46.462  24.592  34.470  1.00  0.00     0.022 A 
BRANCH  80  83
ATOM     83  S   UNL A   1      44.213  23.723  35.760  1.00  0.00     0.127 S 
ATOM     84  O   UNL A   1      43.289  22.983  34.901  1.00  0.00    -0.237 OA
ATOM     85  O   UNL A   1      45.304  22.923  36.318  1.00  0.00    -0.237 OA
ATOM     86  O   UNL A   1      43.591  24.643  36.701  1.00  0.00    -0.744 OA
ENDBRANCH  80  83
ENDBRANCH  53  76
ENDBRANCH  27  28
ENDBRANCH  20  22
ENDBRANCH  19  20
ENDBRANCH   1  19
TORSDOF 15
ENDMDL
MODEL 3
REMARK VINA RESULT:     -12.1      1.604      2.626
REMARK SMILES Cc1cccc(-c2cccnc2C(=O)OCCOC(=O)c2ccc(-c3c4nc(c(-c5cccc(S(=O)(=O)[O-])c5F)c5ccc([nH]5)c(-c5cccc(S(=O)(=O)[O-])c5F)c5nc(c(-c6cccc(S(=O)(=O)[O-])c6F)c6ccc3[nH]6)C=C5)C=C4)cc2)c1
REMARK SMILES IDX 17 1 16 2 15 3 13 4 14 5 12 6 7 7 8 8 9 9 11 10 10 11 6 12
REMARK SMILES IDX 1 13 2 14 3 15 84 16 4 17 5 18 18 19 19 20 20 21 21 22 22 23
REMARK SMILES IDX 83 24 23 25 82 26 24 27 25 28 26 29 76 30 27 31 81 32 75 33
REMARK SMILES IDX 77 34 28 35 80 36 74 37 73 38 29 40 61 41 41 42 60 43 42 44
REMARK SMILES IDX 45 45 59 46 78 47 43 48 44 49 58 51 79 52 46 53 30 54 31 55
REMARK SMILES IDX 39 56 32 57 34 58 40 59 33 60 35 61 36 62 37 63 38 64 62 65
REMARK SMILES IDX 63 66 71 67 64 68 66 69 72 70 65 71 67 72 68 73 69 74 70 75
REMARK SMILES IDX 47 76 48 77 56 78 49 79 51 80 57 81 50 82 52 83 53 84 54 85
REMARK SMILES IDX 55 86
REMARK H PARENT 77 39 45 50
REMARK Flexibility Score: inf
ROOT
ATOM      1  C   UNL A   1      33.130  30.167  27.155  1.00  0.00     0.275 C 
ENDROOT
BRANCH   1   2
ATOM      2  C   UNL A   1      32.862  29.761  25.698  1.00  0.00     0.275 C 
BRANCH   2   3
ATOM      3  O   UNL A   1      31.983  28.659  25.530  1.00  0.00    -0.457 OA
BRANCH   3   4
ATOM      4  C   UNL A   1      31.944  28.068  24.308  1.00  0.00     0.357 C 
ATOM      5  O   UNL A   1      32.859  27.507  23.756  1.00  0.00    -0.244 OA
BRANCH   4   6
ATOM      6  C   UNL A   1      30.554  28.270  23.788  1.00  0.00     0.156 A 
ATOM      7  C   UNL A   1      29.611  27.231  23.864  1.00  0.00     0.015 A 
ATOM      8  C   UNL A   1      28.310  27.534  23.446  1.00  0.00     0.013 A 
ATOM      9  C   UNL A   1      28.004  28.821  23.004  1.00  0.00     0.021 A 
ATOM     10  N   UNL A   1      30.293  29.519  23.316  1.00  0.00    -0.249 NA
ATOM     11  C   UNL A   1      29.014  29.771  22.968  1.00  0.00     0.112 A 
BRANCH   7  12
ATOM     12  C   UNL A   1      29.967  25.903  24.378  1.00  0.00    -0.016 A 
ATOM     13  C   UNL A   1      31.686  22.753  23.121  1.00  0.00     0.044 C 
ATOM     14  C   UNL A   1      31.029  23.738  24.036  1.00  0.00    -0.051 A 
ATOM     15  C   UNL A   1      31.008  23.507  25.416  1.00  0.00     0.003 A 
ATOM     16  C   UNL A   1      30.472  24.918  23.523  1.00  0.00     0.012 A 
ATOM     17  C   UNL A   1      30.477  24.461  26.277  1.00  0.00     0.001 A 
ATOM     18  C   UNL A   1      29.985  25.655  25.755  1.00  0.00     0.009 A 
ENDBRANCH   7  12
ENDBRANCH   4   6
ENDBRANCH   3   4
ENDBRANCH   2   3
ENDBRANCH   1   2
BRANCH   1  19
ATOM     19  O   UNL A   1      34.149  31.163  27.477  1.00  0.00    -0.458 OA
BRANCH  19  20
ATOM     20  C   UNL A   1      34.860  31.421  28.610  1.00  0.00     0.338 C 
ATOM     21  O   UNL A   1      34.532  32.313  29.379  1.00  0.00    -0.246 OA
BRANCH  20  22
ATOM     22  C   UNL A   1      36.046  30.597  28.886  1.00  0.00     0.060 A 
ATOM     23  C   UNL A   1      36.236  29.960  30.124  1.00  0.00     0.016 A 
ATOM     24  C   UNL A   1      36.945  30.408  27.854  1.00  0.00     0.016 A 
ATOM     25  C   UNL A   1      37.333  29.111  30.312  1.00  0.00     0.010 A 
ATOM     26  C   UNL A   1      37.849  29.387  27.954  1.00  0.00     0.010 A 
ATOM     27  C   UNL A   1      38.148  28.849  29.218  1.00  0.00    -0.014 A 
BRANCH  27  28
ATOM     28  C   UNL A   1      39.528  28.369  29.271  1.00  0.00     0.031 A 
ATOM     29  C   UNL A   1      39.950  26.995  28.987  1.00  0.00     0.074 A 
ATOM     30  C   UNL A   1      40.409  29.403  29.328  1.00  0.00     0.049 A 
ATOM     31  N   UNL A   1      41.186  26.717  28.792  1.00  0.00    -0.248 NA
ATOM     32  C   UNL A   1      39.090  25.825  28.873  1.00  0.00     0.031 C 
ATOM     33  C   UNL A   1      41.796  29.515  28.921  1.00  0.00     0.029 A 
ATOM     34  N   UNL A   1      40.137  30.668  29.868  1.00  0.00    -0.354 N 
ATOM     35  C   UNL A   1      41.291  25.422  28.354  1.00  0.00     0.074 A 
ATOM     36  C   UNL A   1      39.947  24.904  28.401  1.00  0.00     0.031 C 
ATOM     37  C   UNL A   1      42.312  30.633  29.468  1.00  0.00     0.029 A 
ATOM     38  C   UNL A   1      41.325  31.151  30.406  1.00  0.00     0.049 A 
ATOM     39  H   UNL A   1      39.267  31.129  29.868  1.00  0.00     0.167 HD
ATOM     40  C   UNL A   1      42.530  25.020  27.963  1.00  0.00     0.034 A 
ATOM     41  C   UNL A   1      41.446  31.258  31.764  1.00  0.00     0.034 A 
ATOM     42  C   UNL A   1      43.539  25.933  28.548  1.00  0.00     0.049 A 
ATOM     43  C   UNL A   1      42.458  30.237  32.293  1.00  0.00     0.074 A 
ATOM     44  C   UNL A   1      44.304  26.993  28.094  1.00  0.00     0.029 A 
ATOM     45  N   UNL A   1      43.590  26.008  29.936  1.00  0.00    -0.354 N 
ATOM     46  N   UNL A   1      43.180  29.433  31.555  1.00  0.00    -0.248 NA
ATOM     47  C   UNL A   1      42.622  29.970  33.717  1.00  0.00     0.031 C 
ATOM     48  C   UNL A   1      44.744  27.744  29.239  1.00  0.00     0.029 A 
ATOM     49  C   UNL A   1      44.297  27.112  30.388  1.00  0.00     0.049 A 
ATOM     50  H   UNL A   1      43.168  25.348  30.533  1.00  0.00     0.167 HD
ATOM     51  C   UNL A   1      43.717  28.443  32.335  1.00  0.00     0.074 A 
ATOM     52  C   UNL A   1      43.335  28.834  33.687  1.00  0.00     0.031 C 
ATOM     53  C   UNL A   1      44.367  27.338  31.838  1.00  0.00     0.034 A 
BRANCH  40  54
ATOM     54  C   UNL A   1      42.869  23.895  27.002  1.00  0.00     0.023 A 
ATOM     55  C   UNL A   1      43.569  24.264  25.829  1.00  0.00     0.012 A 
ATOM     56  C   UNL A   1      42.452  22.541  27.075  1.00  0.00     0.148 A 
ATOM     57  C   UNL A   1      43.807  23.372  24.777  1.00  0.00     0.002 A 
ATOM     58  C   UNL A   1      42.717  21.639  26.033  1.00  0.00     0.091 A 
ATOM     59  F   UNL A   1      41.748  22.115  28.126  1.00  0.00    -0.205 F 
ATOM     60  C   UNL A   1      43.382  22.058  24.877  1.00  0.00     0.022 A 
BRANCH  58  61
ATOM     61  S   UNL A   1      42.205  19.907  26.065  1.00  0.00     0.127 S 
ATOM     62  O   UNL A   1      42.686  19.469  27.377  1.00  0.00    -0.237 OA
ATOM     63  O   UNL A   1      40.750  20.006  25.959  1.00  0.00    -0.237 OA
ATOM     64  O   UNL A   1      42.858  19.264  24.931  1.00  0.00    -0.744 OA
ENDBRANCH  58  61
ENDBRANCH  40  54
BRANCH  41  65
ATOM     65  C   UNL A   1      40.124  31.600  32.438  1.00  0.00     0.023 A 
ATOM     66  C   UNL A   1      39.210  30.536  32.677  1.00  0.00     0.012 A 
ATOM     67  C   UNL A   1      39.953  32.778  33.190  1.00  0.00     0.148 A 
ATOM     68  C   UNL A   1      38.286  30.591  33.732  1.00  0.00     0.002 A 
ATOM     69  C   UNL A   1      39.019  32.832  34.227  1.00  0.00     0.091 A 
ATOM     70  F   UNL A   1      40.753  33.825  32.965  1.00  0.00    -0.205 F 
ATOM     71  C   UNL A   1      38.212  31.730  34.529  1.00  0.00     0.022 A 
BRANCH  69  72
ATOM     72  S   UNL A   1      38.971  34.293  35.274  1.00  0.00     0.127 S 
ATOM     73  O   UNL A   1      38.487  35.343  34.379  1.00  0.00    -0.237 OA
ATOM     74  O   UNL A   1      38.024  33.935  36.324  1.00  0.00    -0.237 OA
ATOM     75  O   UNL A   1      40.369  34.421  35.673  1.00  0.00    -0.744 OA
ENDBRANCH  69  72
ENDBRANCH  41  65
BRANCH  53  76
ATOM     76  C   UNL A   1      45.064  26.316  32.736  1.00  0.00     0.023 A 
ATOM     77  C   UNL A   1      46.432  26.015  32.571  1.00  0.00     0.012 A 
ATOM     78  C   UNL A   1      44.377  25.538  33.702  1.00  0.00     0.148 A 
ATOM     79  C   UNL A   1      47.116  25.143  33.423  1.00  0.00     0.002 A 
ATOM     80  C   UNL A   1      45.047  24.636  34.524  1.00  0.00     0.091 A 
ATOM     81  F   UNL A   1      43.048  25.609  33.805  1.00  0.00    -0.205 F 
ATOM     82  C   UNL A   1      46.426  24.467  34.416  1.00  0.00     0.022 A 
BRANCH  80  83
ATOM     83  S   UNL A   1      44.181  23.608  35.720  1.00  0.00     0.127 S 
ATOM     84  O   UNL A   1      43.882  24.580  36.772  1.00  0.00    -0.237 OA
ATOM     85  O   UNL A   1      43.020  23.163  34.949  1.00  0.00    -0.237 OA
ATOM     86  O   UNL A   1      45.106  22.548  36.093  1.00  0.00    -0.744 OA
ENDBRANCH  80  83
ENDBRANCH  53  76
ENDBRANCH  27  28
ENDBRANCH  20  22
ENDBRANCH  19  20
ENDBRANCH   1  19
TORSDOF 15
ENDMDL
