MODEL 1
REMARK VINA RESULT:     -11.1      0.000      0.000
REMARK SMILES CCCCCCOC(=O)Nc1cccc(-c2ccc([C@@H](C)C(=O)OCCOC(=O)c3ccc(-c4c5nc(c(-c6cccc(S(=O)(=O)[O-])c6F)c6ccc([nH]6)c(-c6cccc(S(=O)(=O)[O-])c6F)c6nc(c(-c7cccc(S(=O)(=O)[O-])c7F)c7ccc4[nH]7)C=C6)C=C5)cc3)cc2F)c1
REMARK SMILES IDX 20 1 21 2 19 3 16 4 17 5 94 6 18 7 93 8 95 9 15 10 11 11
REMARK SMILES IDX 12 12 96 13 13 14 14 15 10 16 8 17 9 18 7 20 6 21 5 22 4 23
REMARK SMILES IDX 3 24 2 25 1 26 22 27 23 28 24 29 25 30 26 31 27 32 28 33
REMARK SMILES IDX 29 34 30 35 31 36 92 37 32 38 91 39 33 40 34 41 35 42 85 43
REMARK SMILES IDX 36 44 90 45 84 46 86 47 37 48 89 49 83 50 82 51 38 53 70 54
REMARK SMILES IDX 50 55 69 56 51 57 54 58 68 59 87 60 52 61 53 62 67 64 88 65
REMARK SMILES IDX 55 66 39 67 40 68 48 69 41 70 43 71 49 72 42 73 44 74 45 75
REMARK SMILES IDX 46 76 47 77 71 78 72 79 80 80 73 81 75 82 81 83 74 84 76 85
REMARK SMILES IDX 77 86 78 87 79 88 56 89 57 90 65 91 58 92 60 93 66 94 59 95
REMARK SMILES IDX 61 96 62 97 63 98 64 99
REMARK H PARENT 10 19 86 52 54 63
REMARK Flexibility Score: inf
ROOT
ATOM      1  C   UNL A   1      33.938  21.950  26.066  1.00  0.00     0.126 C 
ATOM      2  C   UNL A   1      32.727  21.053  25.816  1.00  0.00     0.025 C 
ENDROOT
BRANCH   1   3
ATOM      3  C   UNL A   1      33.557  23.422  26.124  1.00  0.00    -0.031 A 
ATOM      4  C   UNL A   1      32.783  26.159  26.182  1.00  0.00     0.018 A 
ATOM      5  C   UNL A   1      34.096  25.786  25.864  1.00  0.00     0.012 A 
ATOM      6  C   UNL A   1      31.876  25.136  26.489  1.00  0.00     0.131 A 
ATOM      7  C   UNL A   1      34.477  24.439  25.831  1.00  0.00     0.005 A 
ATOM      8  C   UNL A   1      32.247  23.791  26.461  1.00  0.00     0.044 A 
ATOM      9  F   UNL A   1      30.599  25.429  26.788  1.00  0.00    -0.206 F 
BRANCH   4  10
ATOM     10  C   UNL A   1      32.367  27.568  26.159  1.00  0.00    -0.013 A 
ATOM     11  C   UNL A   1      31.159  29.400  25.092  1.00  0.00     0.045 A 
ATOM     12  C   UNL A   1      31.748  30.308  25.971  1.00  0.00     0.026 A 
ATOM     13  C   UNL A   1      31.466  28.039  25.193  1.00  0.00     0.035 A 
ATOM     14  C   UNL A   1      32.600  29.852  26.976  1.00  0.00     0.003 A 
ATOM     15  C   UNL A   1      32.910  28.494  27.066  1.00  0.00     0.009 A 
BRANCH  11  16
ATOM     16  N   UNL A   1      30.355  29.901  24.060  1.00  0.00    -0.291 N 
ATOM     17  C   UNL A   1      30.326  29.499  22.753  1.00  0.00     0.411 C 
ATOM     18  O   UNL A   1      29.894  30.239  21.879  1.00  0.00    -0.224 OA
ATOM     19  H   UNL A   1      29.739  30.629  24.305  1.00  0.00     0.173 HD
BRANCH  17  20
ATOM     20  O   UNL A   1      30.675  28.199  22.585  1.00  0.00    -0.449 OA
BRANCH  20  21
ATOM     21  C   UNL A   1      31.759  27.897  21.694  1.00  0.00     0.235 C 
BRANCH  21  22
ATOM     22  C   UNL A   1      33.059  27.600  22.450  1.00  0.00     0.042 C 
BRANCH  22  23
ATOM     23  C   UNL A   1      33.534  26.142  22.415  1.00  0.00     0.003 C 
BRANCH  23  24
ATOM     24  C   UNL A   1      32.511  25.140  21.862  1.00  0.00    -0.000 C 
BRANCH  24  25
ATOM     25  C   UNL A   1      31.949  24.158  22.889  1.00  0.00    -0.003 C 
ATOM     26  C   UNL A   1      30.530  24.498  23.311  1.00  0.00     0.004 C 
ENDBRANCH  24  25
ENDBRANCH  23  24
ENDBRANCH  22  23
ENDBRANCH  21  22
ENDBRANCH  20  21
ENDBRANCH  17  20
ENDBRANCH  11  16
ENDBRANCH   4  10
ENDBRANCH   1   3
BRANCH   1  27
ATOM     27  C   UNL A   1      35.068  21.581  25.111  1.00  0.00     0.313 C 
ATOM     28  O   UNL A   1      35.131  22.034  23.972  1.00  0.00    -0.252 OA
BRANCH  27  29
ATOM     29  O   UNL A   1      35.998  20.753  25.654  1.00  0.00    -0.462 OA
BRANCH  29  30
ATOM     30  C   UNL A   1      36.657  19.840  24.756  1.00  0.00     0.274 C 
BRANCH  30  31
ATOM     31  C   UNL A   1      38.158  19.771  25.040  1.00  0.00     0.275 C 
BRANCH  31  32
ATOM     32  O   UNL A   1      38.640  20.999  25.614  1.00  0.00    -0.458 OA
BRANCH  32  33
ATOM     33  C   UNL A   1      39.727  20.869  26.409  1.00  0.00     0.338 C 
ATOM     34  O   UNL A   1      40.366  19.854  26.626  1.00  0.00    -0.246 OA
BRANCH  33  35
ATOM     35  C   UNL A   1      40.139  22.187  26.913  1.00  0.00     0.060 A 
ATOM     36  C   UNL A   1      39.519  23.313  26.371  1.00  0.00     0.016 A 
ATOM     37  C   UNL A   1      41.191  22.325  27.816  1.00  0.00     0.016 A 
ATOM     38  C   UNL A   1      39.967  24.588  26.697  1.00  0.00     0.010 A 
ATOM     39  C   UNL A   1      41.628  23.609  28.164  1.00  0.00     0.010 A 
ATOM     40  C   UNL A   1      41.035  24.748  27.589  1.00  0.00    -0.014 A 
BRANCH  40  41
ATOM     41  C   UNL A   1      41.546  26.112  27.874  1.00  0.00     0.031 A 
ATOM     42  C   UNL A   1      42.933  26.501  27.443  1.00  0.00     0.074 A 
ATOM     43  C   UNL A   1      40.755  27.003  28.501  1.00  0.00     0.049 A 
ATOM     44  N   UNL A   1      43.572  27.626  27.637  1.00  0.00    -0.248 NA
ATOM     45  C   UNL A   1      43.707  25.492  26.700  1.00  0.00     0.031 C 
ATOM     46  C   UNL A   1      39.388  26.745  28.955  1.00  0.00     0.029 A 
ATOM     47  N   UNL A   1      40.991  28.302  28.873  1.00  0.00    -0.354 N 
ATOM     48  C   UNL A   1      44.833  27.449  27.080  1.00  0.00     0.074 A 
ATOM     49  C   UNL A   1      44.873  26.105  26.546  1.00  0.00     0.031 C 
ATOM     50  C   UNL A   1      38.908  27.847  29.552  1.00  0.00     0.029 A 
ATOM     51  C   UNL A   1      39.945  28.875  29.560  1.00  0.00     0.049 A 
ATOM     52  H   UNL A   1      41.827  28.780  28.669  1.00  0.00     0.167 HD
ATOM     53  C   UNL A   1      45.859  28.331  27.009  1.00  0.00     0.034 A 
ATOM     54  C   UNL A   1      39.844  30.080  30.152  1.00  0.00     0.034 A 
ATOM     55  C   UNL A   1      45.800  29.679  27.509  1.00  0.00     0.049 A 
ATOM     56  C   UNL A   1      41.003  31.035  30.064  1.00  0.00     0.074 A 
ATOM     57  C   UNL A   1      46.772  30.662  27.447  1.00  0.00     0.029 A 
ATOM     58  N   UNL A   1      44.711  30.235  28.162  1.00  0.00    -0.354 N 
ATOM     59  N   UNL A   1      42.154  30.883  29.455  1.00  0.00    -0.248 NA
ATOM     60  C   UNL A   1      40.839  32.340  30.721  1.00  0.00     0.031 C 
ATOM     61  C   UNL A   1      46.279  31.805  28.087  1.00  0.00     0.029 A 
ATOM     62  C   UNL A   1      44.989  31.544  28.519  1.00  0.00     0.049 A 
ATOM     63  H   UNL A   1      43.864  29.768  28.346  1.00  0.00     0.167 HD
ATOM     64  C   UNL A   1      42.838  32.082  29.627  1.00  0.00     0.074 A 
ATOM     65  C   UNL A   1      41.960  32.958  30.375  1.00  0.00     0.031 C 
ATOM     66  C   UNL A   1      44.084  32.422  29.217  1.00  0.00     0.034 A 
BRANCH  53  67
ATOM     67  C   UNL A   1      47.132  27.874  26.344  1.00  0.00     0.023 A 
ATOM     68  C   UNL A   1      48.149  27.275  27.114  1.00  0.00     0.012 A 
ATOM     69  C   UNL A   1      47.295  27.981  24.948  1.00  0.00     0.148 A 
ATOM     70  C   UNL A   1      49.322  26.819  26.512  1.00  0.00     0.002 A 
ATOM     71  C   UNL A   1      48.447  27.484  24.348  1.00  0.00     0.091 A 
ATOM     72  F   UNL A   1      46.326  28.570  24.234  1.00  0.00    -0.205 F 
ATOM     73  C   UNL A   1      49.465  26.914  25.130  1.00  0.00     0.022 A 
BRANCH  71  74
ATOM     74  S   UNL A   1      48.694  27.487  22.569  1.00  0.00     0.127 S 
ATOM     75  O   UNL A   1      47.547  28.271  22.113  1.00  0.00    -0.237 OA
ATOM     76  O   UNL A   1      49.985  28.163  22.438  1.00  0.00    -0.237 OA
ATOM     77  O   UNL A   1      48.696  26.090  22.160  1.00  0.00    -0.744 OA
ENDBRANCH  71  74
ENDBRANCH  53  67
BRANCH  54  78
ATOM     78  C   UNL A   1      38.586  30.465  30.854  1.00  0.00     0.023 A 
ATOM     79  C   UNL A   1      38.405  30.106  32.203  1.00  0.00     0.012 A 
ATOM     80  C   UNL A   1      37.577  31.198  30.197  1.00  0.00     0.148 A 
ATOM     81  C   UNL A   1      37.229  30.442  32.876  1.00  0.00     0.002 A 
ATOM     82  C   UNL A   1      36.436  31.580  30.890  1.00  0.00     0.091 A 
ATOM     83  F   UNL A   1      37.760  31.515  28.907  1.00  0.00    -0.205 F 
ATOM     84  C   UNL A   1      36.251  31.187  32.225  1.00  0.00     0.022 A 
BRANCH  82  85
ATOM     85  S   UNL A   1      35.187  32.651  30.168  1.00  0.00     0.127 S 
ATOM     86  O   UNL A   1      34.657  31.812  29.098  1.00  0.00    -0.237 OA
ATOM     87  O   UNL A   1      34.278  32.859  31.297  1.00  0.00    -0.237 OA
ATOM     88  O   UNL A   1      35.897  33.850  29.743  1.00  0.00    -0.744 OA
ENDBRANCH  82  85
ENDBRANCH  54  78
BRANCH  66  89
ATOM     89  C   UNL A   1      44.565  33.814  29.534  1.00  0.00     0.023 A 
ATOM     90  C   UNL A   1      45.129  34.092  30.795  1.00  0.00     0.012 A 
ATOM     91  C   UNL A   1      44.513  34.832  28.560  1.00  0.00     0.148 A 
ATOM     92  C   UNL A   1      45.598  35.370  31.095  1.00  0.00     0.002 A 
ATOM     93  C   UNL A   1      45.028  36.090  28.849  1.00  0.00     0.091 A 
ATOM     94  F   UNL A   1      43.955  34.555  27.373  1.00  0.00    -0.205 F 
ATOM     95  C   UNL A   1      45.558  36.364  30.120  1.00  0.00     0.022 A 
BRANCH  93  96
ATOM     96  S   UNL A   1      45.105  37.402  27.625  1.00  0.00     0.127 S 
ATOM     97  O   UNL A   1      45.749  38.476  28.379  1.00  0.00    -0.237 OA
ATOM     98  O   UNL A   1      45.939  36.804  26.581  1.00  0.00    -0.237 OA
ATOM     99  O   UNL A   1      43.729  37.655  27.223  1.00  0.00    -0.744 OA
ENDBRANCH  93  96
ENDBRANCH  66  89
ENDBRANCH  40  41
ENDBRANCH  33  35
ENDBRANCH  32  33
ENDBRANCH  31  32
ENDBRANCH  30  31
ENDBRANCH  29  30
ENDBRANCH  27  29
ENDBRANCH   1  27
TORSDOF 23
ENDMDL
MODEL 2
REMARK VINA RESULT:     -10.2      1.830      2.108
REMARK SMILES CCCCCCOC(=O)Nc1cccc(-c2ccc([C@@H](C)C(=O)OCCOC(=O)c3ccc(-c4c5nc(c(-c6cccc(S(=O)(=O)[O-])c6F)c6ccc([nH]6)c(-c6cccc(S(=O)(=O)[O-])c6F)c6nc(c(-c7cccc(S(=O)(=O)[O-])c7F)c7ccc4[nH]7)C=C6)C=C5)cc3)cc2F)c1
REMARK SMILES IDX 20 1 21 2 19 3 16 4 17 5 94 6 18 7 93 8 95 9 15 10 11 11
REMARK SMILES IDX 12 12 96 13 13 14 14 15 10 16 8 17 9 18 7 20 6 21 5 22 4 23
REMARK SMILES IDX 3 24 2 25 1 26 22 27 23 28 24 29 25 30 26 31 27 32 28 33
REMARK SMILES IDX 29 34 30 35 31 36 92 37 32 38 91 39 33 40 34 41 35 42 85 43
REMARK SMILES IDX 36 44 90 45 84 46 86 47 37 48 89 49 83 50 82 51 38 53 70 54
REMARK SMILES IDX 50 55 69 56 51 57 54 58 68 59 87 60 52 61 53 62 67 64 88 65
REMARK SMILES IDX 55 66 39 67 40 68 48 69 41 70 43 71 49 72 42 73 44 74 45 75
REMARK SMILES IDX 46 76 47 77 71 78 72 79 80 80 73 81 75 82 81 83 74 84 76 85
REMARK SMILES IDX 77 86 78 87 79 88 56 89 57 90 65 91 58 92 60 93 66 94 59 95
REMARK SMILES IDX 61 96 62 97 63 98 64 99
REMARK H PARENT 10 19 86 52 54 63
REMARK Flexibility Score: inf
ROOT
ATOM      1  C   UNL A   1      34.035  21.957  26.134  1.00  0.00     0.126 C 
ATOM      2  C   UNL A   1      32.855  21.012  25.917  1.00  0.00     0.025 C 
ENDROOT
BRANCH   1   3
ATOM      3  C   UNL A   1      33.605  23.416  26.154  1.00  0.00    -0.031 A 
ATOM      4  C   UNL A   1      32.738  26.125  26.137  1.00  0.00     0.018 A 
ATOM      5  C   UNL A   1      34.070  25.791  25.854  1.00  0.00     0.012 A 
ATOM      6  C   UNL A   1      31.860  25.079  26.448  1.00  0.00     0.131 A 
ATOM      7  C   UNL A   1      34.496  24.457  25.857  1.00  0.00     0.005 A 
ATOM      8  C   UNL A   1      32.277  23.747  26.456  1.00  0.00     0.044 A 
ATOM      9  F   UNL A   1      30.569  25.335  26.715  1.00  0.00    -0.206 F 
BRANCH   4  10
ATOM     10  C   UNL A   1      32.277  27.520  26.076  1.00  0.00    -0.013 A 
ATOM     11  C   UNL A   1      31.098  29.307  24.907  1.00  0.00     0.045 A 
ATOM     12  C   UNL A   1      31.579  30.236  25.829  1.00  0.00     0.026 A 
ATOM     13  C   UNL A   1      31.443  27.958  25.036  1.00  0.00     0.035 A 
ATOM     14  C   UNL A   1      32.360  29.810  26.902  1.00  0.00     0.003 A 
ATOM     15  C   UNL A   1      32.709  28.464  27.021  1.00  0.00     0.009 A 
BRANCH  11  16
ATOM     16  N   UNL A   1      30.365  29.779  23.810  1.00  0.00    -0.291 N 
ATOM     17  C   UNL A   1      30.363  29.290  22.533  1.00  0.00     0.411 C 
ATOM     18  O   UNL A   1      30.009  29.990  21.593  1.00  0.00    -0.224 OA
ATOM     19  H   UNL A   1      29.783  30.556  23.979  1.00  0.00     0.173 HD
BRANCH  17  20
ATOM     20  O   UNL A   1      30.641  27.963  22.467  1.00  0.00    -0.449 OA
BRANCH  20  21
ATOM     21  C   UNL A   1      31.710  27.536  21.611  1.00  0.00     0.235 C 
BRANCH  21  22
ATOM     22  C   UNL A   1      33.024  27.349  22.378  1.00  0.00     0.042 C 
BRANCH  22  23
ATOM     23  C   UNL A   1      33.577  25.918  22.416  1.00  0.00     0.003 C 
BRANCH  23  24
ATOM     24  C   UNL A   1      32.643  24.846  21.839  1.00  0.00    -0.000 C 
BRANCH  24  25
ATOM     25  C   UNL A   1      32.033  23.897  22.871  1.00  0.00    -0.003 C 
ATOM     26  C   UNL A   1      30.578  24.216  23.174  1.00  0.00     0.004 C 
ENDBRANCH  24  25
ENDBRANCH  23  24
ENDBRANCH  22  23
ENDBRANCH  21  22
ENDBRANCH  20  21
ENDBRANCH  17  20
ENDBRANCH  11  16
ENDBRANCH   4  10
ENDBRANCH   1   3
BRANCH   1  27
ATOM     27  C   UNL A   1      35.173  21.599  25.184  1.00  0.00     0.313 C 
ATOM     28  O   UNL A   1      35.185  21.972  24.015  1.00  0.00    -0.252 OA
BRANCH  27  29
ATOM     29  O   UNL A   1      36.169  20.880  25.764  1.00  0.00    -0.462 OA
BRANCH  29  30
ATOM     30  C   UNL A   1      36.830  19.904  24.936  1.00  0.00     0.274 C 
BRANCH  30  31
ATOM     31  C   UNL A   1      38.329  19.850  25.237  1.00  0.00     0.275 C 
BRANCH  31  32
ATOM     32  O   UNL A   1      38.791  21.080  25.823  1.00  0.00    -0.458 OA
BRANCH  32  33
ATOM     33  C   UNL A   1      39.856  20.953  26.649  1.00  0.00     0.338 C 
ATOM     34  O   UNL A   1      40.435  19.925  26.955  1.00  0.00    -0.246 OA
BRANCH  33  35
ATOM     35  C   UNL A   1      40.331  22.282  27.060  1.00  0.00     0.060 A 
ATOM     36  C   UNL A   1      39.822  23.392  26.385  1.00  0.00     0.016 A 
ATOM     37  C   UNL A   1      41.337  22.433  28.012  1.00  0.00     0.016 A 
ATOM     38  C   UNL A   1      40.340  24.659  26.626  1.00  0.00     0.010 A 
ATOM     39  C   UNL A   1      41.842  23.713  28.273  1.00  0.00     0.010 A 
ATOM     40  C   UNL A   1      41.364  24.830  27.565  1.00  0.00    -0.014 A 
BRANCH  40  41
ATOM     41  C   UNL A   1      41.952  26.179  27.761  1.00  0.00     0.031 A 
ATOM     42  C   UNL A   1      43.311  26.497  27.200  1.00  0.00     0.074 A 
ATOM     43  C   UNL A   1      41.257  27.120  28.426  1.00  0.00     0.049 A 
ATOM     44  N   UNL A   1      44.009  27.597  27.302  1.00  0.00    -0.248 NA
ATOM     45  C   UNL A   1      43.975  25.435  26.424  1.00  0.00     0.031 C 
ATOM     46  C   UNL A   1      39.925  26.933  29.006  1.00  0.00     0.029 A 
ATOM     47  N   UNL A   1      41.576  28.418  28.736  1.00  0.00    -0.354 N 
ATOM     48  C   UNL A   1      45.208  27.352  26.643  1.00  0.00     0.074 A 
ATOM     49  C   UNL A   1      45.146  25.993  26.150  1.00  0.00     0.031 C 
ATOM     50  C   UNL A   1      39.545  28.072  29.608  1.00  0.00     0.029 A 
ATOM     51  C   UNL A   1      40.619  29.054  29.493  1.00  0.00     0.049 A 
ATOM     52  H   UNL A   1      42.409  28.854  28.445  1.00  0.00     0.167 HD
ATOM     53  C   UNL A   1      46.258  28.187  26.455  1.00  0.00     0.034 A 
ATOM     54  C   UNL A   1      40.619  30.278  30.053  1.00  0.00     0.034 A 
ATOM     55  C   UNL A   1      46.297  29.550  26.915  1.00  0.00     0.049 A 
ATOM     56  C   UNL A   1      41.803  31.180  29.835  1.00  0.00     0.074 A 
ATOM     57  C   UNL A   1      47.299  30.488  26.739  1.00  0.00     0.029 A 
ATOM     58  N   UNL A   1      45.293  30.170  27.644  1.00  0.00    -0.354 N 
ATOM     59  N   UNL A   1      42.889  30.962  29.133  1.00  0.00    -0.248 NA
ATOM     60  C   UNL A   1      41.750  32.509  30.462  1.00  0.00     0.031 C 
ATOM     61  C   UNL A   1      46.911  31.668  27.383  1.00  0.00     0.029 A 
ATOM     62  C   UNL A   1      45.654  31.475  27.933  1.00  0.00     0.049 A 
ATOM     63  H   UNL A   1      44.448  29.744  27.915  1.00  0.00     0.167 HD
ATOM     64  C   UNL A   1      43.632  32.135  29.206  1.00  0.00     0.074 A 
ATOM     65  C   UNL A   1      42.860  33.068  30.001  1.00  0.00     0.031 C 
ATOM     66  C   UNL A   1      44.851  32.410  28.679  1.00  0.00     0.034 A 
BRANCH  53  67
ATOM     67  C   UNL A   1      47.448  27.657  25.696  1.00  0.00     0.023 A 
ATOM     68  C   UNL A   1      48.448  26.934  26.377  1.00  0.00     0.012 A 
ATOM     69  C   UNL A   1      47.545  27.822  24.300  1.00  0.00     0.148 A 
ATOM     70  C   UNL A   1      49.542  26.412  25.687  1.00  0.00     0.002 A 
ATOM     71  C   UNL A   1      48.614  27.261  23.612  1.00  0.00     0.091 A 
ATOM     72  F   UNL A   1      46.595  28.529  23.672  1.00  0.00    -0.205 F 
ATOM     73  C   UNL A   1      49.619  26.566  24.306  1.00  0.00     0.022 A 
BRANCH  71  74
ATOM     74  S   UNL A   1      48.764  27.335  21.823  1.00  0.00     0.127 S 
ATOM     75  O   UNL A   1      47.613  28.162  21.464  1.00  0.00    -0.237 OA
ATOM     76  O   UNL A   1      50.062  27.989  21.650  1.00  0.00    -0.237 OA
ATOM     77  O   UNL A   1      48.712  25.957  21.357  1.00  0.00    -0.744 OA
ENDBRANCH  71  74
ENDBRANCH  53  67
BRANCH  54  78
ATOM     78  C   UNL A   1      39.444  30.736  30.849  1.00  0.00     0.023 A 
ATOM     79  C   UNL A   1      38.206  30.937  30.209  1.00  0.00     0.012 A 
ATOM     80  C   UNL A   1      39.542  30.956  32.237  1.00  0.00     0.148 A 
ATOM     81  C   UNL A   1      37.096  31.379  30.930  1.00  0.00     0.002 A 
ATOM     82  C   UNL A   1      38.419  31.339  32.959  1.00  0.00     0.091 A 
ATOM     83  F   UNL A   1      40.733  30.778  32.826  1.00  0.00    -0.205 F 
ATOM     84  C   UNL A   1      37.199  31.570  32.304  1.00  0.00     0.022 A 
BRANCH  82  85
ATOM     85  S   UNL A   1      38.430  31.480  34.750  1.00  0.00     0.127 S 
ATOM     86  O   UNL A   1      39.533  32.411  34.970  1.00  0.00    -0.237 OA
ATOM     87  O   UNL A   1      37.099  32.026  35.019  1.00  0.00    -0.237 OA
ATOM     88  O   UNL A   1      38.633  30.126  35.248  1.00  0.00    -0.744 OA
ENDBRANCH  82  85
ENDBRANCH  54  78
BRANCH  66  89
ATOM     89  C   UNL A   1      45.413  33.789  28.909  1.00  0.00     0.023 A 
ATOM     90  C   UNL A   1      45.130  34.823  27.995  1.00  0.00     0.012 A 
ATOM     91  C   UNL A   1      46.171  34.073  30.062  1.00  0.00     0.148 A 
ATOM     92  C   UNL A   1      45.625  36.110  28.206  1.00  0.00     0.002 A 
ATOM     93  C   UNL A   1      46.619  35.368  30.291  1.00  0.00     0.091 A 
ATOM     94  F   UNL A   1      46.447  33.072  30.911  1.00  0.00    -0.205 F 
ATOM     95  C   UNL A   1      46.358  36.385  29.357  1.00  0.00     0.022 A 
BRANCH  93  96
ATOM     96  S   UNL A   1      47.488  35.834  31.793  1.00  0.00     0.127 S 
ATOM     97  O   UNL A   1      47.944  37.184  31.466  1.00  0.00    -0.237 OA
ATOM     98  O   UNL A   1      46.426  35.775  32.798  1.00  0.00    -0.237 OA
ATOM     99  O   UNL A   1      48.540  34.843  31.969  1.00  0.00    -0.744 OA
ENDBRANCH  93  96
ENDBRANCH  66  89
ENDBRANCH  40  41
ENDBRANCH  33  35
ENDBRANCH  32  33
ENDBRANCH  31  32
ENDBRANCH  30  31
ENDBRANCH  29  30
ENDBRANCH  27  29
ENDBRANCH   1  27
TORSDOF 23
ENDMDL
MODEL 3
REMARK VINA RESULT:     -10.0      5.253      9.328
REMARK SMILES CCCCCCOC(=O)Nc1cccc(-c2ccc([C@@H](C)C(=O)OCCOC(=O)c3ccc(-c4c5nc(c(-c6cccc(S(=O)(=O)[O-])c6F)c6ccc([nH]6)c(-c6cccc(S(=O)(=O)[O-])c6F)c6nc(c(-c7cccc(S(=O)(=O)[O-])c7F)c7ccc4[nH]7)C=C6)C=C5)cc3)cc2F)c1
REMARK SMILES IDX 20 1 21 2 19 3 16 4 17 5 94 6 18 7 93 8 95 9 15 10 11 11
REMARK SMILES IDX 12 12 96 13 13 14 14 15 10 16 8 17 9 18 7 20 6 21 5 22 4 23
REMARK SMILES IDX 3 24 2 25 1 26 22 27 23 28 24 29 25 30 26 31 27 32 28 33
REMARK SMILES IDX 29 34 30 35 31 36 92 37 32 38 91 39 33 40 34 41 35 42 85 43
REMARK SMILES IDX 36 44 90 45 84 46 86 47 37 48 89 49 83 50 82 51 38 53 70 54
REMARK SMILES IDX 50 55 69 56 51 57 54 58 68 59 87 60 52 61 53 62 67 64 88 65
REMARK SMILES IDX 55 66 39 67 40 68 48 69 41 70 43 71 49 72 42 73 44 74 45 75
REMARK SMILES IDX 46 76 47 77 71 78 72 79 80 80 73 81 75 82 81 83 74 84 76 85
REMARK SMILES IDX 77 86 78 87 79 88 56 89 57 90 65 91 58 92 60 93 66 94 59 95
REMARK SMILES IDX 61 96 62 97 63 98 64 99
REMARK H PARENT 10 19 86 52 54 63
REMARK Flexibility Score: inf
ROOT
ATOM      1  C   UNL A   1      42.886  21.814  27.005  1.00  0.00     0.126 C 
ATOM      2  C   UNL A   1      41.886  20.661  26.965  1.00  0.00     0.025 C 
ENDROOT
BRANCH   1   3
ATOM      3  C   UNL A   1      42.205  23.155  27.236  1.00  0.00    -0.031 A 
ATOM      4  C   UNL A   1      40.924  25.671  27.585  1.00  0.00     0.018 A 
ATOM      5  C   UNL A   1      42.166  25.404  28.178  1.00  0.00     0.012 A 
ATOM      6  C   UNL A   1      40.331  24.646  26.835  1.00  0.00     0.131 A 
ATOM      7  C   UNL A   1      42.799  24.168  28.002  1.00  0.00     0.005 A 
ATOM      8  C   UNL A   1      40.954  23.411  26.657  1.00  0.00     0.044 A 
ATOM      9  F   UNL A   1      39.148  24.846  26.232  1.00  0.00    -0.206 F 
BRANCH   4  10
ATOM     10  C   UNL A   1      40.286  26.988  27.721  1.00  0.00    -0.013 A 
ATOM     11  C   UNL A   1      38.598  28.425  28.739  1.00  0.00     0.045 A 
ATOM     12  C   UNL A   1      38.903  29.437  27.830  1.00  0.00     0.026 A 
ATOM     13  C   UNL A   1      39.291  27.211  28.684  1.00  0.00     0.035 A 
ATOM     14  C   UNL A   1      39.928  29.256  26.904  1.00  0.00     0.003 A 
ATOM     15  C   UNL A   1      40.611  28.039  26.848  1.00  0.00     0.009 A 
BRANCH  11  16
ATOM     16  N   UNL A   1      37.523  28.621  29.616  1.00  0.00    -0.291 N 
ATOM     17  C   UNL A   1      37.461  29.474  30.684  1.00  0.00     0.411 C 
ATOM     18  O   UNL A   1      36.658  29.288  31.590  1.00  0.00    -0.224 OA
ATOM     19  H   UNL A   1      36.719  28.081  29.444  1.00  0.00     0.173 HD
BRANCH  17  20
ATOM     20  O   UNL A   1      38.251  30.568  30.542  1.00  0.00    -0.449 OA
BRANCH  20  21
ATOM     21  C   UNL A   1      38.990  31.024  31.685  1.00  0.00     0.235 C 
BRANCH  21  22
ATOM     22  C   UNL A   1      38.209  32.063  32.498  1.00  0.00     0.042 C 
BRANCH  22  23
ATOM     23  C   UNL A   1      37.806  33.336  31.743  1.00  0.00     0.003 C 
BRANCH  23  24
ATOM     24  C   UNL A   1      37.614  34.579  32.622  1.00  0.00    -0.000 C 
BRANCH  24  25
ATOM     25  C   UNL A   1      36.362  34.564  33.498  1.00  0.00    -0.003 C 
ATOM     26  C   UNL A   1      35.203  35.327  32.879  1.00  0.00     0.004 C 
ENDBRANCH  24  25
ENDBRANCH  23  24
ENDBRANCH  22  23
ENDBRANCH  21  22
ENDBRANCH  20  21
ENDBRANCH  17  20
ENDBRANCH  11  16
ENDBRANCH   4  10
ENDBRANCH   1   3
BRANCH   1  27
ATOM     27  C   UNL A   1      43.828  21.731  25.808  1.00  0.00     0.313 C 
ATOM     28  O   UNL A   1      43.413  21.565  24.665  1.00  0.00    -0.252 OA
BRANCH  27  29
ATOM     29  O   UNL A   1      45.137  21.900  26.126  1.00  0.00    -0.462 OA
BRANCH  29  30
ATOM     30  C   UNL A   1      46.024  22.262  25.050  1.00  0.00     0.274 C 
BRANCH  30  31
ATOM     31  C   UNL A   1      45.858  23.734  24.667  1.00  0.00     0.275 C 
BRANCH  31  32
ATOM     32  O   UNL A   1      46.710  24.581  25.459  1.00  0.00    -0.458 OA
BRANCH  32  33
ATOM     33  C   UNL A   1      46.811  25.857  25.021  1.00  0.00     0.338 C 
ATOM     34  O   UNL A   1      47.278  26.239  23.961  1.00  0.00    -0.246 OA
BRANCH  33  35
ATOM     35  C   UNL A   1      46.149  26.765  25.968  1.00  0.00     0.060 A 
ATOM     36  C   UNL A   1      46.911  27.278  27.018  1.00  0.00     0.016 A 
ATOM     37  C   UNL A   1      44.782  27.023  25.896  1.00  0.00     0.016 A 
ATOM     38  C   UNL A   1      46.309  28.020  28.027  1.00  0.00     0.010 A 
ATOM     39  C   UNL A   1      44.178  27.792  26.898  1.00  0.00     0.010 A 
ATOM     40  C   UNL A   1      44.933  28.275  27.982  1.00  0.00    -0.014 A 
BRANCH  40  41
ATOM     41  C   UNL A   1      44.294  29.012  29.101  1.00  0.00     0.031 A 
ATOM     42  C   UNL A   1      43.955  30.469  28.948  1.00  0.00     0.074 A 
ATOM     43  C   UNL A   1      44.001  28.364  30.245  1.00  0.00     0.049 A 
ATOM     44  N   UNL A   1      43.435  31.291  29.821  1.00  0.00    -0.248 NA
ATOM     45  C   UNL A   1      44.242  31.084  27.641  1.00  0.00     0.031 C 
ATOM     46  C   UNL A   1      44.270  26.949  30.507  1.00  0.00     0.029 A 
ATOM     47  N   UNL A   1      43.421  28.813  31.405  1.00  0.00    -0.354 N 
ATOM     48  C   UNL A   1      43.371  32.528  29.190  1.00  0.00     0.074 A 
ATOM     49  C   UNL A   1      43.912  32.350  27.859  1.00  0.00     0.031 C 
ATOM     50  C   UNL A   1      43.865  26.648  31.750  1.00  0.00     0.029 A 
ATOM     51  C   UNL A   1      43.345  27.854  32.388  1.00  0.00     0.049 A 
ATOM     52  H   UNL A   1      43.091  29.733  31.523  1.00  0.00     0.167 HD
ATOM     53  C   UNL A   1      42.892  33.701  29.670  1.00  0.00     0.034 A 
ATOM     54  C   UNL A   1      42.929  27.943  33.666  1.00  0.00     0.034 A 
ATOM     55  C   UNL A   1      42.320  33.862  30.980  1.00  0.00     0.049 A 
ATOM     56  C   UNL A   1      42.411  29.261  34.174  1.00  0.00     0.074 A 
ATOM     57  C   UNL A   1      41.771  35.001  31.544  1.00  0.00     0.029 A 
ATOM     58  N   UNL A   1      42.225  32.859  31.933  1.00  0.00    -0.354 N 
ATOM     59  N   UNL A   1      42.275  30.397  33.533  1.00  0.00    -0.248 NA
ATOM     60  C   UNL A   1      41.964  29.303  35.573  1.00  0.00     0.031 C 
ATOM     61  C   UNL A   1      41.366  34.691  32.847  1.00  0.00     0.029 A 
ATOM     62  C   UNL A   1      41.634  33.353  33.084  1.00  0.00     0.049 A 
ATOM     63  H   UNL A   1      42.532  31.932  31.808  1.00  0.00     0.167 HD
ATOM     64  C   UNL A   1      41.696  31.278  34.439  1.00  0.00     0.074 A 
ATOM     65  C   UNL A   1      41.485  30.537  35.666  1.00  0.00     0.031 C 
ATOM     66  C   UNL A   1      41.381  32.587  34.278  1.00  0.00     0.034 A 
BRANCH  53  67
ATOM     67  C   UNL A   1      42.943  34.903  28.762  1.00  0.00     0.023 A 
ATOM     68  C   UNL A   1      41.786  35.305  28.065  1.00  0.00     0.012 A 
ATOM     69  C   UNL A   1      44.120  35.670  28.646  1.00  0.00     0.148 A 
ATOM     70  C   UNL A   1      41.807  36.432  27.244  1.00  0.00     0.002 A 
ATOM     71  C   UNL A   1      44.122  36.817  27.861  1.00  0.00     0.091 A 
ATOM     72  F   UNL A   1      45.217  35.261  29.301  1.00  0.00    -0.205 F 
ATOM     73  C   UNL A   1      42.970  37.192  27.151  1.00  0.00     0.022 A 
BRANCH  71  74
ATOM     74  S   UNL A   1      45.544  37.907  27.738  1.00  0.00     0.127 S 
ATOM     75  O   UNL A   1      46.534  37.032  27.112  1.00  0.00    -0.237 OA
ATOM     76  O   UNL A   1      45.041  38.974  26.872  1.00  0.00    -0.237 OA
ATOM     77  O   UNL A   1      45.851  38.323  29.099  1.00  0.00    -0.744 OA
ENDBRANCH  71  74
ENDBRANCH  53  67
BRANCH  54  78
ATOM     78  C   UNL A   1      42.956  26.740  34.546  1.00  0.00     0.023 A 
ATOM     79  C   UNL A   1      41.774  26.002  34.750  1.00  0.00     0.012 A 
ATOM     80  C   UNL A   1      44.147  26.313  35.166  1.00  0.00     0.148 A 
ATOM     81  C   UNL A   1      41.771  24.881  35.582  1.00  0.00     0.002 A 
ATOM     82  C   UNL A   1      44.149  25.163  35.945  1.00  0.00     0.091 A 
ATOM     83  F   UNL A   1      45.258  27.039  34.974  1.00  0.00    -0.205 F 
ATOM     84  C   UNL A   1      42.958  24.456  36.169  1.00  0.00     0.022 A 
BRANCH  82  85
ATOM     85  S   UNL A   1      45.659  24.471  36.631  1.00  0.00     0.127 S 
ATOM     86  O   UNL A   1      45.146  23.339  37.398  1.00  0.00    -0.237 OA
ATOM     87  O   UNL A   1      46.402  24.109  35.422  1.00  0.00    -0.237 OA
ATOM     88  O   UNL A   1      46.264  25.543  37.407  1.00  0.00    -0.744 OA
ENDBRANCH  82  85
ENDBRANCH  54  78
BRANCH  66  89
ATOM     89  C   UNL A   1      40.740  33.297  35.442  1.00  0.00     0.023 A 
ATOM     90  C   UNL A   1      39.352  33.186  35.654  1.00  0.00     0.012 A 
ATOM     91  C   UNL A   1      41.523  34.025  36.361  1.00  0.00     0.148 A 
ATOM     92  C   UNL A   1      38.747  33.819  36.739  1.00  0.00     0.002 A 
ATOM     93  C   UNL A   1      40.921  34.611  37.468  1.00  0.00     0.091 A 
ATOM     94  F   UNL A   1      42.840  34.136  36.133  1.00  0.00    -0.205 F 
ATOM     95  C   UNL A   1      39.532  34.521  37.650  1.00  0.00     0.022 A 
BRANCH  93  96
ATOM     96  S   UNL A   1      41.866  35.452  38.743  1.00  0.00     0.127 S 
ATOM     97  O   UNL A   1      42.402  36.597  38.010  1.00  0.00    -0.237 OA
ATOM     98  O   UNL A   1      40.834  35.786  39.726  1.00  0.00    -0.237 OA
ATOM     99  O   UNL A   1      42.853  34.489  39.210  1.00  0.00    -0.744 OA
ENDBRANCH  93  96
ENDBRANCH  66  89
ENDBRANCH  40  41
ENDBRANCH  33  35
ENDBRANCH  32  33
ENDBRANCH  31  32
ENDBRANCH  30  31
ENDBRANCH  29  30
ENDBRANCH  27  29
ENDBRANCH   1  27
TORSDOF 23
ENDMDL
