MODEL 1
REMARK VINA RESULT:     -10.9      0.000      0.000
REMARK SMILES C[C@H]1CC[C@](C#N)([C@H](O)C(=O)OCCOC(=O)c2ccc(-c3c4nc(c(-c5cccc(S(=O)(=O)[O-])c5F)c5ccc([nH]5)c(-c5cccc(S(=O)(=O)[O-])c5F)c5nc(c(-c6cccc(S(=O)(=O)[O-])c6F)c6ccc3[nH]6)C=C5)C=C4)cc2)C1
REMARK SMILES IDX 14 1 13 2 12 3 10 4 11 5 8 6 5 7 1 8 2 9 3 10 81 11 4 12
REMARK SMILES IDX 6 13 7 14 9 15 15 17 16 18 17 19 18 20 19 21 80 22 20 23
REMARK SMILES IDX 79 24 21 25 22 26 23 27 73 28 24 29 78 30 72 31 74 32 25 33
REMARK SMILES IDX 77 34 71 35 70 36 26 38 58 39 38 40 57 41 39 42 42 43 56 44
REMARK SMILES IDX 75 45 40 46 41 47 55 49 76 50 43 51 27 52 28 53 36 54 29 55
REMARK SMILES IDX 31 56 37 57 30 58 32 59 33 60 34 61 35 62 59 63 60 64 68 65
REMARK SMILES IDX 61 66 63 67 69 68 62 69 64 70 65 71 66 72 67 73 44 74 45 75
REMARK SMILES IDX 53 76 46 77 48 78 54 79 47 80 49 81 50 82 51 83 52 84
REMARK H PARENT 9 16 74 37 42 48
REMARK Flexibility Score: inf
ROOT
ATOM      1  C   UNL A   1      36.662  20.202  24.910  1.00  0.00     0.275 C 
ENDROOT
BRANCH   1   2
ATOM      2  C   UNL A   1      35.142  20.318  25.040  1.00  0.00     0.274 C 
BRANCH   2   3
ATOM      3  O   UNL A   1      34.690  21.696  25.025  1.00  0.00    -0.460 OA
BRANCH   3   4
ATOM      4  C   UNL A   1      33.653  21.974  25.850  1.00  0.00     0.336 C 
ATOM      5  O   UNL A   1      33.746  22.039  27.075  1.00  0.00    -0.249 OA
BRANCH   4   6
ATOM      6  C   UNL A   1      32.278  22.124  25.173  1.00  0.00     0.244 C 
BRANCH   6   7
ATOM      7  C   UNL A   1      31.647  23.533  24.982  1.00  0.00     0.094 C 
ATOM      8  C   UNL A   1      29.596  25.940  24.275  1.00  0.00     0.008 C 
ATOM      9  C   UNL A   1      30.772  25.309  23.525  1.00  0.00    -0.013 C 
ATOM     10  C   UNL A   1      32.112  25.814  24.053  1.00  0.00     0.005 C 
ATOM     11  C   UNL A   1      30.884  23.783  23.678  1.00  0.00     0.029 C 
ATOM     12  C   UNL A   1      32.698  24.682  24.917  1.00  0.00     0.026 C 
BRANCH   7  13
ATOM     13  C   UNL A   1      30.750  23.727  26.150  1.00  0.00     0.072 C 
ATOM     14  N   UNL A   1      30.034  23.833  27.053  1.00  0.00    -0.198 NA
ENDBRANCH   7  13
ENDBRANCH   6   7
BRANCH   6  15
ATOM     15  O   UNL A   1      31.372  21.232  25.849  1.00  0.00    -0.380 OA
ATOM     16  H   UNL A   1      30.681  20.944  25.233  1.00  0.00     0.211 HD
ENDBRANCH   6  15
ENDBRANCH   4   6
ENDBRANCH   3   4
ENDBRANCH   2   3
ENDBRANCH   1   2
BRANCH   1  17
ATOM     17  O   UNL A   1      37.296  21.395  25.408  1.00  0.00    -0.458 OA
BRANCH  17  18
ATOM     18  C   UNL A   1      38.563  21.203  25.833  1.00  0.00     0.338 C 
ATOM     19  O   UNL A   1      39.237  20.197  25.678  1.00  0.00    -0.246 OA
BRANCH  18  20
ATOM     20  C   UNL A   1      39.117  22.380  26.510  1.00  0.00     0.060 A 
ATOM     21  C   UNL A   1      38.663  23.657  26.178  1.00  0.00     0.016 A 
ATOM     22  C   UNL A   1      40.275  22.218  27.266  1.00  0.00     0.016 A 
ATOM     23  C   UNL A   1      39.407  24.777  26.541  1.00  0.00     0.010 A 
ATOM     24  C   UNL A   1      40.980  23.343  27.692  1.00  0.00     0.010 A 
ATOM     25  C   UNL A   1      40.567  24.632  27.315  1.00  0.00    -0.014 A 
BRANCH  25  26
ATOM     26  C   UNL A   1      41.316  25.822  27.789  1.00  0.00     0.031 A 
ATOM     27  C   UNL A   1      40.639  26.896  28.596  1.00  0.00     0.074 A 
ATOM     28  C   UNL A   1      42.601  25.967  27.412  1.00  0.00     0.049 A 
ATOM     29  N   UNL A   1      41.096  28.068  28.953  1.00  0.00    -0.248 NA
ATOM     30  C   UNL A   1      39.265  26.624  29.050  1.00  0.00     0.031 C 
ATOM     31  C   UNL A   1      43.361  24.995  26.621  1.00  0.00     0.029 A 
ATOM     32  N   UNL A   1      43.485  26.997  27.609  1.00  0.00    -0.354 N 
ATOM     33  C   UNL A   1      40.055  28.697  29.626  1.00  0.00     0.074 A 
ATOM     34  C   UNL A   1      38.939  27.772  29.629  1.00  0.00     0.031 C 
ATOM     35  C   UNL A   1      44.589  25.477  26.390  1.00  0.00     0.029 A 
ATOM     36  C   UNL A   1      44.680  26.818  26.951  1.00  0.00     0.049 A 
ATOM     37  H   UNL A   1      43.283  27.784  28.163  1.00  0.00     0.167 HD
ATOM     38  C   UNL A   1      40.035  29.930  30.189  1.00  0.00     0.034 A 
ATOM     39  C   UNL A   1      45.716  27.658  26.771  1.00  0.00     0.034 A 
ATOM     40  C   UNL A   1      41.157  30.834  30.186  1.00  0.00     0.049 A 
ATOM     41  C   UNL A   1      45.654  29.029  27.379  1.00  0.00     0.074 A 
ATOM     42  C   UNL A   1      41.255  32.083  30.774  1.00  0.00     0.029 A 
ATOM     43  N   UNL A   1      42.366  30.600  29.548  1.00  0.00    -0.354 N 
ATOM     44  N   UNL A   1      44.697  29.573  28.088  1.00  0.00    -0.248 NA
ATOM     45  C   UNL A   1      46.826  29.892  27.183  1.00  0.00     0.031 C 
ATOM     46  C   UNL A   1      42.502  32.626  30.447  1.00  0.00     0.029 A 
ATOM     47  C   UNL A   1      43.207  31.689  29.710  1.00  0.00     0.049 A 
ATOM     48  H   UNL A   1      42.592  29.780  29.052  1.00  0.00     0.167 HD
ATOM     49  C   UNL A   1      45.167  30.825  28.463  1.00  0.00     0.074 A 
ATOM     50  C   UNL A   1      46.502  30.950  27.912  1.00  0.00     0.031 C 
ATOM     51  C   UNL A   1      44.549  31.786  29.192  1.00  0.00     0.034 A 
BRANCH  38  52
ATOM     52  C   UNL A   1      38.759  30.385  30.852  1.00  0.00     0.023 A 
ATOM     53  C   UNL A   1      38.583  30.219  32.240  1.00  0.00     0.012 A 
ATOM     54  C   UNL A   1      37.756  31.038  30.105  1.00  0.00     0.148 A 
ATOM     55  C   UNL A   1      37.416  30.657  32.867  1.00  0.00     0.002 A 
ATOM     56  C   UNL A   1      36.619  31.517  30.744  1.00  0.00     0.091 A 
ATOM     57  F   UNL A   1      37.933  31.178  28.783  1.00  0.00    -0.205 F 
ATOM     58  C   UNL A   1      36.440  31.313  32.122  1.00  0.00     0.022 A 
BRANCH  56  59
ATOM     59  S   UNL A   1      35.343  32.447  29.889  1.00  0.00     0.127 S 
ATOM     60  O   UNL A   1      34.367  32.661  30.959  1.00  0.00    -0.237 OA
ATOM     61  O   UNL A   1      36.066  33.650  29.476  1.00  0.00    -0.237 OA
ATOM     62  O   UNL A   1      34.888  31.602  28.795  1.00  0.00    -0.744 OA
ENDBRANCH  56  59
ENDBRANCH  38  52
BRANCH  39  63
ATOM     63  C   UNL A   1      46.901  27.217  25.985  1.00  0.00     0.023 A 
ATOM     64  C   UNL A   1      47.842  26.350  26.575  1.00  0.00     0.012 A 
ATOM     65  C   UNL A   1      47.090  27.634  24.652  1.00  0.00     0.148 A 
ATOM     66  C   UNL A   1      48.971  25.942  25.866  1.00  0.00     0.002 A 
ATOM     67  C   UNL A   1      48.184  27.173  23.932  1.00  0.00     0.091 A 
ATOM     68  F   UNL A   1      46.182  28.458  24.111  1.00  0.00    -0.205 F 
ATOM     69  C   UNL A   1      49.137  26.344  24.543  1.00  0.00     0.022 A 
BRANCH  67  70
ATOM     70  S   UNL A   1      48.414  27.534  22.189  1.00  0.00     0.127 S 
ATOM     71  O   UNL A   1      48.651  26.203  21.637  1.00  0.00    -0.237 OA
ATOM     72  O   UNL A   1      47.125  28.129  21.834  1.00  0.00    -0.237 OA
ATOM     73  O   UNL A   1      49.541  28.454  22.119  1.00  0.00    -0.744 OA
ENDBRANCH  67  70
ENDBRANCH  39  63
BRANCH  51  74
ATOM     74  C   UNL A   1      45.330  33.037  29.499  1.00  0.00     0.023 A 
ATOM     75  C   UNL A   1      46.166  33.098  30.632  1.00  0.00     0.012 A 
ATOM     76  C   UNL A   1      45.274  34.137  28.621  1.00  0.00     0.148 A 
ATOM     77  C   UNL A   1      46.902  34.251  30.907  1.00  0.00     0.002 A 
ATOM     78  C   UNL A   1      46.056  35.259  28.869  1.00  0.00     0.091 A 
ATOM     79  F   UNL A   1      44.459  34.066  27.559  1.00  0.00    -0.205 F 
ATOM     80  C   UNL A   1      46.857  35.324  30.020  1.00  0.00     0.022 A 
BRANCH  78  81
ATOM     81  S   UNL A   1      46.138  36.646  27.732  1.00  0.00     0.127 S 
ATOM     82  O   UNL A   1      44.768  37.154  27.784  1.00  0.00    -0.237 OA
ATOM     83  O   UNL A   1      47.133  37.507  28.371  1.00  0.00    -0.237 OA
ATOM     84  O   UNL A   1      46.548  36.094  26.448  1.00  0.00    -0.744 OA
ENDBRANCH  78  81
ENDBRANCH  51  74
ENDBRANCH  25  26
ENDBRANCH  18  20
ENDBRANCH  17  18
ENDBRANCH   1  17
TORSDOF 17
ENDMDL
MODEL 2
REMARK VINA RESULT:     -10.8      1.554      1.894
REMARK SMILES C[C@H]1CC[C@](C#N)([C@H](O)C(=O)OCCOC(=O)c2ccc(-c3c4nc(c(-c5cccc(S(=O)(=O)[O-])c5F)c5ccc([nH]5)c(-c5cccc(S(=O)(=O)[O-])c5F)c5nc(c(-c6cccc(S(=O)(=O)[O-])c6F)c6ccc3[nH]6)C=C5)C=C4)cc2)C1
REMARK SMILES IDX 14 1 13 2 12 3 10 4 11 5 8 6 5 7 1 8 2 9 3 10 81 11 4 12
REMARK SMILES IDX 6 13 7 14 9 15 15 17 16 18 17 19 18 20 19 21 80 22 20 23
REMARK SMILES IDX 79 24 21 25 22 26 23 27 73 28 24 29 78 30 72 31 74 32 25 33
REMARK SMILES IDX 77 34 71 35 70 36 26 38 58 39 38 40 57 41 39 42 42 43 56 44
REMARK SMILES IDX 75 45 40 46 41 47 55 49 76 50 43 51 27 52 28 53 36 54 29 55
REMARK SMILES IDX 31 56 37 57 30 58 32 59 33 60 34 61 35 62 59 63 60 64 68 65
REMARK SMILES IDX 61 66 63 67 69 68 62 69 64 70 65 71 66 72 67 73 44 74 45 75
REMARK SMILES IDX 53 76 46 77 48 78 54 79 47 80 49 81 50 82 51 83 52 84
REMARK H PARENT 9 16 74 37 42 48
REMARK Flexibility Score: inf
ROOT
ATOM      1  C   UNL A   1      37.159  21.233  24.245  1.00  0.00     0.275 C 
ENDROOT
BRANCH   1   2
ATOM      2  C   UNL A   1      36.637  22.545  23.657  1.00  0.00     0.274 C 
BRANCH   2   3
ATOM      3  O   UNL A   1      35.472  23.042  24.364  1.00  0.00    -0.460 OA
BRANCH   3   4
ATOM      4  C   UNL A   1      34.380  23.263  23.595  1.00  0.00     0.336 C 
ATOM      5  O   UNL A   1      34.414  23.407  22.373  1.00  0.00    -0.249 OA
BRANCH   4   6
ATOM      6  C   UNL A   1      33.048  23.425  24.351  1.00  0.00     0.244 C 
BRANCH   6   7
ATOM      7  C   UNL A   1      32.770  24.708  25.184  1.00  0.00     0.094 C 
ATOM      8  C   UNL A   1      31.335  27.302  26.493  1.00  0.00     0.008 C 
ATOM      9  C   UNL A   1      32.293  27.116  25.314  1.00  0.00    -0.013 C 
ATOM     10  C   UNL A   1      33.735  26.941  25.784  1.00  0.00     0.005 C 
ATOM     11  C   UNL A   1      32.040  25.853  24.475  1.00  0.00     0.029 C 
ATOM     12  C   UNL A   1      34.063  25.443  25.646  1.00  0.00     0.026 C 
BRANCH   7  13
ATOM     13  C   UNL A   1      31.992  24.253  26.364  1.00  0.00     0.072 C 
ATOM     14  N   UNL A   1      31.358  23.871  27.255  1.00  0.00    -0.198 NA
ENDBRANCH   7  13
ENDBRANCH   6   7
BRANCH   6  15
ATOM     15  O   UNL A   1      32.862  22.236  25.143  1.00  0.00    -0.380 OA
ATOM     16  H   UNL A   1      32.400  22.463  25.964  1.00  0.00     0.211 HD
ENDBRANCH   6  15
ENDBRANCH   4   6
ENDBRANCH   3   4
ENDBRANCH   2   3
ENDBRANCH   1   2
BRANCH   1  17
ATOM     17  O   UNL A   1      37.428  21.389  25.651  1.00  0.00    -0.458 OA
BRANCH  17  18
ATOM     18  C   UNL A   1      38.737  21.302  25.970  1.00  0.00     0.338 C 
ATOM     19  O   UNL A   1      39.475  20.352  25.758  1.00  0.00    -0.246 OA
BRANCH  18  20
ATOM     20  C   UNL A   1      39.249  22.523  26.600  1.00  0.00     0.060 A 
ATOM     21  C   UNL A   1      38.784  23.772  26.186  1.00  0.00     0.016 A 
ATOM     22  C   UNL A   1      40.385  22.423  27.399  1.00  0.00     0.016 A 
ATOM     23  C   UNL A   1      39.497  24.923  26.513  1.00  0.00     0.010 A 
ATOM     24  C   UNL A   1      41.056  23.582  27.787  1.00  0.00     0.010 A 
ATOM     25  C   UNL A   1      40.633  24.841  27.328  1.00  0.00    -0.014 A 
BRANCH  25  26
ATOM     26  C   UNL A   1      41.346  26.068  27.762  1.00  0.00     0.031 A 
ATOM     27  C   UNL A   1      40.647  27.131  28.564  1.00  0.00     0.074 A 
ATOM     28  C   UNL A   1      42.615  26.255  27.351  1.00  0.00     0.049 A 
ATOM     29  N   UNL A   1      41.066  28.327  28.887  1.00  0.00    -0.248 NA
ATOM     30  C   UNL A   1      39.296  26.815  29.056  1.00  0.00     0.031 C 
ATOM     31  C   UNL A   1      43.394  25.298  26.561  1.00  0.00     0.029 A 
ATOM     32  N   UNL A   1      43.463  27.322  27.507  1.00  0.00    -0.354 N 
ATOM     33  C   UNL A   1      40.018  28.929  29.574  1.00  0.00     0.074 A 
ATOM     34  C   UNL A   1      38.939  27.962  29.621  1.00  0.00     0.031 C 
ATOM     35  C   UNL A   1      44.597  25.822  26.291  1.00  0.00     0.029 A 
ATOM     36  C   UNL A   1      44.648  27.177  26.824  1.00  0.00     0.049 A 
ATOM     37  H   UNL A   1      43.243  28.112  28.051  1.00  0.00     0.167 HD
ATOM     38  C   UNL A   1      39.962  30.171  30.113  1.00  0.00     0.034 A 
ATOM     39  C   UNL A   1      45.646  28.052  26.603  1.00  0.00     0.034 A 
ATOM     40  C   UNL A   1      41.047  31.117  30.067  1.00  0.00     0.049 A 
ATOM     41  C   UNL A   1      45.545  29.432  27.186  1.00  0.00     0.074 A 
ATOM     42  C   UNL A   1      41.111  32.381  30.628  1.00  0.00     0.029 A 
ATOM     43  N   UNL A   1      42.250  30.917  29.404  1.00  0.00    -0.354 N 
ATOM     44  N   UNL A   1      44.584  29.953  27.908  1.00  0.00    -0.248 NA
ATOM     45  C   UNL A   1      46.677  30.335  26.945  1.00  0.00     0.031 C 
ATOM     46  C   UNL A   1      42.327  32.965  30.260  1.00  0.00     0.029 A 
ATOM     47  C   UNL A   1      43.051  32.041  29.525  1.00  0.00     0.049 A 
ATOM     48  H   UNL A   1      42.496  30.097  28.918  1.00  0.00     0.167 HD
ATOM     49  C   UNL A   1      45.014  31.229  28.247  1.00  0.00     0.074 A 
ATOM     50  C   UNL A   1      46.329  31.395  27.662  1.00  0.00     0.031 C 
ATOM     51  C   UNL A   1      44.375  32.180  28.973  1.00  0.00     0.034 A 
BRANCH  38  52
ATOM     52  C   UNL A   1      38.685  30.590  30.798  1.00  0.00     0.023 A 
ATOM     53  C   UNL A   1      38.522  30.380  32.182  1.00  0.00     0.012 A 
ATOM     54  C   UNL A   1      37.669  31.251  30.077  1.00  0.00     0.148 A 
ATOM     55  C   UNL A   1      37.354  30.785  32.830  1.00  0.00     0.002 A 
ATOM     56  C   UNL A   1      36.530  31.696  30.739  1.00  0.00     0.091 A 
ATOM     57  F   UNL A   1      37.834  31.432  28.760  1.00  0.00    -0.205 F 
ATOM     58  C   UNL A   1      36.364  31.449  32.111  1.00  0.00     0.022 A 
BRANCH  56  59
ATOM     59  S   UNL A   1      35.235  32.634  29.920  1.00  0.00     0.127 S 
ATOM     60  O   UNL A   1      34.745  31.666  28.939  1.00  0.00    -0.237 OA
ATOM     61  O   UNL A   1      34.312  32.905  31.022  1.00  0.00    -0.237 OA
ATOM     62  O   UNL A   1      35.881  33.812  29.361  1.00  0.00    -0.744 OA
ENDBRANCH  56  59
ENDBRANCH  38  52
BRANCH  39  63
ATOM     63  C   UNL A   1      46.829  27.642  25.797  1.00  0.00     0.023 A 
ATOM     64  C   UNL A   1      46.825  27.847  24.404  1.00  0.00     0.012 A 
ATOM     65  C   UNL A   1      47.964  27.070  26.405  1.00  0.00     0.148 A 
ATOM     66  C   UNL A   1      47.912  27.451  23.626  1.00  0.00     0.002 A 
ATOM     67  C   UNL A   1      49.068  26.735  25.633  1.00  0.00     0.091 A 
ATOM     68  F   UNL A   1      47.946  26.884  27.733  1.00  0.00    -0.205 F 
ATOM     69  C   UNL A   1      49.036  26.905  24.240  1.00  0.00     0.022 A 
BRANCH  67  70
ATOM     70  S   UNL A   1      50.605  26.145  26.349  1.00  0.00     0.127 S 
ATOM     71  O   UNL A   1      50.913  27.202  27.307  1.00  0.00    -0.237 OA
ATOM     72  O   UNL A   1      50.188  24.874  26.944  1.00  0.00    -0.237 OA
ATOM     73  O   UNL A   1      51.536  26.013  25.237  1.00  0.00    -0.744 OA
ENDBRANCH  67  70
ENDBRANCH  39  63
BRANCH  51  74
ATOM     74  C   UNL A   1      45.115  33.466  29.237  1.00  0.00     0.023 A 
ATOM     75  C   UNL A   1      45.918  33.606  30.387  1.00  0.00     0.012 A 
ATOM     76  C   UNL A   1      45.052  34.520  28.304  1.00  0.00     0.148 A 
ATOM     77  C   UNL A   1      46.615  34.791  30.622  1.00  0.00     0.002 A 
ATOM     78  C   UNL A   1      45.796  35.673  28.516  1.00  0.00     0.091 A 
ATOM     79  F   UNL A   1      44.268  34.374  27.227  1.00  0.00    -0.205 F 
ATOM     80  C   UNL A   1      46.564  35.818  29.682  1.00  0.00     0.022 A 
BRANCH  78  81
ATOM     81  S   UNL A   1      45.872  37.005  27.313  1.00  0.00     0.127 S 
ATOM     82  O   UNL A   1      44.479  37.449  27.275  1.00  0.00    -0.237 OA
ATOM     83  O   UNL A   1      46.794  37.943  27.954  1.00  0.00    -0.237 OA
ATOM     84  O   UNL A   1      46.369  36.410  26.080  1.00  0.00    -0.744 OA
ENDBRANCH  78  81
ENDBRANCH  51  74
ENDBRANCH  25  26
ENDBRANCH  18  20
ENDBRANCH  17  18
ENDBRANCH   1  17
TORSDOF 17
ENDMDL
MODEL 3
REMARK VINA RESULT:     -10.5      5.669      9.244
REMARK SMILES C[C@H]1CC[C@](C#N)([C@H](O)C(=O)OCCOC(=O)c2ccc(-c3c4nc(c(-c5cccc(S(=O)(=O)[O-])c5F)c5ccc([nH]5)c(-c5cccc(S(=O)(=O)[O-])c5F)c5nc(c(-c6cccc(S(=O)(=O)[O-])c6F)c6ccc3[nH]6)C=C5)C=C4)cc2)C1
REMARK SMILES IDX 14 1 13 2 12 3 10 4 11 5 8 6 5 7 1 8 2 9 3 10 81 11 4 12
REMARK SMILES IDX 6 13 7 14 9 15 15 17 16 18 17 19 18 20 19 21 80 22 20 23
REMARK SMILES IDX 79 24 21 25 22 26 23 27 73 28 24 29 78 30 72 31 74 32 25 33
REMARK SMILES IDX 77 34 71 35 70 36 26 38 58 39 38 40 57 41 39 42 42 43 56 44
REMARK SMILES IDX 75 45 40 46 41 47 55 49 76 50 43 51 27 52 28 53 36 54 29 55
REMARK SMILES IDX 31 56 37 57 30 58 32 59 33 60 34 61 35 62 59 63 60 64 68 65
REMARK SMILES IDX 61 66 63 67 69 68 62 69 64 70 65 71 66 72 67 73 44 74 45 75
REMARK SMILES IDX 53 76 46 77 48 78 54 79 47 80 49 81 50 82 51 83 52 84
REMARK H PARENT 9 16 74 37 42 48
REMARK Flexibility Score: inf
ROOT
ATOM      1  C   UNL A   1      33.781  32.969  28.303  1.00  0.00     0.275 C 
ENDROOT
BRANCH   1   2
ATOM      2  C   UNL A   1      34.323  33.985  29.310  1.00  0.00     0.274 C 
BRANCH   2   3
ATOM      3  O   UNL A   1      34.107  33.571  30.683  1.00  0.00    -0.460 OA
BRANCH   3   4
ATOM      4  C   UNL A   1      34.009  34.578  31.583  1.00  0.00     0.336 C 
ATOM      5  O   UNL A   1      33.714  35.736  31.292  1.00  0.00    -0.249 OA
BRANCH   4   6
ATOM      6  C   UNL A   1      34.386  34.220  33.033  1.00  0.00     0.244 C 
BRANCH   6   7
ATOM      7  C   UNL A   1      35.835  33.773  33.380  1.00  0.00     0.094 C 
ATOM      8  C   UNL A   1      38.401  32.452  34.853  1.00  0.00     0.008 C 
ATOM      9  C   UNL A   1      37.814  33.865  34.834  1.00  0.00    -0.013 C 
ATOM     10  C   UNL A   1      38.189  34.613  33.557  1.00  0.00     0.005 C 
ATOM     11  C   UNL A   1      36.278  33.922  34.839  1.00  0.00     0.029 C 
ATOM     12  C   UNL A   1      36.934  34.615  32.666  1.00  0.00     0.026 C 
BRANCH   7  13
ATOM     13  C   UNL A   1      35.923  32.353  32.957  1.00  0.00     0.072 C 
ATOM     14  N   UNL A   1      36.022  31.259  32.592  1.00  0.00    -0.198 NA
ENDBRANCH   7  13
ENDBRANCH   6   7
BRANCH   6  15
ATOM     15  O   UNL A   1      33.416  33.264  33.501  1.00  0.00    -0.380 OA
ATOM     16  H   UNL A   1      32.731  33.140  32.826  1.00  0.00     0.211 HD
ENDBRANCH   6  15
ENDBRANCH   4   6
ENDBRANCH   3   4
ENDBRANCH   2   3
ENDBRANCH   1   2
BRANCH   1  17
ATOM     17  O   UNL A   1      34.869  32.289  27.649  1.00  0.00    -0.458 OA
BRANCH  17  18
ATOM     18  C   UNL A   1      34.691  30.955  27.536  1.00  0.00     0.338 C 
ATOM     19  O   UNL A   1      33.709  30.389  27.085  1.00  0.00    -0.246 OA
BRANCH  18  20
ATOM     20  C   UNL A   1      35.854  30.189  27.996  1.00  0.00     0.060 A 
ATOM     21  C   UNL A   1      35.864  29.631  29.275  1.00  0.00     0.016 A 
ATOM     22  C   UNL A   1      37.029  30.271  27.254  1.00  0.00     0.016 A 
ATOM     23  C   UNL A   1      37.066  29.218  29.845  1.00  0.00     0.010 A 
ATOM     24  C   UNL A   1      38.220  29.789  27.797  1.00  0.00     0.010 A 
ATOM     25  C   UNL A   1      38.254  29.279  29.106  1.00  0.00    -0.014 A 
BRANCH  25  26
ATOM     26  C   UNL A   1      39.524  28.754  29.666  1.00  0.00     0.031 A 
ATOM     27  C   UNL A   1      40.243  29.476  30.772  1.00  0.00     0.074 A 
ATOM     28  C   UNL A   1      40.071  27.657  29.106  1.00  0.00     0.049 A 
ATOM     29  N   UNL A   1      41.432  29.249  31.266  1.00  0.00    -0.248 NA
ATOM     30  C   UNL A   1      39.540  30.609  31.397  1.00  0.00     0.031 C 
ATOM     31  C   UNL A   1      39.470  26.878  28.019  1.00  0.00     0.029 A 
ATOM     32  N   UNL A   1      41.266  27.028  29.342  1.00  0.00    -0.354 N 
ATOM     33  C   UNL A   1      41.647  30.236  32.221  1.00  0.00     0.074 A 
ATOM     34  C   UNL A   1      40.460  31.066  32.237  1.00  0.00     0.031 C 
ATOM     35  C   UNL A   1      40.300  25.885  27.676  1.00  0.00     0.029 A 
ATOM     36  C   UNL A   1      41.520  26.000  28.464  1.00  0.00     0.049 A 
ATOM     37  H   UNL A   1      41.879  27.287  30.067  1.00  0.00     0.167 HD
ATOM     38  C   UNL A   1      42.733  30.429  33.009  1.00  0.00     0.034 A 
ATOM     39  C   UNL A   1      42.630  25.263  28.273  1.00  0.00     0.034 A 
ATOM     40  C   UNL A   1      43.902  29.588  32.988  1.00  0.00     0.049 A 
ATOM     41  C   UNL A   1      43.829  25.519  29.140  1.00  0.00     0.074 A 
ATOM     42  C   UNL A   1      45.032  29.667  33.782  1.00  0.00     0.029 A 
ATOM     43  N   UNL A   1      44.104  28.528  32.114  1.00  0.00    -0.354 N 
ATOM     44  N   UNL A   1      43.981  26.399  30.098  1.00  0.00    -0.248 NA
ATOM     45  C   UNL A   1      45.001  24.663  28.915  1.00  0.00     0.031 C 
ATOM     46  C   UNL A   1      45.940  28.692  33.354  1.00  0.00     0.029 A 
ATOM     47  C   UNL A   1      45.348  27.961  32.337  1.00  0.00     0.049 A 
ATOM     48  H   UNL A   1      43.459  28.226  31.436  1.00  0.00     0.167 HD
ATOM     49  C   UNL A   1      45.247  26.174  30.622  1.00  0.00     0.074 A 
ATOM     50  C   UNL A   1      45.813  25.064  29.882  1.00  0.00     0.031 C 
ATOM     51  C   UNL A   1      45.885  26.831  31.622  1.00  0.00     0.034 A 
BRANCH  38  52
ATOM     52  C   UNL A   1      42.718  31.599  33.961  1.00  0.00     0.023 A 
ATOM     53  C   UNL A   1      43.089  32.883  33.513  1.00  0.00     0.012 A 
ATOM     54  C   UNL A   1      42.272  31.436  35.289  1.00  0.00     0.148 A 
ATOM     55  C   UNL A   1      43.056  33.976  34.379  1.00  0.00     0.002 A 
ATOM     56  C   UNL A   1      42.195  32.538  36.133  1.00  0.00     0.091 A 
ATOM     57  F   UNL A   1      41.935  30.207  35.704  1.00  0.00    -0.205 F 
ATOM     58  C   UNL A   1      42.601  33.806  35.684  1.00  0.00     0.022 A 
BRANCH  56  59
ATOM     59  S   UNL A   1      41.544  32.439  37.803  1.00  0.00     0.127 S 
ATOM     60  O   UNL A   1      40.188  31.947  37.563  1.00  0.00    -0.237 OA
ATOM     61  O   UNL A   1      42.444  31.467  38.425  1.00  0.00    -0.237 OA
ATOM     62  O   UNL A   1      41.627  33.785  38.352  1.00  0.00    -0.744 OA
ENDBRANCH  56  59
ENDBRANCH  38  52
BRANCH  39  63
ATOM     63  C   UNL A   1      42.650  24.209  27.222  1.00  0.00     0.023 A 
ATOM     64  C   UNL A   1      43.250  24.482  25.978  1.00  0.00     0.012 A 
ATOM     65  C   UNL A   1      42.098  22.934  27.455  1.00  0.00     0.148 A 
ATOM     66  C   UNL A   1      43.262  23.518  24.970  1.00  0.00     0.002 A 
ATOM     67  C   UNL A   1      42.169  21.959  26.470  1.00  0.00     0.091 A 
ATOM     68  F   UNL A   1      41.532  22.696  28.647  1.00  0.00    -0.205 F 
ATOM     69  C   UNL A   1      42.731  22.255  25.219  1.00  0.00     0.022 A 
BRANCH  67  70
ATOM     70  S   UNL A   1      41.626  20.269  26.742  1.00  0.00     0.127 S 
ATOM     71  O   UNL A   1      42.453  19.870  27.877  1.00  0.00    -0.237 OA
ATOM     72  O   UNL A   1      40.207  20.457  27.046  1.00  0.00    -0.237 OA
ATOM     73  O   UNL A   1      41.887  19.562  25.495  1.00  0.00    -0.744 OA
ENDBRANCH  67  70
ENDBRANCH  39  63
BRANCH  51  74
ATOM     74  C   UNL A   1      47.246  26.326  32.027  1.00  0.00     0.023 A 
ATOM     75  C   UNL A   1      47.379  25.372  33.055  1.00  0.00     0.012 A 
ATOM     76  C   UNL A   1      48.394  26.765  31.338  1.00  0.00     0.148 A 
ATOM     77  C   UNL A   1      48.638  24.894  33.419  1.00  0.00     0.002 A 
ATOM     78  C   UNL A   1      49.638  26.239  31.664  1.00  0.00     0.091 A 
ATOM     79  F   UNL A   1      48.249  27.686  30.375  1.00  0.00    -0.205 F 
ATOM     80  C   UNL A   1      49.764  25.317  32.715  1.00  0.00     0.022 A 
BRANCH  78  81
ATOM     81  S   UNL A   1      51.128  26.648  30.749  1.00  0.00     0.127 S 
ATOM     82  O   UNL A   1      51.296  28.064  31.074  1.00  0.00    -0.237 OA
ATOM     83  O   UNL A   1      52.117  25.761  31.361  1.00  0.00    -0.237 OA
ATOM     84  O   UNL A   1      50.837  26.362  29.351  1.00  0.00    -0.744 OA
ENDBRANCH  78  81
ENDBRANCH  51  74
ENDBRANCH  25  26
ENDBRANCH  18  20
ENDBRANCH  17  18
ENDBRANCH   1  17
TORSDOF 17
ENDMDL
