MODEL 1
REMARK VINA RESULT:     -11.7      0.000      0.000
REMARK SMILES C[C@@H](C(=O)OCCOC(=O)c1ccc(-c2c3nc(c(-c4cccc(S(=O)(=O)[O-])c4F)c4ccc([nH]4)c(-c4cccc(S(=O)(=O)[O-])c4F)c4nc(c(-c5cccc(S(=O)(=O)[O-])c5F)c5ccc2[nH]5)C=C4)C=C3)cc1)c1ccc(Cc2ccco2)cc1F
REMARK SMILES IDX 6 1 5 2 3 3 4 4 2 5 1 6 74 7 75 8 85 9 76 10 84 11 86 12
REMARK SMILES IDX 77 13 78 14 79 15 80 16 83 17 81 18 82 19 7 20 8 21 9 22
REMARK SMILES IDX 10 23 11 24 12 25 73 26 13 27 72 28 14 29 15 30 16 31 66 32
REMARK SMILES IDX 17 33 71 34 65 35 67 36 18 37 70 38 64 39 63 40 19 42 51 43
REMARK SMILES IDX 31 44 50 45 32 46 35 47 49 48 68 49 33 50 34 51 48 53 69 54
REMARK SMILES IDX 36 55 20 56 21 57 29 58 22 59 24 60 30 61 23 62 25 63 26 64
REMARK SMILES IDX 27 65 28 66 52 67 53 68 61 69 54 70 56 71 62 72 55 73 57 74
REMARK SMILES IDX 58 75 59 76 60 77 37 78 38 79 46 80 39 81 41 82 47 83 40 84
REMARK SMILES IDX 42 85 43 86 44 87 45 88
REMARK H PARENT 67 41 35 52
REMARK Flexibility Score: inf
ROOT
ATOM      1  C   UNL A   1      34.888  20.294  24.758  1.00  0.00     0.274 C 
ENDROOT
BRANCH   1   2
ATOM      2  O   UNL A   1      33.899  20.704  25.726  1.00  0.00    -0.462 OA
BRANCH   2   3
ATOM      3  C   UNL A   1      33.289  21.904  25.510  1.00  0.00     0.313 C 
ATOM      4  O   UNL A   1      32.657  22.177  24.495  1.00  0.00    -0.252 OA
BRANCH   3   5
ATOM      5  C   UNL A   1      33.546  22.913  26.637  1.00  0.00     0.129 C 
ATOM      6  C   UNL A   1      33.011  22.454  27.998  1.00  0.00     0.025 C 
BRANCH   5   7
ATOM      7  C   UNL A   1      33.127  24.324  26.235  1.00  0.00     0.002 A 
ATOM      8  C   UNL A   1      31.837  24.778  26.567  1.00  0.00     0.008 A 
ATOM      9  C   UNL A   1      33.981  25.229  25.593  1.00  0.00     0.127 A 
ATOM     10  C   UNL A   1      31.435  26.089  26.285  1.00  0.00     0.005 A 
ATOM     11  C   UNL A   1      33.581  26.532  25.291  1.00  0.00     0.043 A 
ATOM     12  F   UNL A   1      35.239  24.880  25.292  1.00  0.00    -0.207 F 
ATOM     13  C   UNL A   1      32.309  26.987  25.662  1.00  0.00    -0.038 A 
BRANCH  13  14
ATOM     14  C   UNL A   1      31.920  28.435  25.458  1.00  0.00     0.111 C 
BRANCH  14  15
ATOM     15  C   UNL A   1      30.932  28.649  24.373  1.00  0.00     0.108 A 
ATOM     16  C   UNL A   1      30.294  27.814  23.478  1.00  0.00     0.046 A 
ATOM     17  O   UNL A   1      30.472  29.923  24.224  1.00  0.00    -0.469 OA
ATOM     18  C   UNL A   1      29.379  28.622  22.761  1.00  0.00     0.042 A 
ATOM     19  C   UNL A   1      29.518  29.896  23.260  1.00  0.00     0.195 A 
ENDBRANCH  14  15
ENDBRANCH  13  14
ENDBRANCH   5   7
ENDBRANCH   3   5
ENDBRANCH   2   3
ENDBRANCH   1   2
BRANCH   1  20
ATOM     20  C   UNL A   1      35.988  21.346  24.661  1.00  0.00     0.275 C 
BRANCH  20  21
ATOM     21  O   UNL A   1      36.753  21.321  25.875  1.00  0.00    -0.458 OA
BRANCH  21  22
ATOM     22  C   UNL A   1      38.092  21.201  25.742  1.00  0.00     0.338 C 
ATOM     23  O   UNL A   1      38.697  20.273  25.222  1.00  0.00    -0.246 OA
BRANCH  22  24
ATOM     24  C   UNL A   1      38.752  22.380  26.338  1.00  0.00     0.060 A 
ATOM     25  C   UNL A   1      38.228  23.658  26.156  1.00  0.00     0.016 A 
ATOM     26  C   UNL A   1      39.955  22.219  27.027  1.00  0.00     0.016 A 
ATOM     27  C   UNL A   1      38.949  24.773  26.582  1.00  0.00     0.010 A 
ATOM     28  C   UNL A   1      40.631  23.340  27.527  1.00  0.00     0.010 A 
ATOM     29  C   UNL A   1      40.165  24.640  27.269  1.00  0.00    -0.014 A 
BRANCH  29  30
ATOM     30  C   UNL A   1      40.970  25.842  27.657  1.00  0.00     0.031 A 
ATOM     31  C   UNL A   1      40.367  26.915  28.536  1.00  0.00     0.074 A 
ATOM     32  C   UNL A   1      42.249  25.988  27.253  1.00  0.00     0.049 A 
ATOM     33  N   UNL A   1      40.818  28.116  28.802  1.00  0.00    -0.248 NA
ATOM     34  C   UNL A   1      39.084  26.607  29.187  1.00  0.00     0.031 C 
ATOM     35  C   UNL A   1      42.992  25.039  26.426  1.00  0.00     0.029 A 
ATOM     36  N   UNL A   1      43.155  26.998  27.488  1.00  0.00    -0.354 N 
ATOM     37  C   UNL A   1      39.833  28.735  29.565  1.00  0.00     0.074 A 
ATOM     38  C   UNL A   1      38.769  27.771  29.739  1.00  0.00     0.031 C 
ATOM     39  C   UNL A   1      44.246  25.483  26.259  1.00  0.00     0.029 A 
ATOM     40  C   UNL A   1      44.372  26.799  26.876  1.00  0.00     0.049 A 
ATOM     41  H   UNL A   1      42.951  27.788  28.039  1.00  0.00     0.167 HD
ATOM     42  C   UNL A   1      39.816  29.988  30.083  1.00  0.00     0.034 A 
ATOM     43  C   UNL A   1      45.456  27.594  26.774  1.00  0.00     0.034 A 
ATOM     44  C   UNL A   1      40.918  30.912  30.017  1.00  0.00     0.049 A 
ATOM     45  C   UNL A   1      45.432  28.964  27.391  1.00  0.00     0.074 A 
ATOM     46  C   UNL A   1      40.996  32.194  30.535  1.00  0.00     0.029 A 
ATOM     47  N   UNL A   1      42.143  30.645  29.429  1.00  0.00    -0.354 N 
ATOM     48  N   UNL A   1      44.485  29.536  28.092  1.00  0.00    -0.248 NA
ATOM     49  C   UNL A   1      46.626  29.802  27.199  1.00  0.00     0.031 C 
ATOM     50  C   UNL A   1      42.273  32.701  30.266  1.00  0.00     0.029 A 
ATOM     51  C   UNL A   1      42.988  31.732  29.581  1.00  0.00     0.049 A 
ATOM     52  H   UNL A   1      42.379  29.807  28.971  1.00  0.00     0.167 HD
ATOM     53  C   UNL A   1      44.965  30.796  28.425  1.00  0.00     0.074 A 
ATOM     54  C   UNL A   1      46.306  30.891  27.886  1.00  0.00     0.031 C 
ATOM     55  C   UNL A   1      44.338  31.799  29.087  1.00  0.00     0.034 A 
BRANCH  42  56
ATOM     56  C   UNL A   1      38.572  30.436  30.805  1.00  0.00     0.023 A 
ATOM     57  C   UNL A   1      38.470  30.263  32.198  1.00  0.00     0.012 A 
ATOM     58  C   UNL A   1      37.542  31.104  30.112  1.00  0.00     0.148 A 
ATOM     59  C   UNL A   1      37.350  30.726  32.889  1.00  0.00     0.002 A 
ATOM     60  C   UNL A   1      36.448  31.599  30.815  1.00  0.00     0.091 A 
ATOM     61  F   UNL A   1      37.644  31.239  28.782  1.00  0.00    -0.205 F 
ATOM     62  C   UNL A   1      36.347  31.404  32.201  1.00  0.00     0.022 A 
BRANCH  60  63
ATOM     63  S   UNL A   1      35.153  32.558  30.017  1.00  0.00     0.127 S 
ATOM     64  O   UNL A   1      34.251  32.827  31.135  1.00  0.00    -0.237 OA
ATOM     65  O   UNL A   1      35.884  33.728  29.530  1.00  0.00    -0.237 OA
ATOM     66  O   UNL A   1      34.620  31.702  28.966  1.00  0.00    -0.744 OA
ENDBRANCH  60  63
ENDBRANCH  42  56
BRANCH  43  67
ATOM     67  C   UNL A   1      46.664  27.099  26.052  1.00  0.00     0.023 A 
ATOM     68  C   UNL A   1      46.799  27.354  24.675  1.00  0.00     0.012 A 
ATOM     69  C   UNL A   1      47.708  26.444  26.734  1.00  0.00     0.148 A 
ATOM     70  C   UNL A   1      47.951  26.963  23.990  1.00  0.00     0.002 A 
ATOM     71  C   UNL A   1      48.882  26.125  26.062  1.00  0.00     0.091 A 
ATOM     72  F   UNL A   1      47.548  26.172  28.037  1.00  0.00    -0.205 F 
ATOM     73  C   UNL A   1      49.000  26.368  24.687  1.00  0.00     0.022 A 
BRANCH  71  74
ATOM     74  S   UNL A   1      50.332  25.535  26.943  1.00  0.00     0.127 S 
ATOM     75  O   UNL A   1      49.841  24.297  27.540  1.00  0.00    -0.237 OA
ATOM     76  O   UNL A   1      51.303  25.356  25.861  1.00  0.00    -0.237 OA
ATOM     77  O   UNL A   1      50.673  26.607  27.870  1.00  0.00    -0.744 OA
ENDBRANCH  71  74
ENDBRANCH  43  67
BRANCH  55  78
ATOM     78  C   UNL A   1      45.091  33.090  29.270  1.00  0.00     0.023 A 
ATOM     79  C   UNL A   1      45.942  33.236  30.383  1.00  0.00     0.012 A 
ATOM     80  C   UNL A   1      45.006  34.126  28.321  1.00  0.00     0.148 A 
ATOM     81  C   UNL A   1      46.680  34.405  30.562  1.00  0.00     0.002 A 
ATOM     82  C   UNL A   1      45.771  35.276  28.488  1.00  0.00     0.091 A 
ATOM     83  F   UNL A   1      44.172  33.977  27.281  1.00  0.00    -0.205 F 
ATOM     84  C   UNL A   1      46.603  35.419  29.610  1.00  0.00     0.022 A 
BRANCH  82  85
ATOM     85  S   UNL A   1      45.786  36.598  27.271  1.00  0.00     0.127 S 
ATOM     86  O   UNL A   1      46.717  37.549  27.876  1.00  0.00    -0.237 OA
ATOM     87  O   UNL A   1      46.293  35.924  26.077  1.00  0.00    -0.237 OA
ATOM     88  O   UNL A   1      44.405  37.051  27.164  1.00  0.00    -0.744 OA
ENDBRANCH  82  85
ENDBRANCH  55  78
ENDBRANCH  29  30
ENDBRANCH  22  24
ENDBRANCH  21  22
ENDBRANCH  20  21
ENDBRANCH   1  20
TORSDOF 17
ENDMDL
MODEL 2
REMARK VINA RESULT:     -11.3      1.359      1.522
REMARK SMILES C[C@@H](C(=O)OCCOC(=O)c1ccc(-c2c3nc(c(-c4cccc(S(=O)(=O)[O-])c4F)c4ccc([nH]4)c(-c4cccc(S(=O)(=O)[O-])c4F)c4nc(c(-c5cccc(S(=O)(=O)[O-])c5F)c5ccc2[nH]5)C=C4)C=C3)cc1)c1ccc(Cc2ccco2)cc1F
REMARK SMILES IDX 6 1 5 2 3 3 4 4 2 5 1 6 74 7 75 8 85 9 76 10 84 11 86 12
REMARK SMILES IDX 77 13 78 14 79 15 80 16 83 17 81 18 82 19 7 20 8 21 9 22
REMARK SMILES IDX 10 23 11 24 12 25 73 26 13 27 72 28 14 29 15 30 16 31 66 32
REMARK SMILES IDX 17 33 71 34 65 35 67 36 18 37 70 38 64 39 63 40 19 42 51 43
REMARK SMILES IDX 31 44 50 45 32 46 35 47 49 48 68 49 33 50 34 51 48 53 69 54
REMARK SMILES IDX 36 55 20 56 21 57 29 58 22 59 24 60 30 61 23 62 25 63 26 64
REMARK SMILES IDX 27 65 28 66 52 67 53 68 61 69 54 70 56 71 62 72 55 73 57 74
REMARK SMILES IDX 58 75 59 76 60 77 37 78 38 79 46 80 39 81 41 82 47 83 40 84
REMARK SMILES IDX 42 85 43 86 44 87 45 88
REMARK H PARENT 67 41 35 52
REMARK Flexibility Score: inf
ROOT
ATOM      1  C   UNL A   1      35.119  21.336  24.658  1.00  0.00     0.274 C 
ENDROOT
BRANCH   1   2
ATOM      2  O   UNL A   1      33.903  20.772  25.192  1.00  0.00    -0.462 OA
BRANCH   2   3
ATOM      3  C   UNL A   1      32.936  21.651  25.582  1.00  0.00     0.313 C 
ATOM      4  O   UNL A   1      31.796  21.658  25.129  1.00  0.00    -0.252 OA
BRANCH   3   5
ATOM      5  C   UNL A   1      33.448  22.689  26.589  1.00  0.00     0.129 C 
ATOM      6  C   UNL A   1      33.188  22.298  28.048  1.00  0.00     0.025 C 
BRANCH   5   7
ATOM      7  C   UNL A   1      32.998  24.099  26.222  1.00  0.00     0.002 A 
ATOM      8  C   UNL A   1      31.656  24.468  26.430  1.00  0.00     0.008 A 
ATOM      9  C   UNL A   1      33.865  25.083  25.733  1.00  0.00     0.127 A 
ATOM     10  C   UNL A   1      31.215  25.772  26.178  1.00  0.00     0.005 A 
ATOM     11  C   UNL A   1      33.429  26.381  25.460  1.00  0.00     0.043 A 
ATOM     12  F   UNL A   1      35.167  24.815  25.557  1.00  0.00    -0.207 F 
ATOM     13  C   UNL A   1      32.101  26.749  25.709  1.00  0.00    -0.038 A 
BRANCH  13  14
ATOM     14  C   UNL A   1      31.656  28.186  25.543  1.00  0.00     0.111 C 
BRANCH  14  15
ATOM     15  C   UNL A   1      31.005  28.471  24.241  1.00  0.00     0.108 A 
ATOM     16  C   UNL A   1      29.706  28.395  23.781  1.00  0.00     0.046 A 
ATOM     17  O   UNL A   1      31.811  28.983  23.268  1.00  0.00    -0.469 OA
ATOM     18  C   UNL A   1      29.719  28.910  22.462  1.00  0.00     0.042 A 
ATOM     19  C   UNL A   1      31.023  29.264  22.201  1.00  0.00     0.195 A 
ENDBRANCH  14  15
ENDBRANCH  13  14
ENDBRANCH   5   7
ENDBRANCH   3   5
ENDBRANCH   2   3
ENDBRANCH   1   2
BRANCH   1  20
ATOM     20  C   UNL A   1      36.329  20.681  25.316  1.00  0.00     0.275 C 
BRANCH  20  21
ATOM     21  O   UNL A   1      37.493  21.465  25.013  1.00  0.00    -0.458 OA
BRANCH  21  22
ATOM     22  C   UNL A   1      38.631  21.128  25.658  1.00  0.00     0.338 C 
ATOM     23  O   UNL A   1      39.122  20.010  25.744  1.00  0.00    -0.246 OA
BRANCH  22  24
ATOM     24  C   UNL A   1      39.221  22.333  26.275  1.00  0.00     0.060 A 
ATOM     25  C   UNL A   1      38.670  23.592  26.048  1.00  0.00     0.016 A 
ATOM     26  C   UNL A   1      40.389  22.216  27.031  1.00  0.00     0.016 A 
ATOM     27  C   UNL A   1      39.332  24.733  26.499  1.00  0.00     0.010 A 
ATOM     28  C   UNL A   1      41.002  23.363  27.554  1.00  0.00     0.010 A 
ATOM     29  C   UNL A   1      40.512  24.645  27.254  1.00  0.00    -0.014 A 
BRANCH  29  30
ATOM     30  C   UNL A   1      41.257  25.875  27.671  1.00  0.00     0.031 A 
ATOM     31  C   UNL A   1      40.589  26.917  28.542  1.00  0.00     0.074 A 
ATOM     32  C   UNL A   1      42.540  26.076  27.302  1.00  0.00     0.049 A 
ATOM     33  N   UNL A   1      40.984  28.132  28.828  1.00  0.00    -0.248 NA
ATOM     34  C   UNL A   1      39.303  26.552  29.157  1.00  0.00     0.031 C 
ATOM     35  C   UNL A   1      43.342  25.163  26.489  1.00  0.00     0.029 A 
ATOM     36  N   UNL A   1      43.398  27.119  27.567  1.00  0.00    -0.354 N 
ATOM     37  C   UNL A   1      39.956  28.705  29.569  1.00  0.00     0.074 A 
ATOM     38  C   UNL A   1      38.928  27.698  29.709  1.00  0.00     0.031 C 
ATOM     39  C   UNL A   1      44.580  25.659  26.357  1.00  0.00     0.029 A 
ATOM     40  C   UNL A   1      44.637  26.974  26.986  1.00  0.00     0.049 A 
ATOM     41  H   UNL A   1      43.148  27.896  28.119  1.00  0.00     0.167 HD
ATOM     42  C   UNL A   1      39.876  29.953  30.094  1.00  0.00     0.034 A 
ATOM     43  C   UNL A   1      45.691  27.813  26.918  1.00  0.00     0.034 A 
ATOM     44  C   UNL A   1      40.940  30.921  30.063  1.00  0.00     0.049 A 
ATOM     45  C   UNL A   1      45.595  29.176  27.543  1.00  0.00     0.074 A 
ATOM     46  C   UNL A   1      40.953  32.201  30.592  1.00  0.00     0.029 A 
ATOM     47  N   UNL A   1      42.190  30.707  29.505  1.00  0.00    -0.354 N 
ATOM     48  N   UNL A   1      44.608  29.704  28.222  1.00  0.00    -0.248 NA
ATOM     49  C   UNL A   1      46.759  30.062  27.387  1.00  0.00     0.031 C 
ATOM     50  C   UNL A   1      42.215  32.760  30.359  1.00  0.00     0.029 A 
ATOM     51  C   UNL A   1      42.986  31.826  29.687  1.00  0.00     0.049 A 
ATOM     52  H   UNL A   1      42.471  29.883  29.049  1.00  0.00     0.167 HD
ATOM     53  C   UNL A   1      45.028  30.980  28.577  1.00  0.00     0.074 A 
ATOM     54  C   UNL A   1      46.378  31.132  28.073  1.00  0.00     0.031 C 
ATOM     55  C   UNL A   1      44.345  31.951  29.229  1.00  0.00     0.034 A 
BRANCH  42  56
ATOM     56  C   UNL A   1      38.596  30.345  30.787  1.00  0.00     0.023 A 
ATOM     57  C   UNL A   1      38.429  30.071  32.157  1.00  0.00     0.012 A 
ATOM     58  C   UNL A   1      37.596  31.058  30.095  1.00  0.00     0.148 A 
ATOM     59  C   UNL A   1      37.275  30.481  32.826  1.00  0.00     0.002 A 
ATOM     60  C   UNL A   1      36.467  31.499  30.778  1.00  0.00     0.091 A 
ATOM     61  F   UNL A   1      37.760  31.288  28.784  1.00  0.00    -0.205 F 
ATOM     62  C   UNL A   1      36.302  31.205  32.141  1.00  0.00     0.022 A 
BRANCH  60  63
ATOM     63  S   UNL A   1      35.206  32.509  29.991  1.00  0.00     0.127 S 
ATOM     64  O   UNL A   1      34.282  32.749  31.098  1.00  0.00    -0.237 OA
ATOM     65  O   UNL A   1      35.966  33.686  29.567  1.00  0.00    -0.237 OA
ATOM     66  O   UNL A   1      34.683  31.705  28.895  1.00  0.00    -0.744 OA
ENDBRANCH  60  63
ENDBRANCH  42  56
BRANCH  43  67
ATOM     67  C   UNL A   1      46.935  27.372  26.224  1.00  0.00     0.023 A 
ATOM     68  C   UNL A   1      47.800  26.465  26.864  1.00  0.00     0.012 A 
ATOM     69  C   UNL A   1      47.227  27.786  24.910  1.00  0.00     0.148 A 
ATOM     70  C   UNL A   1      48.935  25.983  26.210  1.00  0.00     0.002 A 
ATOM     71  C   UNL A   1      48.316  27.243  24.238  1.00  0.00     0.091 A 
ATOM     72  F   UNL A   1      46.416  28.680  24.327  1.00  0.00    -0.205 F 
ATOM     73  C   UNL A   1      49.181  26.354  24.890  1.00  0.00     0.022 A 
BRANCH  71  74
ATOM     74  S   UNL A   1      48.573  27.538  22.484  1.00  0.00     0.127 S 
ATOM     75  O   UNL A   1      48.641  26.179  21.955  1.00  0.00    -0.237 OA
ATOM     76  O   UNL A   1      47.369  28.284  22.114  1.00  0.00    -0.237 OA
ATOM     77  O   UNL A   1      49.800  28.322  22.408  1.00  0.00    -0.744 OA
ENDBRANCH  71  74
ENDBRANCH  43  67
BRANCH  55  78
ATOM     78  C   UNL A   1      45.040  33.270  29.440  1.00  0.00     0.023 A 
ATOM     79  C   UNL A   1      45.761  33.482  30.632  1.00  0.00     0.012 A 
ATOM     80  C   UNL A   1      45.033  34.267  28.447  1.00  0.00     0.148 A 
ATOM     81  C   UNL A   1      46.445  34.679  30.842  1.00  0.00     0.002 A 
ATOM     82  C   UNL A   1      45.746  35.444  28.649  1.00  0.00     0.091 A 
ATOM     83  F   UNL A   1      44.322  34.055  27.329  1.00  0.00    -0.205 F 
ATOM     84  C   UNL A   1      46.446  35.654  29.848  1.00  0.00     0.022 A 
BRANCH  82  85
ATOM     85  S   UNL A   1      45.860  36.721  27.389  1.00  0.00     0.127 S 
ATOM     86  O   UNL A   1      46.869  37.612  27.958  1.00  0.00    -0.237 OA
ATOM     87  O   UNL A   1      46.302  35.968  26.215  1.00  0.00    -0.237 OA
ATOM     88  O   UNL A   1      44.520  37.280  27.272  1.00  0.00    -0.744 OA
ENDBRANCH  82  85
ENDBRANCH  55  78
ENDBRANCH  29  30
ENDBRANCH  22  24
ENDBRANCH  21  22
ENDBRANCH  20  21
ENDBRANCH   1  20
TORSDOF 17
ENDMDL
MODEL 3
REMARK VINA RESULT:     -11.3      4.789     10.142
REMARK SMILES C[C@@H](C(=O)OCCOC(=O)c1ccc(-c2c3nc(c(-c4cccc(S(=O)(=O)[O-])c4F)c4ccc([nH]4)c(-c4cccc(S(=O)(=O)[O-])c4F)c4nc(c(-c5cccc(S(=O)(=O)[O-])c5F)c5ccc2[nH]5)C=C4)C=C3)cc1)c1ccc(Cc2ccco2)cc1F
REMARK SMILES IDX 6 1 5 2 3 3 4 4 2 5 1 6 74 7 75 8 85 9 76 10 84 11 86 12
REMARK SMILES IDX 77 13 78 14 79 15 80 16 83 17 81 18 82 19 7 20 8 21 9 22
REMARK SMILES IDX 10 23 11 24 12 25 73 26 13 27 72 28 14 29 15 30 16 31 66 32
REMARK SMILES IDX 17 33 71 34 65 35 67 36 18 37 70 38 64 39 63 40 19 42 51 43
REMARK SMILES IDX 31 44 50 45 32 46 35 47 49 48 68 49 33 50 34 51 48 53 69 54
REMARK SMILES IDX 36 55 20 56 21 57 29 58 22 59 24 60 30 61 23 62 25 63 26 64
REMARK SMILES IDX 27 65 28 66 52 67 53 68 61 69 54 70 56 71 62 72 55 73 57 74
REMARK SMILES IDX 58 75 59 76 60 77 37 78 38 79 46 80 39 81 41 82 47 83 40 84
REMARK SMILES IDX 42 85 43 86 44 87 45 88
REMARK H PARENT 67 41 35 52
REMARK Flexibility Score: inf
ROOT
ATOM      1  C   UNL A   1      31.636  28.588  25.766  1.00  0.00     0.274 C 
ENDROOT
BRANCH   1   2
ATOM      2  O   UNL A   1      30.807  28.092  24.694  1.00  0.00    -0.462 OA
BRANCH   2   3
ATOM      3  C   UNL A   1      31.449  27.614  23.590  1.00  0.00     0.313 C 
ATOM      4  O   UNL A   1      32.015  28.325  22.767  1.00  0.00    -0.252 OA
BRANCH   3   5
ATOM      5  C   UNL A   1      31.319  26.093  23.439  1.00  0.00     0.129 C 
ATOM      6  C   UNL A   1      29.956  25.552  23.886  1.00  0.00     0.025 C 
BRANCH   5   7
ATOM      7  C   UNL A   1      32.517  25.363  24.036  1.00  0.00     0.002 A 
ATOM      8  C   UNL A   1      33.620  25.066  23.214  1.00  0.00     0.008 A 
ATOM      9  C   UNL A   1      32.612  25.014  25.389  1.00  0.00     0.127 A 
ATOM     10  C   UNL A   1      34.772  24.464  23.735  1.00  0.00     0.005 A 
ATOM     11  C   UNL A   1      33.750  24.396  25.912  1.00  0.00     0.043 A 
ATOM     12  F   UNL A   1      31.619  25.311  26.239  1.00  0.00    -0.207 F 
ATOM     13  C   UNL A   1      34.857  24.141  25.095  1.00  0.00    -0.038 A 
BRANCH  13  14
ATOM     14  C   UNL A   1      36.140  23.596  25.684  1.00  0.00     0.111 C 
BRANCH  14  15
ATOM     15  C   UNL A   1      36.346  22.146  25.449  1.00  0.00     0.108 A 
ATOM     16  C   UNL A   1      35.498  21.065  25.323  1.00  0.00     0.046 A 
ATOM     17  O   UNL A   1      37.634  21.750  25.242  1.00  0.00    -0.469 OA
ATOM     18  C   UNL A   1      36.313  19.953  25.000  1.00  0.00     0.042 A 
ATOM     19  C   UNL A   1      37.604  20.426  24.952  1.00  0.00     0.195 A 
ENDBRANCH  14  15
ENDBRANCH  13  14
ENDBRANCH   5   7
ENDBRANCH   3   5
ENDBRANCH   2   3
ENDBRANCH   1   2
BRANCH   1  20
ATOM     20  C   UNL A   1      31.456  30.096  25.908  1.00  0.00     0.275 C 
BRANCH  20  21
ATOM     21  O   UNL A   1      32.750  30.716  25.867  1.00  0.00    -0.458 OA
BRANCH  21  22
ATOM     22  C   UNL A   1      33.046  31.562  26.878  1.00  0.00     0.338 C 
ATOM     23  O   UNL A   1      32.362  32.495  27.277  1.00  0.00    -0.246 OA
BRANCH  22  24
ATOM     24  C   UNL A   1      34.358  31.200  27.452  1.00  0.00     0.060 A 
ATOM     25  C   UNL A   1      34.673  29.871  27.730  1.00  0.00     0.016 A 
ATOM     26  C   UNL A   1      35.261  32.209  27.790  1.00  0.00     0.016 A 
ATOM     27  C   UNL A   1      35.843  29.564  28.422  1.00  0.00     0.010 A 
ATOM     28  C   UNL A   1      36.475  31.884  28.410  1.00  0.00     0.010 A 
ATOM     29  C   UNL A   1      36.764  30.560  28.782  1.00  0.00    -0.014 A 
BRANCH  29  30
ATOM     30  C   UNL A   1      37.982  30.231  29.590  1.00  0.00     0.031 A 
ATOM     31  C   UNL A   1      39.076  29.365  29.008  1.00  0.00     0.074 A 
ATOM     32  C   UNL A   1      38.143  30.713  30.841  1.00  0.00     0.049 A 
ATOM     33  N   UNL A   1      40.091  28.798  29.611  1.00  0.00    -0.248 NA
ATOM     34  C   UNL A   1      39.013  29.085  27.564  1.00  0.00     0.031 C 
ATOM     35  C   UNL A   1      37.201  31.583  31.543  1.00  0.00     0.029 A 
ATOM     36  N   UNL A   1      39.165  30.537  31.746  1.00  0.00    -0.354 N 
ATOM     37  C   UNL A   1      40.725  28.021  28.647  1.00  0.00     0.074 A 
ATOM     38  C   UNL A   1      39.995  28.206  27.412  1.00  0.00     0.031 C 
ATOM     39  C   UNL A   1      37.703  31.900  32.745  1.00  0.00     0.029 A 
ATOM     40  C   UNL A   1      38.954  31.177  32.946  1.00  0.00     0.049 A 
ATOM     41  H   UNL A   1      39.970  30.004  31.553  1.00  0.00     0.167 HD
ATOM     42  C   UNL A   1      41.820  27.232  28.772  1.00  0.00     0.034 A 
ATOM     43  C   UNL A   1      39.651  31.155  34.100  1.00  0.00     0.034 A 
ATOM     44  C   UNL A   1      42.623  27.133  29.963  1.00  0.00     0.049 A 
ATOM     45  C   UNL A   1      40.886  30.305  34.204  1.00  0.00     0.074 A 
ATOM     46  C   UNL A   1      43.764  26.376  30.170  1.00  0.00     0.029 A 
ATOM     47  N   UNL A   1      42.394  27.837  31.134  1.00  0.00    -0.354 N 
ATOM     48  N   UNL A   1      41.457  29.565  33.287  1.00  0.00    -0.248 NA
ATOM     49  C   UNL A   1      41.571  30.284  35.506  1.00  0.00     0.031 C 
ATOM     50  C   UNL A   1      44.229  26.627  31.466  1.00  0.00     0.029 A 
ATOM     51  C   UNL A   1      43.378  27.542  32.063  1.00  0.00     0.049 A 
ATOM     52  H   UNL A   1      41.644  28.456  31.284  1.00  0.00     0.167 HD
ATOM     53  C   UNL A   1      42.566  28.991  33.896  1.00  0.00     0.074 A 
ATOM     54  C   UNL A   1      42.613  29.503  35.251  1.00  0.00     0.031 C 
ATOM     55  C   UNL A   1      43.446  28.094  33.391  1.00  0.00     0.034 A 
BRANCH  42  56
ATOM     56  C   UNL A   1      42.248  26.424  27.574  1.00  0.00     0.023 A 
ATOM     57  C   UNL A   1      43.079  27.006  26.598  1.00  0.00     0.012 A 
ATOM     58  C   UNL A   1      41.894  25.064  27.462  1.00  0.00     0.148 A 
ATOM     59  C   UNL A   1      43.532  26.253  25.514  1.00  0.00     0.002 A 
ATOM     60  C   UNL A   1      42.383  24.310  26.400  1.00  0.00     0.091 A 
ATOM     61  F   UNL A   1      41.082  24.533  28.388  1.00  0.00    -0.205 F 
ATOM     62  C   UNL A   1      43.195  24.905  25.422  1.00  0.00     0.022 A 
BRANCH  60  63
ATOM     63  S   UNL A   1      42.065  22.547  26.253  1.00  0.00     0.127 S 
ATOM     64  O   UNL A   1      40.606  22.512  26.180  1.00  0.00    -0.237 OA
ATOM     65  O   UNL A   1      42.745  22.209  25.001  1.00  0.00    -0.237 OA
ATOM     66  O   UNL A   1      42.654  21.939  27.438  1.00  0.00    -0.744 OA
ENDBRANCH  60  63
ENDBRANCH  42  56
BRANCH  43  67
ATOM     67  C   UNL A   1      39.185  31.978  35.254  1.00  0.00     0.023 A 
ATOM     68  C   UNL A   1      38.336  31.401  36.216  1.00  0.00     0.012 A 
ATOM     69  C   UNL A   1      39.637  33.298  35.441  1.00  0.00     0.148 A 
ATOM     70  C   UNL A   1      37.942  32.127  37.342  1.00  0.00     0.002 A 
ATOM     71  C   UNL A   1      39.302  33.987  36.601  1.00  0.00     0.091 A 
ATOM     72  F   UNL A   1      40.414  33.848  34.496  1.00  0.00    -0.205 F 
ATOM     73  C   UNL A   1      38.442  33.411  37.545  1.00  0.00     0.022 A 
BRANCH  71  74
ATOM     74  S   UNL A   1      40.065  35.564  37.005  1.00  0.00     0.127 S 
ATOM     75  O   UNL A   1      41.482  35.217  37.027  1.00  0.00    -0.237 OA
ATOM     76  O   UNL A   1      39.654  36.406  35.880  1.00  0.00    -0.237 OA
ATOM     77  O   UNL A   1      39.475  35.952  38.280  1.00  0.00    -0.744 OA
ENDBRANCH  71  74
ENDBRANCH  43  67
BRANCH  55  78
ATOM     78  C   UNL A   1      44.540  27.602  34.301  1.00  0.00     0.023 A 
ATOM     79  C   UNL A   1      45.768  28.290  34.332  1.00  0.00     0.012 A 
ATOM     80  C   UNL A   1      44.336  26.508  35.163  1.00  0.00     0.148 A 
ATOM     81  C   UNL A   1      46.788  27.881  35.190  1.00  0.00     0.002 A 
ATOM     82  C   UNL A   1      45.345  26.127  36.041  1.00  0.00     0.091 A 
ATOM     83  F   UNL A   1      43.168  25.851  35.102  1.00  0.00    -0.205 F 
ATOM     84  C   UNL A   1      46.573  26.808  36.051  1.00  0.00     0.022 A 
BRANCH  82  85
ATOM     85  S   UNL A   1      45.124  24.801  37.234  1.00  0.00     0.127 S 
ATOM     86  O   UNL A   1      44.950  23.641  36.362  1.00  0.00    -0.237 OA
ATOM     87  O   UNL A   1      46.387  24.825  37.972  1.00  0.00    -0.237 OA
ATOM     88  O   UNL A   1      43.960  25.174  38.026  1.00  0.00    -0.744 OA
ENDBRANCH  82  85
ENDBRANCH  55  78
ENDBRANCH  29  30
ENDBRANCH  22  24
ENDBRANCH  21  22
ENDBRANCH  20  21
ENDBRANCH   1  20
TORSDOF 17
ENDMDL
