MODEL 1
REMARK VINA RESULT:     -12.2      0.000      0.000
REMARK SMILES Cc1ccnc(C(=O)c2[nH]c3ccc(OC(F)(F)F)cc3c2CC(=O)OCCOC(=O)c2ccc(-c3c4nc(c(-c5cccc(S(=O)(=O)[O-])c5F)c5ccc([nH]5)c(-c5cccc(S(=O)(=O)[O-])c5F)c5nc(c(-c6cccc(S(=O)(=O)[O-])c6F)c6ccc3[nH]6)C=C5)C=C4)cc2)c1
REMARK SMILES IDX 27 1 26 2 24 3 25 4 23 5 22 6 9 7 10 8 11 9 21 11 12 12
REMARK SMILES IDX 20 13 13 14 14 15 7 16 8 17 6 18 1 19 2 20 3 21 95 22 4 23
REMARK SMILES IDX 5 24 15 25 16 26 17 27 18 28 19 29 28 30 29 31 30 32 31 33
REMARK SMILES IDX 32 34 33 35 94 36 34 37 93 38 35 39 36 40 37 41 87 42 38 43
REMARK SMILES IDX 92 44 86 45 88 46 39 47 91 48 85 49 84 50 40 52 72 53 52 54
REMARK SMILES IDX 71 55 53 56 56 57 70 58 89 59 54 60 55 61 69 63 90 64 57 65
REMARK SMILES IDX 41 66 42 67 50 68 43 69 45 70 51 71 44 72 46 73 47 74 48 75
REMARK SMILES IDX 49 76 73 77 74 78 82 79 75 80 77 81 83 82 76 83 78 84 79 85
REMARK SMILES IDX 80 86 81 87 58 88 59 89 67 90 60 91 62 92 68 93 61 94 63 95
REMARK SMILES IDX 64 96 65 97 66 98
REMARK H PARENT 10 10 88 51 56 62
REMARK Flexibility Score: inf
ROOT
ATOM      1  C   UNL A   1      36.663  21.139  24.654  1.00  0.00     0.274 C 
ENDROOT
BRANCH   1   2
ATOM      2  O   UNL A   1      36.991  22.450  24.139  1.00  0.00    -0.462 OA
BRANCH   2   3
ATOM      3  C   UNL A   1      35.986  23.359  24.135  1.00  0.00     0.310 C 
ATOM      4  O   UNL A   1      35.342  23.662  23.132  1.00  0.00    -0.252 OA
BRANCH   3   5
ATOM      5  C   UNL A   1      35.590  23.891  25.495  1.00  0.00     0.161 C 
BRANCH   5   6
ATOM      6  C   UNL A   1      34.146  23.957  25.880  1.00  0.00     0.000 A 
ATOM      7  C   UNL A   1      33.268  22.903  26.133  1.00  0.00     0.093 A 
ATOM      8  N   UNL A   1      32.037  23.454  26.388  1.00  0.00    -0.352 N 
ATOM      9  C   UNL A   1      32.039  24.798  26.141  1.00  0.00     0.046 A 
ATOM     10  H   UNL A   1      31.255  22.948  26.706  1.00  0.00     0.167 HD
ATOM     11  C   UNL A   1      33.358  25.164  25.895  1.00  0.00     0.008 A 
ATOM     12  C   UNL A   1      30.977  25.701  26.125  1.00  0.00     0.030 A 
ATOM     13  C   UNL A   1      33.631  26.532  25.672  1.00  0.00     0.057 A 
ATOM     14  C   UNL A   1      31.272  27.044  25.872  1.00  0.00     0.049 A 
ATOM     15  C   UNL A   1      32.585  27.469  25.666  1.00  0.00     0.130 A 
BRANCH   7  16
ATOM     16  C   UNL A   1      33.410  21.456  26.216  1.00  0.00     0.227 C 
ATOM     17  O   UNL A   1      33.695  20.933  27.293  1.00  0.00    -0.285 OA
BRANCH  16  18
ATOM     18  C   UNL A   1      32.900  20.587  25.086  1.00  0.00     0.113 A 
ATOM     19  C   UNL A   1      33.416  17.113  23.636  1.00  0.00     0.044 C 
ATOM     20  C   UNL A   1      32.975  18.534  23.824  1.00  0.00    -0.047 A 
ATOM     21  C   UNL A   1      32.364  19.211  22.767  1.00  0.00     0.023 A 
ATOM     22  C   UNL A   1      33.226  19.231  25.014  1.00  0.00     0.036 A 
ATOM     23  C   UNL A   1      32.046  20.547  22.933  1.00  0.00     0.112 A 
ATOM     24  N   UNL A   1      32.311  21.248  24.054  1.00  0.00    -0.253 NA
ENDBRANCH  16  18
ENDBRANCH   7  16
BRANCH  15  25
ATOM     25  O   UNL A   1      32.982  28.759  25.441  1.00  0.00    -0.406 OA
BRANCH  25  26
ATOM     26  C   UNL A   1      32.392  29.775  26.232  1.00  0.00     0.573 C 
ATOM     27  F   UNL A   1      32.006  29.295  27.436  1.00  0.00    -0.132 F 
ATOM     28  F   UNL A   1      33.235  30.815  26.414  1.00  0.00    -0.132 F 
ATOM     29  F   UNL A   1      31.292  30.240  25.597  1.00  0.00    -0.132 F 
ENDBRANCH  25  26
ENDBRANCH  15  25
ENDBRANCH   5   6
ENDBRANCH   3   5
ENDBRANCH   2   3
ENDBRANCH   1   2
BRANCH   1  30
ATOM     30  C   UNL A   1      37.920  20.306  24.947  1.00  0.00     0.275 C 
BRANCH  30  31
ATOM     31  O   UNL A   1      38.418  20.489  26.290  1.00  0.00    -0.458 OA
BRANCH  31  32
ATOM     32  C   UNL A   1      39.742  20.735  26.336  1.00  0.00     0.338 C 
ATOM     33  O   UNL A   1      40.621  20.056  25.819  1.00  0.00    -0.246 OA
BRANCH  32  34
ATOM     34  C   UNL A   1      40.088  22.006  26.967  1.00  0.00     0.060 A 
ATOM     35  C   UNL A   1      39.669  23.167  26.321  1.00  0.00     0.016 A 
ATOM     36  C   UNL A   1      41.035  22.060  27.990  1.00  0.00     0.016 A 
ATOM     37  C   UNL A   1      40.263  24.382  26.630  1.00  0.00     0.010 A 
ATOM     38  C   UNL A   1      41.570  23.300  28.359  1.00  0.00     0.010 A 
ATOM     39  C   UNL A   1      41.214  24.464  27.659  1.00  0.00    -0.014 A 
BRANCH  39  40
ATOM     40  C   UNL A   1      41.757  25.799  28.007  1.00  0.00     0.031 A 
ATOM     41  C   UNL A   1      43.141  26.220  27.601  1.00  0.00     0.074 A 
ATOM     42  C   UNL A   1      40.945  26.663  28.644  1.00  0.00     0.049 A 
ATOM     43  N   UNL A   1      43.708  27.394  27.718  1.00  0.00    -0.248 NA
ATOM     44  C   UNL A   1      43.999  25.205  26.973  1.00  0.00     0.031 C 
ATOM     45  C   UNL A   1      39.585  26.358  29.094  1.00  0.00     0.029 A 
ATOM     46  N   UNL A   1      41.133  27.970  29.012  1.00  0.00    -0.354 N 
ATOM     47  C   UNL A   1      44.980  27.264  27.178  1.00  0.00     0.074 A 
ATOM     48  C   UNL A   1      45.115  25.888  26.747  1.00  0.00     0.031 C 
ATOM     49  C   UNL A   1      39.054  27.450  29.659  1.00  0.00     0.029 A 
ATOM     50  C   UNL A   1      40.046  28.518  29.650  1.00  0.00     0.049 A 
ATOM     51  H   UNL A   1      41.965  28.467  28.838  1.00  0.00     0.167 HD
ATOM     52  C   UNL A   1      45.939  28.208  27.038  1.00  0.00     0.034 A 
ATOM     53  C   UNL A   1      39.870  29.742  30.181  1.00  0.00     0.034 A 
ATOM     54  C   UNL A   1      45.811  29.570  27.488  1.00  0.00     0.049 A 
ATOM     55  C   UNL A   1      40.975  30.749  30.061  1.00  0.00     0.074 A 
ATOM     56  C   UNL A   1      46.728  30.602  27.385  1.00  0.00     0.029 A 
ATOM     57  N   UNL A   1      44.703  30.086  28.143  1.00  0.00    -0.354 N 
ATOM     58  N   UNL A   1      42.122  30.643  29.434  1.00  0.00    -0.248 NA
ATOM     59  C   UNL A   1      40.755  32.051  30.704  1.00  0.00     0.031 C 
ATOM     60  C   UNL A   1      46.178  31.739  27.990  1.00  0.00     0.029 A 
ATOM     61  C   UNL A   1      44.918  31.415  28.467  1.00  0.00     0.049 A 
ATOM     62  H   UNL A   1      43.884  29.580  28.349  1.00  0.00     0.167 HD
ATOM     63  C   UNL A   1      42.757  31.866  29.598  1.00  0.00     0.074 A 
ATOM     64  C   UNL A   1      41.850  32.710  30.350  1.00  0.00     0.031 C 
ATOM     65  C   UNL A   1      43.990  32.249  29.186  1.00  0.00     0.034 A 
BRANCH  52  66
ATOM     66  C   UNL A   1      47.203  27.821  26.319  1.00  0.00     0.023 A 
ATOM     67  C   UNL A   1      48.266  27.272  27.065  1.00  0.00     0.012 A 
ATOM     68  C   UNL A   1      47.317  27.923  24.920  1.00  0.00     0.148 A 
ATOM     69  C   UNL A   1      49.429  26.837  26.429  1.00  0.00     0.002 A 
ATOM     70  C   UNL A   1      48.470  27.467  24.291  1.00  0.00     0.091 A 
ATOM     71  F   UNL A   1      46.302  28.469  24.235  1.00  0.00    -0.205 F 
ATOM     72  C   UNL A   1      49.528  26.927  25.043  1.00  0.00     0.022 A 
BRANCH  70  73
ATOM     73  S   UNL A   1      48.683  27.498  22.506  1.00  0.00     0.127 S 
ATOM     74  O   UNL A   1      49.987  28.147  22.378  1.00  0.00    -0.237 OA
ATOM     75  O   UNL A   1      48.673  26.075  22.169  1.00  0.00    -0.237 OA
ATOM     76  O   UNL A   1      47.555  28.256  21.983  1.00  0.00    -0.744 OA
ENDBRANCH  70  73
ENDBRANCH  52  66
BRANCH  53  77
ATOM     77  C   UNL A   1      38.577  30.076  30.836  1.00  0.00     0.023 A 
ATOM     78  C   UNL A   1      38.353  29.693  32.172  1.00  0.00     0.012 A 
ATOM     79  C   UNL A   1      37.594  30.828  30.164  1.00  0.00     0.148 A 
ATOM     80  C   UNL A   1      37.168  30.045  32.820  1.00  0.00     0.002 A 
ATOM     81  C   UNL A   1      36.445  31.226  30.836  1.00  0.00     0.091 A 
ATOM     82  F   UNL A   1      37.806  31.164  28.883  1.00  0.00    -0.205 F 
ATOM     83  C   UNL A   1      36.222  30.824  32.160  1.00  0.00     0.022 A 
BRANCH  81  84
ATOM     84  S   UNL A   1      35.286  32.362  30.066  1.00  0.00     0.127 S 
ATOM     85  O   UNL A   1      34.343  32.618  31.150  1.00  0.00    -0.237 OA
ATOM     86  O   UNL A   1      36.136  33.499  29.710  1.00  0.00    -0.237 OA
ATOM     87  O   UNL A   1      34.771  31.627  28.917  1.00  0.00    -0.744 OA
ENDBRANCH  81  84
ENDBRANCH  53  77
BRANCH  65  88
ATOM     88  C   UNL A   1      44.432  33.637  29.560  1.00  0.00     0.023 A 
ATOM     89  C   UNL A   1      45.281  33.810  30.672  1.00  0.00     0.012 A 
ATOM     90  C   UNL A   1      44.043  34.758  28.805  1.00  0.00     0.148 A 
ATOM     91  C   UNL A   1      45.710  35.083  31.044  1.00  0.00     0.002 A 
ATOM     92  C   UNL A   1      44.507  36.020  29.161  1.00  0.00     0.091 A 
ATOM     93  F   UNL A   1      43.214  34.581  27.766  1.00  0.00    -0.205 F 
ATOM     94  C   UNL A   1      45.332  36.187  30.283  1.00  0.00     0.022 A 
BRANCH  92  95
ATOM     95  S   UNL A   1      44.113  37.463  28.166  1.00  0.00     0.127 S 
ATOM     96  O   UNL A   1      44.818  38.525  28.880  1.00  0.00    -0.237 OA
ATOM     97  O   UNL A   1      44.683  37.125  26.861  1.00  0.00    -0.237 OA
ATOM     98  O   UNL A   1      42.657  37.541  28.175  1.00  0.00    -0.744 OA
ENDBRANCH  92  95
ENDBRANCH  65  88
ENDBRANCH  39  40
ENDBRANCH  32  34
ENDBRANCH  31  32
ENDBRANCH  30  31
ENDBRANCH   1  30
TORSDOF 19
ENDMDL
MODEL 2
REMARK VINA RESULT:     -12.0      5.217     10.415
REMARK SMILES Cc1ccnc(C(=O)c2[nH]c3ccc(OC(F)(F)F)cc3c2CC(=O)OCCOC(=O)c2ccc(-c3c4nc(c(-c5cccc(S(=O)(=O)[O-])c5F)c5ccc([nH]5)c(-c5cccc(S(=O)(=O)[O-])c5F)c5nc(c(-c6cccc(S(=O)(=O)[O-])c6F)c6ccc3[nH]6)C=C5)C=C4)cc2)c1
REMARK SMILES IDX 27 1 26 2 24 3 25 4 23 5 22 6 9 7 10 8 11 9 21 11 12 12
REMARK SMILES IDX 20 13 13 14 14 15 7 16 8 17 6 18 1 19 2 20 3 21 95 22 4 23
REMARK SMILES IDX 5 24 15 25 16 26 17 27 18 28 19 29 28 30 29 31 30 32 31 33
REMARK SMILES IDX 32 34 33 35 94 36 34 37 93 38 35 39 36 40 37 41 87 42 38 43
REMARK SMILES IDX 92 44 86 45 88 46 39 47 91 48 85 49 84 50 40 52 72 53 52 54
REMARK SMILES IDX 71 55 53 56 56 57 70 58 89 59 54 60 55 61 69 63 90 64 57 65
REMARK SMILES IDX 41 66 42 67 50 68 43 69 45 70 51 71 44 72 46 73 47 74 48 75
REMARK SMILES IDX 49 76 73 77 74 78 82 79 75 80 77 81 83 82 76 83 78 84 79 85
REMARK SMILES IDX 80 86 81 87 58 88 59 89 67 90 60 91 62 92 68 93 61 94 63 95
REMARK SMILES IDX 64 96 65 97 66 98
REMARK H PARENT 10 10 88 51 56 62
REMARK Flexibility Score: inf
ROOT
ATOM      1  C   UNL A   1      31.725  29.638  25.920  1.00  0.00     0.274 C 
ENDROOT
BRANCH   1   2
ATOM      2  O   UNL A   1      31.684  28.657  26.981  1.00  0.00    -0.462 OA
BRANCH   2   3
ATOM      3  C   UNL A   1      32.025  27.390  26.637  1.00  0.00     0.310 C 
ATOM      4  O   UNL A   1      31.332  26.405  26.884  1.00  0.00    -0.252 OA
BRANCH   3   5
ATOM      5  C   UNL A   1      33.268  27.266  25.782  1.00  0.00     0.161 C 
BRANCH   5   6
ATOM      6  C   UNL A   1      33.197  26.573  24.458  1.00  0.00     0.000 A 
ATOM      7  C   UNL A   1      32.716  27.069  23.246  1.00  0.00     0.093 A 
ATOM      8  N   UNL A   1      32.799  26.049  22.331  1.00  0.00    -0.352 N 
ATOM      9  C   UNL A   1      33.146  24.873  22.935  1.00  0.00     0.046 A 
ATOM     10  H   UNL A   1      32.630  26.150  21.366  1.00  0.00     0.167 HD
ATOM     11  C   UNL A   1      33.477  25.174  24.251  1.00  0.00     0.008 A 
ATOM     12  C   UNL A   1      33.192  23.583  22.409  1.00  0.00     0.030 A 
ATOM     13  C   UNL A   1      33.935  24.120  25.072  1.00  0.00     0.057 A 
ATOM     14  C   UNL A   1      33.620  22.553  23.252  1.00  0.00     0.049 A 
ATOM     15  C   UNL A   1      34.009  22.812  24.566  1.00  0.00     0.130 A 
BRANCH   7  16
ATOM     16  C   UNL A   1      32.228  28.365  22.797  1.00  0.00     0.227 C 
ATOM     17  O   UNL A   1      33.024  29.195  22.357  1.00  0.00    -0.285 OA
BRANCH  16  18
ATOM     18  C   UNL A   1      30.746  28.570  22.568  1.00  0.00     0.113 A 
ATOM     19  C   UNL A   1      28.312  31.320  21.594  1.00  0.00     0.044 C 
ATOM     20  C   UNL A   1      28.884  30.017  22.066  1.00  0.00    -0.047 A 
ATOM     21  C   UNL A   1      28.044  29.069  22.652  1.00  0.00     0.023 A 
ATOM     22  C   UNL A   1      30.259  29.750  22.003  1.00  0.00     0.036 A 
ATOM     23  C   UNL A   1      28.606  27.911  23.161  1.00  0.00     0.112 A 
ATOM     24  N   UNL A   1      29.928  27.650  23.145  1.00  0.00    -0.253 NA
ENDBRANCH  16  18
ENDBRANCH   7  16
BRANCH  15  25
ATOM     25  O   UNL A   1      34.469  21.885  25.462  1.00  0.00    -0.406 OA
BRANCH  25  26
ATOM     26  C   UNL A   1      33.558  20.896  25.908  1.00  0.00     0.573 C 
ATOM     27  F   UNL A   1      33.722  20.639  27.225  1.00  0.00    -0.132 F 
ATOM     28  F   UNL A   1      32.278  21.261  25.680  1.00  0.00    -0.132 F 
ATOM     29  F   UNL A   1      33.789  19.750  25.229  1.00  0.00    -0.132 F 
ENDBRANCH  25  26
ENDBRANCH  15  25
ENDBRANCH   5   6
ENDBRANCH   3   5
ENDBRANCH   2   3
ENDBRANCH   1   2
BRANCH   1  30
ATOM     30  C   UNL A   1      32.018  31.049  26.454  1.00  0.00     0.275 C 
BRANCH  30  31
ATOM     31  O   UNL A   1      32.866  31.044  27.623  1.00  0.00    -0.458 OA
BRANCH  31  32
ATOM     32  C   UNL A   1      33.785  32.031  27.616  1.00  0.00     0.338 C 
ATOM     33  O   UNL A   1      33.559  33.226  27.471  1.00  0.00    -0.246 OA
BRANCH  32  34
ATOM     34  C   UNL A   1      35.137  31.584  27.936  1.00  0.00     0.060 A 
ATOM     35  C   UNL A   1      35.287  30.259  28.341  1.00  0.00     0.016 A 
ATOM     36  C   UNL A   1      36.170  32.506  28.116  1.00  0.00     0.016 A 
ATOM     37  C   UNL A   1      36.435  29.867  29.013  1.00  0.00     0.010 A 
ATOM     38  C   UNL A   1      37.362  32.086  28.717  1.00  0.00     0.010 A 
ATOM     39  C   UNL A   1      37.489  30.774  29.201  1.00  0.00    -0.014 A 
BRANCH  39  40
ATOM     40  C   UNL A   1      38.729  30.283  29.851  1.00  0.00     0.031 A 
ATOM     41  C   UNL A   1      39.137  30.740  31.222  1.00  0.00     0.074 A 
ATOM     42  C   UNL A   1      39.454  29.353  29.203  1.00  0.00     0.049 A 
ATOM     43  N   UNL A   1      40.118  30.306  31.972  1.00  0.00    -0.248 NA
ATOM     44  C   UNL A   1      38.341  31.809  31.843  1.00  0.00     0.031 C 
ATOM     45  C   UNL A   1      39.156  28.843  27.862  1.00  0.00     0.029 A 
ATOM     46  N   UNL A   1      40.576  28.662  29.581  1.00  0.00    -0.354 N 
ATOM     47  C   UNL A   1      40.058  31.041  33.149  1.00  0.00     0.074 A 
ATOM     48  C   UNL A   1      38.952  31.966  33.011  1.00  0.00     0.031 C 
ATOM     49  C   UNL A   1      40.059  27.908  27.538  1.00  0.00     0.029 A 
ATOM     50  C   UNL A   1      41.021  27.780  28.625  1.00  0.00     0.049 A 
ATOM     51  H   UNL A   1      41.020  28.786  30.451  1.00  0.00     0.167 HD
ATOM     52  C   UNL A   1      40.839  30.940  34.250  1.00  0.00     0.034 A 
ATOM     53  C   UNL A   1      42.094  26.967  28.618  1.00  0.00     0.034 A 
ATOM     54  C   UNL A   1      41.952  30.035  34.375  1.00  0.00     0.049 A 
ATOM     55  C   UNL A   1      42.975  26.921  29.831  1.00  0.00     0.074 A 
ATOM     56  C   UNL A   1      42.800  29.856  35.455  1.00  0.00     0.029 A 
ATOM     57  N   UNL A   1      42.383  29.168  33.383  1.00  0.00    -0.354 N 
ATOM     58  N   UNL A   1      42.825  27.531  30.981  1.00  0.00    -0.248 NA
ATOM     59  C   UNL A   1      44.161  26.059  29.752  1.00  0.00     0.031 C 
ATOM     60  C   UNL A   1      43.752  28.890  35.109  1.00  0.00     0.029 A 
ATOM     61  C   UNL A   1      43.495  28.465  33.815  1.00  0.00     0.049 A 
ATOM     62  H   UNL A   1      41.961  29.068  32.499  1.00  0.00     0.167 HD
ATOM     63  C   UNL A   1      43.892  27.121  31.769  1.00  0.00     0.074 A 
ATOM     64  C   UNL A   1      44.659  26.180  30.976  1.00  0.00     0.031 C 
ATOM     65  C   UNL A   1      44.224  27.507  33.025  1.00  0.00     0.034 A 
BRANCH  52  66
ATOM     66  C   UNL A   1      40.490  31.796  35.437  1.00  0.00     0.023 A 
ATOM     67  C   UNL A   1      41.320  32.891  35.750  1.00  0.00     0.012 A 
ATOM     68  C   UNL A   1      39.321  31.572  36.189  1.00  0.00     0.148 A 
ATOM     69  C   UNL A   1      40.995  33.749  36.801  1.00  0.00     0.002 A 
ATOM     70  C   UNL A   1      38.993  32.445  37.221  1.00  0.00     0.091 A 
ATOM     71  F   UNL A   1      38.560  30.511  35.886  1.00  0.00    -0.205 F 
ATOM     72  C   UNL A   1      39.829  33.532  37.530  1.00  0.00     0.022 A 
BRANCH  70  73
ATOM     73  S   UNL A   1      37.491  32.279  38.195  1.00  0.00     0.127 S 
ATOM     74  O   UNL A   1      37.295  30.830  38.185  1.00  0.00    -0.237 OA
ATOM     75  O   UNL A   1      37.898  32.831  39.487  1.00  0.00    -0.237 OA
ATOM     76  O   UNL A   1      36.474  33.051  37.495  1.00  0.00    -0.744 OA
ENDBRANCH  70  73
ENDBRANCH  52  66
BRANCH  53  77
ATOM     77  C   UNL A   1      42.354  26.111  27.430  1.00  0.00     0.023 A 
ATOM     78  C   UNL A   1      43.092  26.626  26.348  1.00  0.00     0.012 A 
ATOM     79  C   UNL A   1      41.932  24.768  27.394  1.00  0.00     0.148 A 
ATOM     80  C   UNL A   1      43.393  25.822  25.249  1.00  0.00     0.002 A 
ATOM     81  C   UNL A   1      42.288  23.957  26.324  1.00  0.00     0.091 A 
ATOM     82  F   UNL A   1      41.206  24.295  28.418  1.00  0.00    -0.205 F 
ATOM     83  C   UNL A   1      43.007  24.484  25.242  1.00  0.00     0.022 A 
BRANCH  81  84
ATOM     84  S   UNL A   1      41.945  22.194  26.362  1.00  0.00     0.127 S 
ATOM     85  O   UNL A   1      40.496  22.161  26.202  1.00  0.00    -0.237 OA
ATOM     86  O   UNL A   1      42.703  21.692  25.216  1.00  0.00    -0.237 OA
ATOM     87  O   UNL A   1      42.467  21.754  27.652  1.00  0.00    -0.744 OA
ENDBRANCH  81  84
ENDBRANCH  53  77
BRANCH  65  88
ATOM     88  C   UNL A   1      45.482  26.923  33.607  1.00  0.00     0.023 A 
ATOM     89  C   UNL A   1      46.687  27.647  33.503  1.00  0.00     0.012 A 
ATOM     90  C   UNL A   1      45.472  25.688  34.279  1.00  0.00     0.148 A 
ATOM     91  C   UNL A   1      47.869  27.134  34.033  1.00  0.00     0.002 A 
ATOM     92  C   UNL A   1      46.649  25.201  34.838  1.00  0.00     0.091 A 
ATOM     93  F   UNL A   1      44.324  24.997  34.346  1.00  0.00    -0.205 F 
ATOM     94  C   UNL A   1      47.849  25.916  34.710  1.00  0.00     0.022 A 
BRANCH  92  95
ATOM     95  S   UNL A   1      46.659  23.676  35.788  1.00  0.00     0.127 S 
ATOM     96  O   UNL A   1      45.735  23.989  36.876  1.00  0.00    -0.237 OA
ATOM     97  O   UNL A   1      46.156  22.691  34.828  1.00  0.00    -0.237 OA
ATOM     98  O   UNL A   1      48.053  23.477  36.166  1.00  0.00    -0.744 OA
ENDBRANCH  92  95
ENDBRANCH  65  88
ENDBRANCH  39  40
ENDBRANCH  32  34
ENDBRANCH  31  32
ENDBRANCH  30  31
ENDBRANCH   1  30
TORSDOF 19
ENDMDL
MODEL 3
REMARK VINA RESULT:     -12.0      2.573      4.356
REMARK SMILES Cc1ccnc(C(=O)c2[nH]c3ccc(OC(F)(F)F)cc3c2CC(=O)OCCOC(=O)c2ccc(-c3c4nc(c(-c5cccc(S(=O)(=O)[O-])c5F)c5ccc([nH]5)c(-c5cccc(S(=O)(=O)[O-])c5F)c5nc(c(-c6cccc(S(=O)(=O)[O-])c6F)c6ccc3[nH]6)C=C5)C=C4)cc2)c1
REMARK SMILES IDX 27 1 26 2 24 3 25 4 23 5 22 6 9 7 10 8 11 9 21 11 12 12
REMARK SMILES IDX 20 13 13 14 14 15 7 16 8 17 6 18 1 19 2 20 3 21 95 22 4 23
REMARK SMILES IDX 5 24 15 25 16 26 17 27 18 28 19 29 28 30 29 31 30 32 31 33
REMARK SMILES IDX 32 34 33 35 94 36 34 37 93 38 35 39 36 40 37 41 87 42 38 43
REMARK SMILES IDX 92 44 86 45 88 46 39 47 91 48 85 49 84 50 40 52 72 53 52 54
REMARK SMILES IDX 71 55 53 56 56 57 70 58 89 59 54 60 55 61 69 63 90 64 57 65
REMARK SMILES IDX 41 66 42 67 50 68 43 69 45 70 51 71 44 72 46 73 47 74 48 75
REMARK SMILES IDX 49 76 73 77 74 78 82 79 75 80 77 81 83 82 76 83 78 84 79 85
REMARK SMILES IDX 80 86 81 87 58 88 59 89 67 90 60 91 62 92 68 93 61 94 63 95
REMARK SMILES IDX 64 96 65 97 66 98
REMARK H PARENT 10 10 88 51 56 62
REMARK Flexibility Score: inf
ROOT
ATOM      1  C   UNL A   1      36.609  21.826  24.758  1.00  0.00     0.274 C 
ENDROOT
BRANCH   1   2
ATOM      2  O   UNL A   1      36.119  22.828  25.679  1.00  0.00    -0.462 OA
BRANCH   2   3
ATOM      3  C   UNL A   1      34.901  22.591  26.225  1.00  0.00     0.310 C 
ATOM      4  O   UNL A   1      34.727  21.928  27.246  1.00  0.00    -0.252 OA
BRANCH   3   5
ATOM      5  C   UNL A   1      33.748  23.325  25.576  1.00  0.00     0.161 C 
BRANCH   5   6
ATOM      6  C   UNL A   1      33.328  22.971  24.184  1.00  0.00     0.000 A 
ATOM      7  C   UNL A   1      33.036  23.830  23.123  1.00  0.00     0.093 A 
ATOM      8  N   UNL A   1      32.639  23.047  22.067  1.00  0.00    -0.352 N 
ATOM      9  C   UNL A   1      32.495  21.743  22.448  1.00  0.00     0.046 A 
ATOM     10  H   UNL A   1      32.479  23.382  21.155  1.00  0.00     0.167 HD
ATOM     11  C   UNL A   1      32.989  21.641  23.744  1.00  0.00     0.008 A 
ATOM     12  C   UNL A   1      31.973  20.662  21.739  1.00  0.00     0.030 A 
ATOM     13  C   UNL A   1      33.007  20.362  24.343  1.00  0.00     0.057 A 
ATOM     14  C   UNL A   1      31.975  19.413  22.368  1.00  0.00     0.049 A 
ATOM     15  C   UNL A   1      32.503  19.250  23.648  1.00  0.00     0.130 A 
BRANCH   7  16
ATOM     16  C   UNL A   1      33.110  25.271  22.928  1.00  0.00     0.227 C 
ATOM     17  O   UNL A   1      33.385  25.721  21.816  1.00  0.00    -0.285 OA
BRANCH  16  18
ATOM     18  C   UNL A   1      32.544  26.200  23.980  1.00  0.00     0.113 A 
ATOM     19  C   UNL A   1      33.709  28.331  26.902  1.00  0.00     0.044 C 
ATOM     20  C   UNL A   1      32.843  27.596  25.923  1.00  0.00    -0.047 A 
ATOM     21  C   UNL A   1      31.477  27.461  26.178  1.00  0.00     0.023 A 
ATOM     22  C   UNL A   1      33.381  26.971  24.789  1.00  0.00     0.036 A 
ATOM     23  C   UNL A   1      30.713  26.703  25.308  1.00  0.00     0.112 A 
ATOM     24  N   UNL A   1      31.215  26.064  24.232  1.00  0.00    -0.253 NA
ENDBRANCH  16  18
ENDBRANCH   7  16
BRANCH  15  25
ATOM     25  O   UNL A   1      32.580  18.070  24.338  1.00  0.00    -0.406 OA
BRANCH  25  26
ATOM     26  C   UNL A   1      33.566  17.137  23.933  1.00  0.00     0.573 C 
ATOM     27  F   UNL A   1      33.815  17.232  22.607  1.00  0.00    -0.132 F 
ATOM     28  F   UNL A   1      34.719  17.306  24.617  1.00  0.00    -0.132 F 
ATOM     29  F   UNL A   1      33.116  15.888  24.183  1.00  0.00    -0.132 F 
ENDBRANCH  25  26
ENDBRANCH  15  25
ENDBRANCH   5   6
ENDBRANCH   3   5
ENDBRANCH   2   3
ENDBRANCH   1   2
BRANCH   1  30
ATOM     30  C   UNL A   1      37.542  20.819  25.450  1.00  0.00     0.275 C 
BRANCH  30  31
ATOM     31  O   UNL A   1      38.940  21.143  25.288  1.00  0.00    -0.458 OA
BRANCH  31  32
ATOM     32  C   UNL A   1      39.653  20.996  26.423  1.00  0.00     0.338 C 
ATOM     33  O   UNL A   1      40.065  19.938  26.884  1.00  0.00    -0.246 OA
BRANCH  32  34
ATOM     34  C   UNL A   1      40.041  22.257  27.048  1.00  0.00     0.060 A 
ATOM     35  C   UNL A   1      39.558  23.427  26.465  1.00  0.00     0.016 A 
ATOM     36  C   UNL A   1      41.072  22.301  27.987  1.00  0.00     0.016 A 
ATOM     37  C   UNL A   1      40.166  24.641  26.746  1.00  0.00     0.010 A 
ATOM     38  C   UNL A   1      41.627  23.539  28.334  1.00  0.00     0.010 A 
ATOM     39  C   UNL A   1      41.201  24.712  27.691  1.00  0.00    -0.014 A 
BRANCH  39  40
ATOM     40  C   UNL A   1      41.761  26.046  28.018  1.00  0.00     0.031 A 
ATOM     41  C   UNL A   1      43.144  26.449  27.594  1.00  0.00     0.074 A 
ATOM     42  C   UNL A   1      40.964  26.925  28.654  1.00  0.00     0.049 A 
ATOM     43  N   UNL A   1      43.724  27.619  27.692  1.00  0.00    -0.248 NA
ATOM     44  C   UNL A   1      43.986  25.418  26.968  1.00  0.00     0.031 C 
ATOM     45  C   UNL A   1      39.606  26.638  29.122  1.00  0.00     0.029 A 
ATOM     46  N   UNL A   1      41.169  28.234  29.005  1.00  0.00    -0.354 N 
ATOM     47  C   UNL A   1      44.989  27.470  27.140  1.00  0.00     0.074 A 
ATOM     48  C   UNL A   1      45.106  26.088  26.723  1.00  0.00     0.031 C 
ATOM     49  C   UNL A   1      39.092  27.742  29.680  1.00  0.00     0.029 A 
ATOM     50  C   UNL A   1      40.094  28.800  29.648  1.00  0.00     0.049 A 
ATOM     51  H   UNL A   1      42.003  28.721  28.817  1.00  0.00     0.167 HD
ATOM     52  C   UNL A   1      45.956  28.403  26.979  1.00  0.00     0.034 A 
ATOM     53  C   UNL A   1      39.935  30.032  30.168  1.00  0.00     0.034 A 
ATOM     54  C   UNL A   1      45.846  29.771  27.415  1.00  0.00     0.049 A 
ATOM     55  C   UNL A   1      41.049  31.026  30.025  1.00  0.00     0.074 A 
ATOM     56  C   UNL A   1      46.772  30.792  27.291  1.00  0.00     0.029 A 
ATOM     57  N   UNL A   1      44.750  30.305  28.076  1.00  0.00    -0.354 N 
ATOM     58  N   UNL A   1      42.188  30.902  29.387  1.00  0.00    -0.248 NA
ATOM     59  C   UNL A   1      40.848  32.337  30.655  1.00  0.00     0.031 C 
ATOM     60  C   UNL A   1      46.239  31.941  27.888  1.00  0.00     0.029 A 
ATOM     61  C   UNL A   1      44.981  31.635  28.382  1.00  0.00     0.049 A 
ATOM     62  H   UNL A   1      43.928  29.810  28.296  1.00  0.00     0.167 HD
ATOM     63  C   UNL A   1      42.837  32.120  29.530  1.00  0.00     0.074 A 
ATOM     64  C   UNL A   1      41.946  32.982  30.282  1.00  0.00     0.031 C 
ATOM     65  C   UNL A   1      44.069  32.486  29.101  1.00  0.00     0.034 A 
BRANCH  52  66
ATOM     66  C   UNL A   1      47.209  27.995  26.252  1.00  0.00     0.023 A 
ATOM     67  C   UNL A   1      48.300  27.509  27.000  1.00  0.00     0.012 A 
ATOM     68  C   UNL A   1      47.285  28.016  24.847  1.00  0.00     0.148 A 
ATOM     69  C   UNL A   1      49.454  27.057  26.361  1.00  0.00     0.002 A 
ATOM     70  C   UNL A   1      48.431  27.543  24.215  1.00  0.00     0.091 A 
ATOM     71  F   UNL A   1      46.244  28.503  24.157  1.00  0.00    -0.205 F 
ATOM     72  C   UNL A   1      49.516  27.066  24.970  1.00  0.00     0.022 A 
BRANCH  70  73
ATOM     73  S   UNL A   1      48.598  27.471  22.427  1.00  0.00     0.127 S 
ATOM     74  O   UNL A   1      47.397  28.184  21.993  1.00  0.00    -0.237 OA
ATOM     75  O   UNL A   1      49.851  28.193  22.204  1.00  0.00    -0.237 OA
ATOM     76  O   UNL A   1      48.641  26.056  22.087  1.00  0.00    -0.744 OA
ENDBRANCH  70  73
ENDBRANCH  52  66
BRANCH  53  77
ATOM     77  C   UNL A   1      38.653  30.386  30.832  1.00  0.00     0.023 A 
ATOM     78  C   UNL A   1      38.483  30.125  32.204  1.00  0.00     0.012 A 
ATOM     79  C   UNL A   1      37.624  31.040  30.126  1.00  0.00     0.148 A 
ATOM     80  C   UNL A   1      37.308  30.499  32.857  1.00  0.00     0.002 A 
ATOM     81  C   UNL A   1      36.483  31.463  30.797  1.00  0.00     0.091 A 
ATOM     82  F   UNL A   1      37.785  31.259  28.813  1.00  0.00    -0.205 F 
ATOM     83  C   UNL A   1      36.315  31.182  32.159  1.00  0.00     0.022 A 
BRANCH  81  84
ATOM     84  S   UNL A   1      35.263  32.485  29.964  1.00  0.00     0.127 S 
ATOM     85  O   UNL A   1      34.782  31.592  28.915  1.00  0.00    -0.237 OA
ATOM     86  O   UNL A   1      34.295  32.763  31.025  1.00  0.00    -0.237 OA
ATOM     87  O   UNL A   1      36.013  33.657  29.527  1.00  0.00    -0.744 OA
ENDBRANCH  81  84
ENDBRANCH  53  77
BRANCH  65  88
ATOM     88  C   UNL A   1      44.529  33.874  29.455  1.00  0.00     0.023 A 
ATOM     89  C   UNL A   1      45.247  34.075  30.652  1.00  0.00     0.012 A 
ATOM     90  C   UNL A   1      44.285  34.966  28.603  1.00  0.00     0.148 A 
ATOM     91  C   UNL A   1      45.688  35.348  31.007  1.00  0.00     0.002 A 
ATOM     92  C   UNL A   1      44.762  36.226  28.947  1.00  0.00     0.091 A 
ATOM     93  F   UNL A   1      43.577  34.764  27.481  1.00  0.00    -0.205 F 
ATOM     94  C   UNL A   1      45.455  36.422  30.151  1.00  0.00     0.022 A 
BRANCH  92  95
ATOM     95  S   UNL A   1      44.557  37.626  27.840  1.00  0.00     0.127 S 
ATOM     96  O   UNL A   1      43.206  37.412  27.327  1.00  0.00    -0.237 OA
ATOM     97  O   UNL A   1      44.692  38.774  28.739  1.00  0.00    -0.237 OA
ATOM     98  O   UNL A   1      45.639  37.501  26.871  1.00  0.00    -0.744 OA
ENDBRANCH  92  95
ENDBRANCH  65  88
ENDBRANCH  39  40
ENDBRANCH  32  34
ENDBRANCH  31  32
ENDBRANCH  30  31
ENDBRANCH   1  30
TORSDOF 19
ENDMDL
