MODEL 1
REMARK VINA RESULT:     -11.9      0.000      0.000
REMARK SMILES O=C(OCCOC(=O)[C@@H]1CCCN(C(=O)c2c(F)cc(Br)cc2F)C1)c1ccc(-c2c3nc(c(-c4cccc(S(=O)(=O)[O-])c4F)c4ccc([nH]4)c(-c4cccc(S(=O)(=O)[O-])c4F)c4nc(c(-c5cccc(S(=O)(=O)[O-])c5F)c5ccc2[nH]5)C=C4)C=C3)cc1
REMARK SMILES IDX 4 1 3 2 2 3 1 4 26 5 27 6 88 7 28 8 87 9 29 10 30 11 31 12
REMARK SMILES IDX 81 13 32 14 86 15 80 16 82 17 33 18 85 19 79 20 78 21 34 23
REMARK SMILES IDX 66 24 46 25 65 26 47 27 50 28 64 29 83 30 48 31 49 32 63 34
REMARK SMILES IDX 84 35 51 36 35 37 36 38 44 39 37 40 39 41 45 42 38 43 40 44
REMARK SMILES IDX 41 45 42 46 43 47 67 48 68 49 76 50 69 51 71 52 77 53 70 54
REMARK SMILES IDX 72 55 73 56 74 57 75 58 52 59 53 60 61 61 54 62 56 63 62 64
REMARK SMILES IDX 55 65 57 66 58 67 59 68 60 69 5 70 6 71 7 72 8 73 9 74 10 75
REMARK SMILES IDX 25 76 11 77 13 78 12 79 14 80 15 81 16 82 17 83 23 84 18 85
REMARK SMILES IDX 19 86 22 87 24 88 20 89 21 90
REMARK H PARENT 82 22 50 33
REMARK Flexibility Score: inf
ROOT
ATOM      1  C   UNL A   1      31.784  30.528  26.632  1.00  0.00     0.275 C 
ENDROOT
BRANCH   1   2
ATOM      2  O   UNL A   1      32.766  31.562  26.472  1.00  0.00    -0.458 OA
BRANCH   2   3
ATOM      3  C   UNL A   1      33.472  32.228  27.415  1.00  0.00     0.338 C 
ATOM      4  O   UNL A   1      33.095  33.351  27.750  1.00  0.00    -0.246 OA
BRANCH   3   5
ATOM      5  C   UNL A   1      34.778  31.734  27.960  1.00  0.00     0.060 A 
ATOM      6  C   UNL A   1      35.934  32.496  28.154  1.00  0.00     0.016 A 
ATOM      7  C   UNL A   1      34.807  30.388  28.374  1.00  0.00     0.016 A 
ATOM      8  C   UNL A   1      37.032  31.995  28.854  1.00  0.00     0.010 A 
ATOM      9  C   UNL A   1      35.901  29.879  29.082  1.00  0.00     0.010 A 
ATOM     10  C   UNL A   1      37.012  30.696  29.350  1.00  0.00    -0.014 A 
BRANCH  10  11
ATOM     11  C   UNL A   1      38.234  30.148  29.972  1.00  0.00     0.031 A 
ATOM     12  C   UNL A   1      38.496  30.550  31.388  1.00  0.00     0.074 A 
ATOM     13  C   UNL A   1      39.059  29.304  29.322  1.00  0.00     0.049 A 
ATOM     14  N   UNL A   1      39.505  30.260  32.157  1.00  0.00    -0.248 NA
ATOM     15  C   UNL A   1      37.490  31.429  32.009  1.00  0.00     0.031 C 
ATOM     16  C   UNL A   1      38.891  28.833  27.947  1.00  0.00     0.029 A 
ATOM     17  N   UNL A   1      40.219  28.697  29.736  1.00  0.00    -0.354 N 
ATOM     18  C   UNL A   1      39.283  30.970  33.326  1.00  0.00     0.074 A 
ATOM     19  C   UNL A   1      38.080  31.745  33.145  1.00  0.00     0.031 C 
ATOM     20  C   UNL A   1      39.919  28.028  27.624  1.00  0.00     0.029 A 
ATOM     21  C   UNL A   1      40.827  27.935  28.764  1.00  0.00     0.049 A 
ATOM     22  H   UNL A   1      40.583  28.797  30.645  1.00  0.00     0.167 HD
ATOM     23  C   UNL A   1      39.998  30.951  34.471  1.00  0.00     0.034 A 
ATOM     24  C   UNL A   1      41.990  27.250  28.798  1.00  0.00     0.034 A 
ATOM     25  C   UNL A   1      41.165  30.146  34.653  1.00  0.00     0.049 A 
ATOM     26  C   UNL A   1      42.776  27.237  30.088  1.00  0.00     0.074 A 
ATOM     27  C   UNL A   1      41.951  30.012  35.779  1.00  0.00     0.029 A 
ATOM     28  N   UNL A   1      41.720  29.343  33.667  1.00  0.00    -0.354 N 
ATOM     29  N   UNL A   1      42.497  27.826  31.228  1.00  0.00    -0.248 NA
ATOM     30  C   UNL A   1      44.014  26.443  30.114  1.00  0.00     0.031 C 
ATOM     31  C   UNL A   1      43.005  29.150  35.463  1.00  0.00     0.029 A 
ATOM     32  C   UNL A   1      42.848  28.715  34.154  1.00  0.00     0.049 A 
ATOM     33  H   UNL A   1      41.362  29.238  32.756  1.00  0.00     0.167 HD
ATOM     34  C   UNL A   1      43.499  27.446  32.114  1.00  0.00     0.074 A 
ATOM     35  C   UNL A   1      44.387  26.566  31.382  1.00  0.00     0.031 C 
ATOM     36  C   UNL A   1      43.674  27.795  33.411  1.00  0.00     0.034 A 
BRANCH  23  37
ATOM     37  C   UNL A   1      39.512  31.849  35.572  1.00  0.00     0.023 A 
ATOM     38  C   UNL A   1      38.485  31.417  36.439  1.00  0.00     0.012 A 
ATOM     39  C   UNL A   1      40.003  33.161  35.678  1.00  0.00     0.148 A 
ATOM     40  C   UNL A   1      37.898  32.304  37.338  1.00  0.00     0.002 A 
ATOM     41  C   UNL A   1      39.455  34.021  36.619  1.00  0.00     0.091 A 
ATOM     42  F   UNL A   1      40.956  33.560  34.824  1.00  0.00    -0.205 F 
ATOM     43  C   UNL A   1      38.386  33.605  37.431  1.00  0.00     0.022 A 
BRANCH  41  44
ATOM     44  S   UNL A   1      40.066  35.690  36.866  1.00  0.00     0.127 S 
ATOM     45  O   UNL A   1      39.371  36.080  38.092  1.00  0.00    -0.237 OA
ATOM     46  O   UNL A   1      41.503  35.465  37.024  1.00  0.00    -0.237 OA
ATOM     47  O   UNL A   1      39.695  36.434  35.671  1.00  0.00    -0.744 OA
ENDBRANCH  41  44
ENDBRANCH  23  37
BRANCH  24  48
ATOM     48  C   UNL A   1      42.469  26.499  27.599  1.00  0.00     0.023 A 
ATOM     49  C   UNL A   1      43.239  27.156  26.617  1.00  0.00     0.012 A 
ATOM     50  C   UNL A   1      42.163  25.135  27.425  1.00  0.00     0.148 A 
ATOM     51  C   UNL A   1      43.662  26.478  25.470  1.00  0.00     0.002 A 
ATOM     52  C   UNL A   1      42.629  24.454  26.305  1.00  0.00     0.091 A 
ATOM     53  F   UNL A   1      41.425  24.528  28.364  1.00  0.00    -0.205 F 
ATOM     54  C   UNL A   1      43.364  25.128  25.317  1.00  0.00     0.022 A 
BRANCH  52  55
ATOM     55  S   UNL A   1      42.385  22.689  26.071  1.00  0.00     0.127 S 
ATOM     56  O   UNL A   1      43.068  22.136  27.239  1.00  0.00    -0.237 OA
ATOM     57  O   UNL A   1      40.927  22.585  26.102  1.00  0.00    -0.237 OA
ATOM     58  O   UNL A   1      42.988  22.375  24.784  1.00  0.00    -0.744 OA
ENDBRANCH  52  55
ENDBRANCH  24  48
BRANCH  36  59
ATOM     59  C   UNL A   1      44.832  27.194  34.161  1.00  0.00     0.023 A 
ATOM     60  C   UNL A   1      46.072  27.859  34.195  1.00  0.00     0.012 A 
ATOM     61  C   UNL A   1      44.626  26.056  34.966  1.00  0.00     0.148 A 
ATOM     62  C   UNL A   1      47.095  27.395  35.019  1.00  0.00     0.002 A 
ATOM     63  C   UNL A   1      45.630  25.634  35.826  1.00  0.00     0.091 A 
ATOM     64  F   UNL A   1      43.441  25.433  34.899  1.00  0.00    -0.205 F 
ATOM     65  C   UNL A   1      46.869  26.296  35.847  1.00  0.00     0.022 A 
BRANCH  63  66
ATOM     66  S   UNL A   1      45.382  24.312  37.016  1.00  0.00     0.127 S 
ATOM     67  O   UNL A   1      44.230  24.804  37.770  1.00  0.00    -0.237 OA
ATOM     68  O   UNL A   1      45.103  23.167  36.150  1.00  0.00    -0.237 OA
ATOM     69  O   UNL A   1      46.622  24.212  37.772  1.00  0.00    -0.744 OA
ENDBRANCH  63  66
ENDBRANCH  36  59
ENDBRANCH  10  11
ENDBRANCH   3   5
ENDBRANCH   2   3
ENDBRANCH   1   2
BRANCH   1  70
ATOM     70  C   UNL A   1      32.067  29.231  25.859  1.00  0.00     0.274 C 
BRANCH  70  71
ATOM     71  O   UNL A   1      31.056  28.801  24.925  1.00  0.00    -0.462 OA
BRANCH  71  72
ATOM     72  C   UNL A   1      31.517  28.564  23.657  1.00  0.00     0.310 C 
ATOM     73  O   UNL A   1      32.653  28.832  23.308  1.00  0.00    -0.252 OA
BRANCH  72  74
ATOM     74  C   UNL A   1      30.457  27.886  22.780  1.00  0.00     0.119 C 
ATOM     75  C   UNL A   1      29.438  27.125  23.616  1.00  0.00     0.019 C 
ATOM     76  C   UNL A   1      31.068  26.890  21.797  1.00  0.00     0.135 C 
ATOM     77  C   UNL A   1      30.048  25.944  24.367  1.00  0.00     0.022 C 
ATOM     78  N   UNL A   1      31.694  25.780  22.516  1.00  0.00    -0.338 N 
ATOM     79  C   UNL A   1      30.808  25.025  23.415  1.00  0.00     0.120 C 
BRANCH  78  80
ATOM     80  C   UNL A   1      33.077  25.663  22.408  1.00  0.00     0.259 C 
ATOM     81  O   UNL A   1      33.761  26.351  21.650  1.00  0.00    -0.269 OA
BRANCH  80  82
ATOM     82  C   UNL A   1      33.806  24.722  23.254  1.00  0.00     0.111 A 
ATOM     83  C   UNL A   1      34.048  23.417  22.844  1.00  0.00     0.140 A 
ATOM     84  C   UNL A   1      34.378  25.183  24.440  1.00  0.00     0.140 A 
ATOM     85  F   UNL A   1      33.544  22.951  21.691  1.00  0.00    -0.206 F 
ATOM     86  C   UNL A   1      34.824  22.561  23.621  1.00  0.00     0.056 A 
ATOM     87  C   UNL A   1      35.160  24.342  25.225  1.00  0.00     0.056 A 
ATOM     88  F   UNL A   1      34.209  26.447  24.851  1.00  0.00    -0.206 F 
ATOM     89  C   UNL A   1      35.382  23.032  24.809  1.00  0.00     0.023 A 
ATOM     90  Br  UNL A   1      36.474  21.894  25.848  1.00  0.00    -0.051 Br
ENDBRANCH  80  82
ENDBRANCH  78  80
ENDBRANCH  72  74
ENDBRANCH  71  72
ENDBRANCH  70  71
ENDBRANCH   1  70
TORSDOF 16
ENDMDL
MODEL 2
REMARK VINA RESULT:     -11.9      1.243      1.806
REMARK SMILES O=C(OCCOC(=O)[C@@H]1CCCN(C(=O)c2c(F)cc(Br)cc2F)C1)c1ccc(-c2c3nc(c(-c4cccc(S(=O)(=O)[O-])c4F)c4ccc([nH]4)c(-c4cccc(S(=O)(=O)[O-])c4F)c4nc(c(-c5cccc(S(=O)(=O)[O-])c5F)c5ccc2[nH]5)C=C4)C=C3)cc1
REMARK SMILES IDX 4 1 3 2 2 3 1 4 26 5 27 6 88 7 28 8 87 9 29 10 30 11 31 12
REMARK SMILES IDX 81 13 32 14 86 15 80 16 82 17 33 18 85 19 79 20 78 21 34 23
REMARK SMILES IDX 66 24 46 25 65 26 47 27 50 28 64 29 83 30 48 31 49 32 63 34
REMARK SMILES IDX 84 35 51 36 35 37 36 38 44 39 37 40 39 41 45 42 38 43 40 44
REMARK SMILES IDX 41 45 42 46 43 47 67 48 68 49 76 50 69 51 71 52 77 53 70 54
REMARK SMILES IDX 72 55 73 56 74 57 75 58 52 59 53 60 61 61 54 62 56 63 62 64
REMARK SMILES IDX 55 65 57 66 58 67 59 68 60 69 5 70 6 71 7 72 8 73 9 74 10 75
REMARK SMILES IDX 25 76 11 77 13 78 12 79 14 80 15 81 16 82 17 83 23 84 18 85
REMARK SMILES IDX 19 86 22 87 24 88 20 89 21 90
REMARK H PARENT 82 22 50 33
REMARK Flexibility Score: inf
ROOT
ATOM      1  C   UNL A   1      31.912  30.494  26.752  1.00  0.00     0.275 C 
ENDROOT
BRANCH   1   2
ATOM      2  O   UNL A   1      33.042  31.359  26.562  1.00  0.00    -0.458 OA
BRANCH   2   3
ATOM      3  C   UNL A   1      33.775  32.026  27.484  1.00  0.00     0.338 C 
ATOM      4  O   UNL A   1      33.417  33.156  27.815  1.00  0.00    -0.246 OA
BRANCH   3   5
ATOM      5  C   UNL A   1      35.086  31.522  28.007  1.00  0.00     0.060 A 
ATOM      6  C   UNL A   1      36.237  32.285  28.225  1.00  0.00     0.016 A 
ATOM      7  C   UNL A   1      35.126  30.162  28.372  1.00  0.00     0.016 A 
ATOM      8  C   UNL A   1      37.341  31.768  28.902  1.00  0.00     0.010 A 
ATOM      9  C   UNL A   1      36.227  29.636  29.058  1.00  0.00     0.010 A 
ATOM     10  C   UNL A   1      37.333  30.452  29.352  1.00  0.00    -0.014 A 
BRANCH  10  11
ATOM     11  C   UNL A   1      38.561  29.891  29.950  1.00  0.00     0.031 A 
ATOM     12  C   UNL A   1      38.902  30.359  31.328  1.00  0.00     0.074 A 
ATOM     13  C   UNL A   1      39.324  28.981  29.313  1.00  0.00     0.049 A 
ATOM     14  N   UNL A   1      39.934  30.071  32.068  1.00  0.00    -0.248 NA
ATOM     15  C   UNL A   1      37.957  31.308  31.943  1.00  0.00     0.031 C 
ATOM     16  C   UNL A   1      39.076  28.444  27.975  1.00  0.00     0.029 A 
ATOM     17  N   UNL A   1      40.478  28.352  29.710  1.00  0.00    -0.354 N 
ATOM     18  C   UNL A   1      39.791  30.852  33.205  1.00  0.00     0.074 A 
ATOM     19  C   UNL A   1      38.610  31.661  33.033  1.00  0.00     0.031 C 
ATOM     20  C   UNL A   1      40.059  27.583  27.653  1.00  0.00     0.029 A 
ATOM     21  C   UNL A   1      41.014  27.516  28.756  1.00  0.00     0.049 A 
ATOM     22  H   UNL A   1      40.887  28.487  30.595  1.00  0.00     0.167 HD
ATOM     23  C   UNL A   1      40.555  30.867  34.316  1.00  0.00     0.034 A 
ATOM     24  C   UNL A   1      42.151  26.789  28.778  1.00  0.00     0.034 A 
ATOM     25  C   UNL A   1      41.699  30.028  34.492  1.00  0.00     0.049 A 
ATOM     26  C   UNL A   1      42.993  26.815  30.031  1.00  0.00     0.074 A 
ATOM     27  C   UNL A   1      42.530  29.924  35.589  1.00  0.00     0.029 A 
ATOM     28  N   UNL A   1      42.180  29.151  33.529  1.00  0.00    -0.354 N 
ATOM     29  N   UNL A   1      42.789  27.476  31.147  1.00  0.00    -0.248 NA
ATOM     30  C   UNL A   1      44.202  25.976  30.047  1.00  0.00     0.031 C 
ATOM     31  C   UNL A   1      43.537  29.006  35.276  1.00  0.00     0.029 A 
ATOM     32  C   UNL A   1      43.304  28.507  34.001  1.00  0.00     0.049 A 
ATOM     33  H   UNL A   1      41.777  29.011  32.642  1.00  0.00     0.167 HD
ATOM     34  C   UNL A   1      43.815  27.105  32.009  1.00  0.00     0.074 A 
ATOM     35  C   UNL A   1      44.637  26.153  31.289  1.00  0.00     0.031 C 
ATOM     36  C   UNL A   1      44.062  27.517  33.276  1.00  0.00     0.034 A 
BRANCH  23  37
ATOM     37  C   UNL A   1      40.154  31.841  35.386  1.00  0.00     0.023 A 
ATOM     38  C   UNL A   1      40.889  33.032  35.573  1.00  0.00     0.012 A 
ATOM     39  C   UNL A   1      39.111  31.523  36.272  1.00  0.00     0.148 A 
ATOM     40  C   UNL A   1      40.645  33.848  36.675  1.00  0.00     0.002 A 
ATOM     41  C   UNL A   1      38.834  32.373  37.333  1.00  0.00     0.091 A 
ATOM     42  F   UNL A   1      38.447  30.372  36.094  1.00  0.00    -0.205 F 
ATOM     43  C   UNL A   1      39.615  33.521  37.553  1.00  0.00     0.022 A 
BRANCH  41  44
ATOM     44  S   UNL A   1      37.480  32.077  38.472  1.00  0.00     0.127 S 
ATOM     45  O   UNL A   1      38.078  32.464  39.749  1.00  0.00    -0.237 OA
ATOM     46  O   UNL A   1      36.458  32.997  37.972  1.00  0.00    -0.237 OA
ATOM     47  O   UNL A   1      37.145  30.666  38.340  1.00  0.00    -0.744 OA
ENDBRANCH  41  44
ENDBRANCH  23  37
BRANCH  24  48
ATOM     48  C   UNL A   1      42.548  25.956  27.603  1.00  0.00     0.023 A 
ATOM     49  C   UNL A   1      43.344  26.512  26.581  1.00  0.00     0.012 A 
ATOM     50  C   UNL A   1      42.136  24.614  27.491  1.00  0.00     0.148 A 
ATOM     51  C   UNL A   1      43.691  25.759  25.456  1.00  0.00     0.002 A 
ATOM     52  C   UNL A   1      42.526  23.855  26.392  1.00  0.00     0.091 A 
ATOM     53  F   UNL A   1      41.374  24.103  28.468  1.00  0.00    -0.205 F 
ATOM     54  C   UNL A   1      43.289  24.430  25.365  1.00  0.00     0.022 A 
BRANCH  52  55
ATOM     55  S   UNL A   1      42.145  22.105  26.237  1.00  0.00     0.127 S 
ATOM     56  O   UNL A   1      40.705  22.133  25.992  1.00  0.00    -0.237 OA
ATOM     57  O   UNL A   1      42.961  21.726  25.084  1.00  0.00    -0.237 OA
ATOM     58  O   UNL A   1      42.557  21.499  27.495  1.00  0.00    -0.744 OA
ENDBRANCH  52  55
ENDBRANCH  24  48
BRANCH  36  59
ATOM     59  C   UNL A   1      45.230  26.912  34.007  1.00  0.00     0.023 A 
ATOM     60  C   UNL A   1      46.478  27.563  34.003  1.00  0.00     0.012 A 
ATOM     61  C   UNL A   1      45.030  25.788  34.833  1.00  0.00     0.148 A 
ATOM     62  C   UNL A   1      47.514  27.098  34.809  1.00  0.00     0.002 A 
ATOM     63  C   UNL A   1      46.048  25.366  35.675  1.00  0.00     0.091 A 
ATOM     64  F   UNL A   1      43.836  25.178  34.803  1.00  0.00    -0.205 F 
ATOM     65  C   UNL A   1      47.295  26.014  35.658  1.00  0.00     0.022 A 
BRANCH  63  66
ATOM     66  S   UNL A   1      45.813  24.064  36.889  1.00  0.00     0.127 S 
ATOM     67  O   UNL A   1      45.269  22.985  36.065  1.00  0.00    -0.237 OA
ATOM     68  O   UNL A   1      47.176  23.840  37.368  1.00  0.00    -0.237 OA
ATOM     69  O   UNL A   1      44.900  24.602  37.887  1.00  0.00    -0.744 OA
ENDBRANCH  63  66
ENDBRANCH  36  59
ENDBRANCH  10  11
ENDBRANCH   3   5
ENDBRANCH   2   3
ENDBRANCH   1   2
BRANCH   1  70
ATOM     70  C   UNL A   1      32.067  29.078  26.177  1.00  0.00     0.274 C 
BRANCH  70  71
ATOM     71  O   UNL A   1      31.081  28.659  25.212  1.00  0.00    -0.462 OA
BRANCH  71  72
ATOM     72  C   UNL A   1      31.545  28.572  23.926  1.00  0.00     0.310 C 
ATOM     73  O   UNL A   1      32.685  28.871  23.615  1.00  0.00    -0.252 OA
BRANCH  72  74
ATOM     74  C   UNL A   1      30.483  28.012  22.971  1.00  0.00     0.119 C 
ATOM     75  C   UNL A   1      29.441  27.187  23.712  1.00  0.00     0.019 C 
ATOM     76  C   UNL A   1      31.088  27.114  21.895  1.00  0.00     0.135 C 
ATOM     77  C   UNL A   1      30.019  25.921  24.339  1.00  0.00     0.022 C 
ATOM     78  N   UNL A   1      31.685  25.921  22.498  1.00  0.00    -0.338 N 
ATOM     79  C   UNL A   1      30.774  25.093  23.303  1.00  0.00     0.120 C 
BRANCH  78  80
ATOM     80  C   UNL A   1      33.066  25.790  22.392  1.00  0.00     0.259 C 
ATOM     81  O   UNL A   1      33.757  26.457  21.621  1.00  0.00    -0.269 OA
BRANCH  80  82
ATOM     82  C   UNL A   1      33.787  24.858  23.256  1.00  0.00     0.111 A 
ATOM     83  C   UNL A   1      34.187  25.218  24.536  1.00  0.00     0.140 A 
ATOM     84  C   UNL A   1      33.962  23.542  22.829  1.00  0.00     0.140 A 
ATOM     85  F   UNL A   1      34.000  26.465  24.992  1.00  0.00    -0.206 F 
ATOM     86  C   UNL A   1      34.789  24.287  25.379  1.00  0.00     0.056 A 
ATOM     87  C   UNL A   1      34.558  22.599  23.661  1.00  0.00     0.056 A 
ATOM     88  F   UNL A   1      33.549  23.139  21.619  1.00  0.00    -0.206 F 
ATOM     89  C   UNL A   1      34.967  22.977  24.937  1.00  0.00     0.023 A 
ATOM     90  Br  UNL A   1      35.741  21.696  26.088  1.00  0.00    -0.051 Br
ENDBRANCH  80  82
ENDBRANCH  78  80
ENDBRANCH  72  74
ENDBRANCH  71  72
ENDBRANCH  70  71
ENDBRANCH   1  70
TORSDOF 16
ENDMDL
MODEL 3
REMARK VINA RESULT:     -11.8      5.007     10.141
REMARK SMILES O=C(OCCOC(=O)[C@@H]1CCCN(C(=O)c2c(F)cc(Br)cc2F)C1)c1ccc(-c2c3nc(c(-c4cccc(S(=O)(=O)[O-])c4F)c4ccc([nH]4)c(-c4cccc(S(=O)(=O)[O-])c4F)c4nc(c(-c5cccc(S(=O)(=O)[O-])c5F)c5ccc2[nH]5)C=C4)C=C3)cc1
REMARK SMILES IDX 4 1 3 2 2 3 1 4 26 5 27 6 88 7 28 8 87 9 29 10 30 11 31 12
REMARK SMILES IDX 81 13 32 14 86 15 80 16 82 17 33 18 85 19 79 20 78 21 34 23
REMARK SMILES IDX 66 24 46 25 65 26 47 27 50 28 64 29 83 30 48 31 49 32 63 34
REMARK SMILES IDX 84 35 51 36 35 37 36 38 44 39 37 40 39 41 45 42 38 43 40 44
REMARK SMILES IDX 41 45 42 46 43 47 67 48 68 49 76 50 69 51 71 52 77 53 70 54
REMARK SMILES IDX 72 55 73 56 74 57 75 58 52 59 53 60 61 61 54 62 56 63 62 64
REMARK SMILES IDX 55 65 57 66 58 67 59 68 60 69 5 70 6 71 7 72 8 73 9 74 10 75
REMARK SMILES IDX 25 76 11 77 13 78 12 79 14 80 15 81 16 82 17 83 23 84 18 85
REMARK SMILES IDX 19 86 22 87 24 88 20 89 21 90
REMARK H PARENT 82 22 50 33
REMARK Flexibility Score: inf
ROOT
ATOM      1  C   UNL A   1      37.228  20.510  25.155  1.00  0.00     0.275 C 
ENDROOT
BRANCH   1   2
ATOM      2  O   UNL A   1      38.601  20.925  25.164  1.00  0.00    -0.458 OA
BRANCH   2   3
ATOM      3  C   UNL A   1      39.461  21.020  26.205  1.00  0.00     0.338 C 
ATOM      4  O   UNL A   1      39.746  19.998  26.829  1.00  0.00    -0.246 OA
BRANCH   3   5
ATOM      5  C   UNL A   1      39.964  22.329  26.735  1.00  0.00     0.060 A 
ATOM      6  C   UNL A   1      40.954  22.502  27.707  1.00  0.00     0.016 A 
ATOM      7  C   UNL A   1      39.425  23.486  26.140  1.00  0.00     0.016 A 
ATOM      8  C   UNL A   1      41.493  23.758  27.986  1.00  0.00     0.010 A 
ATOM      9  C   UNL A   1      39.964  24.749  26.409  1.00  0.00     0.010 A 
ATOM     10  C   UNL A   1      41.026  24.885  27.318  1.00  0.00    -0.014 A 
BRANCH  10  11
ATOM     11  C   UNL A   1      41.522  26.215  27.724  1.00  0.00     0.031 A 
ATOM     12  C   UNL A   1      42.915  26.561  27.306  1.00  0.00     0.074 A 
ATOM     13  C   UNL A   1      40.760  27.093  28.406  1.00  0.00     0.049 A 
ATOM     14  N   UNL A   1      43.615  27.629  27.561  1.00  0.00    -0.248 NA
ATOM     15  C   UNL A   1      43.625  25.542  26.512  1.00  0.00     0.031 C 
ATOM     16  C   UNL A   1      39.384  26.865  28.850  1.00  0.00     0.029 A 
ATOM     17  N   UNL A   1      41.044  28.358  28.855  1.00  0.00    -0.354 N 
ATOM     18  C   UNL A   1      44.863  27.380  27.013  1.00  0.00     0.074 A 
ATOM     19  C   UNL A   1      44.843  26.047  26.464  1.00  0.00     0.031 C 
ATOM     20  C   UNL A   1      38.952  27.946  29.525  1.00  0.00     0.029 A 
ATOM     21  C   UNL A   1      40.023  28.938  29.574  1.00  0.00     0.049 A 
ATOM     22  H   UNL A   1      41.901  28.811  28.680  1.00  0.00     0.167 HD
ATOM     23  C   UNL A   1      45.928  28.206  26.937  1.00  0.00     0.034 A 
ATOM     24  C   UNL A   1      39.971  30.131  30.203  1.00  0.00     0.034 A 
ATOM     25  C   UNL A   1      45.921  29.542  27.447  1.00  0.00     0.049 A 
ATOM     26  C   UNL A   1      41.170  31.044  30.105  1.00  0.00     0.074 A 
ATOM     27  C   UNL A   1      46.925  30.488  27.395  1.00  0.00     0.029 A 
ATOM     28  N   UNL A   1      44.851  30.116  28.118  1.00  0.00    -0.354 N 
ATOM     29  N   UNL A   1      42.311  30.842  29.487  1.00  0.00    -0.248 NA
ATOM     30  C   UNL A   1      41.070  32.359  30.757  1.00  0.00     0.031 C 
ATOM     31  C   UNL A   1      46.472  31.627  28.066  1.00  0.00     0.029 A 
ATOM     32  C   UNL A   1      45.170  31.403  28.496  1.00  0.00     0.049 A 
ATOM     33  H   UNL A   1      43.992  29.670  28.297  1.00  0.00     0.167 HD
ATOM     34  C   UNL A   1      43.046  32.012  29.642  1.00  0.00     0.074 A 
ATOM     35  C   UNL A   1      42.218  32.924  30.404  1.00  0.00     0.031 C 
ATOM     36  C   UNL A   1      44.294  32.305  29.202  1.00  0.00     0.034 A 
BRANCH  23  37
ATOM     37  C   UNL A   1      47.161  27.643  26.291  1.00  0.00     0.023 A 
ATOM     38  C   UNL A   1      47.355  27.773  24.899  1.00  0.00     0.012 A 
ATOM     39  C   UNL A   1      48.074  26.893  27.052  1.00  0.00     0.148 A 
ATOM     40  C   UNL A   1      48.393  27.096  24.263  1.00  0.00     0.002 A 
ATOM     41  C   UNL A   1      49.140  26.271  26.420  1.00  0.00     0.091 A 
ATOM     42  F   UNL A   1      47.852  26.756  28.367  1.00  0.00    -0.205 F 
ATOM     43  C   UNL A   1      49.288  26.349  25.024  1.00  0.00     0.022 A 
BRANCH  41  44
ATOM     44  S   UNL A   1      50.388  25.351  27.322  1.00  0.00     0.127 S 
ATOM     45  O   UNL A   1      49.613  24.214  27.819  1.00  0.00    -0.237 OA
ATOM     46  O   UNL A   1      51.345  25.023  26.266  1.00  0.00    -0.237 OA
ATOM     47  O   UNL A   1      50.895  26.257  28.342  1.00  0.00    -0.744 OA
ENDBRANCH  41  44
ENDBRANCH  23  37
BRANCH  24  48
ATOM     48  C   UNL A   1      38.746  30.549  30.949  1.00  0.00     0.023 A 
ATOM     49  C   UNL A   1      38.624  30.258  32.323  1.00  0.00     0.012 A 
ATOM     50  C   UNL A   1      37.698  31.231  30.300  1.00  0.00     0.148 A 
ATOM     51  C   UNL A   1      37.468  30.607  33.026  1.00  0.00     0.002 A 
ATOM     52  C   UNL A   1      36.571  31.619  31.018  1.00  0.00     0.091 A 
ATOM     53  F   UNL A   1      37.827  31.494  28.993  1.00  0.00    -0.205 F 
ATOM     54  C   UNL A   1      36.446  31.293  32.377  1.00  0.00     0.022 A 
BRANCH  52  55
ATOM     55  S   UNL A   1      35.249  32.598  30.294  1.00  0.00     0.127 S 
ATOM     56  O   UNL A   1      35.951  33.826  29.931  1.00  0.00    -0.237 OA
ATOM     57  O   UNL A   1      34.844  31.760  29.166  1.00  0.00    -0.237 OA
ATOM     58  O   UNL A   1      34.243  32.735  31.338  1.00  0.00    -0.744 OA
ENDBRANCH  52  55
ENDBRANCH  24  48
BRANCH  36  59
ATOM     59  C   UNL A   1      44.839  33.681  29.472  1.00  0.00     0.023 A 
ATOM     60  C   UNL A   1      45.566  33.934  30.650  1.00  0.00     0.012 A 
ATOM     61  C   UNL A   1      44.769  34.668  28.468  1.00  0.00     0.148 A 
ATOM     62  C   UNL A   1      46.212  35.155  30.829  1.00  0.00     0.002 A 
ATOM     63  C   UNL A   1      45.463  35.859  28.629  1.00  0.00     0.091 A 
ATOM     64  F   UNL A   1      44.056  34.406  27.364  1.00  0.00    -0.205 F 
ATOM     65  C   UNL A   1      46.177  36.109  29.813  1.00  0.00     0.022 A 
BRANCH  63  66
ATOM     66  S   UNL A   1      45.578  37.087  27.322  1.00  0.00     0.127 S 
ATOM     67  O   UNL A   1      44.178  37.472  27.154  1.00  0.00    -0.237 OA
ATOM     68  O   UNL A   1      46.424  38.109  27.936  1.00  0.00    -0.237 OA
ATOM     69  O   UNL A   1      46.176  36.408  26.182  1.00  0.00    -0.744 OA
ENDBRANCH  63  66
ENDBRANCH  36  59
ENDBRANCH  10  11
ENDBRANCH   3   5
ENDBRANCH   2   3
ENDBRANCH   1   2
BRANCH   1  70
ATOM     70  C   UNL A   1      36.200  21.643  25.294  1.00  0.00     0.274 C 
BRANCH  70  71
ATOM     71  O   UNL A   1      34.899  21.411  24.717  1.00  0.00    -0.462 OA
BRANCH  71  72
ATOM     72  C   UNL A   1      33.886  21.284  25.632  1.00  0.00     0.310 C 
ATOM     73  O   UNL A   1      34.029  21.545  26.813  1.00  0.00    -0.252 OA
BRANCH  72  74
ATOM     74  C   UNL A   1      32.574  20.837  24.975  1.00  0.00     0.119 C 
ATOM     75  C   UNL A   1      32.580  21.095  23.475  1.00  0.00     0.019 C 
ATOM     76  C   UNL A   1      31.361  21.560  25.552  1.00  0.00     0.135 C 
ATOM     77  C   UNL A   1      32.631  22.581  23.128  1.00  0.00     0.022 C 
ATOM     78  N   UNL A   1      31.431  22.993  25.261  1.00  0.00    -0.338 N 
ATOM     79  C   UNL A   1      31.518  23.347  23.836  1.00  0.00     0.120 C 
BRANCH  78  80
ATOM     80  C   UNL A   1      31.579  23.848  26.349  1.00  0.00     0.259 C 
ATOM     81  O   UNL A   1      31.470  23.484  27.521  1.00  0.00    -0.269 OA
BRANCH  80  82
ATOM     82  C   UNL A   1      31.930  25.250  26.142  1.00  0.00     0.111 A 
ATOM     83  C   UNL A   1      30.964  26.249  26.161  1.00  0.00     0.140 A 
ATOM     84  C   UNL A   1      33.276  25.603  26.051  1.00  0.00     0.140 A 
ATOM     85  F   UNL A   1      29.663  25.948  26.284  1.00  0.00    -0.206 F 
ATOM     86  C   UNL A   1      31.327  27.589  26.055  1.00  0.00     0.056 A 
ATOM     87  C   UNL A   1      33.656  26.938  25.950  1.00  0.00     0.056 A 
ATOM     88  F   UNL A   1      34.244  24.676  26.076  1.00  0.00    -0.206 F 
ATOM     89  C   UNL A   1      32.676  27.927  25.955  1.00  0.00     0.023 A 
ATOM     90  Br  UNL A   1      33.183  29.744  25.858  1.00  0.00    -0.051 Br
ENDBRANCH  80  82
ENDBRANCH  78  80
ENDBRANCH  72  74
ENDBRANCH  71  72
ENDBRANCH  70  71
ENDBRANCH   1  70
TORSDOF 16
ENDMDL
