MODEL 1
REMARK VINA RESULT:     -12.4      0.000      0.000
REMARK SMILES Cc1cc2[nH]c(=O)[nH]c2cc1S(=O)(=O)NCCC(=O)OCCOC(=O)c1ccc(-c2c3nc(c(-c4cccc(S(=O)(=O)[O-])c4F)c4ccc([nH]4)c(-c4cccc(S(=O)(=O)[O-])c4F)c4nc(c(-c5cccc(S(=O)(=O)[O-])c5F)c5ccc2[nH]5)C=C4)C=C3)cc1
REMARK SMILES IDX 21 1 20 2 18 3 19 4 17 5 16 6 15 7 12 9 13 10 14 11 11 12
REMARK SMILES IDX 1 13 2 14 3 15 4 16 10 17 5 18 9 19 6 20 8 22 7 23 22 25
REMARK SMILES IDX 23 26 24 27 25 28 26 29 27 30 88 31 28 32 87 33 29 34 30 35
REMARK SMILES IDX 31 36 81 37 32 38 86 39 80 40 82 41 33 42 85 43 79 44 78 45
REMARK SMILES IDX 34 47 66 48 46 49 65 50 47 51 50 52 64 53 83 54 48 55 49 56
REMARK SMILES IDX 63 58 84 59 51 60 35 61 36 62 44 63 37 64 39 65 45 66 38 67
REMARK SMILES IDX 40 68 41 69 42 70 43 71 67 72 68 73 76 74 69 75 71 76 77 77
REMARK SMILES IDX 70 78 72 79 73 80 74 81 75 82 52 83 53 84 61 85 54 86 56 87
REMARK SMILES IDX 62 88 55 89 57 90 58 91 59 92 60 93
REMARK H PARENT 15 8 5 21 8 24 82 46 50 57
REMARK Flexibility Score: inf
ROOT
ATOM      1  C   UNL A   1      33.768  21.494  25.780  1.00  0.00     0.274 C 
ENDROOT
BRANCH   1   2
ATOM      2  O   UNL A   1      32.590  20.970  25.143  1.00  0.00    -0.462 OA
BRANCH   2   3
ATOM      3  C   UNL A   1      32.133  21.692  24.090  1.00  0.00     0.307 C 
ATOM      4  O   UNL A   1      32.233  21.364  22.915  1.00  0.00    -0.252 OA
BRANCH   3   5
ATOM      5  C   UNL A   1      31.498  22.974  24.523  1.00  0.00     0.139 C 
BRANCH   5   6
ATOM      6  C   UNL A   1      31.039  23.909  23.440  1.00  0.00     0.110 C 
BRANCH   6   7
ATOM      7  N   UNL A   1      32.066  24.272  22.469  1.00  0.00    -0.211 NA
ATOM      8  H   UNL A   1      32.936  23.852  22.796  1.00  0.00     0.141 HD
BRANCH   7   9
ATOM      9  S   UNL A   1      32.410  25.875  22.130  1.00  0.00     0.240 S 
ATOM     10  O   UNL A   1      31.298  26.387  21.375  1.00  0.00    -0.207 OA
ATOM     11  O   UNL A   1      33.745  25.873  21.550  1.00  0.00    -0.207 OA
BRANCH   9  12
ATOM     12  C   UNL A   1      32.507  26.743  23.682  1.00  0.00     0.087 A 
ATOM     13  C   UNL A   1      34.384  25.259  24.709  1.00  0.00     0.046 C 
ATOM     14  C   UNL A   1      33.431  26.423  24.725  1.00  0.00    -0.029 A 
ATOM     15  C   UNL A   1      33.484  27.248  25.871  1.00  0.00     0.033 A 
ATOM     16  C   UNL A   1      32.724  28.393  25.872  1.00  0.00     0.067 A 
ATOM     17  C   UNL A   1      31.657  27.866  23.772  1.00  0.00     0.050 A 
ATOM     18  N   UNL A   1      32.750  29.469  26.747  1.00  0.00    -0.306 N 
ATOM     19  C   UNL A   1      31.832  28.692  24.851  1.00  0.00     0.068 A 
ATOM     20  C   UNL A   1      31.906  30.474  26.251  1.00  0.00     0.323 A 
ATOM     21  H   UNL A   1      33.274  29.518  27.579  1.00  0.00     0.171 HD
ATOM     22  N   UNL A   1      31.300  29.950  25.096  1.00  0.00    -0.306 N 
ATOM     23  O   UNL A   1      31.827  31.624  26.646  1.00  0.00    -0.248 OA
ATOM     24  H   UNL A   1      30.614  30.400  24.552  1.00  0.00     0.171 HD
ENDBRANCH   9  12
ENDBRANCH   7   9
ENDBRANCH   6   7
ENDBRANCH   5   6
ENDBRANCH   3   5
ENDBRANCH   2   3
ENDBRANCH   1   2
BRANCH   1  25
ATOM     25  C   UNL A   1      35.011  20.915  25.100  1.00  0.00     0.275 C 
BRANCH  25  26
ATOM     26  O   UNL A   1      36.186  21.478  25.709  1.00  0.00    -0.458 OA
BRANCH  26  27
ATOM     27  C   UNL A   1      37.354  20.806  25.538  1.00  0.00     0.338 C 
ATOM     28  O   UNL A   1      37.496  19.721  24.998  1.00  0.00    -0.246 OA
BRANCH  27  29
ATOM     29  C   UNL A   1      38.453  21.772  25.782  1.00  0.00     0.060 A 
ATOM     30  C   UNL A   1      39.714  21.333  26.196  1.00  0.00     0.016 A 
ATOM     31  C   UNL A   1      38.107  23.124  25.886  1.00  0.00     0.016 A 
ATOM     32  C   UNL A   1      40.525  22.198  26.922  1.00  0.00     0.010 A 
ATOM     33  C   UNL A   1      38.917  23.984  26.624  1.00  0.00     0.010 A 
ATOM     34  C   UNL A   1      40.078  23.490  27.228  1.00  0.00    -0.014 A 
BRANCH  34  35
ATOM     35  C   UNL A   1      40.962  24.379  27.982  1.00  0.00     0.031 A 
ATOM     36  C   UNL A   1      40.319  25.699  28.172  1.00  0.00     0.074 A 
ATOM     37  C   UNL A   1      42.189  24.150  28.509  1.00  0.00     0.049 A 
ATOM     38  N   UNL A   1      40.575  26.762  27.485  1.00  0.00    -0.248 NA
ATOM     39  C   UNL A   1      39.144  25.800  29.045  1.00  0.00     0.031 C 
ATOM     40  C   UNL A   1      43.006  22.941  28.563  1.00  0.00     0.029 A 
ATOM     41  N   UNL A   1      42.971  25.028  29.205  1.00  0.00    -0.354 N 
ATOM     42  C   UNL A   1      39.746  27.740  28.007  1.00  0.00     0.074 A 
ATOM     43  C   UNL A   1      38.764  27.057  28.814  1.00  0.00     0.031 C 
ATOM     44  C   UNL A   1      43.999  23.069  29.474  1.00  0.00     0.029 A 
ATOM     45  C   UNL A   1      44.030  24.450  29.902  1.00  0.00     0.049 A 
ATOM     46  H   UNL A   1      42.799  25.998  29.214  1.00  0.00     0.167 HD
ATOM     47  C   UNL A   1      40.083  29.053  27.945  1.00  0.00     0.034 A 
ATOM     48  C   UNL A   1      44.930  25.074  30.703  1.00  0.00     0.034 A 
ATOM     49  C   UNL A   1      41.138  29.308  27.002  1.00  0.00     0.049 A 
ATOM     50  C   UNL A   1      44.978  26.476  30.247  1.00  0.00     0.074 A 
ATOM     51  C   UNL A   1      41.306  29.096  25.646  1.00  0.00     0.029 A 
ATOM     52  N   UNL A   1      42.402  29.494  27.507  1.00  0.00    -0.354 N 
ATOM     53  N   UNL A   1      45.468  26.828  29.092  1.00  0.00    -0.248 NA
ATOM     54  C   UNL A   1      44.091  27.429  30.887  1.00  0.00     0.031 C 
ATOM     55  C   UNL A   1      42.662  28.672  25.505  1.00  0.00     0.029 A 
ATOM     56  C   UNL A   1      43.247  28.705  26.771  1.00  0.00     0.049 A 
ATOM     57  H   UNL A   1      42.652  30.082  28.256  1.00  0.00     0.167 HD
ATOM     58  C   UNL A   1      44.605  27.818  28.653  1.00  0.00     0.074 A 
ATOM     59  C   UNL A   1      43.833  28.207  29.834  1.00  0.00     0.031 C 
ATOM     60  C   UNL A   1      44.399  28.033  27.323  1.00  0.00     0.034 A 
BRANCH  47  61
ATOM     61  C   UNL A   1      39.710  30.037  29.015  1.00  0.00     0.023 A 
ATOM     62  C   UNL A   1      40.480  30.058  30.194  1.00  0.00     0.012 A 
ATOM     63  C   UNL A   1      38.491  30.751  29.016  1.00  0.00     0.148 A 
ATOM     64  C   UNL A   1      40.047  30.758  31.326  1.00  0.00     0.002 A 
ATOM     65  C   UNL A   1      38.106  31.508  30.112  1.00  0.00     0.091 A 
ATOM     66  F   UNL A   1      37.625  30.590  28.009  1.00  0.00    -0.205 F 
ATOM     67  C   UNL A   1      38.869  31.497  31.279  1.00  0.00     0.022 A 
BRANCH  65  68
ATOM     68  S   UNL A   1      36.608  32.495  30.079  1.00  0.00     0.127 S 
ATOM     69  O   UNL A   1      36.631  33.100  31.407  1.00  0.00    -0.237 OA
ATOM     70  O   UNL A   1      36.877  33.412  28.972  1.00  0.00    -0.237 OA
ATOM     71  O   UNL A   1      35.530  31.549  29.818  1.00  0.00    -0.744 OA
ENDBRANCH  65  68
ENDBRANCH  47  61
BRANCH  48  72
ATOM     72  C   UNL A   1      45.558  24.666  31.983  1.00  0.00     0.023 A 
ATOM     73  C   UNL A   1      46.765  25.285  32.382  1.00  0.00     0.012 A 
ATOM     74  C   UNL A   1      44.813  23.972  32.956  1.00  0.00     0.148 A 
ATOM     75  C   UNL A   1      47.176  25.279  33.721  1.00  0.00     0.002 A 
ATOM     76  C   UNL A   1      45.218  23.987  34.289  1.00  0.00     0.091 A 
ATOM     77  F   UNL A   1      43.665  23.385  32.591  1.00  0.00    -0.205 F 
ATOM     78  C   UNL A   1      46.391  24.647  34.677  1.00  0.00     0.022 A 
BRANCH  76  79
ATOM     79  S   UNL A   1      44.240  23.248  35.600  1.00  0.00     0.127 S 
ATOM     80  O   UNL A   1      44.763  21.884  35.617  1.00  0.00    -0.237 OA
ATOM     81  O   UNL A   1      44.610  24.061  36.756  1.00  0.00    -0.237 OA
ATOM     82  O   UNL A   1      42.855  23.379  35.170  1.00  0.00    -0.744 OA
ENDBRANCH  76  79
ENDBRANCH  48  72
BRANCH  60  83
ATOM     83  C   UNL A   1      45.285  27.306  26.343  1.00  0.00     0.023 A 
ATOM     84  C   UNL A   1      46.521  27.834  25.913  1.00  0.00     0.012 A 
ATOM     85  C   UNL A   1      44.952  25.987  26.001  1.00  0.00     0.148 A 
ATOM     86  C   UNL A   1      47.407  27.059  25.158  1.00  0.00     0.002 A 
ATOM     87  C   UNL A   1      45.847  25.208  25.279  1.00  0.00     0.091 A 
ATOM     88  F   UNL A   1      43.776  25.504  26.431  1.00  0.00    -0.205 F 
ATOM     89  C   UNL A   1      47.075  25.741  24.853  1.00  0.00     0.022 A 
BRANCH  87  90
ATOM     90  S   UNL A   1      45.532  23.475  24.935  1.00  0.00     0.127 S 
ATOM     91  O   UNL A   1      46.428  23.218  23.809  1.00  0.00    -0.237 OA
ATOM     92  O   UNL A   1      45.927  22.835  26.191  1.00  0.00    -0.237 OA
ATOM     93  O   UNL A   1      44.110  23.374  24.630  1.00  0.00    -0.744 OA
ENDBRANCH  87  90
ENDBRANCH  60  83
ENDBRANCH  34  35
ENDBRANCH  27  29
ENDBRANCH  26  27
ENDBRANCH  25  26
ENDBRANCH   1  25
TORSDOF 18
ENDMDL
MODEL 2
REMARK VINA RESULT:     -11.9      3.712      9.954
REMARK SMILES Cc1cc2[nH]c(=O)[nH]c2cc1S(=O)(=O)NCCC(=O)OCCOC(=O)c1ccc(-c2c3nc(c(-c4cccc(S(=O)(=O)[O-])c4F)c4ccc([nH]4)c(-c4cccc(S(=O)(=O)[O-])c4F)c4nc(c(-c5cccc(S(=O)(=O)[O-])c5F)c5ccc2[nH]5)C=C4)C=C3)cc1
REMARK SMILES IDX 21 1 20 2 18 3 19 4 17 5 16 6 15 7 12 9 13 10 14 11 11 12
REMARK SMILES IDX 1 13 2 14 3 15 4 16 10 17 5 18 9 19 6 20 8 22 7 23 22 25
REMARK SMILES IDX 23 26 24 27 25 28 26 29 27 30 88 31 28 32 87 33 29 34 30 35
REMARK SMILES IDX 31 36 81 37 32 38 86 39 80 40 82 41 33 42 85 43 79 44 78 45
REMARK SMILES IDX 34 47 66 48 46 49 65 50 47 51 50 52 64 53 83 54 48 55 49 56
REMARK SMILES IDX 63 58 84 59 51 60 35 61 36 62 44 63 37 64 39 65 45 66 38 67
REMARK SMILES IDX 40 68 41 69 42 70 43 71 67 72 68 73 76 74 69 75 71 76 77 77
REMARK SMILES IDX 70 78 72 79 73 80 74 81 75 82 52 83 53 84 61 85 54 86 56 87
REMARK SMILES IDX 62 88 55 89 57 90 58 91 59 92 60 93
REMARK H PARENT 15 8 5 21 8 24 82 46 50 57
REMARK Flexibility Score: inf
ROOT
ATOM      1  C   UNL A   1      32.743  28.901  23.924  1.00  0.00     0.274 C 
ENDROOT
BRANCH   1   2
ATOM      2  O   UNL A   1      32.110  28.067  22.939  1.00  0.00    -0.462 OA
BRANCH   2   3
ATOM      3  C   UNL A   1      32.952  27.296  22.207  1.00  0.00     0.307 C 
ATOM      4  O   UNL A   1      34.013  27.672  21.725  1.00  0.00    -0.252 OA
BRANCH   3   5
ATOM      5  C   UNL A   1      32.426  25.908  22.027  1.00  0.00     0.139 C 
BRANCH   5   6
ATOM      6  C   UNL A   1      32.489  24.994  23.217  1.00  0.00     0.110 C 
BRANCH   6   7
ATOM      7  N   UNL A   1      31.702  25.430  24.367  1.00  0.00    -0.211 NA
ATOM      8  H   UNL A   1      31.525  26.426  24.236  1.00  0.00     0.141 HD
BRANCH   7   9
ATOM      9  S   UNL A   1      32.277  25.250  25.929  1.00  0.00     0.240 S 
ATOM     10  O   UNL A   1      31.126  25.143  26.784  1.00  0.00    -0.207 OA
ATOM     11  O   UNL A   1      33.229  26.333  26.121  1.00  0.00    -0.207 OA
BRANCH   9  12
ATOM     12  C   UNL A   1      33.191  23.723  25.992  1.00  0.00     0.087 A 
ATOM     13  C   UNL A   1      31.136  22.159  25.651  1.00  0.00     0.046 C 
ATOM     14  C   UNL A   1      32.608  22.429  25.817  1.00  0.00    -0.029 A 
ATOM     15  C   UNL A   1      33.450  21.295  25.786  1.00  0.00     0.033 A 
ATOM     16  C   UNL A   1      34.808  21.505  25.805  1.00  0.00     0.067 A 
ATOM     17  C   UNL A   1      34.586  23.887  26.125  1.00  0.00     0.050 A 
ATOM     18  N   UNL A   1      35.842  20.612  25.568  1.00  0.00    -0.306 N 
ATOM     19  C   UNL A   1      35.360  22.767  25.974  1.00  0.00     0.068 A 
ATOM     20  C   UNL A   1      37.052  21.322  25.539  1.00  0.00     0.323 A 
ATOM     21  H   UNL A   1      35.743  19.641  25.442  1.00  0.00     0.171 HD
ATOM     22  N   UNL A   1      36.738  22.657  25.848  1.00  0.00    -0.306 N 
ATOM     23  O   UNL A   1      38.136  20.905  25.168  1.00  0.00    -0.248 OA
ATOM     24  H   UNL A   1      37.386  23.390  25.956  1.00  0.00     0.171 HD
ENDBRANCH   9  12
ENDBRANCH   7   9
ENDBRANCH   6   7
ENDBRANCH   5   6
ENDBRANCH   3   5
ENDBRANCH   2   3
ENDBRANCH   1   2
BRANCH   1  25
ATOM     25  C   UNL A   1      31.671  29.669  24.701  1.00  0.00     0.275 C 
BRANCH  25  26
ATOM     26  O   UNL A   1      32.116  29.860  26.055  1.00  0.00    -0.458 OA
BRANCH  26  27
ATOM     27  C   UNL A   1      32.231  31.139  26.494  1.00  0.00     0.338 C 
ATOM     28  O   UNL A   1      31.416  32.036  26.344  1.00  0.00    -0.246 OA
BRANCH  27  29
ATOM     29  C   UNL A   1      33.327  31.162  27.493  1.00  0.00     0.060 A 
ATOM     30  C   UNL A   1      33.790  32.370  28.024  1.00  0.00     0.016 A 
ATOM     31  C   UNL A   1      34.077  29.990  27.648  1.00  0.00     0.016 A 
ATOM     32  C   UNL A   1      35.095  32.445  28.494  1.00  0.00     0.010 A 
ATOM     33  C   UNL A   1      35.389  30.072  28.109  1.00  0.00     0.010 A 
ATOM     34  C   UNL A   1      35.929  31.319  28.436  1.00  0.00    -0.014 A 
BRANCH  34  35
ATOM     35  C   UNL A   1      37.293  31.429  28.953  1.00  0.00     0.031 A 
ATOM     36  C   UNL A   1      38.019  30.155  28.754  1.00  0.00     0.074 A 
ATOM     37  C   UNL A   1      37.931  32.481  29.520  1.00  0.00     0.049 A 
ATOM     38  N   UNL A   1      38.226  29.261  29.663  1.00  0.00    -0.248 NA
ATOM     39  C   UNL A   1      38.356  29.733  27.390  1.00  0.00     0.031 C 
ATOM     40  C   UNL A   1      37.506  33.860  29.747  1.00  0.00     0.029 A 
ATOM     41  N   UNL A   1      39.214  32.521  29.989  1.00  0.00    -0.354 N 
ATOM     42  C   UNL A   1      38.935  28.256  29.029  1.00  0.00     0.074 A 
ATOM     43  C   UNL A   1      38.816  28.500  27.612  1.00  0.00     0.031 C 
ATOM     44  C   UNL A   1      38.567  34.653  30.026  1.00  0.00     0.029 A 
ATOM     45  C   UNL A   1      39.717  33.799  30.226  1.00  0.00     0.049 A 
ATOM     46  H   UNL A   1      39.745  31.707  30.147  1.00  0.00     0.167 HD
ATOM     47  C   UNL A   1      39.778  27.447  29.721  1.00  0.00     0.034 A 
ATOM     48  C   UNL A   1      40.963  34.132  30.647  1.00  0.00     0.034 A 
ATOM     49  C   UNL A   1      39.563  27.513  31.141  1.00  0.00     0.049 A 
ATOM     50  C   UNL A   1      41.477  32.952  31.369  1.00  0.00     0.074 A 
ATOM     51  C   UNL A   1      38.488  27.277  31.977  1.00  0.00     0.029 A 
ATOM     52  N   UNL A   1      40.444  28.269  31.876  1.00  0.00    -0.354 N 
ATOM     53  N   UNL A   1      40.987  32.550  32.507  1.00  0.00    -0.248 NA
ATOM     54  C   UNL A   1      42.240  31.974  30.617  1.00  0.00     0.031 C 
ATOM     55  C   UNL A   1      38.556  28.304  32.964  1.00  0.00     0.029 A 
ATOM     56  C   UNL A   1      39.695  29.067  32.702  1.00  0.00     0.049 A 
ATOM     57  H   UNL A   1      41.426  28.244  31.819  1.00  0.00     0.167 HD
ATOM     58  C   UNL A   1      40.982  31.169  32.398  1.00  0.00     0.074 A 
ATOM     59  C   UNL A   1      41.845  30.871  31.254  1.00  0.00     0.031 C 
ATOM     60  C   UNL A   1      40.063  30.414  33.064  1.00  0.00     0.034 A 
BRANCH  47  61
ATOM     61  C   UNL A   1      41.038  26.892  29.125  1.00  0.00     0.023 A 
ATOM     62  C   UNL A   1      42.104  27.779  28.881  1.00  0.00     0.012 A 
ATOM     63  C   UNL A   1      41.121  25.598  28.563  1.00  0.00     0.148 A 
ATOM     64  C   UNL A   1      43.201  27.392  28.104  1.00  0.00     0.002 A 
ATOM     65  C   UNL A   1      42.247  25.194  27.862  1.00  0.00     0.091 A 
ATOM     66  F   UNL A   1      40.052  24.794  28.582  1.00  0.00    -0.205 F 
ATOM     67  C   UNL A   1      43.281  26.095  27.609  1.00  0.00     0.022 A 
BRANCH  65  68
ATOM     68  S   UNL A   1      42.398  23.520  27.233  1.00  0.00     0.127 S 
ATOM     69  O   UNL A   1      41.580  23.590  26.026  1.00  0.00    -0.237 OA
ATOM     70  O   UNL A   1      43.838  23.414  27.005  1.00  0.00    -0.237 OA
ATOM     71  O   UNL A   1      41.900  22.662  28.302  1.00  0.00    -0.744 OA
ENDBRANCH  65  68
ENDBRANCH  47  61
BRANCH  48  72
ATOM     72  C   UNL A   1      41.862  35.250  30.274  1.00  0.00     0.023 A 
ATOM     73  C   UNL A   1      42.945  35.570  31.124  1.00  0.00     0.012 A 
ATOM     74  C   UNL A   1      41.885  35.740  28.954  1.00  0.00     0.148 A 
ATOM     75  C   UNL A   1      44.051  36.289  30.653  1.00  0.00     0.002 A 
ATOM     76  C   UNL A   1      42.996  36.438  28.487  1.00  0.00     0.091 A 
ATOM     77  F   UNL A   1      40.865  35.440  28.138  1.00  0.00    -0.205 F 
ATOM     78  C   UNL A   1      44.085  36.705  29.328  1.00  0.00     0.022 A 
BRANCH  76  79
ATOM     79  S   UNL A   1      43.153  36.963  26.777  1.00  0.00     0.127 S 
ATOM     80  O   UNL A   1      43.022  35.691  26.071  1.00  0.00    -0.237 OA
ATOM     81  O   UNL A   1      42.016  37.868  26.628  1.00  0.00    -0.237 OA
ATOM     82  O   UNL A   1      44.461  37.595  26.686  1.00  0.00    -0.744 OA
ENDBRANCH  76  79
ENDBRANCH  48  72
BRANCH  60  83
ATOM     83  C   UNL A   1      39.183  31.101  34.077  1.00  0.00     0.023 A 
ATOM     84  C   UNL A   1      39.551  31.217  35.435  1.00  0.00     0.012 A 
ATOM     85  C   UNL A   1      38.060  31.802  33.613  1.00  0.00     0.148 A 
ATOM     86  C   UNL A   1      38.813  32.020  36.310  1.00  0.00     0.002 A 
ATOM     87  C   UNL A   1      37.347  32.625  34.476  1.00  0.00     0.091 A 
ATOM     88  F   UNL A   1      37.737  31.684  32.317  1.00  0.00    -0.205 F 
ATOM     89  C   UNL A   1      37.719  32.735  35.827  1.00  0.00     0.022 A 
BRANCH  87  90
ATOM     90  S   UNL A   1      35.991  33.650  33.904  1.00  0.00     0.127 S 
ATOM     91  O   UNL A   1      35.214  32.709  33.099  1.00  0.00    -0.237 OA
ATOM     92  O   UNL A   1      35.356  34.051  35.160  1.00  0.00    -0.237 OA
ATOM     93  O   UNL A   1      36.597  34.747  33.160  1.00  0.00    -0.744 OA
ENDBRANCH  87  90
ENDBRANCH  60  83
ENDBRANCH  34  35
ENDBRANCH  27  29
ENDBRANCH  26  27
ENDBRANCH  25  26
ENDBRANCH   1  25
TORSDOF 18
ENDMDL
MODEL 3
REMARK VINA RESULT:     -11.8      4.807     10.034
REMARK SMILES Cc1cc2[nH]c(=O)[nH]c2cc1S(=O)(=O)NCCC(=O)OCCOC(=O)c1ccc(-c2c3nc(c(-c4cccc(S(=O)(=O)[O-])c4F)c4ccc([nH]4)c(-c4cccc(S(=O)(=O)[O-])c4F)c4nc(c(-c5cccc(S(=O)(=O)[O-])c5F)c5ccc2[nH]5)C=C4)C=C3)cc1
REMARK SMILES IDX 21 1 20 2 18 3 19 4 17 5 16 6 15 7 12 9 13 10 14 11 11 12
REMARK SMILES IDX 1 13 2 14 3 15 4 16 10 17 5 18 9 19 6 20 8 22 7 23 22 25
REMARK SMILES IDX 23 26 24 27 25 28 26 29 27 30 88 31 28 32 87 33 29 34 30 35
REMARK SMILES IDX 31 36 81 37 32 38 86 39 80 40 82 41 33 42 85 43 79 44 78 45
REMARK SMILES IDX 34 47 66 48 46 49 65 50 47 51 50 52 64 53 83 54 48 55 49 56
REMARK SMILES IDX 63 58 84 59 51 60 35 61 36 62 44 63 37 64 39 65 45 66 38 67
REMARK SMILES IDX 40 68 41 69 42 70 43 71 67 72 68 73 76 74 69 75 71 76 77 77
REMARK SMILES IDX 70 78 72 79 73 80 74 81 75 82 52 83 53 84 61 85 54 86 56 87
REMARK SMILES IDX 62 88 55 89 57 90 58 91 59 92 60 93
REMARK H PARENT 15 8 5 21 8 24 82 46 50 57
REMARK Flexibility Score: inf
ROOT
ATOM      1  C   UNL A   1      42.341  20.360  26.251  1.00  0.00     0.274 C 
ENDROOT
BRANCH   1   2
ATOM      2  O   UNL A   1      42.570  19.432  25.176  1.00  0.00    -0.462 OA
BRANCH   2   3
ATOM      3  C   UNL A   1      43.867  19.088  24.976  1.00  0.00     0.307 C 
ATOM      4  O   UNL A   1      44.254  17.993  24.589  1.00  0.00    -0.252 OA
BRANCH   3   5
ATOM      5  C   UNL A   1      44.800  20.207  25.307  1.00  0.00     0.139 C 
BRANCH   5   6
ATOM      6  C   UNL A   1      45.770  20.626  24.238  1.00  0.00     0.110 C 
BRANCH   6   7
ATOM      7  N   UNL A   1      46.587  21.788  24.574  1.00  0.00    -0.211 NA
ATOM      8  H   UNL A   1      46.820  21.702  25.564  1.00  0.00     0.141 HD
BRANCH   7   9
ATOM      9  S   UNL A   1      46.012  23.345  24.354  1.00  0.00     0.240 S 
ATOM     10  O   UNL A   1      44.763  23.229  23.651  1.00  0.00    -0.207 OA
ATOM     11  O   UNL A   1      47.114  24.089  23.764  1.00  0.00    -0.207 OA
BRANCH   9  12
ATOM     12  C   UNL A   1      45.708  24.038  25.966  1.00  0.00     0.087 A 
ATOM     13  C   UNL A   1      45.570  26.516  25.178  1.00  0.00     0.046 C 
ATOM     14  C   UNL A   1      45.486  25.428  26.215  1.00  0.00    -0.029 A 
ATOM     15  C   UNL A   1      45.153  25.847  27.522  1.00  0.00     0.033 A 
ATOM     16  C   UNL A   1      44.940  24.876  28.471  1.00  0.00     0.067 A 
ATOM     17  C   UNL A   1      45.594  23.080  26.997  1.00  0.00     0.050 A 
ATOM     18  N   UNL A   1      44.401  24.989  29.744  1.00  0.00    -0.306 N 
ATOM     19  C   UNL A   1      45.158  23.529  28.216  1.00  0.00     0.068 A 
ATOM     20  C   UNL A   1      44.232  23.702  30.278  1.00  0.00     0.323 A 
ATOM     21  H   UNL A   1      44.175  25.833  30.198  1.00  0.00     0.171 HD
ATOM     22  N   UNL A   1      44.761  22.807  29.332  1.00  0.00    -0.306 N 
ATOM     23  O   UNL A   1      43.614  23.403  31.285  1.00  0.00    -0.248 OA
ATOM     24  H   UNL A   1      44.835  21.832  29.443  1.00  0.00     0.171 HD
ENDBRANCH   9  12
ENDBRANCH   7   9
ENDBRANCH   6   7
ENDBRANCH   5   6
ENDBRANCH   3   5
ENDBRANCH   2   3
ENDBRANCH   1   2
BRANCH   1  25
ATOM     25  C   UNL A   1      40.851  20.371  26.601  1.00  0.00     0.275 C 
BRANCH  25  26
ATOM     26  O   UNL A   1      40.550  21.569  27.338  1.00  0.00    -0.458 OA
BRANCH  26  27
ATOM     27  C   UNL A   1      39.768  22.493  26.723  1.00  0.00     0.338 C 
ATOM     28  O   UNL A   1      38.631  22.326  26.311  1.00  0.00    -0.246 OA
BRANCH  27  29
ATOM     29  C   UNL A   1      40.384  23.820  26.969  1.00  0.00     0.060 A 
ATOM     30  C   UNL A   1      41.161  24.050  28.108  1.00  0.00     0.016 A 
ATOM     31  C   UNL A   1      39.913  24.896  26.207  1.00  0.00     0.016 A 
ATOM     32  C   UNL A   1      41.265  25.343  28.606  1.00  0.00     0.010 A 
ATOM     33  C   UNL A   1      40.010  26.189  26.715  1.00  0.00     0.010 A 
ATOM     34  C   UNL A   1      40.598  26.398  27.966  1.00  0.00    -0.014 A 
BRANCH  34  35
ATOM     35  C   UNL A   1      40.740  27.749  28.508  1.00  0.00     0.031 A 
ATOM     36  C   UNL A   1      41.957  28.393  27.964  1.00  0.00     0.074 A 
ATOM     37  C   UNL A   1      39.941  28.438  29.358  1.00  0.00     0.049 A 
ATOM     38  N   UNL A   1      43.083  28.509  28.585  1.00  0.00    -0.248 NA
ATOM     39  C   UNL A   1      42.001  28.744  26.541  1.00  0.00     0.031 C 
ATOM     40  C   UNL A   1      38.655  28.101  29.962  1.00  0.00     0.029 A 
ATOM     41  N   UNL A   1      40.130  29.705  29.834  1.00  0.00    -0.354 N 
ATOM     42  C   UNL A   1      43.918  29.168  27.700  1.00  0.00     0.074 A 
ATOM     43  C   UNL A   1      43.276  29.112  26.410  1.00  0.00     0.031 C 
ATOM     44  C   UNL A   1      38.053  29.203  30.467  1.00  0.00     0.029 A 
ATOM     45  C   UNL A   1      39.012  30.286  30.429  1.00  0.00     0.049 A 
ATOM     46  H   UNL A   1      40.993  30.175  29.760  1.00  0.00     0.167 HD
ATOM     47  C   UNL A   1      44.949  29.932  28.144  1.00  0.00     0.034 A 
ATOM     48  C   UNL A   1      38.905  31.537  30.941  1.00  0.00     0.034 A 
ATOM     49  C   UNL A   1      45.272  29.677  29.522  1.00  0.00     0.049 A 
ATOM     50  C   UNL A   1      40.275  31.946  31.306  1.00  0.00     0.074 A 
ATOM     51  C   UNL A   1      45.654  28.562  30.244  1.00  0.00     0.029 A 
ATOM     52  N   UNL A   1      44.821  30.583  30.451  1.00  0.00    -0.354 N 
ATOM     53  N   UNL A   1      40.944  31.395  32.277  1.00  0.00    -0.248 NA
ATOM     54  C   UNL A   1      41.055  32.665  30.315  1.00  0.00     0.031 C 
ATOM     55  C   UNL A   1      44.954  28.668  31.483  1.00  0.00     0.029 A 
ATOM     56  C   UNL A   1      44.235  29.863  31.460  1.00  0.00     0.049 A 
ATOM     57  H   UNL A   1      44.902  31.563  30.401  1.00  0.00     0.167 HD
ATOM     58  C   UNL A   1      42.234  31.300  31.780  1.00  0.00     0.074 A 
ATOM     59  C   UNL A   1      42.261  32.176  30.609  1.00  0.00     0.031 C 
ATOM     60  C   UNL A   1      43.076  30.310  32.194  1.00  0.00     0.034 A 
BRANCH  47  61
ATOM     61  C   UNL A   1      45.406  31.170  27.430  1.00  0.00     0.023 A 
ATOM     62  C   UNL A   1      46.766  31.270  27.078  1.00  0.00     0.012 A 
ATOM     63  C   UNL A   1      44.615  32.337  27.326  1.00  0.00     0.148 A 
ATOM     64  C   UNL A   1      47.312  32.483  26.646  1.00  0.00     0.002 A 
ATOM     65  C   UNL A   1      45.143  33.516  26.821  1.00  0.00     0.091 A 
ATOM     66  F   UNL A   1      43.383  32.354  27.846  1.00  0.00    -0.205 F 
ATOM     67  C   UNL A   1      46.498  33.602  26.501  1.00  0.00     0.022 A 
BRANCH  65  68
ATOM     68  S   UNL A   1      44.117  34.970  26.594  1.00  0.00     0.127 S 
ATOM     69  O   UNL A   1      45.125  36.009  26.409  1.00  0.00    -0.237 OA
ATOM     70  O   UNL A   1      43.358  34.618  25.394  1.00  0.00    -0.237 OA
ATOM     71  O   UNL A   1      43.308  35.062  27.803  1.00  0.00    -0.744 OA
ENDBRANCH  65  68
ENDBRANCH  47  61
BRANCH  48  72
ATOM     72  C   UNL A   1      37.797  32.522  30.912  1.00  0.00     0.023 A 
ATOM     73  C   UNL A   1      37.099  32.732  29.701  1.00  0.00     0.012 A 
ATOM     74  C   UNL A   1      37.199  32.961  32.109  1.00  0.00     0.148 A 
ATOM     75  C   UNL A   1      35.815  33.291  29.690  1.00  0.00     0.002 A 
ATOM     76  C   UNL A   1      35.914  33.499  32.093  1.00  0.00     0.091 A 
ATOM     77  F   UNL A   1      37.849  32.764  33.264  1.00  0.00    -0.205 F 
ATOM     78  C   UNL A   1      35.215  33.656  30.889  1.00  0.00     0.022 A 
BRANCH  76  79
ATOM     79  S   UNL A   1      35.038  33.944  33.595  1.00  0.00     0.127 S 
ATOM     80  O   UNL A   1      35.366  35.363  33.711  1.00  0.00    -0.237 OA
ATOM     81  O   UNL A   1      33.650  33.662  33.237  1.00  0.00    -0.237 OA
ATOM     82  O   UNL A   1      35.594  33.089  34.634  1.00  0.00    -0.744 OA
ENDBRANCH  76  79
ENDBRANCH  48  72
BRANCH  60  83
ATOM     83  C   UNL A   1      42.640  29.447  33.351  1.00  0.00     0.023 A 
ATOM     84  C   UNL A   1      41.659  28.442  33.209  1.00  0.00     0.012 A 
ATOM     85  C   UNL A   1      43.367  29.526  34.548  1.00  0.00     0.148 A 
ATOM     86  C   UNL A   1      41.411  27.533  34.243  1.00  0.00     0.002 A 
ATOM     87  C   UNL A   1      43.143  28.602  35.561  1.00  0.00     0.091 A 
ATOM     88  F   UNL A   1      44.302  30.482  34.654  1.00  0.00    -0.205 F 
ATOM     89  C   UNL A   1      42.163  27.605  35.414  1.00  0.00     0.022 A 
BRANCH  87  90
ATOM     90  S   UNL A   1      44.139  28.571  37.052  1.00  0.00     0.127 S 
ATOM     91  O   UNL A   1      45.492  28.444  36.515  1.00  0.00    -0.237 OA
ATOM     92  O   UNL A   1      43.838  29.872  37.651  1.00  0.00    -0.237 OA
ATOM     93  O   UNL A   1      43.672  27.430  37.829  1.00  0.00    -0.744 OA
ENDBRANCH  87  90
ENDBRANCH  60  83
ENDBRANCH  34  35
ENDBRANCH  27  29
ENDBRANCH  26  27
ENDBRANCH  25  26
ENDBRANCH   1  25
TORSDOF 18
ENDMDL
