MODEL 1
REMARK VINA RESULT:     -12.7      0.000      0.000
REMARK SMILES Cc1cc(NC(=O)c2ccc(Br)cc2N)ccc1C(=O)OCCOC(=O)c1ccc(-c2c3nc(c(-c4cccc(S(=O)(=O)[O-])c4F)c4ccc([nH]4)c(-c4cccc(S(=O)(=O)[O-])c4F)c4nc(c(-c5cccc(S(=O)(=O)[O-])c5F)c5ccc2[nH]5)C=C4)C=C3)cc1
REMARK SMILES IDX 22 1 21 2 19 3 20 4 18 5 1 6 2 7 3 8 4 9 17 10 16 11 5 12
REMARK SMILES IDX 6 13 7 15 8 16 9 17 14 18 10 19 13 20 11 21 12 22 15 23
REMARK SMILES IDX 23 26 24 27 25 28 26 29 27 30 28 31 89 32 29 33 88 34 30 35
REMARK SMILES IDX 31 36 32 37 82 38 33 39 87 40 81 41 83 42 34 43 86 44 80 45
REMARK SMILES IDX 79 46 35 48 67 49 47 50 66 51 48 52 51 53 65 54 84 55 49 56
REMARK SMILES IDX 50 57 64 59 85 60 52 61 36 62 37 63 45 64 38 65 40 66 46 67
REMARK SMILES IDX 39 68 41 69 42 70 43 71 44 72 68 73 69 74 77 75 70 76 72 77
REMARK SMILES IDX 78 78 71 79 73 80 74 81 75 82 76 83 53 84 54 85 62 86 55 87
REMARK SMILES IDX 57 88 63 89 56 90 58 91 59 92 60 93 61 94
REMARK H PARENT 5 14 15 24 15 25 83 47 51 58
REMARK Flexibility Score: inf
ROOT
ATOM      1  C   UNL A   1      33.895  28.483  25.478  1.00  0.00     0.275 C 
ENDROOT
BRANCH   1   2
ATOM      2  O   UNL A   1      33.150  28.889  24.334  1.00  0.00    -0.458 OA
BRANCH   2   3
ATOM      3  C   UNL A   1      31.807  28.764  24.406  1.00  0.00     0.338 C 
ATOM      4  O   UNL A   1      31.016  29.630  24.681  1.00  0.00    -0.246 OA
BRANCH   3   5
ATOM      5  C   UNL A   1      31.445  27.355  24.111  1.00  0.00     0.063 A 
ATOM      6  C   UNL A   1      30.863  26.836  26.548  1.00  0.00     0.045 C 
ATOM      7  C   UNL A   1      31.090  26.441  25.115  1.00  0.00    -0.035 A 
ATOM      8  C   UNL A   1      30.977  25.081  24.768  1.00  0.00     0.030 A 
ATOM      9  C   UNL A   1      31.108  24.641  23.448  1.00  0.00     0.041 A 
ATOM     10  C   UNL A   1      31.572  26.932  22.785  1.00  0.00     0.018 A 
ATOM     11  C   UNL A   1      31.376  25.587  22.455  1.00  0.00     0.027 A 
BRANCH   9  12
ATOM     12  N   UNL A   1      31.067  23.291  23.047  1.00  0.00    -0.322 N 
ATOM     13  C   UNL A   1      32.041  22.322  22.932  1.00  0.00     0.257 C 
ATOM     14  H   UNL A   1      30.166  22.979  22.799  1.00  0.00     0.170 HD
ATOM     15  O   UNL A   1      31.841  21.343  22.209  1.00  0.00    -0.269 OA
BRANCH  13  16
ATOM     16  C   UNL A   1      33.326  22.416  23.654  1.00  0.00     0.063 A 
ATOM     17  C   UNL A   1      34.407  22.966  22.941  1.00  0.00     0.017 A 
ATOM     18  C   UNL A   1      33.479  21.986  24.988  1.00  0.00     0.045 A 
ATOM     19  C   UNL A   1      35.642  23.129  23.565  1.00  0.00     0.016 A 
ATOM     20  C   UNL A   1      34.737  22.140  25.586  1.00  0.00     0.042 A 
ATOM     21  C   UNL A   1      35.798  22.722  24.887  1.00  0.00     0.020 A 
ATOM     22  Br  UNL A   1      37.468  22.952  25.739  1.00  0.00    -0.051 Br
BRANCH  18  23
ATOM     23  N   UNL A   1      32.480  21.334  25.696  1.00  0.00    -0.398 N 
ATOM     24  H   UNL A   1      32.585  20.384  25.935  1.00  0.00     0.156 HD
ATOM     25  H   UNL A   1      31.665  21.820  25.959  1.00  0.00     0.156 HD
ENDBRANCH  18  23
ENDBRANCH  13  16
ENDBRANCH   9  12
ENDBRANCH   3   5
ENDBRANCH   2   3
ENDBRANCH   1   2
BRANCH   1  26
ATOM     26  C   UNL A   1      33.986  29.444  26.682  1.00  0.00     0.275 C 
BRANCH  26  27
ATOM     27  O   UNL A   1      35.065  29.408  27.663  1.00  0.00    -0.458 OA
BRANCH  27  28
ATOM     28  C   UNL A   1      36.123  30.216  27.919  1.00  0.00     0.338 C 
ATOM     29  O   UNL A   1      36.006  31.420  28.059  1.00  0.00    -0.246 OA
BRANCH  28  30
ATOM     30  C   UNL A   1      37.429  29.573  28.068  1.00  0.00     0.060 A 
ATOM     31  C   UNL A   1      38.344  29.571  27.000  1.00  0.00     0.016 A 
ATOM     32  C   UNL A   1      37.754  29.048  29.308  1.00  0.00     0.016 A 
ATOM     33  C   UNL A   1      39.638  29.098  27.207  1.00  0.00     0.010 A 
ATOM     34  C   UNL A   1      39.064  28.741  29.559  1.00  0.00     0.010 A 
ATOM     35  C   UNL A   1      39.979  28.678  28.491  1.00  0.00    -0.014 A 
BRANCH  35  36
ATOM     36  C   UNL A   1      41.046  27.727  28.768  1.00  0.00     0.031 A 
ATOM     37  C   UNL A   1      40.958  26.286  28.534  1.00  0.00     0.074 A 
ATOM     38  C   UNL A   1      42.209  28.374  29.009  1.00  0.00     0.049 A 
ATOM     39  N   UNL A   1      41.839  25.454  28.965  1.00  0.00    -0.248 NA
ATOM     40  C   UNL A   1      39.854  25.648  27.832  1.00  0.00     0.031 C 
ATOM     41  C   UNL A   1      43.582  27.943  28.862  1.00  0.00     0.029 A 
ATOM     42  N   UNL A   1      42.312  29.667  29.548  1.00  0.00    -0.354 N 
ATOM     43  C   UNL A   1      41.595  24.235  28.367  1.00  0.00     0.074 A 
ATOM     44  C   UNL A   1      40.282  24.379  27.781  1.00  0.00     0.031 C 
ATOM     45  C   UNL A   1      44.366  28.814  29.527  1.00  0.00     0.029 A 
ATOM     46  C   UNL A   1      43.484  29.697  30.289  1.00  0.00     0.049 A 
ATOM     47  H   UNL A   1      41.676  30.408  29.423  1.00  0.00     0.167 HD
ATOM     48  C   UNL A   1      42.615  23.329  28.317  1.00  0.00     0.034 A 
ATOM     49  C   UNL A   1      43.439  29.841  31.648  1.00  0.00     0.034 A 
ATOM     50  C   UNL A   1      43.779  23.843  29.068  1.00  0.00     0.049 A 
ATOM     51  C   UNL A   1      44.024  28.622  32.326  1.00  0.00     0.074 A 
ATOM     52  C   UNL A   1      44.920  24.513  28.658  1.00  0.00     0.029 A 
ATOM     53  N   UNL A   1      43.713  23.986  30.451  1.00  0.00    -0.354 N 
ATOM     54  N   UNL A   1      44.203  27.475  31.732  1.00  0.00    -0.248 NA
ATOM     55  C   UNL A   1      44.440  28.599  33.723  1.00  0.00     0.031 C 
ATOM     56  C   UNL A   1      45.464  25.176  29.793  1.00  0.00     0.029 A 
ATOM     57  C   UNL A   1      44.687  24.870  30.899  1.00  0.00     0.049 A 
ATOM     58  H   UNL A   1      43.066  23.525  31.031  1.00  0.00     0.167 HD
ATOM     59  C   UNL A   1      44.655  26.554  32.629  1.00  0.00     0.074 A 
ATOM     60  C   UNL A   1      44.845  27.324  33.850  1.00  0.00     0.031 C 
ATOM     61  C   UNL A   1      44.774  25.230  32.314  1.00  0.00     0.034 A 
BRANCH  48  62
ATOM     62  C   UNL A   1      42.737  22.124  27.380  1.00  0.00     0.023 A 
ATOM     63  C   UNL A   1      41.883  21.024  27.647  1.00  0.00     0.012 A 
ATOM     64  C   UNL A   1      43.659  21.933  26.324  1.00  0.00     0.148 A 
ATOM     65  C   UNL A   1      41.987  19.799  26.976  1.00  0.00     0.002 A 
ATOM     66  C   UNL A   1      43.775  20.703  25.659  1.00  0.00     0.091 A 
ATOM     67  F   UNL A   1      44.435  22.937  25.923  1.00  0.00    -0.205 F 
ATOM     68  C   UNL A   1      42.946  19.630  25.991  1.00  0.00     0.022 A 
BRANCH  66  69
ATOM     69  S   UNL A   1      45.005  20.396  24.374  1.00  0.00     0.127 S 
ATOM     70  O   UNL A   1      44.639  21.387  23.359  1.00  0.00    -0.237 OA
ATOM     71  O   UNL A   1      46.262  20.676  25.068  1.00  0.00    -0.237 OA
ATOM     72  O   UNL A   1      44.829  19.012  23.954  1.00  0.00    -0.744 OA
ENDBRANCH  66  69
ENDBRANCH  48  62
BRANCH  49  73
ATOM     73  C   UNL A   1      42.251  30.616  32.162  1.00  0.00     0.023 A 
ATOM     74  C   UNL A   1      42.099  31.957  31.722  1.00  0.00     0.012 A 
ATOM     75  C   UNL A   1      41.136  29.986  32.749  1.00  0.00     0.148 A 
ATOM     76  C   UNL A   1      40.859  32.606  31.766  1.00  0.00     0.002 A 
ATOM     77  C   UNL A   1      39.900  30.641  32.787  1.00  0.00     0.091 A 
ATOM     78  F   UNL A   1      41.266  28.736  33.210  1.00  0.00    -0.205 F 
ATOM     79  C   UNL A   1      39.754  31.939  32.278  1.00  0.00     0.022 A 
BRANCH  77  80
ATOM     80  S   UNL A   1      38.423  29.771  33.341  1.00  0.00     0.127 S 
ATOM     81  O   UNL A   1      37.344  30.448  32.621  1.00  0.00    -0.237 OA
ATOM     82  O   UNL A   1      38.638  28.397  32.903  1.00  0.00    -0.237 OA
ATOM     83  O   UNL A   1      38.451  30.018  34.779  1.00  0.00    -0.744 OA
ENDBRANCH  77  80
ENDBRANCH  49  73
BRANCH  61  84
ATOM     84  C   UNL A   1      44.977  24.148  33.343  1.00  0.00     0.023 A 
ATOM     85  C   UNL A   1      44.002  23.159  33.580  1.00  0.00     0.012 A 
ATOM     86  C   UNL A   1      46.227  23.987  33.984  1.00  0.00     0.148 A 
ATOM     87  C   UNL A   1      44.221  22.107  34.472  1.00  0.00     0.002 A 
ATOM     88  C   UNL A   1      46.483  22.870  34.773  1.00  0.00     0.091 A 
ATOM     89  F   UNL A   1      47.179  24.922  33.841  1.00  0.00    -0.205 F 
ATOM     90  C   UNL A   1      45.471  21.949  35.051  1.00  0.00     0.022 A 
BRANCH  88  91
ATOM     91  S   UNL A   1      48.161  22.499  35.293  1.00  0.00     0.127 S 
ATOM     92  O   UNL A   1      48.911  22.656  34.050  1.00  0.00    -0.237 OA
ATOM     93  O   UNL A   1      48.421  23.534  36.296  1.00  0.00    -0.237 OA
ATOM     94  O   UNL A   1      48.084  21.149  35.839  1.00  0.00    -0.744 OA
ENDBRANCH  88  91
ENDBRANCH  61  84
ENDBRANCH  35  36
ENDBRANCH  28  30
ENDBRANCH  27  28
ENDBRANCH  26  27
ENDBRANCH   1  26
TORSDOF 17
ENDMDL
MODEL 2
REMARK VINA RESULT:     -12.5      1.468      1.978
REMARK SMILES Cc1cc(NC(=O)c2ccc(Br)cc2N)ccc1C(=O)OCCOC(=O)c1ccc(-c2c3nc(c(-c4cccc(S(=O)(=O)[O-])c4F)c4ccc([nH]4)c(-c4cccc(S(=O)(=O)[O-])c4F)c4nc(c(-c5cccc(S(=O)(=O)[O-])c5F)c5ccc2[nH]5)C=C4)C=C3)cc1
REMARK SMILES IDX 22 1 21 2 19 3 20 4 18 5 1 6 2 7 3 8 4 9 17 10 16 11 5 12
REMARK SMILES IDX 6 13 7 15 8 16 9 17 14 18 10 19 13 20 11 21 12 22 15 23
REMARK SMILES IDX 23 26 24 27 25 28 26 29 27 30 28 31 89 32 29 33 88 34 30 35
REMARK SMILES IDX 31 36 32 37 82 38 33 39 87 40 81 41 83 42 34 43 86 44 80 45
REMARK SMILES IDX 79 46 35 48 67 49 47 50 66 51 48 52 51 53 65 54 84 55 49 56
REMARK SMILES IDX 50 57 64 59 85 60 52 61 36 62 37 63 45 64 38 65 40 66 46 67
REMARK SMILES IDX 39 68 41 69 42 70 43 71 44 72 68 73 69 74 77 75 70 76 72 77
REMARK SMILES IDX 78 78 71 79 73 80 74 81 75 82 76 83 53 84 54 85 62 86 55 87
REMARK SMILES IDX 57 88 63 89 56 90 58 91 59 92 60 93 61 94
REMARK H PARENT 5 14 15 24 15 25 83 47 51 58
REMARK Flexibility Score: inf
ROOT
ATOM      1  C   UNL A   1      32.325  30.127  26.808  1.00  0.00     0.275 C 
ENDROOT
BRANCH   1   2
ATOM      2  O   UNL A   1      32.670  28.755  26.643  1.00  0.00    -0.458 OA
BRANCH   2   3
ATOM      3  C   UNL A   1      31.746  27.844  27.020  1.00  0.00     0.338 C 
ATOM      4  O   UNL A   1      31.043  27.893  27.997  1.00  0.00    -0.246 OA
BRANCH   3   5
ATOM      5  C   UNL A   1      31.745  26.735  26.035  1.00  0.00     0.063 A 
ATOM      6  C   UNL A   1      30.810  28.201  24.158  1.00  0.00     0.045 C 
ATOM      7  C   UNL A   1      31.234  26.879  24.736  1.00  0.00    -0.035 A 
ATOM      8  C   UNL A   1      31.074  25.722  23.950  1.00  0.00     0.030 A 
ATOM      9  C   UNL A   1      31.503  24.466  24.387  1.00  0.00     0.041 A 
ATOM     10  C   UNL A   1      32.185  25.486  26.484  1.00  0.00     0.018 A 
ATOM     11  C   UNL A   1      32.090  24.366  25.652  1.00  0.00     0.027 A 
BRANCH   9  12
ATOM     12  N   UNL A   1      31.317  23.264  23.675  1.00  0.00    -0.322 N 
ATOM     13  C   UNL A   1      32.198  22.313  23.206  1.00  0.00     0.257 C 
ATOM     14  H   UNL A   1      30.374  23.065  23.473  1.00  0.00     0.170 HD
ATOM     15  O   UNL A   1      31.848  21.558  22.296  1.00  0.00    -0.269 OA
BRANCH  13  16
ATOM     16  C   UNL A   1      33.559  22.164  23.763  1.00  0.00     0.063 A 
ATOM     17  C   UNL A   1      34.538  23.044  23.267  1.00  0.00     0.017 A 
ATOM     18  C   UNL A   1      33.875  21.201  24.743  1.00  0.00     0.045 A 
ATOM     19  C   UNL A   1      35.836  22.997  23.772  1.00  0.00     0.016 A 
ATOM     20  C   UNL A   1      35.193  21.160  25.219  1.00  0.00     0.042 A 
ATOM     21  C   UNL A   1      36.153  22.060  24.752  1.00  0.00     0.020 A 
ATOM     22  Br  UNL A   1      37.909  22.002  25.446  1.00  0.00    -0.051 Br
BRANCH  18  23
ATOM     23  N   UNL A   1      32.977  20.238  25.180  1.00  0.00    -0.398 N 
ATOM     24  H   UNL A   1      32.435  20.400  25.987  1.00  0.00     0.156 HD
ATOM     25  H   UNL A   1      32.882  19.392  24.685  1.00  0.00     0.156 HD
ENDBRANCH  18  23
ENDBRANCH  13  16
ENDBRANCH   9  12
ENDBRANCH   3   5
ENDBRANCH   2   3
ENDBRANCH   1   2
BRANCH   1  26
ATOM     26  C   UNL A   1      33.381  31.092  27.385  1.00  0.00     0.275 C 
BRANCH  26  27
ATOM     27  O   UNL A   1      34.819  30.885  27.256  1.00  0.00    -0.458 OA
BRANCH  27  28
ATOM     28  C   UNL A   1      35.891  31.292  27.980  1.00  0.00     0.338 C 
ATOM     29  O   UNL A   1      35.962  32.403  28.473  1.00  0.00    -0.246 OA
BRANCH  28  30
ATOM     30  C   UNL A   1      36.960  30.316  28.188  1.00  0.00     0.060 A 
ATOM     31  C   UNL A   1      37.041  29.600  29.396  1.00  0.00     0.016 A 
ATOM     32  C   UNL A   1      37.825  30.069  27.134  1.00  0.00     0.016 A 
ATOM     33  C   UNL A   1      37.965  28.565  29.519  1.00  0.00     0.010 A 
ATOM     34  C   UNL A   1      38.613  28.950  27.191  1.00  0.00     0.010 A 
ATOM     35  C   UNL A   1      38.749  28.258  28.409  1.00  0.00    -0.014 A 
BRANCH  35  36
ATOM     36  C   UNL A   1      40.045  27.602  28.499  1.00  0.00     0.031 A 
ATOM     37  C   UNL A   1      40.255  26.157  28.419  1.00  0.00     0.074 A 
ATOM     38  C   UNL A   1      41.045  28.508  28.392  1.00  0.00     0.049 A 
ATOM     39  N   UNL A   1      41.381  25.598  28.693  1.00  0.00    -0.248 NA
ATOM     40  C   UNL A   1      39.210  25.208  28.065  1.00  0.00     0.031 C 
ATOM     41  C   UNL A   1      42.415  28.360  27.953  1.00  0.00     0.029 A 
ATOM     42  N   UNL A   1      40.951  29.855  28.775  1.00  0.00    -0.354 N 
ATOM     43  C   UNL A   1      41.311  24.284  28.280  1.00  0.00     0.074 A 
ATOM     44  C   UNL A   1      39.906  24.063  28.021  1.00  0.00     0.031 C 
ATOM     45  C   UNL A   1      43.094  29.462  28.329  1.00  0.00     0.029 A 
ATOM     46  C   UNL A   1      42.214  30.236  29.203  1.00  0.00     0.049 A 
ATOM     47  H   UNL A   1      40.145  30.420  28.746  1.00  0.00     0.167 HD
ATOM     48  C   UNL A   1      42.482  23.616  28.062  1.00  0.00     0.034 A 
ATOM     49  C   UNL A   1      42.433  30.557  30.514  1.00  0.00     0.034 A 
ATOM     50  C   UNL A   1      43.623  24.465  28.459  1.00  0.00     0.049 A 
ATOM     51  C   UNL A   1      43.425  29.596  31.133  1.00  0.00     0.074 A 
ATOM     52  C   UNL A   1      44.455  25.297  27.727  1.00  0.00     0.029 A 
ATOM     53  N   UNL A   1      43.827  24.783  29.799  1.00  0.00    -0.354 N 
ATOM     54  N   UNL A   1      43.738  28.441  30.615  1.00  0.00    -0.248 NA
ATOM     55  C   UNL A   1      44.127  29.857  32.382  1.00  0.00     0.031 C 
ATOM     56  C   UNL A   1      45.059  26.212  28.633  1.00  0.00     0.029 A 
ATOM     57  C   UNL A   1      44.637  25.907  29.918  1.00  0.00     0.049 A 
ATOM     58  H   UNL A   1      43.451  24.282  30.557  1.00  0.00     0.167 HD
ATOM     59  C   UNL A   1      44.580  27.772  31.451  1.00  0.00     0.074 A 
ATOM     60  C   UNL A   1      44.842  28.728  32.517  1.00  0.00     0.031 C 
ATOM     61  C   UNL A   1      44.940  26.472  31.232  1.00  0.00     0.034 A 
BRANCH  48  62
ATOM     62  C   UNL A   1      42.681  22.346  27.232  1.00  0.00     0.023 A 
ATOM     63  C   UNL A   1      41.920  21.212  27.614  1.00  0.00     0.012 A 
ATOM     64  C   UNL A   1      43.596  22.132  26.174  1.00  0.00     0.148 A 
ATOM     65  C   UNL A   1      42.107  19.943  27.051  1.00  0.00     0.002 A 
ATOM     66  C   UNL A   1      43.796  20.860  25.617  1.00  0.00     0.091 A 
ATOM     67  F   UNL A   1      44.284  23.153  25.667  1.00  0.00    -0.205 F 
ATOM     68  C   UNL A   1      43.059  19.761  26.062  1.00  0.00     0.022 A 
BRANCH  66  69
ATOM     69  S   UNL A   1      45.023  20.534  24.333  1.00  0.00     0.127 S 
ATOM     70  O   UNL A   1      44.872  19.092  24.126  1.00  0.00    -0.237 OA
ATOM     71  O   UNL A   1      44.545  21.360  23.225  1.00  0.00    -0.237 OA
ATOM     72  O   UNL A   1      46.313  20.931  24.884  1.00  0.00    -0.744 OA
ENDBRANCH  66  69
ENDBRANCH  48  62
BRANCH  49  73
ATOM     73  C   UNL A   1      41.235  31.127  31.234  1.00  0.00     0.023 A 
ATOM     74  C   UNL A   1      40.702  32.353  30.755  1.00  0.00     0.012 A 
ATOM     75  C   UNL A   1      40.433  30.353  32.096  1.00  0.00     0.148 A 
ATOM     76  C   UNL A   1      39.386  32.737  31.036  1.00  0.00     0.002 A 
ATOM     77  C   UNL A   1      39.118  30.744  32.370  1.00  0.00     0.091 A 
ATOM     78  F   UNL A   1      40.929  29.213  32.593  1.00  0.00    -0.205 F 
ATOM     79  C   UNL A   1      38.586  31.922  31.826  1.00  0.00     0.022 A 
BRANCH  77  80
ATOM     80  S   UNL A   1      38.019  29.660  33.297  1.00  0.00     0.127 S 
ATOM     81  O   UNL A   1      36.689  30.033  32.811  1.00  0.00    -0.237 OA
ATOM     82  O   UNL A   1      38.425  28.318  32.896  1.00  0.00    -0.237 OA
ATOM     83  O   UNL A   1      38.301  30.051  34.674  1.00  0.00    -0.744 OA
ENDBRANCH  77  80
ENDBRANCH  49  73
BRANCH  61  84
ATOM     84  C   UNL A   1      45.614  25.612  32.271  1.00  0.00     0.023 A 
ATOM     85  C   UNL A   1      47.015  25.601  32.425  1.00  0.00     0.012 A 
ATOM     86  C   UNL A   1      44.853  24.920  33.240  1.00  0.00     0.148 A 
ATOM     87  C   UNL A   1      47.638  24.871  33.440  1.00  0.00     0.002 A 
ATOM     88  C   UNL A   1      45.473  24.300  34.320  1.00  0.00     0.091 A 
ATOM     89  F   UNL A   1      43.519  24.850  33.120  1.00  0.00    -0.205 F 
ATOM     90  C   UNL A   1      46.866  24.239  34.403  1.00  0.00     0.022 A 
BRANCH  88  91
ATOM     91  S   UNL A   1      44.496  23.730  35.715  1.00  0.00     0.127 S 
ATOM     92  O   UNL A   1      45.478  22.981  36.493  1.00  0.00    -0.237 OA
ATOM     93  O   UNL A   1      44.056  24.982  36.331  1.00  0.00    -0.237 OA
ATOM     94  O   UNL A   1      43.418  22.954  35.112  1.00  0.00    -0.744 OA
ENDBRANCH  88  91
ENDBRANCH  61  84
ENDBRANCH  35  36
ENDBRANCH  28  30
ENDBRANCH  27  28
ENDBRANCH  26  27
ENDBRANCH   1  26
TORSDOF 17
ENDMDL
MODEL 3
REMARK VINA RESULT:     -12.4      2.011      2.601
REMARK SMILES Cc1cc(NC(=O)c2ccc(Br)cc2N)ccc1C(=O)OCCOC(=O)c1ccc(-c2c3nc(c(-c4cccc(S(=O)(=O)[O-])c4F)c4ccc([nH]4)c(-c4cccc(S(=O)(=O)[O-])c4F)c4nc(c(-c5cccc(S(=O)(=O)[O-])c5F)c5ccc2[nH]5)C=C4)C=C3)cc1
REMARK SMILES IDX 22 1 21 2 19 3 20 4 18 5 1 6 2 7 3 8 4 9 17 10 16 11 5 12
REMARK SMILES IDX 6 13 7 15 8 16 9 17 14 18 10 19 13 20 11 21 12 22 15 23
REMARK SMILES IDX 23 26 24 27 25 28 26 29 27 30 28 31 89 32 29 33 88 34 30 35
REMARK SMILES IDX 31 36 32 37 82 38 33 39 87 40 81 41 83 42 34 43 86 44 80 45
REMARK SMILES IDX 79 46 35 48 67 49 47 50 66 51 48 52 51 53 65 54 84 55 49 56
REMARK SMILES IDX 50 57 64 59 85 60 52 61 36 62 37 63 45 64 38 65 40 66 46 67
REMARK SMILES IDX 39 68 41 69 42 70 43 71 44 72 68 73 69 74 77 75 70 76 72 77
REMARK SMILES IDX 78 78 71 79 73 80 74 81 75 82 76 83 53 84 54 85 62 86 55 87
REMARK SMILES IDX 57 88 63 89 56 90 58 91 59 92 60 93 61 94
REMARK H PARENT 5 14 15 24 15 25 83 47 51 58
REMARK Flexibility Score: inf
ROOT
ATOM      1  C   UNL A   1      32.953  29.894  25.743  1.00  0.00     0.275 C 
ENDROOT
BRANCH   1   2
ATOM      2  O   UNL A   1      32.635  28.639  25.148  1.00  0.00    -0.458 OA
BRANCH   2   3
ATOM      3  C   UNL A   1      31.473  28.567  24.463  1.00  0.00     0.338 C 
ATOM      4  O   UNL A   1      30.745  29.484  24.181  1.00  0.00    -0.246 OA
BRANCH   3   5
ATOM      5  C   UNL A   1      31.211  27.146  24.123  1.00  0.00     0.063 A 
ATOM      6  C   UNL A   1      30.633  26.519  26.535  1.00  0.00     0.045 C 
ATOM      7  C   UNL A   1      30.905  26.182  25.096  1.00  0.00    -0.035 A 
ATOM      8  C   UNL A   1      30.888  24.828  24.710  1.00  0.00     0.030 A 
ATOM      9  C   UNL A   1      31.066  24.436  23.380  1.00  0.00     0.041 A 
ATOM     10  C   UNL A   1      31.384  26.771  22.788  1.00  0.00     0.018 A 
ATOM     11  C   UNL A   1      31.282  25.426  22.417  1.00  0.00     0.027 A 
BRANCH   9  12
ATOM     12  N   UNL A   1      31.121  23.098  22.940  1.00  0.00    -0.322 N 
ATOM     13  C   UNL A   1      32.160  22.203  22.808  1.00  0.00     0.257 C 
ATOM     14  H   UNL A   1      30.245  22.732  22.676  1.00  0.00     0.170 HD
ATOM     15  O   UNL A   1      32.034  21.233  22.056  1.00  0.00    -0.269 OA
BRANCH  13  16
ATOM     16  C   UNL A   1      33.431  22.364  23.544  1.00  0.00     0.063 A 
ATOM     17  C   UNL A   1      34.454  23.067  22.882  1.00  0.00     0.017 A 
ATOM     18  C   UNL A   1      33.624  21.850  24.843  1.00  0.00     0.045 A 
ATOM     19  C   UNL A   1      35.667  23.300  23.526  1.00  0.00     0.016 A 
ATOM     20  C   UNL A   1      34.862  22.078  25.460  1.00  0.00     0.042 A 
ATOM     21  C   UNL A   1      35.861  22.810  24.815  1.00  0.00     0.020 A 
ATOM     22  Br  UNL A   1      37.502  23.134  25.693  1.00  0.00    -0.051 Br
BRANCH  18  23
ATOM     23  N   UNL A   1      32.692  21.053  25.492  1.00  0.00    -0.398 N 
ATOM     24  H   UNL A   1      32.536  20.130  25.188  1.00  0.00     0.156 HD
ATOM     25  H   UNL A   1      32.186  21.412  26.257  1.00  0.00     0.156 HD
ENDBRANCH  18  23
ENDBRANCH  13  16
ENDBRANCH   9  12
ENDBRANCH   3   5
ENDBRANCH   2   3
ENDBRANCH   1   2
BRANCH   1  26
ATOM     26  C   UNL A   1      33.717  29.905  27.084  1.00  0.00     0.275 C 
BRANCH  26  27
ATOM     27  O   UNL A   1      34.478  31.051  27.569  1.00  0.00    -0.458 OA
BRANCH  27  28
ATOM     28  C   UNL A   1      35.235  31.272  28.672  1.00  0.00     0.338 C 
ATOM     29  O   UNL A   1      34.943  32.108  29.508  1.00  0.00    -0.246 OA
BRANCH  28  30
ATOM     30  C   UNL A   1      36.414  30.424  28.848  1.00  0.00     0.060 A 
ATOM     31  C   UNL A   1      36.599  29.707  30.043  1.00  0.00     0.016 A 
ATOM     32  C   UNL A   1      37.283  30.292  27.776  1.00  0.00     0.016 A 
ATOM     33  C   UNL A   1      37.638  28.784  30.136  1.00  0.00     0.010 A 
ATOM     34  C   UNL A   1      38.195  29.272  27.804  1.00  0.00     0.010 A 
ATOM     35  C   UNL A   1      38.433  28.585  29.008  1.00  0.00    -0.014 A 
BRANCH  35  36
ATOM     36  C   UNL A   1      39.798  28.083  29.067  1.00  0.00     0.031 A 
ATOM     37  C   UNL A   1      40.193  26.705  28.775  1.00  0.00     0.074 A 
ATOM     38  C   UNL A   1      40.677  29.107  29.159  1.00  0.00     0.049 A 
ATOM     39  N   UNL A   1      41.370  26.249  29.021  1.00  0.00    -0.248 NA
ATOM     40  C   UNL A   1      39.290  25.708  28.220  1.00  0.00     0.031 C 
ATOM     41  C   UNL A   1      42.070  29.198  28.779  1.00  0.00     0.029 A 
ATOM     42  N   UNL A   1      40.399  30.354  29.742  1.00  0.00    -0.354 N 
ATOM     43  C   UNL A   1      41.482  25.019  28.405  1.00  0.00     0.074 A 
ATOM     44  C   UNL A   1      40.127  24.677  28.036  1.00  0.00     0.031 C 
ATOM     45  C   UNL A   1      42.590  30.297  29.360  1.00  0.00     0.029 A 
ATOM     46  C   UNL A   1      41.588  30.809  30.294  1.00  0.00     0.049 A 
ATOM     47  H   UNL A   1      39.530  30.815  29.756  1.00  0.00     0.167 HD
ATOM     48  C   UNL A   1      42.735  24.541  28.151  1.00  0.00     0.034 A 
ATOM     49  C   UNL A   1      41.716  30.937  31.649  1.00  0.00     0.034 A 
ATOM     50  C   UNL A   1      43.745  25.444  28.739  1.00  0.00     0.049 A 
ATOM     51  C   UNL A   1      42.800  30.015  32.165  1.00  0.00     0.074 A 
ATOM     52  C   UNL A   1      44.490  26.477  28.193  1.00  0.00     0.029 A 
ATOM     53  N   UNL A   1      43.858  25.564  30.121  1.00  0.00    -0.354 N 
ATOM     54  N   UNL A   1      43.276  29.005  31.491  1.00  0.00    -0.248 NA
ATOM     55  C   UNL A   1      43.417  30.153  33.477  1.00  0.00     0.031 C 
ATOM     56  C   UNL A   1      44.939  27.300  29.263  1.00  0.00     0.029 A 
ATOM     57  C   UNL A   1      44.513  26.743  30.459  1.00  0.00     0.049 A 
ATOM     58  H   UNL A   1      43.522  24.906  30.770  1.00  0.00     0.167 HD
ATOM     59  C   UNL A   1      44.165  28.315  32.258  1.00  0.00     0.074 A 
ATOM     60  C   UNL A   1      44.265  29.110  33.474  1.00  0.00     0.031 C 
ATOM     61  C   UNL A   1      44.695  27.120  31.860  1.00  0.00     0.034 A 
BRANCH  48  62
ATOM     62  C   UNL A   1      43.124  23.454  27.145  1.00  0.00     0.023 A 
ATOM     63  C   UNL A   1      43.931  23.860  26.053  1.00  0.00     0.012 A 
ATOM     64  C   UNL A   1      42.708  22.102  27.121  1.00  0.00     0.148 A 
ATOM     65  C   UNL A   1      44.236  23.018  24.976  1.00  0.00     0.002 A 
ATOM     66  C   UNL A   1      43.000  21.259  26.039  1.00  0.00     0.091 A 
ATOM     67  F   UNL A   1      42.035  21.590  28.150  1.00  0.00    -0.205 F 
ATOM     68  C   UNL A   1      43.756  21.718  24.959  1.00  0.00     0.022 A 
BRANCH  66  69
ATOM     69  S   UNL A   1      42.403  19.558  25.932  1.00  0.00     0.127 S 
ATOM     70  O   UNL A   1      43.102  19.064  24.743  1.00  0.00    -0.237 OA
ATOM     71  O   UNL A   1      42.870  18.982  27.193  1.00  0.00    -0.237 OA
ATOM     72  O   UNL A   1      40.955  19.635  25.790  1.00  0.00    -0.744 OA
ENDBRANCH  66  69
ENDBRANCH  48  62
BRANCH  49  73
ATOM     73  C   UNL A   1      40.431  31.236  32.380  1.00  0.00     0.023 A 
ATOM     74  C   UNL A   1      39.754  30.149  32.993  1.00  0.00     0.012 A 
ATOM     75  C   UNL A   1      40.072  32.540  32.774  1.00  0.00     0.148 A 
ATOM     76  C   UNL A   1      38.837  30.349  34.031  1.00  0.00     0.002 A 
ATOM     77  C   UNL A   1      39.156  32.731  33.815  1.00  0.00     0.091 A 
ATOM     78  F   UNL A   1      40.667  33.583  32.181  1.00  0.00    -0.205 F 
ATOM     79  C   UNL A   1      38.555  31.640  34.457  1.00  0.00     0.022 A 
BRANCH  77  80
ATOM     80  S   UNL A   1      38.849  34.382  34.467  1.00  0.00     0.127 S 
ATOM     81  O   UNL A   1      38.134  34.122  35.718  1.00  0.00    -0.237 OA
ATOM     82  O   UNL A   1      40.183  34.936  34.668  1.00  0.00    -0.237 OA
ATOM     83  O   UNL A   1      38.039  34.978  33.410  1.00  0.00    -0.744 OA
ENDBRANCH  77  80
ENDBRANCH  49  73
BRANCH  61  84
ATOM     84  C   UNL A   1      45.435  26.191  32.788  1.00  0.00     0.023 A 
ATOM     85  C   UNL A   1      46.840  26.215  32.893  1.00  0.00     0.012 A 
ATOM     86  C   UNL A   1      44.734  25.383  33.712  1.00  0.00     0.148 A 
ATOM     87  C   UNL A   1      47.524  25.415  33.811  1.00  0.00     0.002 A 
ATOM     88  C   UNL A   1      45.413  24.687  34.706  1.00  0.00     0.091 A 
ATOM     89  F   UNL A   1      43.399  25.277  33.631  1.00  0.00    -0.205 F 
ATOM     90  C   UNL A   1      46.809  24.668  34.735  1.00  0.00     0.022 A 
BRANCH  88  91
ATOM     91  S   UNL A   1      44.507  23.952  36.072  1.00  0.00     0.127 S 
ATOM     92  O   UNL A   1      43.841  25.112  36.659  1.00  0.00    -0.237 OA
ATOM     93  O   UNL A   1      43.612  23.013  35.395  1.00  0.00    -0.237 OA
ATOM     94  O   UNL A   1      45.533  23.313  36.888  1.00  0.00    -0.744 OA
ENDBRANCH  88  91
ENDBRANCH  61  84
ENDBRANCH  35  36
ENDBRANCH  28  30
ENDBRANCH  27  28
ENDBRANCH  26  27
ENDBRANCH   1  26
TORSDOF 17
ENDMDL
