MODEL 1
REMARK VINA RESULT:     -11.8      0.000      0.000
REMARK SMILES O=C(OCCOC(=O)c1ccccc1C(=O)N1CCS[C@H]1c1ccccc1)c1ccc(-c2c3nc(c(-c4cccc(S(=O)(=O)[O-])c4F)c4ccc([nH]4)c(-c4cccc(S(=O)(=O)[O-])c4F)c4nc(c(-c5cccc(S(=O)(=O)[O-])c5F)c5ccc2[nH]5)C=C4)C=C3)cc1
REMARK SMILES IDX 4 1 3 2 2 3 1 4 28 5 29 6 90 7 30 8 89 9 31 10 32 11 33 12
REMARK SMILES IDX 83 13 34 14 88 15 82 16 84 17 35 18 87 19 81 20 80 21 36 23
REMARK SMILES IDX 68 24 48 25 67 26 49 27 52 28 66 29 85 30 50 31 51 32 65 34
REMARK SMILES IDX 86 35 53 36 37 37 38 38 46 39 39 40 41 41 47 42 40 43 42 44
REMARK SMILES IDX 43 45 44 46 45 47 69 48 70 49 78 50 71 51 73 52 79 53 72 54
REMARK SMILES IDX 74 55 75 56 76 57 77 58 54 59 55 60 63 61 56 62 58 63 64 64
REMARK SMILES IDX 57 65 59 66 60 67 61 68 62 69 5 70 6 71 7 72 8 73 9 74 10 75
REMARK SMILES IDX 14 76 11 77 13 78 12 79 15 80 16 81 17 82 18 83 21 84 19 85
REMARK SMILES IDX 20 86 22 87 23 88 27 89 24 90 26 91 25 92
REMARK H PARENT 84 22 52 33
REMARK Flexibility Score: inf
ROOT
ATOM      1  C   UNL A   1      33.254  31.402  27.472  1.00  0.00     0.275 C 
ENDROOT
BRANCH   1   2
ATOM      2  O   UNL A   1      32.845  32.777  27.561  1.00  0.00    -0.458 OA
BRANCH   2   3
ATOM      3  C   UNL A   1      33.296  33.766  28.364  1.00  0.00     0.338 C 
ATOM      4  O   UNL A   1      32.716  34.851  28.353  1.00  0.00    -0.246 OA
BRANCH   3   5
ATOM      5  C   UNL A   1      34.532  33.648  29.192  1.00  0.00     0.060 A 
ATOM      6  C   UNL A   1      35.821  34.020  28.794  1.00  0.00     0.016 A 
ATOM      7  C   UNL A   1      34.375  33.050  30.454  1.00  0.00     0.016 A 
ATOM      8  C   UNL A   1      36.921  33.847  29.642  1.00  0.00     0.010 A 
ATOM      9  C   UNL A   1      35.468  32.860  31.301  1.00  0.00     0.010 A 
ATOM     10  C   UNL A   1      36.752  33.230  30.882  1.00  0.00    -0.014 A 
BRANCH  10  11
ATOM     11  C   UNL A   1      37.921  32.658  31.586  1.00  0.00     0.031 A 
ATOM     12  C   UNL A   1      38.551  31.450  30.968  1.00  0.00     0.074 A 
ATOM     13  C   UNL A   1      38.393  33.157  32.739  1.00  0.00     0.049 A 
ATOM     14  N   UNL A   1      39.553  30.737  31.396  1.00  0.00    -0.248 NA
ATOM     15  C   UNL A   1      37.992  31.006  29.677  1.00  0.00     0.031 C 
ATOM     16  C   UNL A   1      37.920  34.376  33.366  1.00  0.00     0.029 A 
ATOM     17  N   UNL A   1      39.334  32.683  33.615  1.00  0.00    -0.354 N 
ATOM     18  C   UNL A   1      39.756  29.771  30.424  1.00  0.00     0.074 A 
ATOM     19  C   UNL A   1      38.746  29.955  29.407  1.00  0.00     0.031 C 
ATOM     20  C   UNL A   1      38.464  34.499  34.588  1.00  0.00     0.029 A 
ATOM     21  C   UNL A   1      39.360  33.373  34.809  1.00  0.00     0.049 A 
ATOM     22  H   UNL A   1      39.932  31.927  33.413  1.00  0.00     0.167 HD
ATOM     23  C   UNL A   1      40.724  28.834  30.369  1.00  0.00     0.034 A 
ATOM     24  C   UNL A   1      40.027  33.110  35.948  1.00  0.00     0.034 A 
ATOM     25  C   UNL A   1      41.689  28.639  31.409  1.00  0.00     0.049 A 
ATOM     26  C   UNL A   1      41.020  31.981  35.927  1.00  0.00     0.074 A 
ATOM     27  C   UNL A   1      42.717  27.721  31.474  1.00  0.00     0.029 A 
ATOM     28  N   UNL A   1      41.715  29.367  32.592  1.00  0.00    -0.354 N 
ATOM     29  N   UNL A   1      41.294  31.151  34.947  1.00  0.00    -0.248 NA
ATOM     30  C   UNL A   1      41.849  31.792  37.124  1.00  0.00     0.031 C 
ATOM     31  C   UNL A   1      43.348  27.876  32.713  1.00  0.00     0.029 A 
ATOM     32  C   UNL A   1      42.734  28.910  33.405  1.00  0.00     0.049 A 
ATOM     33  H   UNL A   1      41.100  30.101  32.818  1.00  0.00     0.167 HD
ATOM     34  C   UNL A   1      42.375  30.396  35.375  1.00  0.00     0.074 A 
ATOM     35  C   UNL A   1      42.691  30.848  36.717  1.00  0.00     0.031 C 
ATOM     36  C   UNL A   1      43.056  29.428  34.712  1.00  0.00     0.034 A 
BRANCH  23  37
ATOM     37  C   UNL A   1      40.748  27.981  29.136  1.00  0.00     0.023 A 
ATOM     38  C   UNL A   1      40.023  26.768  29.119  1.00  0.00     0.012 A 
ATOM     39  C   UNL A   1      41.555  28.323  28.039  1.00  0.00     0.148 A 
ATOM     40  C   UNL A   1      40.145  25.886  28.048  1.00  0.00     0.002 A 
ATOM     41  C   UNL A   1      41.641  27.456  26.957  1.00  0.00     0.091 A 
ATOM     42  F   UNL A   1      42.266  29.457  28.096  1.00  0.00    -0.205 F 
ATOM     43  C   UNL A   1      40.951  26.231  26.966  1.00  0.00     0.022 A 
BRANCH  41  44
ATOM     44  S   UNL A   1      42.620  27.832  25.503  1.00  0.00     0.127 S 
ATOM     45  O   UNL A   1      42.445  26.619  24.706  1.00  0.00    -0.237 OA
ATOM     46  O   UNL A   1      41.940  29.014  24.972  1.00  0.00    -0.237 OA
ATOM     47  O   UNL A   1      43.972  28.078  25.985  1.00  0.00    -0.744 OA
ENDBRANCH  41  44
ENDBRANCH  23  37
BRANCH  24  48
ATOM     48  C   UNL A   1      39.837  33.972  37.149  1.00  0.00     0.023 A 
ATOM     49  C   UNL A   1      40.341  35.286  37.152  1.00  0.00     0.012 A 
ATOM     50  C   UNL A   1      39.132  33.506  38.278  1.00  0.00     0.148 A 
ATOM     51  C   UNL A   1      40.173  36.112  38.266  1.00  0.00     0.002 A 
ATOM     52  C   UNL A   1      38.940  34.344  39.373  1.00  0.00     0.091 A 
ATOM     53  F   UNL A   1      38.661  32.251  38.260  1.00  0.00    -0.205 F 
ATOM     54  C   UNL A   1      39.469  35.644  39.373  1.00  0.00     0.022 A 
BRANCH  52  55
ATOM     55  S   UNL A   1      37.984  33.859  40.817  1.00  0.00     0.127 S 
ATOM     56  O   UNL A   1      38.892  32.923  41.476  1.00  0.00    -0.237 OA
ATOM     57  O   UNL A   1      37.810  35.136  41.511  1.00  0.00    -0.237 OA
ATOM     58  O   UNL A   1      36.751  33.281  40.300  1.00  0.00    -0.744 OA
ENDBRANCH  52  55
ENDBRANCH  24  48
BRANCH  36  59
ATOM     59  C   UNL A   1      44.257  28.831  35.388  1.00  0.00     0.023 A 
ATOM     60  C   UNL A   1      45.528  29.402  35.199  1.00  0.00     0.012 A 
ATOM     61  C   UNL A   1      44.087  27.788  36.320  1.00  0.00     0.148 A 
ATOM     62  C   UNL A   1      46.621  28.937  35.928  1.00  0.00     0.002 A 
ATOM     63  C   UNL A   1      45.169  27.366  37.078  1.00  0.00     0.091 A 
ATOM     64  F   UNL A   1      42.867  27.248  36.461  1.00  0.00    -0.205 F 
ATOM     65  C   UNL A   1      46.439  27.932  36.878  1.00  0.00     0.022 A 
BRANCH  63  66
ATOM     66  S   UNL A   1      44.999  26.164  38.401  1.00  0.00     0.127 S 
ATOM     67  O   UNL A   1      44.549  24.980  37.673  1.00  0.00    -0.237 OA
ATOM     68  O   UNL A   1      46.365  26.079  38.920  1.00  0.00    -0.237 OA
ATOM     69  O   UNL A   1      44.034  26.727  39.336  1.00  0.00    -0.744 OA
ENDBRANCH  63  66
ENDBRANCH  36  59
ENDBRANCH  10  11
ENDBRANCH   3   5
ENDBRANCH   2   3
ENDBRANCH   1   2
BRANCH   1  70
ATOM     70  C   UNL A   1      32.170  30.443  26.996  1.00  0.00     0.275 C 
BRANCH  70  71
ATOM     71  O   UNL A   1      32.051  30.362  25.565  1.00  0.00    -0.458 OA
BRANCH  71  72
ATOM     72  C   UNL A   1      32.275  29.123  25.063  1.00  0.00     0.339 C 
ATOM     73  O   UNL A   1      33.347  28.534  25.167  1.00  0.00    -0.246 OA
BRANCH  72  74
ATOM     74  C   UNL A   1      31.077  28.431  24.523  1.00  0.00     0.072 A 
ATOM     75  C   UNL A   1      30.394  29.228  23.565  1.00  0.00     0.016 A 
ATOM     76  C   UNL A   1      30.551  27.170  24.852  1.00  0.00     0.054 A 
ATOM     77  C   UNL A   1      29.250  28.785  22.904  1.00  0.00     0.001 A 
ATOM     78  C   UNL A   1      29.359  26.768  24.191  1.00  0.00     0.015 A 
ATOM     79  C   UNL A   1      28.732  27.545  23.218  1.00  0.00     0.001 A 
BRANCH  76  80
ATOM     80  C   UNL A   1      31.043  26.148  25.841  1.00  0.00     0.255 C 
ATOM     81  O   UNL A   1      31.548  26.500  26.908  1.00  0.00    -0.269 OA
BRANCH  80  82
ATOM     82  N   UNL A   1      30.967  24.792  25.568  1.00  0.00    -0.322 N 
ATOM     83  C   UNL A   1      30.516  23.970  26.681  1.00  0.00     0.132 C 
ATOM     84  C   UNL A   1      32.160  24.201  24.977  1.00  0.00     0.174 C 
ATOM     85  C   UNL A   1      30.552  22.513  26.265  1.00  0.00     0.093 C 
ATOM     86  S   UNL A   1      31.834  22.409  24.978  1.00  0.00    -0.130 SA
BRANCH  84  87
ATOM     87  C   UNL A   1      32.524  24.848  23.655  1.00  0.00    -0.015 A 
ATOM     88  C   UNL A   1      31.673  24.876  22.545  1.00  0.00     0.007 A 
ATOM     89  C   UNL A   1      33.687  25.650  23.622  1.00  0.00     0.007 A 
ATOM     90  C   UNL A   1      31.924  25.752  21.483  1.00  0.00     0.000 A 
ATOM     91  C   UNL A   1      33.924  26.534  22.572  1.00  0.00     0.000 A 
ATOM     92  C   UNL A   1      33.029  26.600  21.511  1.00  0.00     0.000 A 
ENDBRANCH  84  87
ENDBRANCH  80  82
ENDBRANCH  76  80
ENDBRANCH  72  74
ENDBRANCH  71  72
ENDBRANCH  70  71
ENDBRANCH   1  70
TORSDOF 17
ENDMDL
MODEL 2
REMARK VINA RESULT:     -11.5      5.633     10.405
REMARK SMILES O=C(OCCOC(=O)c1ccccc1C(=O)N1CCS[C@H]1c1ccccc1)c1ccc(-c2c3nc(c(-c4cccc(S(=O)(=O)[O-])c4F)c4ccc([nH]4)c(-c4cccc(S(=O)(=O)[O-])c4F)c4nc(c(-c5cccc(S(=O)(=O)[O-])c5F)c5ccc2[nH]5)C=C4)C=C3)cc1
REMARK SMILES IDX 4 1 3 2 2 3 1 4 28 5 29 6 90 7 30 8 89 9 31 10 32 11 33 12
REMARK SMILES IDX 83 13 34 14 88 15 82 16 84 17 35 18 87 19 81 20 80 21 36 23
REMARK SMILES IDX 68 24 48 25 67 26 49 27 52 28 66 29 85 30 50 31 51 32 65 34
REMARK SMILES IDX 86 35 53 36 37 37 38 38 46 39 39 40 41 41 47 42 40 43 42 44
REMARK SMILES IDX 43 45 44 46 45 47 69 48 70 49 78 50 71 51 73 52 79 53 72 54
REMARK SMILES IDX 74 55 75 56 76 57 77 58 54 59 55 60 63 61 56 62 58 63 64 64
REMARK SMILES IDX 57 65 59 66 60 67 61 68 62 69 5 70 6 71 7 72 8 73 9 74 10 75
REMARK SMILES IDX 14 76 11 77 13 78 12 79 15 80 16 81 17 82 18 83 21 84 19 85
REMARK SMILES IDX 20 86 22 87 23 88 27 89 24 90 26 91 25 92
REMARK H PARENT 84 22 52 33
REMARK Flexibility Score: inf
ROOT
ATOM      1  C   UNL A   1      36.409  20.684  25.327  1.00  0.00     0.275 C 
ENDROOT
BRANCH   1   2
ATOM      2  O   UNL A   1      37.611  21.439  25.103  1.00  0.00    -0.458 OA
BRANCH   2   3
ATOM      3  C   UNL A   1      38.745  21.503  25.834  1.00  0.00     0.338 C 
ATOM      4  O   UNL A   1      39.370  20.467  26.053  1.00  0.00    -0.246 OA
BRANCH   3   5
ATOM      5  C   UNL A   1      39.231  22.757  26.483  1.00  0.00     0.060 A 
ATOM      6  C   UNL A   1      38.693  24.035  26.294  1.00  0.00     0.016 A 
ATOM      7  C   UNL A   1      40.367  22.630  27.300  1.00  0.00     0.016 A 
ATOM      8  C   UNL A   1      39.238  25.153  26.936  1.00  0.00     0.010 A 
ATOM      9  C   UNL A   1      40.926  23.741  27.932  1.00  0.00     0.010 A 
ATOM     10  C   UNL A   1      40.380  25.014  27.725  1.00  0.00    -0.014 A 
BRANCH  10  11
ATOM     11  C   UNL A   1      41.204  26.200  28.046  1.00  0.00     0.031 A 
ATOM     12  C   UNL A   1      40.495  27.358  28.676  1.00  0.00     0.074 A 
ATOM     13  C   UNL A   1      42.514  26.274  27.768  1.00  0.00     0.049 A 
ATOM     14  N   UNL A   1      40.969  28.521  29.019  1.00  0.00    -0.248 NA
ATOM     15  C   UNL A   1      39.067  27.164  28.986  1.00  0.00     0.031 C 
ATOM     16  C   UNL A   1      43.312  25.177  27.253  1.00  0.00     0.029 A 
ATOM     17  N   UNL A   1      43.398  27.319  27.829  1.00  0.00    -0.354 N 
ATOM     18  C   UNL A   1      39.905  29.192  29.598  1.00  0.00     0.074 A 
ATOM     19  C   UNL A   1      38.749  28.330  29.520  1.00  0.00     0.031 C 
ATOM     20  C   UNL A   1      44.532  25.624  26.913  1.00  0.00     0.029 A 
ATOM     21  C   UNL A   1      44.607  27.043  27.227  1.00  0.00     0.049 A 
ATOM     22  H   UNL A   1      43.191  28.181  28.259  1.00  0.00     0.167 HD
ATOM     23  C   UNL A   1      39.903  30.411  30.178  1.00  0.00     0.034 A 
ATOM     24  C   UNL A   1      45.647  27.855  26.957  1.00  0.00     0.034 A 
ATOM     25  C   UNL A   1      41.050  31.268  30.207  1.00  0.00     0.049 A 
ATOM     26  C   UNL A   1      45.592  29.258  27.497  1.00  0.00     0.074 A 
ATOM     27  C   UNL A   1      41.174  32.526  30.760  1.00  0.00     0.029 A 
ATOM     28  N   UNL A   1      42.269  30.957  29.620  1.00  0.00    -0.354 N 
ATOM     29  N   UNL A   1      44.621  29.840  28.161  1.00  0.00    -0.248 NA
ATOM     30  C   UNL A   1      46.789  30.092  27.326  1.00  0.00     0.031 C 
ATOM     31  C   UNL A   1      42.465  32.988  30.480  1.00  0.00     0.029 A 
ATOM     32  C   UNL A   1      43.153  32.006  29.782  1.00  0.00     0.049 A 
ATOM     33  H   UNL A   1      42.475  30.113  29.158  1.00  0.00     0.167 HD
ATOM     34  C   UNL A   1      45.114  31.075  28.556  1.00  0.00     0.074 A 
ATOM     35  C   UNL A   1      46.464  31.168  28.032  1.00  0.00     0.031 C 
ATOM     36  C   UNL A   1      44.512  32.037  29.299  1.00  0.00     0.034 A 
BRANCH  23  37
ATOM     37  C   UNL A   1      38.613  30.838  30.810  1.00  0.00     0.023 A 
ATOM     38  C   UNL A   1      38.295  30.386  32.110  1.00  0.00     0.012 A 
ATOM     39  C   UNL A   1      37.676  31.600  30.092  1.00  0.00     0.148 A 
ATOM     40  C   UNL A   1      37.042  30.643  32.663  1.00  0.00     0.002 A 
ATOM     41  C   UNL A   1      36.443  31.885  30.665  1.00  0.00     0.091 A 
ATOM     42  F   UNL A   1      37.982  31.981  28.844  1.00  0.00    -0.205 F 
ATOM     43  C   UNL A   1      36.118  31.395  31.942  1.00  0.00     0.022 A 
BRANCH  41  44
ATOM     44  S   UNL A   1      35.205  32.879  29.831  1.00  0.00     0.127 S 
ATOM     45  O   UNL A   1      35.980  34.060  29.454  1.00  0.00    -0.237 OA
ATOM     46  O   UNL A   1      34.822  32.018  28.712  1.00  0.00    -0.237 OA
ATOM     47  O   UNL A   1      34.151  33.105  30.810  1.00  0.00    -0.744 OA
ENDBRANCH  41  44
ENDBRANCH  23  37
BRANCH  24  48
ATOM     48  C   UNL A   1      46.836  27.338  26.222  1.00  0.00     0.023 A 
ATOM     49  C   UNL A   1      46.919  27.502  24.826  1.00  0.00     0.012 A 
ATOM     50  C   UNL A   1      47.900  26.712  26.902  1.00  0.00     0.148 A 
ATOM     51  C   UNL A   1      48.024  27.027  24.117  1.00  0.00     0.002 A 
ATOM     52  C   UNL A   1      49.014  26.268  26.194  1.00  0.00     0.091 A 
ATOM     53  F   UNL A   1      47.803  26.561  28.231  1.00  0.00    -0.205 F 
ATOM     54  C   UNL A   1      49.072  26.415  24.800  1.00  0.00     0.022 A 
BRANCH  52  55
ATOM     55  S   UNL A   1      50.448  25.534  26.992  1.00  0.00     0.127 S 
ATOM     56  O   UNL A   1      51.353  25.339  25.862  1.00  0.00    -0.237 OA
ATOM     57  O   UNL A   1      50.850  26.588  27.925  1.00  0.00    -0.237 OA
ATOM     58  O   UNL A   1      49.967  24.316  27.630  1.00  0.00    -0.744 OA
ENDBRANCH  52  55
ENDBRANCH  24  48
BRANCH  36  59
ATOM     59  C   UNL A   1      45.318  33.251  29.657  1.00  0.00     0.023 A 
ATOM     60  C   UNL A   1      46.130  33.244  30.806  1.00  0.00     0.012 A 
ATOM     61  C   UNL A   1      45.372  34.342  28.767  1.00  0.00     0.148 A 
ATOM     62  C   UNL A   1      46.982  34.315  31.069  1.00  0.00     0.002 A 
ATOM     63  C   UNL A   1      46.260  35.379  29.009  1.00  0.00     0.091 A 
ATOM     64  F   UNL A   1      44.569  34.331  27.692  1.00  0.00    -0.205 F 
ATOM     65  C   UNL A   1      47.060  35.372  30.164  1.00  0.00     0.022 A 
BRANCH  63  66
ATOM     66  S   UNL A   1      46.508  36.719  27.839  1.00  0.00     0.127 S 
ATOM     67  O   UNL A   1      46.819  35.989  26.612  1.00  0.00    -0.237 OA
ATOM     68  O   UNL A   1      45.203  37.379  27.843  1.00  0.00    -0.237 OA
ATOM     69  O   UNL A   1      47.594  37.527  28.377  1.00  0.00    -0.744 OA
ENDBRANCH  63  66
ENDBRANCH  36  59
ENDBRANCH  10  11
ENDBRANCH   3   5
ENDBRANCH   2   3
ENDBRANCH   1   2
BRANCH   1  70
ATOM     70  C   UNL A   1      35.161  21.258  24.670  1.00  0.00     0.275 C 
BRANCH  70  71
ATOM     71  O   UNL A   1      34.035  21.372  25.557  1.00  0.00    -0.458 OA
BRANCH  71  72
ATOM     72  C   UNL A   1      32.858  21.609  24.927  1.00  0.00     0.339 C 
ATOM     73  O   UNL A   1      32.408  20.889  24.040  1.00  0.00    -0.246 OA
BRANCH  72  74
ATOM     74  C   UNL A   1      32.041  22.710  25.499  1.00  0.00     0.072 A 
ATOM     75  C   UNL A   1      30.866  22.221  26.131  1.00  0.00     0.016 A 
ATOM     76  C   UNL A   1      32.262  24.097  25.463  1.00  0.00     0.054 A 
ATOM     77  C   UNL A   1      29.951  23.063  26.759  1.00  0.00     0.001 A 
ATOM     78  C   UNL A   1      31.287  24.930  26.074  1.00  0.00     0.015 A 
ATOM     79  C   UNL A   1      30.165  24.426  26.732  1.00  0.00     0.001 A 
BRANCH  76  80
ATOM     80  C   UNL A   1      33.389  24.878  24.839  1.00  0.00     0.255 C 
ATOM     81  O   UNL A   1      34.546  24.734  25.235  1.00  0.00    -0.269 OA
BRANCH  80  82
ATOM     82  N   UNL A   1      33.151  25.794  23.828  1.00  0.00    -0.322 N 
ATOM     83  C   UNL A   1      33.414  25.301  22.484  1.00  0.00     0.132 C 
ATOM     84  C   UNL A   1      33.775  27.099  24.001  1.00  0.00     0.174 C 
ATOM     85  C   UNL A   1      33.183  26.423  21.492  1.00  0.00     0.093 C 
ATOM     86  S   UNL A   1      33.486  27.959  22.421  1.00  0.00    -0.130 SA
BRANCH  84  87
ATOM     87  C   UNL A   1      33.318  27.789  25.270  1.00  0.00    -0.015 A 
ATOM     88  C   UNL A   1      34.157  28.035  26.363  1.00  0.00     0.007 A 
ATOM     89  C   UNL A   1      32.048  28.407  25.254  1.00  0.00     0.007 A 
ATOM     90  C   UNL A   1      33.777  28.947  27.354  1.00  0.00     0.000 A 
ATOM     91  C   UNL A   1      31.681  29.328  26.232  1.00  0.00     0.000 A 
ATOM     92  C   UNL A   1      32.557  29.614  27.272  1.00  0.00     0.000 A 
ENDBRANCH  84  87
ENDBRANCH  80  82
ENDBRANCH  76  80
ENDBRANCH  72  74
ENDBRANCH  71  72
ENDBRANCH  70  71
ENDBRANCH   1  70
TORSDOF 17
ENDMDL
MODEL 3
REMARK VINA RESULT:     -11.4      1.833      2.343
REMARK SMILES O=C(OCCOC(=O)c1ccccc1C(=O)N1CCS[C@H]1c1ccccc1)c1ccc(-c2c3nc(c(-c4cccc(S(=O)(=O)[O-])c4F)c4ccc([nH]4)c(-c4cccc(S(=O)(=O)[O-])c4F)c4nc(c(-c5cccc(S(=O)(=O)[O-])c5F)c5ccc2[nH]5)C=C4)C=C3)cc1
REMARK SMILES IDX 4 1 3 2 2 3 1 4 28 5 29 6 90 7 30 8 89 9 31 10 32 11 33 12
REMARK SMILES IDX 83 13 34 14 88 15 82 16 84 17 35 18 87 19 81 20 80 21 36 23
REMARK SMILES IDX 68 24 48 25 67 26 49 27 52 28 66 29 85 30 50 31 51 32 65 34
REMARK SMILES IDX 86 35 53 36 37 37 38 38 46 39 39 40 41 41 47 42 40 43 42 44
REMARK SMILES IDX 43 45 44 46 45 47 69 48 70 49 78 50 71 51 73 52 79 53 72 54
REMARK SMILES IDX 74 55 75 56 76 57 77 58 54 59 55 60 63 61 56 62 58 63 64 64
REMARK SMILES IDX 57 65 59 66 60 67 61 68 62 69 5 70 6 71 7 72 8 73 9 74 10 75
REMARK SMILES IDX 14 76 11 77 13 78 12 79 15 80 16 81 17 82 18 83 21 84 19 85
REMARK SMILES IDX 20 86 22 87 23 88 27 89 24 90 26 91 25 92
REMARK H PARENT 84 22 52 33
REMARK Flexibility Score: inf
ROOT
ATOM      1  C   UNL A   1      32.083  32.007  26.498  1.00  0.00     0.275 C 
ENDROOT
BRANCH   1   2
ATOM      2  O   UNL A   1      32.573  32.718  27.646  1.00  0.00    -0.458 OA
BRANCH   2   3
ATOM      3  C   UNL A   1      33.779  33.288  27.865  1.00  0.00     0.338 C 
ATOM      4  O   UNL A   1      33.932  34.478  27.594  1.00  0.00    -0.246 OA
BRANCH   3   5
ATOM      5  C   UNL A   1      34.975  32.521  28.322  1.00  0.00     0.060 A 
ATOM      6  C   UNL A   1      34.958  31.234  28.873  1.00  0.00     0.016 A 
ATOM      7  C   UNL A   1      36.207  33.192  28.244  1.00  0.00     0.016 A 
ATOM      8  C   UNL A   1      36.139  30.609  29.292  1.00  0.00     0.010 A 
ATOM      9  C   UNL A   1      37.387  32.583  28.673  1.00  0.00     0.010 A 
ATOM     10  C   UNL A   1      37.350  31.298  29.229  1.00  0.00    -0.014 A 
BRANCH  10  11
ATOM     11  C   UNL A   1      38.500  30.844  30.042  1.00  0.00     0.031 A 
ATOM     12  C   UNL A   1      39.337  29.746  29.466  1.00  0.00     0.074 A 
ATOM     13  C   UNL A   1      38.781  31.350  31.253  1.00  0.00     0.049 A 
ATOM     14  N   UNL A   1      40.368  29.143  29.983  1.00  0.00    -0.248 NA
ATOM     15  C   UNL A   1      38.978  29.288  28.111  1.00  0.00     0.031 C 
ATOM     16  C   UNL A   1      38.097  32.478  31.855  1.00  0.00     0.029 A 
ATOM     17  N   UNL A   1      39.676  30.960  32.214  1.00  0.00    -0.354 N 
ATOM     18  C   UNL A   1      40.792  28.248  29.015  1.00  0.00     0.074 A 
ATOM     19  C   UNL A   1      39.881  28.348  27.898  1.00  0.00     0.031 C 
ATOM     20  C   UNL A   1      38.489  32.618  33.132  1.00  0.00     0.029 A 
ATOM     21  C   UNL A   1      39.489  31.601  33.421  1.00  0.00     0.049 A 
ATOM     22  H   UNL A   1      40.381  30.290  32.060  1.00  0.00     0.167 HD
ATOM     23  C   UNL A   1      41.870  27.437  29.042  1.00  0.00     0.034 A 
ATOM     24  C   UNL A   1      40.060  31.376  34.620  1.00  0.00     0.034 A 
ATOM     25  C   UNL A   1      42.735  27.320  30.176  1.00  0.00     0.049 A 
ATOM     26  C   UNL A   1      41.182  30.376  34.678  1.00  0.00     0.074 A 
ATOM     27  C   UNL A   1      43.857  26.531  30.330  1.00  0.00     0.029 A 
ATOM     28  N   UNL A   1      42.545  27.998  31.373  1.00  0.00    -0.354 N 
ATOM     29  N   UNL A   1      41.659  29.625  33.713  1.00  0.00    -0.248 NA
ATOM     30  C   UNL A   1      41.897  30.242  35.954  1.00  0.00     0.031 C 
ATOM     31  C   UNL A   1      44.330  26.712  31.634  1.00  0.00     0.029 A 
ATOM     32  C   UNL A   1      43.521  27.636  32.281  1.00  0.00     0.049 A 
ATOM     33  H   UNL A   1      41.823  28.643  31.549  1.00  0.00     0.167 HD
ATOM     34  C   UNL A   1      42.775  28.990  34.238  1.00  0.00     0.074 A 
ATOM     35  C   UNL A   1      42.888  29.424  35.618  1.00  0.00     0.031 C 
ATOM     36  C   UNL A   1      43.637  28.138  33.629  1.00  0.00     0.034 A 
BRANCH  23  37
ATOM     37  C   UNL A   1      42.129  26.642  27.797  1.00  0.00     0.023 A 
ATOM     38  C   UNL A   1      42.579  27.305  26.634  1.00  0.00     0.012 A 
ATOM     39  C   UNL A   1      41.840  25.269  27.745  1.00  0.00     0.148 A 
ATOM     40  C   UNL A   1      42.685  26.621  25.425  1.00  0.00     0.002 A 
ATOM     41  C   UNL A   1      41.985  24.585  26.545  1.00  0.00     0.091 A 
ATOM     42  F   UNL A   1      41.373  24.671  28.850  1.00  0.00    -0.205 F 
ATOM     43  C   UNL A   1      42.392  25.260  25.382  1.00  0.00     0.022 A 
BRANCH  41  44
ATOM     44  S   UNL A   1      41.671  22.825  26.401  1.00  0.00     0.127 S 
ATOM     45  O   UNL A   1      42.223  22.322  27.657  1.00  0.00    -0.237 OA
ATOM     46  O   UNL A   1      40.211  22.780  26.315  1.00  0.00    -0.237 OA
ATOM     47  O   UNL A   1      42.361  22.395  25.193  1.00  0.00    -0.744 OA
ENDBRANCH  41  44
ENDBRANCH  23  37
BRANCH  24  48
ATOM     48  C   UNL A   1      39.638  32.160  35.814  1.00  0.00     0.023 A 
ATOM     49  C   UNL A   1      40.190  33.434  36.043  1.00  0.00     0.012 A 
ATOM     50  C   UNL A   1      38.669  31.663  36.710  1.00  0.00     0.148 A 
ATOM     51  C   UNL A   1      39.808  34.188  37.155  1.00  0.00     0.002 A 
ATOM     52  C   UNL A   1      38.269  32.431  37.800  1.00  0.00     0.091 A 
ATOM     53  F   UNL A   1      38.156  30.446  36.479  1.00  0.00    -0.205 F 
ATOM     54  C   UNL A   1      38.846  33.690  38.030  1.00  0.00     0.022 A 
BRANCH  52  55
ATOM     55  S   UNL A   1      36.982  31.909  38.942  1.00  0.00     0.127 S 
ATOM     56  O   UNL A   1      37.524  32.348  40.226  1.00  0.00    -0.237 OA
ATOM     57  O   UNL A   1      35.827  32.674  38.470  1.00  0.00    -0.237 OA
ATOM     58  O   UNL A   1      36.861  30.467  38.771  1.00  0.00    -0.744 OA
ENDBRANCH  52  55
ENDBRANCH  24  48
BRANCH  36  59
ATOM     59  C   UNL A   1      44.824  27.664  34.417  1.00  0.00     0.023 A 
ATOM     60  C   UNL A   1      46.031  28.385  34.374  1.00  0.00     0.012 A 
ATOM     61  C   UNL A   1      44.685  26.580  35.306  1.00  0.00     0.148 A 
ATOM     62  C   UNL A   1      47.091  28.028  35.205  1.00  0.00     0.002 A 
ATOM     63  C   UNL A   1      45.726  26.264  36.166  1.00  0.00     0.091 A 
ATOM     64  F   UNL A   1      43.531  25.898  35.307  1.00  0.00    -0.205 F 
ATOM     65  C   UNL A   1      46.933  26.980  36.112  1.00  0.00     0.022 A 
BRANCH  63  66
ATOM     66  S   UNL A   1      45.565  25.009  37.441  1.00  0.00     0.127 S 
ATOM     67  O   UNL A   1      45.747  23.780  36.674  1.00  0.00    -0.237 OA
ATOM     68  O   UNL A   1      46.672  25.338  38.340  1.00  0.00    -0.237 OA
ATOM     69  O   UNL A   1      44.242  25.193  38.022  1.00  0.00    -0.744 OA
ENDBRANCH  63  66
ENDBRANCH  36  59
ENDBRANCH  10  11
ENDBRANCH   3   5
ENDBRANCH   2   3
ENDBRANCH   1   2
BRANCH   1  70
ATOM     70  C   UNL A   1      31.388  30.688  26.812  1.00  0.00     0.275 C 
BRANCH  70  71
ATOM     71  O   UNL A   1      32.203  29.528  26.568  1.00  0.00    -0.458 OA
BRANCH  71  72
ATOM     72  C   UNL A   1      32.329  29.209  25.256  1.00  0.00     0.339 C 
ATOM     73  O   UNL A   1      33.378  29.323  24.629  1.00  0.00    -0.246 OA
BRANCH  72  74
ATOM     74  C   UNL A   1      31.151  28.535  24.652  1.00  0.00     0.072 A 
ATOM     75  C   UNL A   1      30.509  29.358  23.688  1.00  0.00     0.016 A 
ATOM     76  C   UNL A   1      30.609  27.268  24.928  1.00  0.00     0.054 A 
ATOM     77  C   UNL A   1      29.391  28.936  22.971  1.00  0.00     0.001 A 
ATOM     78  C   UNL A   1      29.443  26.887  24.211  1.00  0.00     0.015 A 
ATOM     79  C   UNL A   1      28.858  27.690  23.234  1.00  0.00     0.001 A 
BRANCH  76  80
ATOM     80  C   UNL A   1      31.059  26.220  25.911  1.00  0.00     0.255 C 
ATOM     81  O   UNL A   1      31.526  26.544  27.004  1.00  0.00    -0.269 OA
BRANCH  80  82
ATOM     82  N   UNL A   1      30.986  24.872  25.603  1.00  0.00    -0.322 N 
ATOM     83  C   UNL A   1      30.501  24.025  26.683  1.00  0.00     0.132 C 
ATOM     84  C   UNL A   1      32.193  24.290  25.031  1.00  0.00     0.174 C 
ATOM     85  C   UNL A   1      30.543  22.578  26.234  1.00  0.00     0.093 C 
ATOM     86  S   UNL A   1      31.861  22.499  24.981  1.00  0.00    -0.130 SA
BRANCH  84  87
ATOM     87  C   UNL A   1      32.596  24.966  23.736  1.00  0.00    -0.015 A 
ATOM     88  C   UNL A   1      31.841  24.901  22.560  1.00  0.00     0.007 A 
ATOM     89  C   UNL A   1      33.667  25.886  23.789  1.00  0.00     0.007 A 
ATOM     90  C   UNL A   1      32.087  25.795  21.511  1.00  0.00     0.000 A 
ATOM     91  C   UNL A   1      33.898  26.786  22.752  1.00  0.00     0.000 A 
ATOM     92  C   UNL A   1      33.092  26.753  21.620  1.00  0.00     0.000 A 
ENDBRANCH  84  87
ENDBRANCH  80  82
ENDBRANCH  76  80
ENDBRANCH  72  74
ENDBRANCH  71  72
ENDBRANCH  70  71
ENDBRANCH   1  70
TORSDOF 17
ENDMDL
