MODEL 1
REMARK VINA RESULT:     -12.2      0.000      0.000
REMARK SMILES O=C(OCCOC(=O)[C@]1(CCc2cccnc2)CCC[NH2+]C1)c1ccc(-c2c3nc(c(-c4cccc(S(=O)(=O)[O-])c4F)c4ccc([nH]4)c(-c4cccc(S(=O)(=O)[O-])c4F)c4nc(c(-c5cccc(S(=O)(=O)[O-])c5F)c5ccc2[nH]5)C=C4)C=C3)cc1
REMARK SMILES IDX 4 1 3 2 2 3 1 4 23 5 24 6 85 7 25 8 84 9 26 10 27 11 28 12
REMARK SMILES IDX 78 13 29 14 83 15 77 16 79 17 30 18 82 19 76 20 75 21 31 23
REMARK SMILES IDX 63 24 43 25 62 26 44 27 47 28 61 29 80 30 45 31 46 32 60 34
REMARK SMILES IDX 81 35 48 36 32 37 33 38 41 39 34 40 36 41 42 42 35 43 37 44
REMARK SMILES IDX 38 45 39 46 40 47 64 48 65 49 73 50 66 51 68 52 74 53 67 54
REMARK SMILES IDX 69 55 70 56 71 57 72 58 49 59 50 60 58 61 51 62 53 63 59 64
REMARK SMILES IDX 52 65 54 66 55 67 56 68 57 69 5 70 6 71 7 72 8 73 9 74 18 75
REMARK SMILES IDX 22 76 19 77 21 78 20 79 10 82 11 83 12 84 13 85 17 86 14 87
REMARK SMILES IDX 16 88 15 89
REMARK H PARENT 79 22 47 33 21 80 21 81
REMARK Flexibility Score: inf
ROOT
ATOM      1  C   UNL A   1      31.490  30.256  25.462  1.00  0.00     0.275 C 
ENDROOT
BRANCH   1   2
ATOM      2  O   UNL A   1      31.695  30.601  26.850  1.00  0.00    -0.458 OA
BRANCH   2   3
ATOM      3  C   UNL A   1      32.472  31.615  27.277  1.00  0.00     0.338 C 
ATOM      4  O   UNL A   1      32.055  32.764  27.359  1.00  0.00    -0.246 OA
BRANCH   3   5
ATOM      5  C   UNL A   1      33.887  31.366  27.565  1.00  0.00     0.060 A 
ATOM      6  C   UNL A   1      34.601  29.832  27.883  1.00  0.00     0.016 A 
ATOM      7  C   UNL A   1      34.869  32.783  27.844  1.00  0.00     0.016 A 
ATOM      8  C   UNL A   1      36.253  29.642  28.400  1.00  0.00     0.010 A 
ATOM      9  C   UNL A   1      36.736  32.596  28.390  1.00  0.00     0.010 A 
ATOM     10  C   UNL A   1      37.357  30.962  28.712  1.00  0.00    -0.014 A 
BRANCH  10  11
ATOM     11  C   UNL A   1      38.646  30.589  29.363  1.00  0.00     0.031 A 
ATOM     12  C   UNL A   1      38.951  31.071  30.757  1.00  0.00     0.074 A 
ATOM     13  C   UNL A   1      39.425  29.631  28.833  1.00  0.00     0.049 A 
ATOM     14  N   UNL A   1      39.635  30.483  31.705  1.00  0.00    -0.248 NA
ATOM     15  C   UNL A   1      38.366  32.353  31.169  1.00  0.00     0.031 C 
ATOM     16  C   UNL A   1      39.248  29.064  27.510  1.00  0.00     0.029 A 
ATOM     17  N   UNL A   1      40.508  28.957  29.335  1.00  0.00    -0.354 N 
ATOM     18  C   UNL A   1      39.456  31.263  32.842  1.00  0.00     0.074 A 
ATOM     19  C   UNL A   1      38.605  32.369  32.472  1.00  0.00     0.031 C 
ATOM     20  C   UNL A   1      40.188  28.137  27.280  1.00  0.00     0.029 A 
ATOM     21  C   UNL A   1      41.051  28.052  28.451  1.00  0.00     0.049 A 
ATOM     22  H   UNL A   1      40.864  29.105  30.241  1.00  0.00     0.167 HD
ATOM     23  C   UNL A   1      39.987  31.107  34.076  1.00  0.00     0.034 A 
ATOM     24  C   UNL A   1      42.132  27.257  28.568  1.00  0.00     0.034 A 
ATOM     25  C   UNL A   1      41.055  30.190  34.356  1.00  0.00     0.049 A 
ATOM     26  C   UNL A   1      42.827  27.204  29.899  1.00  0.00     0.074 A 
ATOM     27  C   UNL A   1      41.774  30.030  35.526  1.00  0.00     0.029 A 
ATOM     28  N   UNL A   1      41.626  29.345  33.414  1.00  0.00    -0.354 N 
ATOM     29  N   UNL A   1      42.513  27.821  31.013  1.00  0.00    -0.248 NA
ATOM     30  C   UNL A   1      43.990  26.313  30.010  1.00  0.00     0.031 C 
ATOM     31  C   UNL A   1      42.819  29.134  35.271  1.00  0.00     0.029 A 
ATOM     32  C   UNL A   1      42.713  28.690  33.960  1.00  0.00     0.049 A 
ATOM     33  H   UNL A   1      41.303  29.230  32.491  1.00  0.00     0.167 HD
ATOM     34  C   UNL A   1      43.421  27.380  31.965  1.00  0.00     0.074 A 
ATOM     35  C   UNL A   1      44.281  26.420  31.300  1.00  0.00     0.031 C 
ATOM     36  C   UNL A   1      43.541  27.736  33.268  1.00  0.00     0.034 A 
BRANCH  23  37
ATOM     37  C   UNL A   1      39.458  31.988  35.176  1.00  0.00     0.023 A 
ATOM     38  C   UNL A   1      38.425  31.498  36.004  1.00  0.00     0.012 A 
ATOM     39  C   UNL A   1      39.973  33.277  35.410  1.00  0.00     0.148 A 
ATOM     40  C   UNL A   1      37.903  32.281  37.034  1.00  0.00     0.002 A 
ATOM     41  C   UNL A   1      39.465  34.043  36.455  1.00  0.00     0.091 A 
ATOM     42  F   UNL A   1      40.936  33.734  34.598  1.00  0.00    -0.205 F 
ATOM     43  C   UNL A   1      38.426  33.550  37.264  1.00  0.00     0.022 A 
BRANCH  41  44
ATOM     44  S   UNL A   1      40.083  35.682  36.855  1.00  0.00     0.127 S 
ATOM     45  O   UNL A   1      39.377  35.967  38.104  1.00  0.00    -0.237 OA
ATOM     46  O   UNL A   1      41.516  35.437  37.007  1.00  0.00    -0.237 OA
ATOM     47  O   UNL A   1      39.720  36.536  35.733  1.00  0.00    -0.744 OA
ENDBRANCH  41  44
ENDBRANCH  23  37
BRANCH  24  48
ATOM     48  C   UNL A   1      42.604  26.468  27.392  1.00  0.00     0.023 A 
ATOM     49  C   UNL A   1      43.453  27.040  26.427  1.00  0.00     0.012 A 
ATOM     50  C   UNL A   1      42.231  25.114  27.254  1.00  0.00     0.148 A 
ATOM     51  C   UNL A   1      43.905  26.285  25.339  1.00  0.00     0.002 A 
ATOM     52  C   UNL A   1      42.735  24.351  26.206  1.00  0.00     0.091 A 
ATOM     53  F   UNL A   1      41.396  24.588  28.162  1.00  0.00    -0.205 F 
ATOM     54  C   UNL A   1      43.559  24.938  25.238  1.00  0.00     0.022 A 
BRANCH  52  55
ATOM     55  S   UNL A   1      42.454  22.580  26.108  1.00  0.00     0.127 S 
ATOM     56  O   UNL A   1      41.002  22.511  25.986  1.00  0.00    -0.237 OA
ATOM     57  O   UNL A   1      43.193  22.217  24.897  1.00  0.00    -0.237 OA
ATOM     58  O   UNL A   1      43.022  22.031  27.333  1.00  0.00    -0.744 OA
ENDBRANCH  52  55
ENDBRANCH  24  48
BRANCH  36  59
ATOM     59  C   UNL A   1      44.637  27.077  34.057  1.00  0.00     0.023 A 
ATOM     60  C   UNL A   1      45.908  27.678  34.138  1.00  0.00     0.012 A 
ATOM     61  C   UNL A   1      44.383  25.888  34.766  1.00  0.00     0.148 A 
ATOM     62  C   UNL A   1      46.925  27.080  34.880  1.00  0.00     0.002 A 
ATOM     63  C   UNL A   1      45.382  25.328  35.548  1.00  0.00     0.091 A 
ATOM     64  F   UNL A   1      43.170  25.323  34.655  1.00  0.00    -0.205 F 
ATOM     65  C   UNL A   1      46.659  25.912  35.594  1.00  0.00     0.022 A 
BRANCH  63  66
ATOM     66  S   UNL A   1      45.092  23.886  36.577  1.00  0.00     0.127 S 
ATOM     67  O   UNL A   1      46.456  23.484  36.917  1.00  0.00    -0.237 OA
ATOM     68  O   UNL A   1      44.325  24.449  37.689  1.00  0.00    -0.237 OA
ATOM     69  O   UNL A   1      44.349  22.947  35.748  1.00  0.00    -0.744 OA
ENDBRANCH  63  66
ENDBRANCH  36  59
ENDBRANCH  10  11
ENDBRANCH   3   5
ENDBRANCH   2   3
ENDBRANCH   1   2
BRANCH   1  70
ATOM     70  C   UNL A   1      32.694  29.522  24.853  1.00  0.00     0.274 C 
BRANCH  70  71
ATOM     71  O   UNL A   1      32.214  28.475  23.994  1.00  0.00    -0.461 OA
BRANCH  71  72
ATOM     72  C   UNL A   1      32.492  27.158  24.176  1.00  0.00     0.317 C 
ATOM     73  O   UNL A   1      33.354  26.726  24.924  1.00  0.00    -0.251 OA
BRANCH  72  74
ATOM     74  C   UNL A   1      31.481  26.299  23.326  1.00  0.00     0.117 C 
ATOM     75  C   UNL A   1      30.695  25.056  24.608  1.00  0.00     0.030 C 
ATOM     76  C   UNL A   1      32.424  25.483  21.913  1.00  0.00     0.279 C 
ATOM     77  C   UNL A   1      31.370  22.968  24.432  1.00  0.00     0.063 C 
ATOM     78  N   UNL A   1      32.788  23.816  21.680  1.00  0.00    -0.345 N 
ATOM     79  C   UNL A   1      32.397  22.600  22.821  1.00  0.00     0.260 C 
ATOM     80  H   UNL A   1      32.322  23.547  20.813  1.00  0.00     0.346 HD
ATOM     81  H   UNL A   1      33.807  23.823  21.734  1.00  0.00     0.346 HD
BRANCH  74  82
ATOM     82  C   UNL A   1      30.566  27.312  22.574  1.00  0.00     0.029 C 
BRANCH  82  83
ATOM     83  C   UNL A   1      29.208  27.797  23.081  1.00  0.00     0.038 C 
BRANCH  83  84
ATOM     84  C   UNL A   1      28.799  29.213  22.838  1.00  0.00    -0.030 A 
ATOM     85  C   UNL A   1      29.530  30.068  22.013  1.00  0.00     0.007 A 
ATOM     86  C   UNL A   1      27.623  29.705  23.400  1.00  0.00     0.114 A 
ATOM     87  C   UNL A   1      29.065  31.359  21.785  1.00  0.00     0.020 A 
ATOM     88  N   UNL A   1      27.159  30.961  23.216  1.00  0.00    -0.264 NA
ATOM     89  C   UNL A   1      27.885  31.752  22.399  1.00  0.00     0.111 A 
ENDBRANCH  83  84
ENDBRANCH  82  83
ENDBRANCH  74  82
ENDBRANCH  72  74
ENDBRANCH  71  72
ENDBRANCH  70  71
ENDBRANCH   1  70
TORSDOF 17
ENDMDL
MODEL 2
REMARK VINA RESULT:     -11.8      5.003     10.799
REMARK SMILES O=C(OCCOC(=O)[C@]1(CCc2cccnc2)CCC[NH2+]C1)c1ccc(-c2c3nc(c(-c4cccc(S(=O)(=O)[O-])c4F)c4ccc([nH]4)c(-c4cccc(S(=O)(=O)[O-])c4F)c4nc(c(-c5cccc(S(=O)(=O)[O-])c5F)c5ccc2[nH]5)C=C4)C=C3)cc1
REMARK SMILES IDX 4 1 3 2 2 3 1 4 23 5 24 6 85 7 25 8 84 9 26 10 27 11 28 12
REMARK SMILES IDX 78 13 29 14 83 15 77 16 79 17 30 18 82 19 76 20 75 21 31 23
REMARK SMILES IDX 63 24 43 25 62 26 44 27 47 28 61 29 80 30 45 31 46 32 60 34
REMARK SMILES IDX 81 35 48 36 32 37 33 38 41 39 34 40 36 41 42 42 35 43 37 44
REMARK SMILES IDX 38 45 39 46 40 47 64 48 65 49 73 50 66 51 68 52 74 53 67 54
REMARK SMILES IDX 69 55 70 56 71 57 72 58 49 59 50 60 58 61 51 62 53 63 59 64
REMARK SMILES IDX 52 65 54 66 55 67 56 68 57 69 5 70 6 71 7 72 8 73 9 74 18 75
REMARK SMILES IDX 22 76 19 77 21 78 20 79 10 82 11 83 12 84 13 85 17 86 14 87
REMARK SMILES IDX 16 88 15 89
REMARK H PARENT 79 22 47 33 21 80 21 81
REMARK Flexibility Score: inf
ROOT
ATOM      1  C   UNL A   1      36.415  20.202  25.017  1.00  0.00     0.275 C 
ENDROOT
BRANCH   1   2
ATOM      2  O   UNL A   1      37.729  20.657  24.624  1.00  0.00    -0.458 OA
BRANCH   2   3
ATOM      3  C   UNL A   1      38.838  20.528  25.378  1.00  0.00     0.338 C 
ATOM      4  O   UNL A   1      39.439  19.465  25.474  1.00  0.00    -0.246 OA
BRANCH   3   5
ATOM      5  C   UNL A   1      39.295  21.662  26.186  1.00  0.00     0.060 A 
ATOM      6  C   UNL A   1      38.855  23.310  25.959  1.00  0.00     0.016 A 
ATOM      7  C   UNL A   1      40.581  21.322  27.317  1.00  0.00     0.016 A 
ATOM      8  C   UNL A   1      39.586  24.620  26.844  1.00  0.00     0.010 A 
ATOM      9  C   UNL A   1      41.395  22.770  28.349  1.00  0.00     0.010 A 
ATOM     10  C   UNL A   1      40.875  24.435  28.011  1.00  0.00    -0.014 A 
BRANCH  10  11
ATOM     11  C   UNL A   1      41.510  25.700  28.481  1.00  0.00     0.031 A 
ATOM     12  C   UNL A   1      42.926  26.024  28.084  1.00  0.00     0.074 A 
ATOM     13  C   UNL A   1      40.765  26.669  29.041  1.00  0.00     0.049 A 
ATOM     14  N   UNL A   1      43.476  27.190  27.860  1.00  0.00    -0.248 NA
ATOM     15  C   UNL A   1      43.833  24.895  27.848  1.00  0.00     0.031 C 
ATOM     16  C   UNL A   1      39.388  26.507  29.466  1.00  0.00     0.029 A 
ATOM     17  N   UNL A   1      41.048  27.977  29.340  1.00  0.00    -0.354 N 
ATOM     18  C   UNL A   1      44.740  26.920  27.346  1.00  0.00     0.074 A 
ATOM     19  C   UNL A   1      44.883  25.484  27.293  1.00  0.00     0.031 C 
ATOM     20  C   UNL A   1      38.932  27.655  29.987  1.00  0.00     0.029 A 
ATOM     21  C   UNL A   1      40.003  28.643  29.940  1.00  0.00     0.049 A 
ATOM     22  H   UNL A   1      41.914  28.400  29.143  1.00  0.00     0.167 HD
ATOM     23  C   UNL A   1      45.719  27.783  26.992  1.00  0.00     0.034 A 
ATOM     24  C   UNL A   1      39.926  29.901  30.415  1.00  0.00     0.034 A 
ATOM     25  C   UNL A   1      45.685  29.180  27.322  1.00  0.00     0.049 A 
ATOM     26  C   UNL A   1      41.086  30.821  30.163  1.00  0.00     0.074 A 
ATOM     27  C   UNL A   1      46.669  30.135  27.143  1.00  0.00     0.029 A 
ATOM     28  N   UNL A   1      44.642  29.798  27.997  1.00  0.00    -0.354 N 
ATOM     29  N   UNL A   1      42.196  30.580  29.506  1.00  0.00    -0.248 NA
ATOM     30  C   UNL A   1      40.971  32.195  30.669  1.00  0.00     0.031 C 
ATOM     31  C   UNL A   1      46.243  31.314  27.766  1.00  0.00     0.029 A 
ATOM     32  C   UNL A   1      44.970  31.110  28.279  1.00  0.00     0.049 A 
ATOM     33  H   UNL A   1      43.791  29.364  28.239  1.00  0.00     0.167 HD
ATOM     34  C   UNL A   1      42.902  31.775  29.496  1.00  0.00     0.074 A 
ATOM     35  C   UNL A   1      42.080  32.746  30.192  1.00  0.00     0.031 C 
ATOM     36  C   UNL A   1      44.121  32.048  28.968  1.00  0.00     0.034 A 
BRANCH  23  37
ATOM     37  C   UNL A   1      46.914  27.220  26.270  1.00  0.00     0.023 A 
ATOM     38  C   UNL A   1      46.946  27.273  24.860  1.00  0.00     0.012 A 
ATOM     39  C   UNL A   1      48.002  26.656  26.961  1.00  0.00     0.148 A 
ATOM     40  C   UNL A   1      48.033  26.762  24.150  1.00  0.00     0.002 A 
ATOM     41  C   UNL A   1      49.094  26.168  26.249  1.00  0.00     0.091 A 
ATOM     42  F   UNL A   1      47.942  26.590  28.299  1.00  0.00    -0.205 F 
ATOM     43  C   UNL A   1      49.109  26.215  24.844  1.00  0.00     0.022 A 
BRANCH  41  44
ATOM     44  S   UNL A   1      50.544  25.465  27.043  1.00  0.00     0.127 S 
ATOM     45  O   UNL A   1      50.958  26.559  27.921  1.00  0.00    -0.237 OA
ATOM     46  O   UNL A   1      49.980  24.308  27.736  1.00  0.00    -0.237 OA
ATOM     47  O   UNL A   1      51.478  25.148  25.972  1.00  0.00    -0.744 OA
ENDBRANCH  41  44
ENDBRANCH  23  37
BRANCH  24  48
ATOM     48  C   UNL A   1      38.713  30.337  31.167  1.00  0.00     0.023 A 
ATOM     49  C   UNL A   1      38.612  30.145  32.557  1.00  0.00     0.012 A 
ATOM     50  C   UNL A   1      37.659  30.990  30.492  1.00  0.00     0.148 A 
ATOM     51  C   UNL A   1      37.479  30.575  33.255  1.00  0.00     0.002 A 
ATOM     52  C   UNL A   1      36.565  31.473  31.201  1.00  0.00     0.091 A 
ATOM     53  F   UNL A   1      37.751  31.139  29.163  1.00  0.00    -0.205 F 
ATOM     54  C   UNL A   1      36.464  31.252  32.581  1.00  0.00     0.022 A 
BRANCH  52  55
ATOM     55  S   UNL A   1      35.305  32.485  30.418  1.00  0.00     0.127 S 
ATOM     56  O   UNL A   1      34.304  32.592  31.474  1.00  0.00    -0.237 OA
ATOM     57  O   UNL A   1      36.036  33.721  30.132  1.00  0.00    -0.237 OA
ATOM     58  O   UNL A   1      34.904  31.748  29.226  1.00  0.00    -0.744 OA
ENDBRANCH  52  55
ENDBRANCH  24  48
BRANCH  36  59
ATOM     59  C   UNL A   1      44.631  33.454  29.119  1.00  0.00     0.023 A 
ATOM     60  C   UNL A   1      45.595  33.754  30.100  1.00  0.00     0.012 A 
ATOM     61  C   UNL A   1      44.189  34.464  28.244  1.00  0.00     0.148 A 
ATOM     62  C   UNL A   1      46.083  35.053  30.234  1.00  0.00     0.002 A 
ATOM     63  C   UNL A   1      44.720  35.742  28.347  1.00  0.00     0.091 A 
ATOM     64  F   UNL A   1      43.254  34.158  27.332  1.00  0.00    -0.205 F 
ATOM     65  C   UNL A   1      45.655  36.043  29.352  1.00  0.00     0.022 A 
BRANCH  63  66
ATOM     66  S   UNL A   1      44.300  37.045  27.187  1.00  0.00     0.127 S 
ATOM     67  O   UNL A   1      43.340  36.369  26.316  1.00  0.00    -0.237 OA
ATOM     68  O   UNL A   1      43.720  38.064  28.063  1.00  0.00    -0.237 OA
ATOM     69  O   UNL A   1      45.553  37.436  26.555  1.00  0.00    -0.744 OA
ENDBRANCH  63  66
ENDBRANCH  36  59
ENDBRANCH  10  11
ENDBRANCH   3   5
ENDBRANCH   2   3
ENDBRANCH   1   2
BRANCH   1  70
ATOM     70  C   UNL A   1      35.582  21.310  25.679  1.00  0.00     0.274 C 
BRANCH  70  71
ATOM     71  O   UNL A   1      34.774  21.946  24.675  1.00  0.00    -0.461 OA
BRANCH  71  72
ATOM     72  C   UNL A   1      33.783  22.835  24.951  1.00  0.00     0.317 C 
ATOM     73  O   UNL A   1      33.795  23.622  25.884  1.00  0.00    -0.251 OA
BRANCH  72  74
ATOM     74  C   UNL A   1      32.672  22.724  23.841  1.00  0.00     0.117 C 
ATOM     75  C   UNL A   1      33.344  23.809  22.365  1.00  0.00     0.030 C 
ATOM     76  C   UNL A   1      31.034  23.307  24.566  1.00  0.00     0.279 C 
ATOM     77  C   UNL A   1      32.317  25.732  22.066  1.00  0.00     0.063 C 
ATOM     78  N   UNL A   1      30.131  24.725  24.190  1.00  0.00    -0.345 N 
ATOM     79  C   UNL A   1      30.679  25.926  23.100  1.00  0.00     0.260 C 
ATOM     80  H   UNL A   1      29.238  24.398  23.821  1.00  0.00     0.346 HD
ATOM     81  H   UNL A   1      30.167  25.227  25.078  1.00  0.00     0.346 HD
BRANCH  74  82
ATOM     82  C   UNL A   1      32.417  21.202  23.624  1.00  0.00     0.029 C 
BRANCH  82  83
ATOM     83  C   UNL A   1      32.156  20.196  24.745  1.00  0.00     0.038 C 
BRANCH  83  84
ATOM     84  C   UNL A   1      32.617  18.784  24.584  1.00  0.00    -0.030 A 
ATOM     85  C   UNL A   1      33.003  18.263  23.349  1.00  0.00     0.007 A 
ATOM     86  C   UNL A   1      32.728  17.956  25.699  1.00  0.00     0.114 A 
ATOM     87  C   UNL A   1      33.475  16.957  23.277  1.00  0.00     0.020 A 
ATOM     88  N   UNL A   1      33.159  16.676  25.656  1.00  0.00    -0.264 NA
ATOM     89  C   UNL A   1      33.537  16.214  24.447  1.00  0.00     0.111 A 
ENDBRANCH  83  84
ENDBRANCH  82  83
ENDBRANCH  74  82
ENDBRANCH  72  74
ENDBRANCH  71  72
ENDBRANCH  70  71
ENDBRANCH   1  70
TORSDOF 17
ENDMDL
MODEL 3
REMARK VINA RESULT:     -11.7      1.448      1.830
REMARK SMILES O=C(OCCOC(=O)[C@]1(CCc2cccnc2)CCC[NH2+]C1)c1ccc(-c2c3nc(c(-c4cccc(S(=O)(=O)[O-])c4F)c4ccc([nH]4)c(-c4cccc(S(=O)(=O)[O-])c4F)c4nc(c(-c5cccc(S(=O)(=O)[O-])c5F)c5ccc2[nH]5)C=C4)C=C3)cc1
REMARK SMILES IDX 4 1 3 2 2 3 1 4 23 5 24 6 85 7 25 8 84 9 26 10 27 11 28 12
REMARK SMILES IDX 78 13 29 14 83 15 77 16 79 17 30 18 82 19 76 20 75 21 31 23
REMARK SMILES IDX 63 24 43 25 62 26 44 27 47 28 61 29 80 30 45 31 46 32 60 34
REMARK SMILES IDX 81 35 48 36 32 37 33 38 41 39 34 40 36 41 42 42 35 43 37 44
REMARK SMILES IDX 38 45 39 46 40 47 64 48 65 49 73 50 66 51 68 52 74 53 67 54
REMARK SMILES IDX 69 55 70 56 71 57 72 58 49 59 50 60 58 61 51 62 53 63 59 64
REMARK SMILES IDX 52 65 54 66 55 67 56 68 57 69 5 70 6 71 7 72 8 73 9 74 18 75
REMARK SMILES IDX 22 76 19 77 21 78 20 79 10 82 11 83 12 84 13 85 17 86 14 87
REMARK SMILES IDX 16 88 15 89
REMARK H PARENT 79 22 47 33 21 80 21 81
REMARK Flexibility Score: inf
ROOT
ATOM      1  C   UNL A   1      31.544  31.438  26.868  1.00  0.00     0.275 C 
ENDROOT
BRANCH   1   2
ATOM      2  O   UNL A   1      32.530  32.494  26.904  1.00  0.00    -0.458 OA
BRANCH   2   3
ATOM      3  C   UNL A   1      33.210  32.864  28.008  1.00  0.00     0.338 C 
ATOM      4  O   UNL A   1      32.750  33.658  28.819  1.00  0.00    -0.246 OA
BRANCH   3   5
ATOM      5  C   UNL A   1      34.578  32.380  28.206  1.00  0.00     0.060 A 
ATOM      6  C   UNL A   1      35.031  30.791  28.689  1.00  0.00     0.016 A 
ATOM      7  C   UNL A   1      35.829  33.598  28.178  1.00  0.00     0.016 A 
ATOM      8  C   UNL A   1      36.668  30.347  29.082  1.00  0.00     0.010 A 
ATOM      9  C   UNL A   1      37.681  33.119  28.581  1.00  0.00     0.010 A 
ATOM     10  C   UNL A   1      38.024  31.451  29.092  1.00  0.00    -0.014 A 
BRANCH  10  11
ATOM     11  C   UNL A   1      39.289  30.920  29.676  1.00  0.00     0.031 A 
ATOM     12  C   UNL A   1      39.703  31.325  31.067  1.00  0.00     0.074 A 
ATOM     13  C   UNL A   1      39.934  29.898  29.089  1.00  0.00     0.049 A 
ATOM     14  N   UNL A   1      40.356  30.637  31.969  1.00  0.00    -0.248 NA
ATOM     15  C   UNL A   1      39.282  32.651  31.535  1.00  0.00     0.031 C 
ATOM     16  C   UNL A   1      39.641  29.393  27.762  1.00  0.00     0.029 A 
ATOM     17  N   UNL A   1      40.956  29.094  29.527  1.00  0.00    -0.354 N 
ATOM     18  C   UNL A   1      40.311  31.400  33.131  1.00  0.00     0.074 A 
ATOM     19  C   UNL A   1      39.574  32.603  32.826  1.00  0.00     0.031 C 
ATOM     20  C   UNL A   1      40.462  28.375  27.468  1.00  0.00     0.029 A 
ATOM     21  C   UNL A   1      41.358  28.161  28.598  1.00  0.00     0.049 A 
ATOM     22  H   UNL A   1      41.362  29.176  30.419  1.00  0.00     0.167 HD
ATOM     23  C   UNL A   1      40.872  31.151  34.336  1.00  0.00     0.034 A 
ATOM     24  C   UNL A   1      42.347  27.249  28.648  1.00  0.00     0.034 A 
ATOM     25  C   UNL A   1      41.842  30.113  34.547  1.00  0.00     0.049 A 
ATOM     26  C   UNL A   1      43.086  27.080  29.945  1.00  0.00     0.074 A 
ATOM     27  C   UNL A   1      42.586  29.841  35.680  1.00  0.00     0.029 A 
ATOM     28  N   UNL A   1      42.276  29.239  33.561  1.00  0.00    -0.354 N 
ATOM     29  N   UNL A   1      42.888  27.696  31.087  1.00  0.00    -0.248 NA
ATOM     30  C   UNL A   1      44.146  26.064  29.984  1.00  0.00     0.031 C 
ATOM     31  C   UNL A   1      43.513  28.843  35.358  1.00  0.00     0.029 A 
ATOM     32  C   UNL A   1      43.305  28.452  34.043  1.00  0.00     0.049 A 
ATOM     33  H   UNL A   1      41.904  29.186  32.650  1.00  0.00     0.167 HD
ATOM     34  C   UNL A   1      43.780  27.130  31.988  1.00  0.00     0.074 A 
ATOM     35  C   UNL A   1      44.500  26.100  31.262  1.00  0.00     0.031 C 
ATOM     36  C   UNL A   1      43.992  27.433  33.292  1.00  0.00     0.034 A 
BRANCH  23  37
ATOM     37  C   UNL A   1      40.490  32.052  35.480  1.00  0.00     0.023 A 
ATOM     38  C   UNL A   1      41.351  33.115  35.828  1.00  0.00     0.012 A 
ATOM     39  C   UNL A   1      39.294  31.872  36.201  1.00  0.00     0.148 A 
ATOM     40  C   UNL A   1      41.037  33.973  36.882  1.00  0.00     0.002 A 
ATOM     41  C   UNL A   1      38.975  32.747  37.236  1.00  0.00     0.091 A 
ATOM     42  F   UNL A   1      38.502  30.842  35.873  1.00  0.00    -0.205 F 
ATOM     43  C   UNL A   1      39.848  33.793  37.582  1.00  0.00     0.022 A 
BRANCH  41  44
ATOM     44  S   UNL A   1      37.456  32.621  38.187  1.00  0.00     0.127 S 
ATOM     45  O   UNL A   1      36.488  33.235  37.279  1.00  0.00    -0.237 OA
ATOM     46  O   UNL A   1      37.314  31.174  38.343  1.00  0.00    -0.237 OA
ATOM     47  O   UNL A   1      37.692  33.354  39.423  1.00  0.00    -0.744 OA
ENDBRANCH  41  44
ENDBRANCH  23  37
BRANCH  24  48
ATOM     48  C   UNL A   1      42.679  26.447  27.434  1.00  0.00     0.023 A 
ATOM     49  C   UNL A   1      43.493  26.975  26.414  1.00  0.00     0.012 A 
ATOM     50  C   UNL A   1      42.209  25.122  27.311  1.00  0.00     0.148 A 
ATOM     51  C   UNL A   1      43.814  26.208  25.290  1.00  0.00     0.002 A 
ATOM     52  C   UNL A   1      42.584  24.342  26.222  1.00  0.00     0.091 A 
ATOM     53  F   UNL A   1      41.408  24.639  28.272  1.00  0.00    -0.205 F 
ATOM     54  C   UNL A   1      43.373  24.888  25.201  1.00  0.00     0.022 A 
BRANCH  52  55
ATOM     55  S   UNL A   1      42.180  22.595  26.129  1.00  0.00     0.127 S 
ATOM     56  O   UNL A   1      42.822  22.204  24.878  1.00  0.00    -0.237 OA
ATOM     57  O   UNL A   1      42.812  22.066  27.339  1.00  0.00    -0.237 OA
ATOM     58  O   UNL A   1      40.724  22.535  26.149  1.00  0.00    -0.744 OA
ENDBRANCH  52  55
ENDBRANCH  24  48
BRANCH  36  59
ATOM     59  C   UNL A   1      45.039  26.634  34.016  1.00  0.00     0.023 A 
ATOM     60  C   UNL A   1      46.392  27.019  33.948  1.00  0.00     0.012 A 
ATOM     61  C   UNL A   1      44.667  25.534  34.811  1.00  0.00     0.148 A 
ATOM     62  C   UNL A   1      47.367  26.291  34.629  1.00  0.00     0.002 A 
ATOM     63  C   UNL A   1      45.635  24.849  35.531  1.00  0.00     0.091 A 
ATOM     64  F   UNL A   1      43.375  25.175  34.842  1.00  0.00    -0.205 F 
ATOM     65  C   UNL A   1      46.987  25.215  35.429  1.00  0.00     0.022 A 
BRANCH  63  66
ATOM     66  S   UNL A   1      45.218  23.519  36.662  1.00  0.00     0.127 S 
ATOM     67  O   UNL A   1      44.367  24.209  37.631  1.00  0.00    -0.237 OA
ATOM     68  O   UNL A   1      44.513  22.580  35.789  1.00  0.00    -0.237 OA
ATOM     69  O   UNL A   1      46.486  23.025  37.181  1.00  0.00    -0.744 OA
ENDBRANCH  63  66
ENDBRANCH  36  59
ENDBRANCH  10  11
ENDBRANCH   3   5
ENDBRANCH   2   3
ENDBRANCH   1   2
BRANCH   1  70
ATOM     70  C   UNL A   1      32.179  30.040  26.846  1.00  0.00     0.274 C 
BRANCH  70  71
ATOM     71  O   UNL A   1      31.372  29.175  26.031  1.00  0.00    -0.461 OA
BRANCH  71  72
ATOM     72  C   UNL A   1      31.769  27.948  25.604  1.00  0.00     0.317 C 
ATOM     73  O   UNL A   1      32.446  27.170  26.257  1.00  0.00    -0.251 OA
BRANCH  72  74
ATOM     74  C   UNL A   1      31.159  27.680  24.177  1.00  0.00     0.117 C 
ATOM     75  C   UNL A   1      30.045  26.095  24.409  1.00  0.00     0.030 C 
ATOM     76  C   UNL A   1      32.571  27.478  22.946  1.00  0.00     0.279 C 
ATOM     77  C   UNL A   1      30.847  24.243  23.531  1.00  0.00     0.063 C 
ATOM     78  N   UNL A   1      33.079  26.060  22.109  1.00  0.00    -0.345 N 
ATOM     79  C   UNL A   1      32.383  24.517  22.368  1.00  0.00     0.260 C 
ATOM     80  H   UNL A   1      32.954  26.261  21.118  1.00  0.00     0.346 HD
ATOM     81  H   UNL A   1      34.015  25.926  22.492  1.00  0.00     0.346 HD
BRANCH  74  82
ATOM     82  C   UNL A   1      30.507  29.019  23.719  1.00  0.00     0.029 C 
BRANCH  82  83
ATOM     83  C   UNL A   1      29.210  29.124  22.916  1.00  0.00     0.038 C 
BRANCH  83  84
ATOM     84  C   UNL A   1      28.788  30.452  22.377  1.00  0.00    -0.030 A 
ATOM     85  C   UNL A   1      28.355  30.618  21.062  1.00  0.00     0.007 A 
ATOM     86  C   UNL A   1      28.766  31.568  23.212  1.00  0.00     0.114 A 
ATOM     87  C   UNL A   1      27.924  31.872  20.639  1.00  0.00     0.020 A 
ATOM     88  N   UNL A   1      28.376  32.801  22.823  1.00  0.00    -0.264 NA
ATOM     89  C   UNL A   1      27.949  32.918  21.549  1.00  0.00     0.111 A 
ENDBRANCH  83  84
ENDBRANCH  82  83
ENDBRANCH  74  82
ENDBRANCH  72  74
ENDBRANCH  71  72
ENDBRANCH  70  71
ENDBRANCH   1  70
TORSDOF 17
ENDMDL
