MODEL 1
REMARK VINA RESULT:     -11.6      0.000      0.000
REMARK SMILES O=C(OCCOC(=O)c1ccc(F)cc1NC(=O)[C@H]1CCS(=O)(=O)C1)c1ccc(-c2c3nc(c(-c4cccc(S(=O)(=O)[O-])c4F)c4ccc([nH]4)c(-c4cccc(S(=O)(=O)[O-])c4F)c4nc(c(-c5cccc(S(=O)(=O)[O-])c5F)c5ccc2[nH]5)C=C4)C=C3)cc1
REMARK SMILES IDX 4 1 3 2 2 3 1 4 26 5 27 6 88 7 28 8 87 9 29 10 30 11 31 12
REMARK SMILES IDX 81 13 32 14 86 15 80 16 82 17 33 18 85 19 79 20 78 21 34 23
REMARK SMILES IDX 66 24 46 25 65 26 47 27 50 28 64 29 83 30 48 31 49 32 63 34
REMARK SMILES IDX 84 35 51 36 35 37 36 38 44 39 37 40 39 41 45 42 38 43 40 44
REMARK SMILES IDX 41 45 42 46 43 47 67 48 68 49 76 50 69 51 71 52 77 53 70 54
REMARK SMILES IDX 72 55 73 56 74 57 75 58 52 59 53 60 61 61 54 62 56 63 62 64
REMARK SMILES IDX 55 65 57 66 58 67 59 68 60 69 5 70 6 71 7 72 8 73 9 74 10 75
REMARK SMILES IDX 15 76 11 77 14 78 12 79 13 80 16 81 17 82 18 84 19 85 20 86
REMARK SMILES IDX 25 87 21 88 22 89 23 90 24 91
REMARK H PARENT 82 22 50 33 16 83
REMARK Flexibility Score: inf
ROOT
ATOM      1  C   UNL A   1      31.454  31.421  26.732  1.00  0.00     0.275 C 
ENDROOT
BRANCH   1   2
ATOM      2  O   UNL A   1      32.543  32.353  26.638  1.00  0.00    -0.458 OA
BRANCH   2   3
ATOM      3  C   UNL A   1      33.312  32.911  27.601  1.00  0.00     0.338 C 
ATOM      4  O   UNL A   1      33.066  34.064  27.950  1.00  0.00    -0.246 OA
BRANCH   3   5
ATOM      5  C   UNL A   1      34.524  32.255  28.186  1.00  0.00     0.060 A 
ATOM      6  C   UNL A   1      34.625  30.922  28.583  1.00  0.00     0.016 A 
ATOM      7  C   UNL A   1      35.661  33.071  28.342  1.00  0.00     0.016 A 
ATOM      8  C   UNL A   1      35.831  30.393  29.040  1.00  0.00     0.010 A 
ATOM      9  C   UNL A   1      36.880  32.544  28.776  1.00  0.00     0.010 A 
ATOM     10  C   UNL A   1      36.964  31.195  29.137  1.00  0.00    -0.014 A 
BRANCH  10  11
ATOM     11  C   UNL A   1      38.167  30.658  29.806  1.00  0.00     0.031 A 
ATOM     12  C   UNL A   1      38.477  31.148  31.187  1.00  0.00     0.074 A 
ATOM     13  C   UNL A   1      38.917  29.701  29.228  1.00  0.00     0.049 A 
ATOM     14  N   UNL A   1      39.431  30.772  31.991  1.00  0.00    -0.248 NA
ATOM     15  C   UNL A   1      37.570  32.162  31.758  1.00  0.00     0.031 C 
ATOM     16  C   UNL A   1      38.639  29.081  27.935  1.00  0.00     0.029 A 
ATOM     17  N   UNL A   1      40.072  29.088  29.641  1.00  0.00    -0.354 N 
ATOM     18  C   UNL A   1      39.231  31.488  33.161  1.00  0.00     0.074 A 
ATOM     19  C   UNL A   1      38.101  32.361  32.953  1.00  0.00     0.031 C 
ATOM     20  C   UNL A   1      39.640  28.245  27.615  1.00  0.00     0.029 A 
ATOM     21  C   UNL A   1      40.619  28.250  28.695  1.00  0.00     0.049 A 
ATOM     22  H   UNL A   1      40.472  29.233  30.528  1.00  0.00     0.167 HD
ATOM     23  C   UNL A   1      39.905  31.387  34.326  1.00  0.00     0.034 A 
ATOM     24  C   UNL A   1      41.779  27.565  28.702  1.00  0.00     0.034 A 
ATOM     25  C   UNL A   1      41.020  30.508  34.520  1.00  0.00     0.049 A 
ATOM     26  C   UNL A   1      42.585  27.562  29.974  1.00  0.00     0.074 A 
ATOM     27  C   UNL A   1      41.766  30.312  35.665  1.00  0.00     0.029 A 
ATOM     28  N   UNL A   1      41.560  29.693  33.537  1.00  0.00    -0.354 N 
ATOM     29  N   UNL A   1      42.319  28.162  31.109  1.00  0.00    -0.248 NA
ATOM     30  C   UNL A   1      43.802  26.739  29.998  1.00  0.00     0.031 C 
ATOM     31  C   UNL A   1      42.787  29.410  35.362  1.00  0.00     0.029 A 
ATOM     32  C   UNL A   1      42.647  29.007  34.041  1.00  0.00     0.049 A 
ATOM     33  H   UNL A   1      41.219  29.615  32.617  1.00  0.00     0.167 HD
ATOM     34  C   UNL A   1      43.299  27.745  32.000  1.00  0.00     0.074 A 
ATOM     35  C   UNL A   1      44.166  26.841  31.270  1.00  0.00     0.031 C 
ATOM     36  C   UNL A   1      43.462  28.075  33.305  1.00  0.00     0.034 A 
BRANCH  23  37
ATOM     37  C   UNL A   1      39.437  32.230  35.476  1.00  0.00     0.023 A 
ATOM     38  C   UNL A   1      38.589  31.671  36.455  1.00  0.00     0.012 A 
ATOM     39  C   UNL A   1      39.879  33.558  35.613  1.00  0.00     0.148 A 
ATOM     40  C   UNL A   1      38.173  32.432  37.546  1.00  0.00     0.002 A 
ATOM     41  C   UNL A   1      39.500  34.293  36.727  1.00  0.00     0.091 A 
ATOM     42  F   UNL A   1      40.661  34.071  34.652  1.00  0.00    -0.205 F 
ATOM     43  C   UNL A   1      38.638  33.736  37.688  1.00  0.00     0.022 A 
BRANCH  41  44
ATOM     44  S   UNL A   1      40.105  35.952  37.042  1.00  0.00     0.127 S 
ATOM     45  O   UNL A   1      39.365  36.312  38.252  1.00  0.00    -0.237 OA
ATOM     46  O   UNL A   1      41.534  35.716  37.249  1.00  0.00    -0.237 OA
ATOM     47  O   UNL A   1      39.775  36.736  35.861  1.00  0.00    -0.744 OA
ENDBRANCH  41  44
ENDBRANCH  23  37
BRANCH  24  48
ATOM     48  C   UNL A   1      42.202  26.783  27.504  1.00  0.00     0.023 A 
ATOM     49  C   UNL A   1      42.876  27.422  26.447  1.00  0.00     0.012 A 
ATOM     50  C   UNL A   1      41.960  25.396  27.421  1.00  0.00     0.148 A 
ATOM     51  C   UNL A   1      43.269  26.705  25.315  1.00  0.00     0.002 A 
ATOM     52  C   UNL A   1      42.394  24.679  26.311  1.00  0.00     0.091 A 
ATOM     53  F   UNL A   1      41.316  24.803  28.437  1.00  0.00    -0.205 F 
ATOM     54  C   UNL A   1      43.035  25.335  25.249  1.00  0.00     0.022 A 
BRANCH  52  55
ATOM     55  S   UNL A   1      42.243  22.892  26.189  1.00  0.00     0.127 S 
ATOM     56  O   UNL A   1      42.998  22.446  27.358  1.00  0.00    -0.237 OA
ATOM     57  O   UNL A   1      40.794  22.708  26.282  1.00  0.00    -0.237 OA
ATOM     58  O   UNL A   1      42.809  22.535  24.896  1.00  0.00    -0.744 OA
ENDBRANCH  52  55
ENDBRANCH  24  48
BRANCH  36  59
ATOM     59  C   UNL A   1      44.596  27.437  34.057  1.00  0.00     0.023 A 
ATOM     60  C   UNL A   1      45.859  28.056  34.077  1.00  0.00     0.012 A 
ATOM     61  C   UNL A   1      44.360  26.305  34.862  1.00  0.00     0.148 A 
ATOM     62  C   UNL A   1      46.878  27.549  34.880  1.00  0.00     0.002 A 
ATOM     63  C   UNL A   1      45.360  25.842  35.704  1.00  0.00     0.091 A 
ATOM     64  F   UNL A   1      43.152  25.725  34.810  1.00  0.00    -0.205 F 
ATOM     65  C   UNL A   1      46.623  26.455  35.706  1.00  0.00     0.022 A 
BRANCH  63  66
ATOM     66  S   UNL A   1      45.085  24.522  36.890  1.00  0.00     0.127 S 
ATOM     67  O   UNL A   1      44.896  23.369  36.012  1.00  0.00    -0.237 OA
ATOM     68  O   UNL A   1      46.339  24.518  37.643  1.00  0.00    -0.237 OA
ATOM     69  O   UNL A   1      43.914  24.911  37.663  1.00  0.00    -0.744 OA
ENDBRANCH  63  66
ENDBRANCH  36  59
ENDBRANCH  10  11
ENDBRANCH   3   5
ENDBRANCH   2   3
ENDBRANCH   1   2
BRANCH   1  70
ATOM     70  C   UNL A   1      31.530  30.231  25.771  1.00  0.00     0.275 C 
BRANCH  70  71
ATOM     71  O   UNL A   1      32.840  29.672  25.596  1.00  0.00    -0.458 OA
BRANCH  71  72
ATOM     72  C   UNL A   1      32.954  28.331  25.793  1.00  0.00     0.340 C 
ATOM     73  O   UNL A   1      32.970  27.752  26.868  1.00  0.00    -0.246 OA
BRANCH  72  74
ATOM     74  C   UNL A   1      32.951  27.634  24.485  1.00  0.00     0.083 A 
ATOM     75  C   UNL A   1      33.858  28.093  23.507  1.00  0.00     0.021 A 
ATOM     76  C   UNL A   1      32.062  26.562  24.218  1.00  0.00     0.058 A 
ATOM     77  C   UNL A   1      33.867  27.525  22.237  1.00  0.00     0.040 A 
ATOM     78  C   UNL A   1      32.054  26.076  22.907  1.00  0.00     0.066 A 
ATOM     79  C   UNL A   1      32.939  26.550  21.941  1.00  0.00     0.125 A 
ATOM     80  F   UNL A   1      32.869  26.041  20.707  1.00  0.00    -0.207 F 
BRANCH  76  81
ATOM     81  N   UNL A   1      31.219  26.065  25.257  1.00  0.00    -0.325 N 
ATOM     82  C   UNL A   1      31.118  24.883  25.947  1.00  0.00     0.228 C 
ATOM     83  H   UNL A   1      30.552  26.727  25.548  1.00  0.00     0.169 HD
ATOM     84  O   UNL A   1      30.244  24.777  26.810  1.00  0.00    -0.274 OA
BRANCH  82  85
ATOM     85  C   UNL A   1      32.069  23.739  25.704  1.00  0.00     0.095 C 
ATOM     86  C   UNL A   1      32.333  22.983  27.015  1.00  0.00     0.030 C 
ATOM     87  C   UNL A   1      31.557  22.654  24.754  1.00  0.00     0.150 C 
ATOM     88  C   UNL A   1      33.252  21.829  26.650  1.00  0.00     0.138 C 
ATOM     89  S   UNL A   1      32.693  21.295  25.037  1.00  0.00     0.151 S 
ATOM     90  O   UNL A   1      33.798  21.419  24.111  1.00  0.00    -0.229 OA
ATOM     91  O   UNL A   1      31.937  20.068  25.186  1.00  0.00    -0.229 OA
ENDBRANCH  82  85
ENDBRANCH  76  81
ENDBRANCH  72  74
ENDBRANCH  71  72
ENDBRANCH  70  71
ENDBRANCH   1  70
TORSDOF 16
ENDMDL
MODEL 2
REMARK VINA RESULT:     -11.6      5.213     10.301
REMARK SMILES O=C(OCCOC(=O)c1ccc(F)cc1NC(=O)[C@H]1CCS(=O)(=O)C1)c1ccc(-c2c3nc(c(-c4cccc(S(=O)(=O)[O-])c4F)c4ccc([nH]4)c(-c4cccc(S(=O)(=O)[O-])c4F)c4nc(c(-c5cccc(S(=O)(=O)[O-])c5F)c5ccc2[nH]5)C=C4)C=C3)cc1
REMARK SMILES IDX 4 1 3 2 2 3 1 4 26 5 27 6 88 7 28 8 87 9 29 10 30 11 31 12
REMARK SMILES IDX 81 13 32 14 86 15 80 16 82 17 33 18 85 19 79 20 78 21 34 23
REMARK SMILES IDX 66 24 46 25 65 26 47 27 50 28 64 29 83 30 48 31 49 32 63 34
REMARK SMILES IDX 84 35 51 36 35 37 36 38 44 39 37 40 39 41 45 42 38 43 40 44
REMARK SMILES IDX 41 45 42 46 43 47 67 48 68 49 76 50 69 51 71 52 77 53 70 54
REMARK SMILES IDX 72 55 73 56 74 57 75 58 52 59 53 60 61 61 54 62 56 63 62 64
REMARK SMILES IDX 55 65 57 66 58 67 59 68 60 69 5 70 6 71 7 72 8 73 9 74 10 75
REMARK SMILES IDX 15 76 11 77 14 78 12 79 13 80 16 81 17 82 18 84 19 85 20 86
REMARK SMILES IDX 25 87 21 88 22 89 23 90 24 91
REMARK H PARENT 82 22 50 33 16 83
REMARK Flexibility Score: inf
ROOT
ATOM      1  C   UNL A   1      37.358  20.723  24.645  1.00  0.00     0.275 C 
ENDROOT
BRANCH   1   2
ATOM      2  O   UNL A   1      38.106  20.658  25.869  1.00  0.00    -0.458 OA
BRANCH   2   3
ATOM      3  C   UNL A   1      39.392  20.981  26.135  1.00  0.00     0.338 C 
ATOM      4  O   UNL A   1      40.231  20.082  26.144  1.00  0.00    -0.246 OA
BRANCH   3   5
ATOM      5  C   UNL A   1      39.843  22.351  26.538  1.00  0.00     0.060 A 
ATOM      6  C   UNL A   1      39.333  23.557  26.058  1.00  0.00     0.016 A 
ATOM      7  C   UNL A   1      40.875  22.412  27.494  1.00  0.00     0.016 A 
ATOM      8  C   UNL A   1      39.771  24.780  26.565  1.00  0.00     0.010 A 
ATOM      9  C   UNL A   1      41.301  23.631  28.026  1.00  0.00     0.010 A 
ATOM     10  C   UNL A   1      40.753  24.827  27.551  1.00  0.00    -0.014 A 
BRANCH  10  11
ATOM     11  C   UNL A   1      41.330  26.134  27.925  1.00  0.00     0.031 A 
ATOM     12  C   UNL A   1      42.762  26.393  27.569  1.00  0.00     0.074 A 
ATOM     13  C   UNL A   1      40.576  27.093  28.495  1.00  0.00     0.049 A 
ATOM     14  N   UNL A   1      43.459  27.481  27.732  1.00  0.00    -0.248 NA
ATOM     15  C   UNL A   1      43.495  25.300  26.901  1.00  0.00     0.031 C 
ATOM     16  C   UNL A   1      39.149  26.978  28.784  1.00  0.00     0.029 A 
ATOM     17  N   UNL A   1      40.900  28.346  28.947  1.00  0.00    -0.354 N 
ATOM     18  C   UNL A   1      44.701  27.211  27.177  1.00  0.00     0.074 A 
ATOM     19  C   UNL A   1      44.687  25.843  26.719  1.00  0.00     0.031 C 
ATOM     20  C   UNL A   1      38.738  28.072  29.445  1.00  0.00     0.029 A 
ATOM     21  C   UNL A   1      39.868  28.978  29.604  1.00  0.00     0.049 A 
ATOM     22  H   UNL A   1      41.785  28.754  28.814  1.00  0.00     0.167 HD
ATOM     23  C   UNL A   1      45.744  28.053  27.020  1.00  0.00     0.034 A 
ATOM     24  C   UNL A   1      39.842  30.156  30.258  1.00  0.00     0.034 A 
ATOM     25  C   UNL A   1      45.738  29.412  27.471  1.00  0.00     0.049 A 
ATOM     26  C   UNL A   1      41.063  31.032  30.176  1.00  0.00     0.074 A 
ATOM     27  C   UNL A   1      46.736  30.359  27.349  1.00  0.00     0.029 A 
ATOM     28  N   UNL A   1      44.689  30.011  28.151  1.00  0.00    -0.354 N 
ATOM     29  N   UNL A   1      42.192  30.801  29.551  1.00  0.00    -0.248 NA
ATOM     30  C   UNL A   1      40.990  32.351  30.818  1.00  0.00     0.031 C 
ATOM     31  C   UNL A   1      46.306  31.520  27.994  1.00  0.00     0.029 A 
ATOM     32  C   UNL A   1      45.022  31.311  28.477  1.00  0.00     0.049 A 
ATOM     33  H   UNL A   1      43.834  29.574  28.369  1.00  0.00     0.167 HD
ATOM     34  C   UNL A   1      42.941  31.964  29.672  1.00  0.00     0.074 A 
ATOM     35  C   UNL A   1      42.136  32.898  30.433  1.00  0.00     0.031 C 
ATOM     36  C   UNL A   1      44.180  32.235  29.192  1.00  0.00     0.034 A 
BRANCH  23  37
ATOM     37  C   UNL A   1      46.960  27.528  26.313  1.00  0.00     0.023 A 
ATOM     38  C   UNL A   1      47.857  26.681  26.996  1.00  0.00     0.012 A 
ATOM     39  C   UNL A   1      47.183  27.831  24.958  1.00  0.00     0.148 A 
ATOM     40  C   UNL A   1      48.972  26.159  26.343  1.00  0.00     0.002 A 
ATOM     41  C   UNL A   1      48.268  27.269  24.301  1.00  0.00     0.091 A 
ATOM     42  F   UNL A   1      46.329  28.662  24.342  1.00  0.00    -0.205 F 
ATOM     43  C   UNL A   1      49.169  26.442  24.995  1.00  0.00     0.022 A 
BRANCH  41  44
ATOM     44  S   UNL A   1      48.568  27.508  22.549  1.00  0.00     0.127 S 
ATOM     45  O   UNL A   1      49.828  28.251  22.563  1.00  0.00    -0.237 OA
ATOM     46  O   UNL A   1      48.678  26.129  22.072  1.00  0.00    -0.237 OA
ATOM     47  O   UNL A   1      47.422  28.246  22.038  1.00  0.00    -0.744 OA
ENDBRANCH  41  44
ENDBRANCH  23  37
BRANCH  24  48
ATOM     48  C   UNL A   1      38.610  30.592  30.977  1.00  0.00     0.023 A 
ATOM     49  C   UNL A   1      38.485  30.370  32.361  1.00  0.00     0.012 A 
ATOM     50  C   UNL A   1      37.569  31.254  30.294  1.00  0.00     0.148 A 
ATOM     51  C   UNL A   1      37.333  30.764  33.045  1.00  0.00     0.002 A 
ATOM     52  C   UNL A   1      36.444  31.685  30.990  1.00  0.00     0.091 A 
ATOM     53  F   UNL A   1      37.704  31.458  28.976  1.00  0.00    -0.205 F 
ATOM     54  C   UNL A   1      36.317  31.427  32.363  1.00  0.00     0.022 A 
BRANCH  52  55
ATOM     55  S   UNL A   1      35.136  32.650  30.221  1.00  0.00     0.127 S 
ATOM     56  O   UNL A   1      34.210  32.840  31.335  1.00  0.00    -0.237 OA
ATOM     57  O   UNL A   1      35.859  33.853  29.806  1.00  0.00    -0.237 OA
ATOM     58  O   UNL A   1      34.643  31.839  29.118  1.00  0.00    -0.744 OA
ENDBRANCH  52  55
ENDBRANCH  24  48
BRANCH  36  59
ATOM     59  C   UNL A   1      44.744  33.607  29.434  1.00  0.00     0.023 A 
ATOM     60  C   UNL A   1      45.507  33.857  30.589  1.00  0.00     0.012 A 
ATOM     61  C   UNL A   1      44.639  34.598  28.437  1.00  0.00     0.148 A 
ATOM     62  C   UNL A   1      46.149  35.082  30.756  1.00  0.00     0.002 A 
ATOM     63  C   UNL A   1      45.329  35.792  28.583  1.00  0.00     0.091 A 
ATOM     64  F   UNL A   1      43.891  34.339  27.354  1.00  0.00    -0.205 F 
ATOM     65  C   UNL A   1      46.075  36.041  29.746  1.00  0.00     0.022 A 
BRANCH  63  66
ATOM     66  S   UNL A   1      45.395  37.030  27.284  1.00  0.00     0.127 S 
ATOM     67  O   UNL A   1      46.182  38.085  27.919  1.00  0.00    -0.237 OA
ATOM     68  O   UNL A   1      46.085  36.315  26.211  1.00  0.00    -0.237 OA
ATOM     69  O   UNL A   1      44.012  37.380  26.989  1.00  0.00    -0.744 OA
ENDBRANCH  63  66
ENDBRANCH  36  59
ENDBRANCH  10  11
ENDBRANCH   3   5
ENDBRANCH   2   3
ENDBRANCH   1   2
BRANCH   1  70
ATOM     70  C   UNL A   1      36.456  21.951  24.497  1.00  0.00     0.275 C 
BRANCH  70  71
ATOM     71  O   UNL A   1      35.949  22.487  25.728  1.00  0.00    -0.458 OA
BRANCH  71  72
ATOM     72  C   UNL A   1      35.309  23.684  25.647  1.00  0.00     0.340 C 
ATOM     73  O   UNL A   1      35.819  24.765  25.396  1.00  0.00    -0.246 OA
BRANCH  72  74
ATOM     74  C   UNL A   1      33.850  23.481  25.806  1.00  0.00     0.083 A 
ATOM     75  C   UNL A   1      33.393  23.030  27.062  1.00  0.00     0.021 A 
ATOM     76  C   UNL A   1      32.948  23.711  24.735  1.00  0.00     0.058 A 
ATOM     77  C   UNL A   1      32.044  22.761  27.263  1.00  0.00     0.040 A 
ATOM     78  C   UNL A   1      31.616  23.353  24.960  1.00  0.00     0.066 A 
ATOM     79  C   UNL A   1      31.177  22.888  26.198  1.00  0.00     0.125 A 
ATOM     80  F   UNL A   1      29.889  22.560  26.337  1.00  0.00    -0.207 F 
BRANCH  76  81
ATOM     81  N   UNL A   1      33.432  24.251  23.505  1.00  0.00    -0.325 N 
ATOM     82  C   UNL A   1      33.102  25.324  22.716  1.00  0.00     0.228 C 
ATOM     83  H   UNL A   1      34.179  23.728  23.135  1.00  0.00     0.169 HD
ATOM     84  O   UNL A   1      33.739  25.509  21.677  1.00  0.00    -0.274 OA
BRANCH  82  85
ATOM     85  C   UNL A   1      32.019  26.294  23.111  1.00  0.00     0.095 C 
ATOM     86  C   UNL A   1      32.635  27.534  23.777  1.00  0.00     0.030 C 
ATOM     87  C   UNL A   1      31.205  26.871  21.950  1.00  0.00     0.150 C 
ATOM     88  C   UNL A   1      31.471  28.462  24.083  1.00  0.00     0.138 C 
ATOM     89  S   UNL A   1      30.354  28.261  22.700  1.00  0.00     0.151 S 
ATOM     90  O   UNL A   1      29.081  27.801  23.210  1.00  0.00    -0.229 OA
ATOM     91  O   UNL A   1      30.473  29.415  21.832  1.00  0.00    -0.229 OA
ENDBRANCH  82  85
ENDBRANCH  76  81
ENDBRANCH  72  74
ENDBRANCH  71  72
ENDBRANCH  70  71
ENDBRANCH   1  70
TORSDOF 16
ENDMDL
MODEL 3
REMARK VINA RESULT:     -11.6      1.469      1.663
REMARK SMILES O=C(OCCOC(=O)c1ccc(F)cc1NC(=O)[C@H]1CCS(=O)(=O)C1)c1ccc(-c2c3nc(c(-c4cccc(S(=O)(=O)[O-])c4F)c4ccc([nH]4)c(-c4cccc(S(=O)(=O)[O-])c4F)c4nc(c(-c5cccc(S(=O)(=O)[O-])c5F)c5ccc2[nH]5)C=C4)C=C3)cc1
REMARK SMILES IDX 4 1 3 2 2 3 1 4 26 5 27 6 88 7 28 8 87 9 29 10 30 11 31 12
REMARK SMILES IDX 81 13 32 14 86 15 80 16 82 17 33 18 85 19 79 20 78 21 34 23
REMARK SMILES IDX 66 24 46 25 65 26 47 27 50 28 64 29 83 30 48 31 49 32 63 34
REMARK SMILES IDX 84 35 51 36 35 37 36 38 44 39 37 40 39 41 45 42 38 43 40 44
REMARK SMILES IDX 41 45 42 46 43 47 67 48 68 49 76 50 69 51 71 52 77 53 70 54
REMARK SMILES IDX 72 55 73 56 74 57 75 58 52 59 53 60 61 61 54 62 56 63 62 64
REMARK SMILES IDX 55 65 57 66 58 67 59 68 60 69 5 70 6 71 7 72 8 73 9 74 10 75
REMARK SMILES IDX 15 76 11 77 14 78 12 79 13 80 16 81 17 82 18 84 19 85 20 86
REMARK SMILES IDX 25 87 21 88 22 89 23 90 24 91
REMARK H PARENT 82 22 50 33 16 83
REMARK Flexibility Score: inf
ROOT
ATOM      1  C   UNL A   1      31.900  30.830  26.847  1.00  0.00     0.275 C 
ENDROOT
BRANCH   1   2
ATOM      2  O   UNL A   1      32.997  31.747  26.714  1.00  0.00    -0.458 OA
BRANCH   2   3
ATOM      3  C   UNL A   1      33.801  32.303  27.648  1.00  0.00     0.338 C 
ATOM      4  O   UNL A   1      33.580  33.463  27.993  1.00  0.00    -0.246 OA
BRANCH   3   5
ATOM      5  C   UNL A   1      35.020  31.636  28.206  1.00  0.00     0.060 A 
ATOM      6  C   UNL A   1      35.124  30.296  28.577  1.00  0.00     0.016 A 
ATOM      7  C   UNL A   1      36.159  32.448  28.362  1.00  0.00     0.016 A 
ATOM      8  C   UNL A   1      36.336  29.758  29.009  1.00  0.00     0.010 A 
ATOM      9  C   UNL A   1      37.383  31.913  28.770  1.00  0.00     0.010 A 
ATOM     10  C   UNL A   1      37.471  30.558  29.106  1.00  0.00    -0.014 A 
BRANCH  10  11
ATOM     11  C   UNL A   1      38.682  30.007  29.749  1.00  0.00     0.031 A 
ATOM     12  C   UNL A   1      39.073  30.555  31.088  1.00  0.00     0.074 A 
ATOM     13  C   UNL A   1      39.369  28.993  29.190  1.00  0.00     0.049 A 
ATOM     14  N   UNL A   1      40.048  30.183  31.868  1.00  0.00    -0.248 NA
ATOM     15  C   UNL A   1      38.231  31.632  31.643  1.00  0.00     0.031 C 
ATOM     16  C   UNL A   1      39.009  28.320  27.945  1.00  0.00     0.029 A 
ATOM     17  N   UNL A   1      40.518  28.356  29.584  1.00  0.00    -0.354 N 
ATOM     18  C   UNL A   1      39.929  30.965  33.006  1.00  0.00     0.074 A 
ATOM     19  C   UNL A   1      38.824  31.871  32.801  1.00  0.00     0.031 C 
ATOM     20  C   UNL A   1      39.963  27.430  27.626  1.00  0.00     0.029 A 
ATOM     21  C   UNL A   1      40.989  27.450  28.661  1.00  0.00     0.049 A 
ATOM     22  H   UNL A   1      40.962  28.530  30.444  1.00  0.00     0.167 HD
ATOM     23  C   UNL A   1      40.651  30.896  34.144  1.00  0.00     0.034 A 
ATOM     24  C   UNL A   1      42.122  26.721  28.654  1.00  0.00     0.034 A 
ATOM     25  C   UNL A   1      41.739  29.985  34.336  1.00  0.00     0.049 A 
ATOM     26  C   UNL A   1      42.983  26.750  29.887  1.00  0.00     0.074 A 
ATOM     27  C   UNL A   1      42.529  29.818  35.456  1.00  0.00     0.029 A 
ATOM     28  N   UNL A   1      42.203  29.100  33.375  1.00  0.00    -0.354 N 
ATOM     29  N   UNL A   1      42.793  27.418  31.000  1.00  0.00    -0.248 NA
ATOM     30  C   UNL A   1      44.169  25.883  29.902  1.00  0.00     0.031 C 
ATOM     31  C   UNL A   1      43.500  28.861  35.157  1.00  0.00     0.029 A 
ATOM     32  C   UNL A   1      43.285  28.398  33.867  1.00  0.00     0.049 A 
ATOM     33  H   UNL A   1      41.818  28.989  32.475  1.00  0.00     0.167 HD
ATOM     34  C   UNL A   1      43.795  27.008  31.868  1.00  0.00     0.074 A 
ATOM     35  C   UNL A   1      44.594  26.035  31.150  1.00  0.00     0.031 C 
ATOM     36  C   UNL A   1      44.031  27.398  33.145  1.00  0.00     0.034 A 
BRANCH  23  37
ATOM     37  C   UNL A   1      40.267  31.815  35.268  1.00  0.00     0.023 A 
ATOM     38  C   UNL A   1      40.868  33.087  35.369  1.00  0.00     0.012 A 
ATOM     39  C   UNL A   1      39.274  31.438  36.189  1.00  0.00     0.148 A 
ATOM     40  C   UNL A   1      40.498  33.963  36.387  1.00  0.00     0.002 A 
ATOM     41  C   UNL A   1      38.876  32.335  37.170  1.00  0.00     0.091 A 
ATOM     42  F   UNL A   1      38.741  30.212  36.085  1.00  0.00    -0.205 F 
ATOM     43  C   UNL A   1      39.494  33.593  37.278  1.00  0.00     0.022 A 
BRANCH  41  44
ATOM     44  S   UNL A   1      37.541  31.985  38.316  1.00  0.00     0.127 S 
ATOM     45  O   UNL A   1      36.530  32.958  37.898  1.00  0.00    -0.237 OA
ATOM     46  O   UNL A   1      37.221  30.595  37.989  1.00  0.00    -0.237 OA
ATOM     47  O   UNL A   1      38.084  32.194  39.649  1.00  0.00    -0.744 OA
ENDBRANCH  41  44
ENDBRANCH  23  37
BRANCH  24  48
ATOM     48  C   UNL A   1      42.460  25.863  27.482  1.00  0.00     0.023 A 
ATOM     49  C   UNL A   1      43.191  26.397  26.405  1.00  0.00     0.012 A 
ATOM     50  C   UNL A   1      42.079  24.505  27.443  1.00  0.00     0.148 A 
ATOM     51  C   UNL A   1      43.506  25.608  25.295  1.00  0.00     0.002 A 
ATOM     52  C   UNL A   1      42.435  23.713  26.356  1.00  0.00     0.091 A 
ATOM     53  F   UNL A   1      41.382  24.012  28.477  1.00  0.00    -0.205 F 
ATOM     54  C   UNL A   1      43.135  24.267  25.274  1.00  0.00     0.022 A 
BRANCH  52  55
ATOM     55  S   UNL A   1      42.105  21.947  26.291  1.00  0.00     0.127 S 
ATOM     56  O   UNL A   1      42.501  21.518  27.631  1.00  0.00    -0.237 OA
ATOM     57  O   UNL A   1      40.664  21.923  26.036  1.00  0.00    -0.237 OA
ATOM     58  O   UNL A   1      42.915  21.434  25.197  1.00  0.00    -0.744 OA
ENDBRANCH  52  55
ENDBRANCH  24  48
BRANCH  36  59
ATOM     59  C   UNL A   1      45.173  26.755  33.880  1.00  0.00     0.023 A 
ATOM     60  C   UNL A   1      46.451  27.342  33.841  1.00  0.00     0.012 A 
ATOM     61  C   UNL A   1      44.936  25.653  34.726  1.00  0.00     0.148 A 
ATOM     62  C   UNL A   1      47.482  26.833  34.627  1.00  0.00     0.002 A 
ATOM     63  C   UNL A   1      45.951  25.190  35.550  1.00  0.00     0.091 A 
ATOM     64  F   UNL A   1      43.713  25.101  34.731  1.00  0.00    -0.205 F 
ATOM     65  C   UNL A   1      47.228  25.771  35.493  1.00  0.00     0.022 A 
BRANCH  63  66
ATOM     66  S   UNL A   1      45.684  23.913  36.783  1.00  0.00     0.127 S 
ATOM     67  O   UNL A   1      45.148  22.823  35.970  1.00  0.00    -0.237 OA
ATOM     68  O   UNL A   1      47.037  23.688  37.292  1.00  0.00    -0.237 OA
ATOM     69  O   UNL A   1      44.756  24.477  37.754  1.00  0.00    -0.744 OA
ENDBRANCH  63  66
ENDBRANCH  36  59
ENDBRANCH  10  11
ENDBRANCH   3   5
ENDBRANCH   2   3
ENDBRANCH   1   2
BRANCH   1  70
ATOM     70  C   UNL A   1      31.722  29.852  25.682  1.00  0.00     0.275 C 
BRANCH  70  71
ATOM     71  O   UNL A   1      32.943  29.349  25.117  1.00  0.00    -0.458 OA
BRANCH  71  72
ATOM     72  C   UNL A   1      33.250  28.056  25.403  1.00  0.00     0.340 C 
ATOM     73  O   UNL A   1      33.518  27.598  26.503  1.00  0.00    -0.246 OA
BRANCH  72  74
ATOM     74  C   UNL A   1      33.113  27.229  24.181  1.00  0.00     0.083 A 
ATOM     75  C   UNL A   1      33.771  27.681  23.018  1.00  0.00     0.021 A 
ATOM     76  C   UNL A   1      32.336  26.042  24.173  1.00  0.00     0.058 A 
ATOM     77  C   UNL A   1      33.635  26.986  21.821  1.00  0.00     0.040 A 
ATOM     78  C   UNL A   1      32.166  25.423  22.931  1.00  0.00     0.066 A 
ATOM     79  C   UNL A   1      32.803  25.888  21.782  1.00  0.00     0.125 A 
ATOM     80  F   UNL A   1      32.588  25.247  20.629  1.00  0.00    -0.207 F 
BRANCH  76  81
ATOM     81  N   UNL A   1      31.755  25.566  25.387  1.00  0.00    -0.325 N 
ATOM     82  C   UNL A   1      32.003  24.521  26.241  1.00  0.00     0.228 C 
ATOM     83  H   UNL A   1      30.996  26.119  25.681  1.00  0.00     0.169 HD
ATOM     84  O   UNL A   1      31.284  24.387  27.233  1.00  0.00    -0.274 OA
BRANCH  82  85
ATOM     85  C   UNL A   1      33.150  23.570  26.016  1.00  0.00     0.095 C 
ATOM     86  C   UNL A   1      33.416  22.752  27.289  1.00  0.00     0.030 C 
ATOM     87  C   UNL A   1      32.915  22.505  24.942  1.00  0.00     0.150 C 
ATOM     88  C   UNL A   1      34.545  21.795  26.940  1.00  0.00     0.138 C 
ATOM     89  S   UNL A   1      34.232  21.325  25.243  1.00  0.00     0.151 S 
ATOM     90  O   UNL A   1      35.380  21.704  24.449  1.00  0.00    -0.229 OA
ATOM     91  O   UNL A   1      33.681  19.985  25.223  1.00  0.00    -0.229 OA
ENDBRANCH  82  85
ENDBRANCH  76  81
ENDBRANCH  72  74
ENDBRANCH  71  72
ENDBRANCH  70  71
ENDBRANCH   1  70
TORSDOF 16
ENDMDL
