MODEL 1
REMARK VINA RESULT:     -12.0      0.000      0.000
REMARK SMILES COc1ccc(C(=O)N[C@H](C(=O)OCCOC(=O)c2ccc(-c3c4nc(c(-c5cccc(S(=O)(=O)[O-])c5F)c5ccc([nH]5)c(-c5cccc(S(=O)(=O)[O-])c5F)c5nc(c(-c6cccc(S(=O)(=O)[O-])c6F)c6ccc3[nH]6)C=C5)C=C4)cc2)C2=C(C)N=N[C@H]2C)c(F)c1F
REMARK SMILES IDX 14 1 13 2 11 3 12 4 10 5 9 6 7 7 8 8 6 10 3 11 4 12 91 13
REMARK SMILES IDX 5 14 89 15 92 16 90 17 2 18 1 19 82 20 83 21 87 22 84 23
REMARK SMILES IDX 85 24 86 25 88 26 15 27 16 28 17 29 18 30 19 31 20 32 81 33
REMARK SMILES IDX 21 34 80 35 22 36 23 37 24 38 74 39 25 40 79 41 73 42 75 43
REMARK SMILES IDX 26 44 78 45 72 46 71 47 27 49 59 50 39 51 58 52 40 53 43 54
REMARK SMILES IDX 57 55 76 56 41 57 42 58 56 60 77 61 44 62 28 63 29 64 37 65
REMARK SMILES IDX 30 66 32 67 38 68 31 69 33 70 34 71 35 72 36 73 60 74 61 75
REMARK SMILES IDX 69 76 62 77 64 78 70 79 63 80 65 81 66 82 67 83 68 84 45 85
REMARK SMILES IDX 46 86 54 87 47 88 49 89 55 90 48 91 50 92 51 93 52 94 53 95
REMARK H PARENT 9 9 75 48 43 59
REMARK Flexibility Score: inf
ROOT
ATOM      1  C   UNL A   1      31.268  28.989  25.037  1.00  0.00     0.274 C 
ENDROOT
BRANCH   1   2
ATOM      2  O   UNL A   1      32.205  28.004  25.514  1.00  0.00    -0.460 OA
BRANCH   2   3
ATOM      3  C   UNL A   1      31.769  27.122  26.467  1.00  0.00     0.333 C 
ATOM      4  O   UNL A   1      31.122  27.434  27.458  1.00  0.00    -0.249 OA
BRANCH   3   5
ATOM      5  C   UNL A   1      32.091  25.655  26.050  1.00  0.00     0.223 C 
BRANCH   5   6
ATOM      6  N   UNL A   1      31.435  24.627  26.863  1.00  0.00    -0.335 N 
ATOM      7  C   UNL A   1      31.498  23.267  26.971  1.00  0.00     0.255 C 
ATOM      8  O   UNL A   1      30.620  22.699  27.624  1.00  0.00    -0.269 OA
ATOM      9  H   UNL A   1      30.784  25.016  27.491  1.00  0.00     0.165 HD
BRANCH   7  10
ATOM     10  C   UNL A   1      32.609  22.437  26.480  1.00  0.00     0.078 A 
ATOM     11  C   UNL A   1      34.929  21.136  25.549  1.00  0.00     0.157 A 
ATOM     12  C   UNL A   1      35.009  22.067  26.585  1.00  0.00     0.050 A 
ATOM     13  C   UNL A   1      33.676  20.831  25.018  1.00  0.00     0.201 A 
ATOM     14  C   UNL A   1      33.859  22.700  27.062  1.00  0.00     0.021 A 
ATOM     15  C   UNL A   1      32.524  21.453  25.506  1.00  0.00     0.175 A 
ATOM     16  F   UNL A   1      33.543  19.973  23.996  1.00  0.00    -0.200 F 
ATOM     17  F   UNL A   1      31.351  21.063  25.005  1.00  0.00    -0.203 F 
BRANCH  11  18
ATOM     18  O   UNL A   1      36.138  20.640  25.159  1.00  0.00    -0.494 OA
ATOM     19  C   UNL A   1      37.287  21.452  25.365  1.00  0.00     0.278 C 
ENDBRANCH  11  18
ENDBRANCH   7  10
ENDBRANCH   5   6
BRANCH   5  20
ATOM     20  C   UNL A   1      32.227  25.398  24.575  1.00  0.00     0.012 C 
ATOM     21  C   UNL A   1      33.344  25.199  23.851  1.00  0.00     0.064 C 
ATOM     22  C   UNL A   1      31.175  25.596  23.535  1.00  0.00     0.156 C 
ATOM     23  C   UNL A   1      34.744  24.902  24.265  1.00  0.00     0.069 C 
ATOM     24  N   UNL A   1      33.148  25.411  22.506  1.00  0.00    -0.160 NA
ATOM     25  N   UNL A   1      31.969  25.792  22.295  1.00  0.00    -0.181 NA
ATOM     26  C   UNL A   1      30.355  24.333  23.262  1.00  0.00     0.040 C 
ENDBRANCH   5  20
ENDBRANCH   3   5
ENDBRANCH   2   3
ENDBRANCH   1   2
BRANCH   1  27
ATOM     27  C   UNL A   1      31.608  30.386  25.563  1.00  0.00     0.275 C 
BRANCH  27  28
ATOM     28  O   UNL A   1      32.984  30.470  25.963  1.00  0.00    -0.458 OA
BRANCH  28  29
ATOM     29  C   UNL A   1      33.256  31.430  26.877  1.00  0.00     0.338 C 
ATOM     30  O   UNL A   1      32.552  32.373  27.196  1.00  0.00    -0.246 OA
BRANCH  29  31
ATOM     31  C   UNL A   1      34.455  31.033  27.628  1.00  0.00     0.060 A 
ATOM     32  C   UNL A   1      35.345  32.050  27.972  1.00  0.00     0.016 A 
ATOM     33  C   UNL A   1      34.706  29.712  27.999  1.00  0.00     0.016 A 
ATOM     34  C   UNL A   1      36.490  31.767  28.697  1.00  0.00     0.010 A 
ATOM     35  C   UNL A   1      35.864  29.423  28.723  1.00  0.00     0.010 A 
ATOM     36  C   UNL A   1      36.756  30.451  29.073  1.00  0.00    -0.014 A 
BRANCH  36  37
ATOM     37  C   UNL A   1      37.999  30.158  29.809  1.00  0.00     0.031 A 
ATOM     38  C   UNL A   1      39.002  29.227  29.204  1.00  0.00     0.074 A 
ATOM     39  C   UNL A   1      38.214  30.742  31.001  1.00  0.00     0.049 A 
ATOM     40  N   UNL A   1      40.093  28.742  29.728  1.00  0.00    -0.248 NA
ATOM     41  C   UNL A   1      38.743  28.788  27.824  1.00  0.00     0.031 C 
ATOM     42  C   UNL A   1      37.323  31.713  31.638  1.00  0.00     0.029 A 
ATOM     43  N   UNL A   1      39.236  30.583  31.900  1.00  0.00    -0.354 N 
ATOM     44  C   UNL A   1      40.630  27.903  28.763  1.00  0.00     0.074 A 
ATOM     45  C   UNL A   1      39.754  27.956  27.613  1.00  0.00     0.031 C 
ATOM     46  C   UNL A   1      37.817  32.034  32.844  1.00  0.00     0.029 A 
ATOM     47  C   UNL A   1      39.029  31.255  33.080  1.00  0.00     0.049 A 
ATOM     48  H   UNL A   1      40.038  30.041  31.717  1.00  0.00     0.167 HD
ATOM     49  C   UNL A   1      41.758  27.159  28.835  1.00  0.00     0.034 A 
ATOM     50  C   UNL A   1      39.715  31.206  34.237  1.00  0.00     0.034 A 
ATOM     51  C   UNL A   1      42.626  27.139  29.980  1.00  0.00     0.049 A 
ATOM     52  C   UNL A   1      40.928  30.318  34.313  1.00  0.00     0.074 A 
ATOM     53  C   UNL A   1      43.810  26.447  30.152  1.00  0.00     0.029 A 
ATOM     54  N   UNL A   1      42.395  27.838  31.157  1.00  0.00    -0.354 N 
ATOM     55  N   UNL A   1      41.473  29.583  33.372  1.00  0.00    -0.248 NA
ATOM     56  C   UNL A   1      41.628  30.259  35.603  1.00  0.00     0.031 C 
ATOM     57  C   UNL A   1      44.282  26.709  31.443  1.00  0.00     0.029 A 
ATOM     58  C   UNL A   1      43.401  27.578  32.069  1.00  0.00     0.049 A 
ATOM     59  H   UNL A   1      41.626  28.432  31.319  1.00  0.00     0.167 HD
ATOM     60  C   UNL A   1      42.587  28.987  33.949  1.00  0.00     0.074 A 
ATOM     61  C   UNL A   1      42.655  29.469  35.315  1.00  0.00     0.031 C 
ATOM     62  C   UNL A   1      43.464  28.104  33.408  1.00  0.00     0.034 A 
BRANCH  49  63
ATOM     63  C   UNL A   1      42.113  26.315  27.644  1.00  0.00     0.023 A 
ATOM     64  C   UNL A   1      42.771  26.899  26.543  1.00  0.00     0.012 A 
ATOM     65  C   UNL A   1      41.825  24.937  27.629  1.00  0.00     0.148 A 
ATOM     66  C   UNL A   1      43.117  26.129  25.434  1.00  0.00     0.002 A 
ATOM     67  C   UNL A   1      42.205  24.168  26.534  1.00  0.00     0.091 A 
ATOM     68  F   UNL A   1      41.171  24.407  28.671  1.00  0.00    -0.205 F 
ATOM     69  C   UNL A   1      42.842  24.764  25.433  1.00  0.00     0.022 A 
BRANCH  67  70
ATOM     70  S   UNL A   1      41.948  22.392  26.465  1.00  0.00     0.127 S 
ATOM     71  O   UNL A   1      40.489  22.305  26.451  1.00  0.00    -0.237 OA
ATOM     72  O   UNL A   1      42.592  22.035  25.201  1.00  0.00    -0.237 OA
ATOM     73  O   UNL A   1      42.597  21.847  27.650  1.00  0.00    -0.744 OA
ENDBRANCH  67  70
ENDBRANCH  49  63
BRANCH  50  74
ATOM     74  C   UNL A   1      39.265  32.011  35.406  1.00  0.00     0.023 A 
ATOM     75  C   UNL A   1      38.390  31.438  36.347  1.00  0.00     0.012 A 
ATOM     76  C   UNL A   1      39.729  33.326  35.612  1.00  0.00     0.148 A 
ATOM     77  C   UNL A   1      37.970  32.165  37.462  1.00  0.00     0.002 A 
ATOM     78  C   UNL A   1      39.350  34.026  36.752  1.00  0.00     0.091 A 
ATOM     79  F   UNL A   1      40.543  33.866  34.692  1.00  0.00    -0.205 F 
ATOM     80  C   UNL A   1      38.460  33.452  37.672  1.00  0.00     0.022 A 
BRANCH  78  81
ATOM     81  S   UNL A   1      40.034  35.637  37.160  1.00  0.00     0.127 S 
ATOM     82  O   UNL A   1      41.460  35.340  37.261  1.00  0.00    -0.237 OA
ATOM     83  O   UNL A   1      39.653  36.436  35.994  1.00  0.00    -0.237 OA
ATOM     84  O   UNL A   1      39.379  36.037  38.398  1.00  0.00    -0.744 OA
ENDBRANCH  78  81
ENDBRANCH  50  74
BRANCH  62  85
ATOM     85  C   UNL A   1      44.574  27.604  34.293  1.00  0.00     0.023 A 
ATOM     86  C   UNL A   1      45.783  28.325  34.356  1.00  0.00     0.012 A 
ATOM     87  C   UNL A   1      44.387  26.482  35.122  1.00  0.00     0.148 A 
ATOM     88  C   UNL A   1      46.800  27.921  35.220  1.00  0.00     0.002 A 
ATOM     89  C   UNL A   1      45.388  26.113  36.012  1.00  0.00     0.091 A 
ATOM     90  F   UNL A   1      43.234  25.804  35.030  1.00  0.00    -0.205 F 
ATOM     91  C   UNL A   1      46.598  26.825  36.055  1.00  0.00     0.022 A 
BRANCH  89  92
ATOM     92  S   UNL A   1      45.183  24.773  37.190  1.00  0.00     0.127 S 
ATOM     93  O   UNL A   1      44.114  25.288  38.044  1.00  0.00    -0.237 OA
ATOM     94  O   UNL A   1      44.791  23.659  36.327  1.00  0.00    -0.237 OA
ATOM     95  O   UNL A   1      46.476  24.608  37.840  1.00  0.00    -0.744 OA
ENDBRANCH  89  92
ENDBRANCH  62  85
ENDBRANCH  36  37
ENDBRANCH  29  31
ENDBRANCH  28  29
ENDBRANCH  27  28
ENDBRANCH   1  27
TORSDOF 18
ENDMDL
MODEL 2
REMARK VINA RESULT:     -11.8      1.631      2.118
REMARK SMILES COc1ccc(C(=O)N[C@H](C(=O)OCCOC(=O)c2ccc(-c3c4nc(c(-c5cccc(S(=O)(=O)[O-])c5F)c5ccc([nH]5)c(-c5cccc(S(=O)(=O)[O-])c5F)c5nc(c(-c6cccc(S(=O)(=O)[O-])c6F)c6ccc3[nH]6)C=C5)C=C4)cc2)C2=C(C)N=N[C@H]2C)c(F)c1F
REMARK SMILES IDX 14 1 13 2 11 3 12 4 10 5 9 6 7 7 8 8 6 10 3 11 4 12 91 13
REMARK SMILES IDX 5 14 89 15 92 16 90 17 2 18 1 19 82 20 83 21 87 22 84 23
REMARK SMILES IDX 85 24 86 25 88 26 15 27 16 28 17 29 18 30 19 31 20 32 81 33
REMARK SMILES IDX 21 34 80 35 22 36 23 37 24 38 74 39 25 40 79 41 73 42 75 43
REMARK SMILES IDX 26 44 78 45 72 46 71 47 27 49 59 50 39 51 58 52 40 53 43 54
REMARK SMILES IDX 57 55 76 56 41 57 42 58 56 60 77 61 44 62 28 63 29 64 37 65
REMARK SMILES IDX 30 66 32 67 38 68 31 69 33 70 34 71 35 72 36 73 60 74 61 75
REMARK SMILES IDX 69 76 62 77 64 78 70 79 63 80 65 81 66 82 67 83 68 84 45 85
REMARK SMILES IDX 46 86 54 87 47 88 49 89 55 90 48 91 50 92 51 93 52 94 53 95
REMARK H PARENT 9 9 75 48 43 59
REMARK Flexibility Score: inf
ROOT
ATOM      1  C   UNL A   1      31.766  29.808  25.638  1.00  0.00     0.274 C 
ENDROOT
BRANCH   1   2
ATOM      2  O   UNL A   1      31.458  28.582  26.330  1.00  0.00    -0.460 OA
BRANCH   2   3
ATOM      3  C   UNL A   1      32.302  27.519  26.143  1.00  0.00     0.333 C 
ATOM      4  O   UNL A   1      33.449  27.461  26.564  1.00  0.00    -0.249 OA
BRANCH   3   5
ATOM      5  C   UNL A   1      31.560  26.343  25.440  1.00  0.00     0.223 C 
BRANCH   5   6
ATOM      6  N   UNL A   1      30.794  25.474  26.339  1.00  0.00    -0.335 N 
ATOM      7  C   UNL A   1      30.670  24.129  26.540  1.00  0.00     0.255 C 
ATOM      8  O   UNL A   1      29.744  23.736  27.253  1.00  0.00    -0.269 OA
ATOM      9  H   UNL A   1      30.226  25.992  26.954  1.00  0.00     0.165 HD
BRANCH   7  10
ATOM     10  C   UNL A   1      31.636  23.119  26.082  1.00  0.00     0.078 A 
ATOM     11  C   UNL A   1      33.223  21.039  25.033  1.00  0.00     0.157 A 
ATOM     12  C   UNL A   1      32.282  21.684  24.230  1.00  0.00     0.050 A 
ATOM     13  C   UNL A   1      33.392  21.475  26.347  1.00  0.00     0.201 A 
ATOM     14  C   UNL A   1      31.508  22.727  24.740  1.00  0.00     0.021 A 
ATOM     15  C   UNL A   1      32.628  22.529  26.853  1.00  0.00     0.175 A 
ATOM     16  F   UNL A   1      34.253  20.868  27.176  1.00  0.00    -0.200 F 
ATOM     17  F   UNL A   1      32.889  22.943  28.094  1.00  0.00    -0.203 F 
BRANCH  11  18
ATOM     18  O   UNL A   1      33.866  20.011  24.410  1.00  0.00    -0.494 OA
ATOM     19  C   UNL A   1      33.422  18.687  24.680  1.00  0.00     0.278 C 
ENDBRANCH  11  18
ENDBRANCH   7  10
ENDBRANCH   5   6
BRANCH   5  20
ATOM     20  C   UNL A   1      30.972  26.640  24.089  1.00  0.00     0.012 C 
ATOM     21  C   UNL A   1      31.531  26.492  22.872  1.00  0.00     0.064 C 
ATOM     22  C   UNL A   1      29.746  27.442  23.806  1.00  0.00     0.156 C 
ATOM     23  C   UNL A   1      32.755  25.763  22.435  1.00  0.00     0.069 C 
ATOM     24  N   UNL A   1      30.897  27.235  21.904  1.00  0.00    -0.160 NA
ATOM     25  N   UNL A   1      29.972  27.914  22.417  1.00  0.00    -0.181 NA
ATOM     26  C   UNL A   1      28.479  26.587  23.713  1.00  0.00     0.040 C 
ENDBRANCH   5  20
ENDBRANCH   3   5
ENDBRANCH   2   3
ENDBRANCH   1   2
BRANCH   1  27
ATOM     27  C   UNL A   1      32.149  30.922  26.615  1.00  0.00     0.275 C 
BRANCH  27  28
ATOM     28  O   UNL A   1      33.545  30.868  26.942  1.00  0.00    -0.458 OA
BRANCH  28  29
ATOM     29  C   UNL A   1      34.033  31.974  27.551  1.00  0.00     0.338 C 
ATOM     30  O   UNL A   1      33.462  33.036  27.730  1.00  0.00    -0.246 OA
BRANCH  29  31
ATOM     31  C   UNL A   1      35.305  31.626  28.200  1.00  0.00     0.060 A 
ATOM     32  C   UNL A   1      35.389  30.358  28.776  1.00  0.00     0.016 A 
ATOM     33  C   UNL A   1      36.391  32.500  28.240  1.00  0.00     0.016 A 
ATOM     34  C   UNL A   1      36.558  29.942  29.389  1.00  0.00     0.010 A 
ATOM     35  C   UNL A   1      37.569  32.085  28.866  1.00  0.00     0.010 A 
ATOM     36  C   UNL A   1      37.652  30.805  29.440  1.00  0.00    -0.014 A 
BRANCH  36  37
ATOM     37  C   UNL A   1      38.876  30.363  30.133  1.00  0.00     0.031 A 
ATOM     38  C   UNL A   1      39.762  29.354  29.475  1.00  0.00     0.074 A 
ATOM     39  C   UNL A   1      39.177  30.883  31.336  1.00  0.00     0.049 A 
ATOM     40  N   UNL A   1      40.810  28.743  29.956  1.00  0.00    -0.248 NA
ATOM     41  C   UNL A   1      39.427  28.987  28.090  1.00  0.00     0.031 C 
ATOM     42  C   UNL A   1      38.407  31.920  32.025  1.00  0.00     0.029 A 
ATOM     43  N   UNL A   1      40.199  30.591  32.202  1.00  0.00    -0.354 N 
ATOM     44  C   UNL A   1      41.234  27.884  28.952  1.00  0.00     0.074 A 
ATOM     45  C   UNL A   1      40.341  28.064  27.828  1.00  0.00     0.031 C 
ATOM     46  C   UNL A   1      38.960  32.149  33.226  1.00  0.00     0.029 A 
ATOM     47  C   UNL A   1      40.090  31.243  33.407  1.00  0.00     0.049 A 
ATOM     48  H   UNL A   1      40.936  29.976  31.983  1.00  0.00     0.167 HD
ATOM     49  C   UNL A   1      42.280  27.027  28.972  1.00  0.00     0.034 A 
ATOM     50  C   UNL A   1      40.794  31.086  34.543  1.00  0.00     0.034 A 
ATOM     51  C   UNL A   1      43.168  26.881  30.093  1.00  0.00     0.049 A 
ATOM     52  C   UNL A   1      41.911  30.077  34.561  1.00  0.00     0.074 A 
ATOM     53  C   UNL A   1      44.278  26.065  30.212  1.00  0.00     0.029 A 
ATOM     54  N   UNL A   1      43.038  27.562  31.295  1.00  0.00    -0.354 N 
ATOM     55  N   UNL A   1      42.354  29.321  33.584  1.00  0.00    -0.248 NA
ATOM     56  C   UNL A   1      42.631  29.905  35.829  1.00  0.00     0.031 C 
ATOM     57  C   UNL A   1      44.804  26.236  31.498  1.00  0.00     0.029 A 
ATOM     58  C   UNL A   1      44.033  27.170  32.172  1.00  0.00     0.049 A 
ATOM     59  H   UNL A   1      42.338  28.226  31.495  1.00  0.00     0.167 HD
ATOM     60  C   UNL A   1      43.413  28.595  34.114  1.00  0.00     0.074 A 
ATOM     61  C   UNL A   1      43.563  29.023  35.491  1.00  0.00     0.031 C 
ATOM     62  C   UNL A   1      44.181  27.645  33.524  1.00  0.00     0.034 A 
BRANCH  49  63
ATOM     63  C   UNL A   1      42.518  26.189  27.748  1.00  0.00     0.023 A 
ATOM     64  C   UNL A   1      43.263  26.714  26.674  1.00  0.00     0.012 A 
ATOM     65  C   UNL A   1      42.031  24.869  27.674  1.00  0.00     0.148 A 
ATOM     66  C   UNL A   1      43.503  25.948  25.535  1.00  0.00     0.002 A 
ATOM     67  C   UNL A   1      42.303  24.099  26.549  1.00  0.00     0.091 A 
ATOM     68  F   UNL A   1      41.297  24.400  28.691  1.00  0.00    -0.205 F 
ATOM     69  C   UNL A   1      43.031  24.639  25.476  1.00  0.00     0.022 A 
BRANCH  67  70
ATOM     70  S   UNL A   1      41.789  22.384  26.405  1.00  0.00     0.127 S 
ATOM     71  O   UNL A   1      42.420  21.992  25.146  1.00  0.00    -0.237 OA
ATOM     72  O   UNL A   1      42.383  21.781  27.598  1.00  0.00    -0.237 OA
ATOM     73  O   UNL A   1      40.333  22.402  26.397  1.00  0.00    -0.744 OA
ENDBRANCH  67  70
ENDBRANCH  49  63
BRANCH  50  74
ATOM     74  C   UNL A   1      40.457  31.896  35.747  1.00  0.00     0.023 A 
ATOM     75  C   UNL A   1      41.311  32.942  36.140  1.00  0.00     0.012 A 
ATOM     76  C   UNL A   1      39.276  31.661  36.481  1.00  0.00     0.148 A 
ATOM     77  C   UNL A   1      41.006  33.729  37.251  1.00  0.00     0.002 A 
ATOM     78  C   UNL A   1      38.951  32.482  37.554  1.00  0.00     0.091 A 
ATOM     79  F   UNL A   1      38.487  30.643  36.107  1.00  0.00    -0.205 F 
ATOM     80  C   UNL A   1      39.822  33.509  37.950  1.00  0.00     0.022 A 
BRANCH  78  81
ATOM     81  S   UNL A   1      37.386  32.345  38.427  1.00  0.00     0.127 S 
ATOM     82  O   UNL A   1      37.221  30.897  38.520  1.00  0.00    -0.237 OA
ATOM     83  O   UNL A   1      37.682  33.014  39.694  1.00  0.00    -0.237 OA
ATOM     84  O   UNL A   1      36.413  33.043  37.597  1.00  0.00    -0.744 OA
ENDBRANCH  78  81
ENDBRANCH  50  74
BRANCH  62  85
ATOM     85  C   UNL A   1      45.255  27.005  34.363  1.00  0.00     0.023 A 
ATOM     86  C   UNL A   1      46.540  27.581  34.395  1.00  0.00     0.012 A 
ATOM     87  C   UNL A   1      44.966  25.898  35.184  1.00  0.00     0.148 A 
ATOM     88  C   UNL A   1      47.531  27.048  35.218  1.00  0.00     0.002 A 
ATOM     89  C   UNL A   1      45.946  25.401  36.034  1.00  0.00     0.091 A 
ATOM     90  F   UNL A   1      43.740  25.359  35.122  1.00  0.00    -0.205 F 
ATOM     91  C   UNL A   1      47.231  25.969  36.045  1.00  0.00     0.022 A 
BRANCH  89  92
ATOM     92  S   UNL A   1      45.626  24.074  37.201  1.00  0.00     0.127 S 
ATOM     93  O   UNL A   1      45.219  22.987  36.313  1.00  0.00    -0.237 OA
ATOM     94  O   UNL A   1      46.935  23.892  37.829  1.00  0.00    -0.237 OA
ATOM     95  O   UNL A   1      44.589  24.568  38.098  1.00  0.00    -0.744 OA
ENDBRANCH  89  92
ENDBRANCH  62  85
ENDBRANCH  36  37
ENDBRANCH  29  31
ENDBRANCH  28  29
ENDBRANCH  27  28
ENDBRANCH   1  27
TORSDOF 18
ENDMDL
MODEL 3
REMARK VINA RESULT:     -11.7      5.042     10.066
REMARK SMILES COc1ccc(C(=O)N[C@H](C(=O)OCCOC(=O)c2ccc(-c3c4nc(c(-c5cccc(S(=O)(=O)[O-])c5F)c5ccc([nH]5)c(-c5cccc(S(=O)(=O)[O-])c5F)c5nc(c(-c6cccc(S(=O)(=O)[O-])c6F)c6ccc3[nH]6)C=C5)C=C4)cc2)C2=C(C)N=N[C@H]2C)c(F)c1F
REMARK SMILES IDX 14 1 13 2 11 3 12 4 10 5 9 6 7 7 8 8 6 10 3 11 4 12 91 13
REMARK SMILES IDX 5 14 89 15 92 16 90 17 2 18 1 19 82 20 83 21 87 22 84 23
REMARK SMILES IDX 85 24 86 25 88 26 15 27 16 28 17 29 18 30 19 31 20 32 81 33
REMARK SMILES IDX 21 34 80 35 22 36 23 37 24 38 74 39 25 40 79 41 73 42 75 43
REMARK SMILES IDX 26 44 78 45 72 46 71 47 27 49 59 50 39 51 58 52 40 53 43 54
REMARK SMILES IDX 57 55 76 56 41 57 42 58 56 60 77 61 44 62 28 63 29 64 37 65
REMARK SMILES IDX 30 66 32 67 38 68 31 69 33 70 34 71 35 72 36 73 60 74 61 75
REMARK SMILES IDX 69 76 62 77 64 78 70 79 63 80 65 81 66 82 67 83 68 84 45 85
REMARK SMILES IDX 46 86 54 87 47 88 49 89 55 90 48 91 50 92 51 93 52 94 53 95
REMARK H PARENT 9 9 75 48 43 59
REMARK Flexibility Score: inf
ROOT
ATOM      1  C   UNL A   1      35.994  21.061  24.761  1.00  0.00     0.274 C 
ENDROOT
BRANCH   1   2
ATOM      2  O   UNL A   1      35.774  22.480  24.876  1.00  0.00    -0.460 OA
BRANCH   2   3
ATOM      3  C   UNL A   1      35.704  23.208  23.718  1.00  0.00     0.333 C 
ATOM      4  O   UNL A   1      36.499  23.120  22.793  1.00  0.00    -0.249 OA
BRANCH   3   5
ATOM      5  C   UNL A   1      34.400  24.062  23.682  1.00  0.00     0.223 C 
BRANCH   5   6
ATOM      6  N   UNL A   1      34.132  24.718  22.398  1.00  0.00    -0.335 N 
ATOM      7  C   UNL A   1      33.333  25.736  21.961  1.00  0.00     0.255 C 
ATOM      8  O   UNL A   1      33.195  25.878  20.744  1.00  0.00    -0.269 OA
ATOM      9  H   UNL A   1      34.661  24.326  21.667  1.00  0.00     0.165 HD
BRANCH   7  10
ATOM     10  C   UNL A   1      32.732  26.763  22.826  1.00  0.00     0.078 A 
ATOM     11  C   UNL A   1      31.900  28.778  24.612  1.00  0.00     0.157 A 
ATOM     12  C   UNL A   1      33.088  28.918  23.892  1.00  0.00     0.050 A 
ATOM     13  C   UNL A   1      31.115  27.646  24.394  1.00  0.00     0.201 A 
ATOM     14  C   UNL A   1      33.493  27.931  22.993  1.00  0.00     0.021 A 
ATOM     15  C   UNL A   1      31.514  26.666  23.483  1.00  0.00     0.175 A 
ATOM     16  F   UNL A   1      29.984  27.440  25.085  1.00  0.00    -0.200 F 
ATOM     17  F   UNL A   1      30.683  25.644  23.269  1.00  0.00    -0.203 F 
BRANCH  11  18
ATOM     18  O   UNL A   1      31.662  29.798  25.485  1.00  0.00    -0.494 OA
ATOM     19  C   UNL A   1      32.182  29.681  26.803  1.00  0.00     0.278 C 
ENDBRANCH  11  18
ENDBRANCH   7  10
ENDBRANCH   5   6
BRANCH   5  20
ATOM     20  C   UNL A   1      33.227  23.517  24.447  1.00  0.00     0.012 C 
ATOM     21  C   UNL A   1      32.262  22.676  24.029  1.00  0.00     0.064 C 
ATOM     22  C   UNL A   1      32.704  24.017  25.752  1.00  0.00     0.156 C 
ATOM     23  C   UNL A   1      32.166  21.814  22.819  1.00  0.00     0.069 C 
ATOM     24  N   UNL A   1      31.141  22.718  24.826  1.00  0.00    -0.160 NA
ATOM     25  N   UNL A   1      31.285  23.581  25.729  1.00  0.00    -0.181 NA
ATOM     26  C   UNL A   1      33.303  23.288  26.957  1.00  0.00     0.040 C 
ENDBRANCH   5  20
ENDBRANCH   3   5
ENDBRANCH   2   3
ENDBRANCH   1   2
BRANCH   1  27
ATOM     27  C   UNL A   1      37.456  20.696  25.026  1.00  0.00     0.275 C 
BRANCH  27  28
ATOM     28  O   UNL A   1      38.097  21.683  25.848  1.00  0.00    -0.458 OA
BRANCH  28  29
ATOM     29  C   UNL A   1      39.332  21.348  26.287  1.00  0.00     0.338 C 
ATOM     30  O   UNL A   1      39.910  20.284  26.137  1.00  0.00    -0.246 OA
BRANCH  29  31
ATOM     31  C   UNL A   1      39.997  22.561  26.780  1.00  0.00     0.060 A 
ATOM     32  C   UNL A   1      39.668  23.759  26.145  1.00  0.00     0.016 A 
ATOM     33  C   UNL A   1      40.907  22.543  27.837  1.00  0.00     0.016 A 
ATOM     34  C   UNL A   1      40.233  24.953  26.561  1.00  0.00     0.010 A 
ATOM     35  C   UNL A   1      41.484  23.744  28.252  1.00  0.00     0.010 A 
ATOM     36  C   UNL A   1      41.147  24.950  27.614  1.00  0.00    -0.014 A 
BRANCH  36  37
ATOM     37  C   UNL A   1      41.771  26.223  28.017  1.00  0.00     0.031 A 
ATOM     38  C   UNL A   1      40.957  27.230  28.766  1.00  0.00     0.074 A 
ATOM     39  C   UNL A   1      43.062  26.449  27.717  1.00  0.00     0.049 A 
ATOM     40  N   UNL A   1      41.268  28.450  29.106  1.00  0.00    -0.248 NA
ATOM     41  C   UNL A   1      39.614  26.804  29.192  1.00  0.00     0.031 C 
ATOM     42  C   UNL A   1      43.952  25.499  27.047  1.00  0.00     0.029 A 
ATOM     43  N   UNL A   1      43.841  27.560  27.912  1.00  0.00    -0.354 N 
ATOM     44  C   UNL A   1      40.145  28.957  29.745  1.00  0.00     0.074 A 
ATOM     45  C   UNL A   1      39.150  27.908  29.760  1.00  0.00     0.031 C 
ATOM     46  C   UNL A   1      45.146  26.082  26.852  1.00  0.00     0.029 A 
ATOM     47  C   UNL A   1      45.085  27.457  27.337  1.00  0.00     0.049 A 
ATOM     48  H   UNL A   1      43.539  28.351  28.414  1.00  0.00     0.167 HD
ATOM     49  C   UNL A   1      39.971  30.190  30.272  1.00  0.00     0.034 A 
ATOM     50  C   UNL A   1      46.044  28.388  27.177  1.00  0.00     0.034 A 
ATOM     51  C   UNL A   1      40.983  31.211  30.265  1.00  0.00     0.049 A 
ATOM     52  C   UNL A   1      45.797  29.772  27.714  1.00  0.00     0.074 A 
ATOM     53  C   UNL A   1      40.925  32.485  30.797  1.00  0.00     0.029 A 
ATOM     54  N   UNL A   1      42.235  31.073  29.683  1.00  0.00    -0.354 N 
ATOM     55  N   UNL A   1      44.763  30.224  28.382  1.00  0.00    -0.248 NA
ATOM     56  C   UNL A   1      46.850  30.770  27.486  1.00  0.00     0.031 C 
ATOM     57  C   UNL A   1      42.136  33.127  30.515  1.00  0.00     0.029 A 
ATOM     58  C   UNL A   1      42.954  32.247  29.823  1.00  0.00     0.049 A 
ATOM     59  H   UNL A   1      42.564  30.260  29.236  1.00  0.00     0.167 HD
ATOM     60  C   UNL A   1      45.045  31.554  28.669  1.00  0.00     0.074 A 
ATOM     61  C   UNL A   1      46.361  31.826  28.125  1.00  0.00     0.031 C 
ATOM     62  C   UNL A   1      44.279  32.475  29.306  1.00  0.00     0.034 A 
BRANCH  49  63
ATOM     63  C   UNL A   1      38.640  30.496  30.901  1.00  0.00     0.023 A 
ATOM     64  C   UNL A   1      38.386  30.098  32.228  1.00  0.00     0.012 A 
ATOM     65  C   UNL A   1      37.655  31.207  30.189  1.00  0.00     0.148 A 
ATOM     66  C   UNL A   1      37.162  30.382  32.831  1.00  0.00     0.002 A 
ATOM     67  C   UNL A   1      36.450  31.517  30.809  1.00  0.00     0.091 A 
ATOM     68  F   UNL A   1      37.905  31.549  28.918  1.00  0.00    -0.205 F 
ATOM     69  C   UNL A   1      36.198  31.098  32.126  1.00  0.00     0.022 A 
BRANCH  67  70
ATOM     70  S   UNL A   1      35.171  32.487  30.004  1.00  0.00     0.127 S 
ATOM     71  O   UNL A   1      34.711  31.566  28.967  1.00  0.00    -0.237 OA
ATOM     72  O   UNL A   1      34.217  32.706  31.092  1.00  0.00    -0.237 OA
ATOM     73  O   UNL A   1      35.828  33.695  29.523  1.00  0.00    -0.744 OA
ENDBRANCH  67  70
ENDBRANCH  49  63
BRANCH  50  74
ATOM     74  C   UNL A   1      47.311  28.039  26.475  1.00  0.00     0.023 A 
ATOM     75  C   UNL A   1      48.440  27.666  27.228  1.00  0.00     0.012 A 
ATOM     76  C   UNL A   1      47.392  28.035  25.068  1.00  0.00     0.148 A 
ATOM     77  C   UNL A   1      49.632  27.314  26.593  1.00  0.00     0.002 A 
ATOM     78  C   UNL A   1      48.565  27.632  24.441  1.00  0.00     0.091 A 
ATOM     79  F   UNL A   1      46.314  28.418  24.367  1.00  0.00    -0.205 F 
ATOM     80  C   UNL A   1      49.691  27.284  25.202  1.00  0.00     0.022 A 
BRANCH  78  81
ATOM     81  S   UNL A   1      48.684  27.445  22.657  1.00  0.00     0.127 S 
ATOM     82  O   UNL A   1      50.005  28.006  22.385  1.00  0.00    -0.237 OA
ATOM     83  O   UNL A   1      48.586  25.994  22.494  1.00  0.00    -0.237 OA
ATOM     84  O   UNL A   1      47.554  28.185  22.111  1.00  0.00    -0.744 OA
ENDBRANCH  78  81
ENDBRANCH  50  74
BRANCH  62  85
ATOM     85  C   UNL A   1      44.845  33.862  29.451  1.00  0.00     0.023 A 
ATOM     86  C   UNL A   1      45.551  34.199  30.622  1.00  0.00     0.012 A 
ATOM     87  C   UNL A   1      44.756  34.793  28.398  1.00  0.00     0.148 A 
ATOM     88  C   UNL A   1      46.144  35.454  30.752  1.00  0.00     0.002 A 
ATOM     89  C   UNL A   1      45.387  36.024  28.517  1.00  0.00     0.091 A 
ATOM     90  F   UNL A   1      44.063  34.453  27.302  1.00  0.00    -0.205 F 
ATOM     91  C   UNL A   1      46.073  36.360  29.696  1.00  0.00     0.022 A 
BRANCH  89  92
ATOM     92  S   UNL A   1      45.429  37.218  27.177  1.00  0.00     0.127 S 
ATOM     93  O   UNL A   1      44.007  37.484  26.969  1.00  0.00    -0.237 OA
ATOM     94  O   UNL A   1      46.176  38.326  27.772  1.00  0.00    -0.237 OA
ATOM     95  O   UNL A   1      46.108  36.557  26.070  1.00  0.00    -0.744 OA
ENDBRANCH  89  92
ENDBRANCH  62  85
ENDBRANCH  36  37
ENDBRANCH  29  31
ENDBRANCH  28  29
ENDBRANCH  27  28
ENDBRANCH   1  27
TORSDOF 18
ENDMDL
