MODEL 1
REMARK VINA RESULT:     -11.7      0.000      0.000
REMARK SMILES Cc1onc2c(=O)n(C)nc(C(=O)OCCOC(=O)c3ccc(-c4c5nc(c(-c6cccc(S(=O)(=O)[O-])c6F)c6ccc([nH]6)c(-c6cccc(S(=O)(=O)[O-])c6F)c6nc(c(-c7cccc(S(=O)(=O)[O-])c7F)c7ccc4[nH]7)C=C6)C=C5)cc3)c12
REMARK SMILES IDX 17 1 16 2 15 3 14 4 12 5 13 6 11 7 1 8 2 9 3 10 83 11 4 12
REMARK SMILES IDX 5 13 6 14 10 15 7 16 8 17 9 18 18 19 19 20 20 21 21 22 82 23
REMARK SMILES IDX 22 24 81 25 23 26 24 27 25 28 75 29 26 30 80 31 74 32 76 33
REMARK SMILES IDX 27 34 79 35 73 36 72 37 28 39 60 40 40 41 59 42 41 43 44 44
REMARK SMILES IDX 58 45 77 46 42 47 43 48 57 50 78 51 45 52 29 53 30 54 38 55
REMARK SMILES IDX 31 56 33 57 39 58 32 59 34 60 35 61 36 62 37 63 61 64 62 65
REMARK SMILES IDX 70 66 63 67 65 68 71 69 64 70 66 71 67 72 68 73 69 74 46 75
REMARK SMILES IDX 47 76 55 77 48 78 50 79 56 80 49 81 51 82 52 83 53 84 54 85
REMARK H PARENT 76 38 44 49
REMARK Flexibility Score: inf
ROOT
ATOM      1  O   UNL A   1      36.980  29.756  31.396  1.00  0.00    -0.458 OA
ENDROOT
BRANCH   1   2
ATOM      2  C   UNL A   1      37.645  31.027  31.263  1.00  0.00     0.275 C 
BRANCH   2   3
ATOM      3  C   UNL A   1      37.389  31.691  29.905  1.00  0.00     0.275 C 
BRANCH   3   4
ATOM      4  O   UNL A   1      36.646  32.902  30.087  1.00  0.00    -0.457 OA
BRANCH   4   5
ATOM      5  C   UNL A   1      35.308  32.797  30.131  1.00  0.00     0.359 C 
ATOM      6  O   UNL A   1      34.607  31.923  29.652  1.00  0.00    -0.244 OA
BRANCH   5   7
ATOM      7  C   UNL A   1      34.738  33.922  30.978  1.00  0.00     0.182 A 
ATOM      8  C   UNL A   1      33.139  34.413  27.940  1.00  0.00     0.091 C 
ATOM      9  C   UNL A   1      33.198  35.095  29.247  1.00  0.00     0.144 A 
ATOM     10  O   UNL A   1      32.405  36.206  29.350  1.00  0.00    -0.360 OA
ATOM     11  C   UNL A   1      33.821  34.897  30.457  1.00  0.00     0.085 A 
ATOM     12  N   UNL A   1      32.495  36.734  30.627  1.00  0.00    -0.074 NA
ATOM     13  C   UNL A   1      33.334  35.924  31.281  1.00  0.00     0.183 A 
ATOM     14  C   UNL A   1      33.711  36.027  32.677  1.00  0.00     0.296 A 
ATOM     15  N   UNL A   1      35.114  34.003  32.230  1.00  0.00    -0.162 NA
ATOM     16  O   UNL A   1      33.310  36.905  33.435  1.00  0.00    -0.265 OA
ATOM     17  N   UNL A   1      34.600  35.003  33.069  1.00  0.00    -0.230 N 
ATOM     18  C   UNL A   1      35.006  34.947  34.458  1.00  0.00     0.178 C 
ENDBRANCH   5   7
ENDBRANCH   4   5
ENDBRANCH   3   4
ENDBRANCH   2   3
ENDBRANCH   1   2
BRANCH   1  19
ATOM     19  C   UNL A   1      37.725  28.789  32.007  1.00  0.00     0.338 C 
ATOM     20  O   UNL A   1      37.511  28.297  33.096  1.00  0.00    -0.246 OA
BRANCH  19  21
ATOM     21  C   UNL A   1      38.773  28.292  31.095  1.00  0.00     0.060 A 
ATOM     22  C   UNL A   1      38.377  27.666  29.910  1.00  0.00     0.016 A 
ATOM     23  C   UNL A   1      40.123  28.396  31.408  1.00  0.00     0.016 A 
ATOM     24  C   UNL A   1      39.330  27.218  28.992  1.00  0.00     0.010 A 
ATOM     25  C   UNL A   1      41.069  27.883  30.518  1.00  0.00     0.010 A 
ATOM     26  C   UNL A   1      40.696  27.308  29.284  1.00  0.00    -0.014 A 
BRANCH  26  27
ATOM     27  C   UNL A   1      41.712  26.851  28.283  1.00  0.00     0.031 A 
ATOM     28  C   UNL A   1      42.517  27.931  27.647  1.00  0.00     0.074 A 
ATOM     29  C   UNL A   1      42.328  25.644  28.351  1.00  0.00     0.049 A 
ATOM     30  N   UNL A   1      43.476  28.470  28.329  1.00  0.00    -0.248 NA
ATOM     31  C   UNL A   1      42.210  28.659  26.421  1.00  0.00     0.031 C 
ATOM     32  C   UNL A   1      42.370  24.815  29.565  1.00  0.00     0.029 A 
ATOM     33  N   UNL A   1      43.210  25.015  27.489  1.00  0.00    -0.354 N 
ATOM     34  C   UNL A   1      43.840  29.652  27.722  1.00  0.00     0.074 A 
ATOM     35  C   UNL A   1      43.060  29.704  26.504  1.00  0.00     0.031 C 
ATOM     36  C   UNL A   1      43.329  23.879  29.427  1.00  0.00     0.029 A 
ATOM     37  C   UNL A   1      43.884  23.949  28.081  1.00  0.00     0.049 A 
ATOM     38  H   UNL A   1      43.347  25.292  26.554  1.00  0.00     0.167 HD
ATOM     39  C   UNL A   1      44.768  30.463  28.307  1.00  0.00     0.034 A 
ATOM     40  C   UNL A   1      45.119  23.488  27.747  1.00  0.00     0.034 A 
ATOM     41  C   UNL A   1      45.350  29.980  29.550  1.00  0.00     0.049 A 
ATOM     42  C   UNL A   1      46.027  24.550  28.311  1.00  0.00     0.074 A 
ATOM     43  C   UNL A   1      45.739  30.457  30.786  1.00  0.00     0.029 A 
ATOM     44  N   UNL A   1      45.575  28.634  29.612  1.00  0.00    -0.354 N 
ATOM     45  N   UNL A   1      46.323  24.708  29.578  1.00  0.00    -0.248 NA
ATOM     46  C   UNL A   1      46.434  25.671  27.449  1.00  0.00     0.031 C 
ATOM     47  C   UNL A   1      46.265  29.342  31.536  1.00  0.00     0.029 A 
ATOM     48  C   UNL A   1      46.240  28.218  30.724  1.00  0.00     0.049 A 
ATOM     49  H   UNL A   1      45.279  28.013  28.907  1.00  0.00     0.167 HD
ATOM     50  C   UNL A   1      46.667  26.049  29.694  1.00  0.00     0.074 A 
ATOM     51  C   UNL A   1      46.900  26.530  28.348  1.00  0.00     0.031 C 
ATOM     52  C   UNL A   1      46.496  26.797  30.826  1.00  0.00     0.034 A 
BRANCH  39  53
ATOM     53  C   UNL A   1      45.403  31.612  27.613  1.00  0.00     0.023 A 
ATOM     54  C   UNL A   1      46.719  31.385  27.153  1.00  0.00     0.012 A 
ATOM     55  C   UNL A   1      44.862  32.904  27.532  1.00  0.00     0.148 A 
ATOM     56  C   UNL A   1      47.497  32.422  26.645  1.00  0.00     0.002 A 
ATOM     57  C   UNL A   1      45.646  33.942  27.022  1.00  0.00     0.091 A 
ATOM     58  F   UNL A   1      43.616  33.107  27.985  1.00  0.00    -0.205 F 
ATOM     59  C   UNL A   1      46.961  33.702  26.585  1.00  0.00     0.022 A 
BRANCH  57  60
ATOM     60  S   UNL A   1      45.083  35.645  26.906  1.00  0.00     0.127 S 
ATOM     61  O   UNL A   1      43.839  35.508  26.151  1.00  0.00    -0.237 OA
ATOM     62  O   UNL A   1      44.905  36.002  28.315  1.00  0.00    -0.237 OA
ATOM     63  O   UNL A   1      46.146  36.372  26.225  1.00  0.00    -0.744 OA
ENDBRANCH  57  60
ENDBRANCH  39  53
BRANCH  40  64
ATOM     64  C   UNL A   1      45.264  22.868  26.388  1.00  0.00     0.023 A 
ATOM     65  C   UNL A   1      46.090  23.542  25.454  1.00  0.00     0.012 A 
ATOM     66  C   UNL A   1      44.623  21.698  25.943  1.00  0.00     0.148 A 
ATOM     67  C   UNL A   1      46.360  23.015  24.187  1.00  0.00     0.002 A 
ATOM     68  C   UNL A   1      44.966  21.126  24.718  1.00  0.00     0.091 A 
ATOM     69  F   UNL A   1      43.659  21.154  26.693  1.00  0.00    -0.205 F 
ATOM     70  C   UNL A   1      45.830  21.784  23.834  1.00  0.00     0.022 A 
BRANCH  68  71
ATOM     71  S   UNL A   1      44.423  19.479  24.242  1.00  0.00     0.127 S 
ATOM     72  O   UNL A   1      44.497  19.540  22.784  1.00  0.00    -0.237 OA
ATOM     73  O   UNL A   1      45.441  18.646  24.879  1.00  0.00    -0.237 OA
ATOM     74  O   UNL A   1      43.080  19.332  24.789  1.00  0.00    -0.744 OA
ENDBRANCH  68  71
ENDBRANCH  40  64
BRANCH  52  75
ATOM     75  C   UNL A   1      46.460  26.076  32.130  1.00  0.00     0.023 A 
ATOM     76  C   UNL A   1      47.688  25.896  32.802  1.00  0.00     0.012 A 
ATOM     77  C   UNL A   1      45.271  25.657  32.754  1.00  0.00     0.148 A 
ATOM     78  C   UNL A   1      47.741  25.320  34.066  1.00  0.00     0.002 A 
ATOM     79  C   UNL A   1      45.327  25.099  34.029  1.00  0.00     0.091 A 
ATOM     80  F   UNL A   1      44.108  25.813  32.106  1.00  0.00    -0.205 F 
ATOM     81  C   UNL A   1      46.560  24.929  34.683  1.00  0.00     0.022 A 
BRANCH  79  82
ATOM     82  S   UNL A   1      43.867  24.600  34.950  1.00  0.00     0.127 S 
ATOM     83  O   UNL A   1      44.443  24.141  36.214  1.00  0.00    -0.237 OA
ATOM     84  O   UNL A   1      43.127  25.860  35.042  1.00  0.00    -0.237 OA
ATOM     85  O   UNL A   1      43.220  23.559  34.162  1.00  0.00    -0.744 OA
ENDBRANCH  79  82
ENDBRANCH  52  75
ENDBRANCH  26  27
ENDBRANCH  19  21
ENDBRANCH   1  19
TORSDOF 14
ENDMDL
MODEL 2
REMARK VINA RESULT:     -11.6      3.761     12.729
REMARK SMILES Cc1onc2c(=O)n(C)nc(C(=O)OCCOC(=O)c3ccc(-c4c5nc(c(-c6cccc(S(=O)(=O)[O-])c6F)c6ccc([nH]6)c(-c6cccc(S(=O)(=O)[O-])c6F)c6nc(c(-c7cccc(S(=O)(=O)[O-])c7F)c7ccc4[nH]7)C=C6)C=C5)cc3)c12
REMARK SMILES IDX 17 1 16 2 15 3 14 4 12 5 13 6 11 7 1 8 2 9 3 10 83 11 4 12
REMARK SMILES IDX 5 13 6 14 10 15 7 16 8 17 9 18 18 19 19 20 20 21 21 22 82 23
REMARK SMILES IDX 22 24 81 25 23 26 24 27 25 28 75 29 26 30 80 31 74 32 76 33
REMARK SMILES IDX 27 34 79 35 73 36 72 37 28 39 60 40 40 41 59 42 41 43 44 44
REMARK SMILES IDX 58 45 77 46 42 47 43 48 57 50 78 51 45 52 29 53 30 54 38 55
REMARK SMILES IDX 31 56 33 57 39 58 32 59 34 60 35 61 36 62 37 63 61 64 62 65
REMARK SMILES IDX 70 66 63 67 65 68 71 69 64 70 66 71 67 72 68 73 69 74 46 75
REMARK SMILES IDX 47 76 55 77 48 78 50 79 56 80 49 81 51 82 52 83 53 84 54 85
REMARK H PARENT 76 38 44 49
REMARK Flexibility Score: inf
ROOT
ATOM      1  O   UNL A   1      44.537  22.748  35.772  1.00  0.00    -0.458 OA
ENDROOT
BRANCH   1   2
ATOM      2  C   UNL A   1      45.611  22.635  36.726  1.00  0.00     0.275 C 
BRANCH   2   3
ATOM      3  C   UNL A   1      46.991  22.575  36.060  1.00  0.00     0.275 C 
BRANCH   3   4
ATOM      4  O   UNL A   1      47.941  21.991  36.959  1.00  0.00    -0.457 OA
BRANCH   4   5
ATOM      5  C   UNL A   1      48.273  20.707  36.747  1.00  0.00     0.359 C 
ATOM      6  O   UNL A   1      48.911  20.239  35.822  1.00  0.00    -0.244 OA
BRANCH   5   7
ATOM      7  C   UNL A   1      47.801  19.861  37.919  1.00  0.00     0.182 A 
ATOM      8  C   UNL A   1      45.420  19.152  35.499  1.00  0.00     0.091 C 
ATOM      9  C   UNL A   1      45.652  18.804  36.914  1.00  0.00     0.144 A 
ATOM     10  O   UNL A   1      44.726  17.954  37.454  1.00  0.00    -0.360 OA
ATOM     11  C   UNL A   1      46.601  19.074  37.872  1.00  0.00     0.085 A 
ATOM     12  N   UNL A   1      45.067  17.653  38.763  1.00  0.00    -0.074 NA
ATOM     13  C   UNL A   1      46.204  18.319  38.988  1.00  0.00     0.183 A 
ATOM     14  C   UNL A   1      46.991  18.284  40.205  1.00  0.00     0.296 A 
ATOM     15  N   UNL A   1      48.520  19.866  39.013  1.00  0.00    -0.162 NA
ATOM     16  O   UNL A   1      46.686  17.639  41.204  1.00  0.00    -0.265 OA
ATOM     17  N   UNL A   1      48.151  19.084  40.116  1.00  0.00    -0.230 N 
ATOM     18  C   UNL A   1      49.064  19.087  41.241  1.00  0.00     0.178 C 
ENDBRANCH   5   7
ENDBRANCH   4   5
ENDBRANCH   3   4
ENDBRANCH   2   3
ENDBRANCH   1   2
BRANCH   1  19
ATOM     19  C   UNL A   1      43.914  23.962  35.762  1.00  0.00     0.338 C 
ATOM     20  O   UNL A   1      43.264  24.444  36.667  1.00  0.00    -0.246 OA
BRANCH  19  21
ATOM     21  C   UNL A   1      44.257  24.708  34.536  1.00  0.00     0.060 A 
ATOM     22  C   UNL A   1      44.848  25.967  34.670  1.00  0.00     0.016 A 
ATOM     23  C   UNL A   1      43.970  24.206  33.272  1.00  0.00     0.016 A 
ATOM     24  C   UNL A   1      45.232  26.694  33.541  1.00  0.00     0.010 A 
ATOM     25  C   UNL A   1      44.294  24.969  32.147  1.00  0.00     0.010 A 
ATOM     26  C   UNL A   1      44.952  26.213  32.256  1.00  0.00    -0.014 A 
BRANCH  26  27
ATOM     27  C   UNL A   1      45.392  26.984  31.050  1.00  0.00     0.031 A 
ATOM     28  C   UNL A   1      45.623  26.176  29.820  1.00  0.00     0.074 A 
ATOM     29  C   UNL A   1      45.040  28.275  30.827  1.00  0.00     0.049 A 
ATOM     30  N   UNL A   1      44.595  25.769  29.147  1.00  0.00    -0.248 NA
ATOM     31  C   UNL A   1      46.870  25.551  29.392  1.00  0.00     0.031 C 
ATOM     32  C   UNL A   1      43.920  28.946  31.506  1.00  0.00     0.029 A 
ATOM     33  N   UNL A   1      45.412  29.170  29.839  1.00  0.00    -0.354 N 
ATOM     34  C   UNL A   1      44.997  24.768  28.290  1.00  0.00     0.074 A 
ATOM     35  C   UNL A   1      46.434  24.701  28.439  1.00  0.00     0.031 C 
ATOM     36  C   UNL A   1      43.604  30.068  30.832  1.00  0.00     0.029 A 
ATOM     37  C   UNL A   1      44.566  30.274  29.756  1.00  0.00     0.049 A 
ATOM     38  H   UNL A   1      46.195  29.040  29.255  1.00  0.00     0.167 HD
ATOM     39  C   UNL A   1      44.074  24.102  27.538  1.00  0.00     0.034 A 
ATOM     40  C   UNL A   1      44.312  31.015  28.645  1.00  0.00     0.034 A 
ATOM     41  C   UNL A   1      42.694  24.543  27.675  1.00  0.00     0.049 A 
ATOM     42  C   UNL A   1      43.421  30.104  27.841  1.00  0.00     0.074 A 
ATOM     43  C   UNL A   1      41.422  24.013  27.750  1.00  0.00     0.029 A 
ATOM     44  N   UNL A   1      42.518  25.890  27.824  1.00  0.00    -0.354 N 
ATOM     45  N   UNL A   1      42.156  29.861  28.086  1.00  0.00    -0.248 NA
ATOM     46  C   UNL A   1      44.030  29.200  26.853  1.00  0.00     0.031 C 
ATOM     47  C   UNL A   1      40.499  25.115  27.876  1.00  0.00     0.029 A 
ATOM     48  C   UNL A   1      41.220  26.299  27.817  1.00  0.00     0.049 A 
ATOM     49  H   UNL A   1      43.271  26.515  27.929  1.00  0.00     0.167 HD
ATOM     50  C   UNL A   1      41.920  28.615  27.518  1.00  0.00     0.074 A 
ATOM     51  C   UNL A   1      43.031  28.356  26.626  1.00  0.00     0.031 C 
ATOM     52  C   UNL A   1      40.993  27.719  27.974  1.00  0.00     0.034 A 
BRANCH  39  53
ATOM     53  C   UNL A   1      44.433  23.198  26.415  1.00  0.00     0.023 A 
ATOM     54  C   UNL A   1      45.029  23.829  25.301  1.00  0.00     0.012 A 
ATOM     55  C   UNL A   1      44.084  21.842  26.329  1.00  0.00     0.148 A 
ATOM     56  C   UNL A   1      45.255  23.139  24.114  1.00  0.00     0.002 A 
ATOM     57  C   UNL A   1      44.312  21.153  25.135  1.00  0.00     0.091 A 
ATOM     58  F   UNL A   1      43.506  21.260  27.390  1.00  0.00    -0.205 F 
ATOM     59  C   UNL A   1      44.890  21.802  24.029  1.00  0.00     0.022 A 
BRANCH  57  60
ATOM     60  S   UNL A   1      43.871  19.427  24.886  1.00  0.00     0.127 S 
ATOM     61  O   UNL A   1      42.438  19.432  25.173  1.00  0.00    -0.237 OA
ATOM     62  O   UNL A   1      44.211  19.228  23.477  1.00  0.00    -0.237 OA
ATOM     63  O   UNL A   1      44.689  18.667  25.821  1.00  0.00    -0.744 OA
ENDBRANCH  57  60
ENDBRANCH  39  53
BRANCH  40  64
ATOM     64  C   UNL A   1      45.456  31.809  28.085  1.00  0.00     0.023 A 
ATOM     65  C   UNL A   1      46.765  31.347  28.372  1.00  0.00     0.012 A 
ATOM     66  C   UNL A   1      45.350  32.993  27.334  1.00  0.00     0.148 A 
ATOM     67  C   UNL A   1      47.902  31.962  27.838  1.00  0.00     0.002 A 
ATOM     68  C   UNL A   1      46.475  33.549  26.726  1.00  0.00     0.091 A 
ATOM     69  F   UNL A   1      44.162  33.599  27.234  1.00  0.00    -0.205 F 
ATOM     70  C   UNL A   1      47.754  33.039  26.979  1.00  0.00     0.022 A 
BRANCH  68  71
ATOM     71  S   UNL A   1      46.354  34.864  25.506  1.00  0.00     0.127 S 
ATOM     72  O   UNL A   1      47.712  34.908  24.966  1.00  0.00    -0.237 OA
ATOM     73  O   UNL A   1      45.345  34.322  24.598  1.00  0.00    -0.237 OA
ATOM     74  O   UNL A   1      45.942  36.051  26.242  1.00  0.00    -0.744 OA
ENDBRANCH  68  71
ENDBRANCH  40  64
BRANCH  52  75
ATOM     75  C   UNL A   1      39.829  28.258  28.732  1.00  0.00     0.023 A 
ATOM     76  C   UNL A   1      38.733  28.734  27.981  1.00  0.00     0.012 A 
ATOM     77  C   UNL A   1      39.735  28.228  30.136  1.00  0.00     0.148 A 
ATOM     78  C   UNL A   1      37.567  29.167  28.601  1.00  0.00     0.002 A 
ATOM     79  C   UNL A   1      38.557  28.643  30.752  1.00  0.00     0.091 A 
ATOM     80  F   UNL A   1      40.784  27.792  30.848  1.00  0.00    -0.205 F 
ATOM     81  C   UNL A   1      37.475  29.113  29.986  1.00  0.00     0.022 A 
BRANCH  79  82
ATOM     82  S   UNL A   1      38.299  28.576  32.529  1.00  0.00     0.127 S 
ATOM     83  O   UNL A   1      36.974  29.182  32.670  1.00  0.00    -0.237 OA
ATOM     84  O   UNL A   1      38.336  27.135  32.782  1.00  0.00    -0.237 OA
ATOM     85  O   UNL A   1      39.384  29.339  33.130  1.00  0.00    -0.744 OA
ENDBRANCH  79  82
ENDBRANCH  52  75
ENDBRANCH  26  27
ENDBRANCH  19  21
ENDBRANCH   1  19
TORSDOF 14
ENDMDL
MODEL 3
REMARK VINA RESULT:     -11.5      4.798      9.916
REMARK SMILES Cc1onc2c(=O)n(C)nc(C(=O)OCCOC(=O)c3ccc(-c4c5nc(c(-c6cccc(S(=O)(=O)[O-])c6F)c6ccc([nH]6)c(-c6cccc(S(=O)(=O)[O-])c6F)c6nc(c(-c7cccc(S(=O)(=O)[O-])c7F)c7ccc4[nH]7)C=C6)C=C5)cc3)c12
REMARK SMILES IDX 17 1 16 2 15 3 14 4 12 5 13 6 11 7 1 8 2 9 3 10 83 11 4 12
REMARK SMILES IDX 5 13 6 14 10 15 7 16 8 17 9 18 18 19 19 20 20 21 21 22 82 23
REMARK SMILES IDX 22 24 81 25 23 26 24 27 25 28 75 29 26 30 80 31 74 32 76 33
REMARK SMILES IDX 27 34 79 35 73 36 72 37 28 39 60 40 40 41 59 42 41 43 44 44
REMARK SMILES IDX 58 45 77 46 42 47 43 48 57 50 78 51 45 52 29 53 30 54 38 55
REMARK SMILES IDX 31 56 33 57 39 58 32 59 34 60 35 61 36 62 37 63 61 64 62 65
REMARK SMILES IDX 70 66 63 67 65 68 71 69 64 70 66 71 67 72 68 73 69 74 46 75
REMARK SMILES IDX 47 76 55 77 48 78 50 79 56 80 49 81 51 82 52 83 53 84 54 85
REMARK H PARENT 76 38 44 49
REMARK Flexibility Score: inf
ROOT
ATOM      1  O   UNL A   1      40.704  21.574  25.825  1.00  0.00    -0.458 OA
ENDROOT
BRANCH   1   2
ATOM      2  C   UNL A   1      39.326  21.304  26.147  1.00  0.00     0.275 C 
BRANCH   2   3
ATOM      3  C   UNL A   1      38.399  22.481  25.820  1.00  0.00     0.275 C 
BRANCH   3   4
ATOM      4  O   UNL A   1      37.035  22.042  25.822  1.00  0.00    -0.457 OA
BRANCH   4   5
ATOM      5  C   UNL A   1      36.430  21.925  24.629  1.00  0.00     0.359 C 
ATOM      6  O   UNL A   1      36.768  22.411  23.564  1.00  0.00    -0.244 OA
BRANCH   5   7
ATOM      7  C   UNL A   1      35.242  20.985  24.753  1.00  0.00     0.182 A 
ATOM      8  C   UNL A   1      33.749  24.097  25.092  1.00  0.00     0.091 C 
ATOM      9  C   UNL A   1      33.322  22.686  25.158  1.00  0.00     0.144 A 
ATOM     10  O   UNL A   1      31.984  22.503  25.380  1.00  0.00    -0.360 OA
ATOM     11  C   UNL A   1      33.908  21.451  25.012  1.00  0.00     0.085 A 
ATOM     12  N   UNL A   1      31.685  21.150  25.370  1.00  0.00    -0.074 NA
ATOM     13  C   UNL A   1      32.848  20.538  25.129  1.00  0.00     0.183 A 
ATOM     14  C   UNL A   1      33.049  19.111  24.970  1.00  0.00     0.296 A 
ATOM     15  N   UNL A   1      35.457  19.700  24.627  1.00  0.00    -0.162 NA
ATOM     16  O   UNL A   1      32.154  18.275  25.062  1.00  0.00    -0.265 OA
ATOM     17  N   UNL A   1      34.397  18.785  24.703  1.00  0.00    -0.230 N 
ATOM     18  C   UNL A   1      34.726  17.397  24.456  1.00  0.00     0.178 C 
ENDBRANCH   5   7
ENDBRANCH   4   5
ENDBRANCH   3   4
ENDBRANCH   2   3
ENDBRANCH   1   2
BRANCH   1  19
ATOM     19  C   UNL A   1      41.508  21.783  26.908  1.00  0.00     0.338 C 
ATOM     20  O   UNL A   1      42.053  20.928  27.575  1.00  0.00    -0.246 OA
BRANCH  19  21
ATOM     21  C   UNL A   1      41.761  23.225  27.091  1.00  0.00     0.060 A 
ATOM     22  C   UNL A   1      42.583  23.875  26.166  1.00  0.00     0.016 A 
ATOM     23  C   UNL A   1      41.240  23.927  28.171  1.00  0.00     0.016 A 
ATOM     24  C   UNL A   1      42.819  25.248  26.269  1.00  0.00     0.010 A 
ATOM     25  C   UNL A   1      41.537  25.286  28.306  1.00  0.00     0.010 A 
ATOM     26  C   UNL A   1      42.308  25.978  27.349  1.00  0.00    -0.014 A 
BRANCH  26  27
ATOM     27  C   UNL A   1      42.541  27.455  27.437  1.00  0.00     0.031 A 
ATOM     28  C   UNL A   1      41.316  28.301  27.403  1.00  0.00     0.074 A 
ATOM     29  C   UNL A   1      43.594  28.001  28.096  1.00  0.00     0.049 A 
ATOM     30  N   UNL A   1      40.591  28.383  28.473  1.00  0.00    -0.248 NA
ATOM     31  C   UNL A   1      40.664  28.869  26.228  1.00  0.00     0.031 C 
ATOM     32  C   UNL A   1      44.400  27.276  29.091  1.00  0.00     0.029 A 
ATOM     33  N   UNL A   1      44.024  29.311  28.212  1.00  0.00    -0.354 N 
ATOM     34  C   UNL A   1      39.358  28.894  28.133  1.00  0.00     0.074 A 
ATOM     35  C   UNL A   1      39.466  29.233  26.731  1.00  0.00     0.031 C 
ATOM     36  C   UNL A   1      45.116  28.163  29.808  1.00  0.00     0.029 A 
ATOM     37  C   UNL A   1      44.928  29.499  29.255  1.00  0.00     0.049 A 
ATOM     38  H   UNL A   1      43.722  30.037  27.618  1.00  0.00     0.167 HD
ATOM     39  C   UNL A   1      38.374  28.984  29.074  1.00  0.00     0.034 A 
ATOM     40  C   UNL A   1      45.122  30.645  29.961  1.00  0.00     0.034 A 
ATOM     41  C   UNL A   1      38.729  28.555  30.419  1.00  0.00     0.049 A 
ATOM     42  C   UNL A   1      43.896  30.700  30.835  1.00  0.00     0.074 A 
ATOM     43  C   UNL A   1      38.185  27.860  31.480  1.00  0.00     0.029 A 
ATOM     44  N   UNL A   1      39.999  28.860  30.818  1.00  0.00    -0.354 N 
ATOM     45  N   UNL A   1      43.684  29.966  31.900  1.00  0.00    -0.248 NA
ATOM     46  C   UNL A   1      42.713  31.432  30.359  1.00  0.00     0.031 C 
ATOM     47  C   UNL A   1      39.169  27.839  32.536  1.00  0.00     0.029 A 
ATOM     48  C   UNL A   1      40.271  28.571  32.121  1.00  0.00     0.049 A 
ATOM     49  H   UNL A   1      40.666  29.257  30.212  1.00  0.00     0.167 HD
ATOM     50  C   UNL A   1      42.301  29.920  32.026  1.00  0.00     0.074 A 
ATOM     51  C   UNL A   1      41.779  30.976  31.185  1.00  0.00     0.031 C 
ATOM     52  C   UNL A   1      41.609  28.879  32.581  1.00  0.00     0.034 A 
BRANCH  39  53
ATOM     53  C   UNL A   1      37.116  29.747  28.871  1.00  0.00     0.023 A 
ATOM     54  C   UNL A   1      36.171  29.133  28.020  1.00  0.00     0.012 A 
ATOM     55  C   UNL A   1      36.884  31.055  29.322  1.00  0.00     0.148 A 
ATOM     56  C   UNL A   1      35.028  29.808  27.601  1.00  0.00     0.002 A 
ATOM     57  C   UNL A   1      35.737  31.730  28.898  1.00  0.00     0.091 A 
ATOM     58  F   UNL A   1      37.797  31.630  30.118  1.00  0.00    -0.205 F 
ATOM     59  C   UNL A   1      34.814  31.109  28.036  1.00  0.00     0.022 A 
BRANCH  57  60
ATOM     60  S   UNL A   1      35.349  33.421  29.371  1.00  0.00     0.127 S 
ATOM     61  O   UNL A   1      34.221  33.734  28.496  1.00  0.00    -0.237 OA
ATOM     62  O   UNL A   1      35.001  33.268  30.785  1.00  0.00    -0.237 OA
ATOM     63  O   UNL A   1      36.560  34.192  29.123  1.00  0.00    -0.744 OA
ENDBRANCH  57  60
ENDBRANCH  39  53
BRANCH  40  64
ATOM     64  C   UNL A   1      45.695  31.812  29.211  1.00  0.00     0.023 A 
ATOM     65  C   UNL A   1      46.895  32.376  29.713  1.00  0.00     0.012 A 
ATOM     66  C   UNL A   1      45.129  32.423  28.079  1.00  0.00     0.148 A 
ATOM     67  C   UNL A   1      47.559  33.414  29.051  1.00  0.00     0.002 A 
ATOM     68  C   UNL A   1      45.838  33.393  27.369  1.00  0.00     0.091 A 
ATOM     69  F   UNL A   1      43.890  32.088  27.705  1.00  0.00    -0.205 F 
ATOM     70  C   UNL A   1      47.051  33.894  27.854  1.00  0.00     0.022 A 
BRANCH  68  71
ATOM     71  S   UNL A   1      45.311  33.973  25.751  1.00  0.00     0.127 S 
ATOM     72  O   UNL A   1      44.225  34.890  26.092  1.00  0.00    -0.237 OA
ATOM     73  O   UNL A   1      46.531  34.614  25.264  1.00  0.00    -0.237 OA
ATOM     74  O   UNL A   1      44.908  32.782  25.014  1.00  0.00    -0.744 OA
ENDBRANCH  68  71
ENDBRANCH  40  64
BRANCH  52  75
ATOM     75  C   UNL A   1      42.325  28.022  33.567  1.00  0.00     0.023 A 
ATOM     76  C   UNL A   1      42.164  28.337  34.933  1.00  0.00     0.012 A 
ATOM     77  C   UNL A   1      43.065  26.879  33.211  1.00  0.00     0.148 A 
ATOM     78  C   UNL A   1      42.717  27.539  35.928  1.00  0.00     0.002 A 
ATOM     79  C   UNL A   1      43.598  26.070  34.211  1.00  0.00     0.091 A 
ATOM     80  F   UNL A   1      43.231  26.593  31.912  1.00  0.00    -0.205 F 
ATOM     81  C   UNL A   1      43.426  26.401  35.568  1.00  0.00     0.022 A 
BRANCH  79  82
ATOM     82  S   UNL A   1      44.493  24.550  33.874  1.00  0.00     0.127 S 
ATOM     83  O   UNL A   1      45.216  24.333  35.128  1.00  0.00    -0.237 OA
ATOM     84  O   UNL A   1      43.400  23.607  33.634  1.00  0.00    -0.237 OA
ATOM     85  O   UNL A   1      45.342  24.819  32.722  1.00  0.00    -0.744 OA
ENDBRANCH  79  82
ENDBRANCH  52  75
ENDBRANCH  26  27
ENDBRANCH  19  21
ENDBRANCH   1  19
TORSDOF 14
ENDMDL
