MODEL 1
REMARK VINA RESULT:     -11.5      0.000      0.000
REMARK SMILES CCC1(CC)CCN(C(=O)N2CC[C@](C)(C(=O)OCCOC(=O)c3ccc(-c4c5nc(c(-c6cccc(S(=O)(=O)[O-])c6F)c6ccc([nH]6)c(-c6cccc(S(=O)(=O)[O-])c6F)c6nc(c(-c7cccc(S(=O)(=O)[O-])c7F)c7ccc4[nH]7)C=C6)C=C5)cc3)C2)C1
REMARK SMILES IDX 19 1 18 2 16 3 17 4 14 5 11 6 12 7 87 8 13 9 15 10 9 11
REMARK SMILES IDX 10 12 8 13 3 14 6 15 88 16 7 17 2 18 1 19 4 20 5 21 20 22
REMARK SMILES IDX 21 23 22 24 23 25 24 26 25 27 86 28 26 29 85 30 27 31 28 32
REMARK SMILES IDX 29 33 79 34 30 35 84 36 78 37 80 38 31 39 83 40 77 41 76 42
REMARK SMILES IDX 32 44 64 45 44 46 63 47 45 48 48 49 62 50 81 51 46 52 47 53
REMARK SMILES IDX 61 55 82 56 49 57 33 58 34 59 42 60 35 61 37 62 43 63 36 64
REMARK SMILES IDX 38 65 39 66 40 67 41 68 65 69 66 70 74 71 67 72 69 73 75 74
REMARK SMILES IDX 68 75 70 76 71 77 72 78 73 79 50 80 51 81 59 82 52 83 54 84
REMARK SMILES IDX 60 85 53 86 55 87 56 88 57 89 58 90
REMARK H PARENT 80 43 48 54
REMARK Flexibility Score: inf
ROOT
ATOM      1  C   UNL A   1      35.345  20.690  24.659  1.00  0.00     0.274 C 
ENDROOT
BRANCH   1   2
ATOM      2  O   UNL A   1      34.162  21.515  24.715  1.00  0.00    -0.462 OA
BRANCH   2   3
ATOM      3  C   UNL A   1      34.076  22.475  23.751  1.00  0.00     0.313 C 
ATOM      4  O   UNL A   1      35.025  23.148  23.370  1.00  0.00    -0.252 OA
BRANCH   3   5
ATOM      5  C   UNL A   1      32.671  22.596  23.176  1.00  0.00     0.084 C 
ATOM      6  N   UNL A   1      31.719  24.680  22.588  1.00  0.00    -0.323 N 
ATOM      7  C   UNL A   1      30.749  24.015  23.424  1.00  0.00     0.122 C 
ATOM      8  C   UNL A   1      32.684  23.717  22.106  1.00  0.00     0.139 C 
ATOM      9  C   UNL A   1      31.637  23.086  24.225  1.00  0.00     0.042 C 
ATOM     10  C   UNL A   1      32.203  21.269  22.572  1.00  0.00     0.026 C 
BRANCH   6  11
ATOM     11  C   UNL A   1      31.714  25.963  22.132  1.00  0.00     0.320 C 
ATOM     12  O   UNL A   1      31.411  26.228  20.969  1.00  0.00    -0.248 OA
BRANCH  11  13
ATOM     13  N   UNL A   1      32.129  26.938  23.003  1.00  0.00    -0.324 N 
ATOM     14  C   UNL A   1      31.942  28.560  24.765  1.00  0.00    -0.011 C 
ATOM     15  C   UNL A   1      33.355  28.547  24.130  1.00  0.00     0.030 C 
ATOM     16  C   UNL A   1      31.280  27.313  24.120  1.00  0.00     0.128 C 
ATOM     17  C   UNL A   1      33.118  27.967  22.752  1.00  0.00     0.122 C 
BRANCH  14  18
ATOM     18  C   UNL A   1      31.230  29.885  24.364  1.00  0.00     0.005 C 
ATOM     19  C   UNL A   1      29.872  29.743  23.690  1.00  0.00     0.004 C 
ENDBRANCH  14  18
BRANCH  14  20
ATOM     20  C   UNL A   1      32.026  28.373  26.300  1.00  0.00     0.005 C 
ATOM     21  C   UNL A   1      31.338  27.126  26.842  1.00  0.00     0.004 C 
ENDBRANCH  14  20
ENDBRANCH  11  13
ENDBRANCH   6  11
ENDBRANCH   3   5
ENDBRANCH   2   3
ENDBRANCH   1   2
BRANCH   1  22
ATOM     22  C   UNL A   1      36.370  21.115  25.705  1.00  0.00     0.275 C 
BRANCH  22  23
ATOM     23  O   UNL A   1      37.598  21.500  25.066  1.00  0.00    -0.458 OA
BRANCH  23  24
ATOM     24  C   UNL A   1      38.727  21.183  25.739  1.00  0.00     0.338 C 
ATOM     25  O   UNL A   1      39.284  20.098  25.776  1.00  0.00    -0.246 OA
BRANCH  24  26
ATOM     26  C   UNL A   1      39.255  22.368  26.433  1.00  0.00     0.060 A 
ATOM     27  C   UNL A   1      38.729  23.626  26.152  1.00  0.00     0.016 A 
ATOM     28  C   UNL A   1      40.386  22.247  27.238  1.00  0.00     0.016 A 
ATOM     29  C   UNL A   1      39.404  24.774  26.558  1.00  0.00     0.010 A 
ATOM     30  C   UNL A   1      40.996  23.399  27.742  1.00  0.00     0.010 A 
ATOM     31  C   UNL A   1      40.547  24.677  27.361  1.00  0.00    -0.014 A 
BRANCH  31  32
ATOM     32  C   UNL A   1      41.298  25.896  27.768  1.00  0.00     0.031 A 
ATOM     33  C   UNL A   1      40.619  26.957  28.599  1.00  0.00     0.074 A 
ATOM     34  C   UNL A   1      42.579  26.070  27.383  1.00  0.00     0.049 A 
ATOM     35  N   UNL A   1      41.029  28.163  28.893  1.00  0.00    -0.248 NA
ATOM     36  C   UNL A   1      39.295  26.627  29.154  1.00  0.00     0.031 C 
ATOM     37  C   UNL A   1      43.361  25.121  26.588  1.00  0.00     0.029 A 
ATOM     38  N   UNL A   1      43.445  27.114  27.597  1.00  0.00    -0.354 N 
ATOM     39  C   UNL A   1      39.985  28.763  29.587  1.00  0.00     0.074 A 
ATOM     40  C   UNL A   1      38.928  27.782  29.691  1.00  0.00     0.031 C 
ATOM     41  C   UNL A   1      44.591  25.618  26.392  1.00  0.00     0.029 A 
ATOM     42  C   UNL A   1      44.665  26.949  26.984  1.00  0.00     0.049 A 
ATOM     43  H   UNL A   1      43.214  27.905  28.135  1.00  0.00     0.167 HD
ATOM     44  C   UNL A   1      39.917  30.016  30.098  1.00  0.00     0.034 A 
ATOM     45  C   UNL A   1      45.715  27.786  26.875  1.00  0.00     0.034 A 
ATOM     46  C   UNL A   1      41.005  30.955  30.083  1.00  0.00     0.049 A 
ATOM     47  C   UNL A   1      45.635  29.146  27.509  1.00  0.00     0.074 A 
ATOM     48  C   UNL A   1      41.047  32.231  30.616  1.00  0.00     0.029 A 
ATOM     49  N   UNL A   1      42.253  30.710  29.531  1.00  0.00    -0.354 N 
ATOM     50  N   UNL A   1      44.655  29.676  28.200  1.00  0.00    -0.248 NA
ATOM     51  C   UNL A   1      46.809  30.019  27.362  1.00  0.00     0.031 C 
ATOM     52  C   UNL A   1      42.324  32.757  30.392  1.00  0.00     0.029 A 
ATOM     53  C   UNL A   1      43.075  31.806  29.720  1.00  0.00     0.049 A 
ATOM     54  H   UNL A   1      42.514  29.879  29.072  1.00  0.00     0.167 HD
ATOM     55  C   UNL A   1      45.099  30.935  28.584  1.00  0.00     0.074 A 
ATOM     56  C   UNL A   1      46.448  31.077  28.077  1.00  0.00     0.031 C 
ATOM     57  C   UNL A   1      44.438  31.902  29.268  1.00  0.00     0.034 A 
BRANCH  44  58
ATOM     58  C   UNL A   1      38.632  30.439  30.758  1.00  0.00     0.023 A 
ATOM     59  C   UNL A   1      38.445  30.206  32.134  1.00  0.00     0.012 A 
ATOM     60  C   UNL A   1      37.647  31.137  30.032  1.00  0.00     0.148 A 
ATOM     61  C   UNL A   1      37.287  30.645  32.775  1.00  0.00     0.002 A 
ATOM     62  C   UNL A   1      36.511  31.603  30.685  1.00  0.00     0.091 A 
ATOM     63  F   UNL A   1      37.834  31.328  28.718  1.00  0.00    -0.205 F 
ATOM     64  C   UNL A   1      36.327  31.353  32.055  1.00  0.00     0.022 A 
BRANCH  62  65
ATOM     65  S   UNL A   1      35.254  32.583  29.855  1.00  0.00     0.127 S 
ATOM     66  O   UNL A   1      36.048  33.683  29.312  1.00  0.00    -0.237 OA
ATOM     67  O   UNL A   1      34.740  31.648  28.853  1.00  0.00    -0.237 OA
ATOM     68  O   UNL A   1      34.291  32.952  30.885  1.00  0.00    -0.744 OA
ENDBRANCH  62  65
ENDBRANCH  44  58
BRANCH  45  69
ATOM     69  C   UNL A   1      46.943  27.343  26.156  1.00  0.00     0.023 A 
ATOM     70  C   UNL A   1      47.844  26.472  26.800  1.00  0.00     0.012 A 
ATOM     71  C   UNL A   1      47.200  27.732  24.828  1.00  0.00     0.148 A 
ATOM     72  C   UNL A   1      48.986  26.017  26.141  1.00  0.00     0.002 A 
ATOM     73  C   UNL A   1      48.308  27.228  24.157  1.00  0.00     0.091 A 
ATOM     74  F   UNL A   1      46.349  28.583  24.234  1.00  0.00    -0.205 F 
ATOM     75  C   UNL A   1      49.211  26.381  24.815  1.00  0.00     0.022 A 
BRANCH  73  76
ATOM     76  S   UNL A   1      48.557  27.544  22.407  1.00  0.00     0.127 S 
ATOM     77  O   UNL A   1      48.614  26.193  21.858  1.00  0.00    -0.237 OA
ATOM     78  O   UNL A   1      47.359  28.304  22.046  1.00  0.00    -0.237 OA
ATOM     79  O   UNL A   1      49.789  28.321  22.343  1.00  0.00    -0.744 OA
ENDBRANCH  73  76
ENDBRANCH  45  69
BRANCH  57  80
ATOM     80  C   UNL A   1      45.168  33.189  29.530  1.00  0.00     0.023 A 
ATOM     81  C   UNL A   1      45.945  33.315  30.698  1.00  0.00     0.012 A 
ATOM     82  C   UNL A   1      45.148  34.238  28.593  1.00  0.00     0.148 A 
ATOM     83  C   UNL A   1      46.673  34.478  30.940  1.00  0.00     0.002 A 
ATOM     84  C   UNL A   1      45.906  35.380  28.823  1.00  0.00     0.091 A 
ATOM     85  F   UNL A   1      44.382  34.109  27.498  1.00  0.00    -0.205 F 
ATOM     86  C   UNL A   1      46.664  35.506  29.999  1.00  0.00     0.022 A 
BRANCH  84  87
ATOM     87  S   UNL A   1      46.005  36.705  27.613  1.00  0.00     0.127 S 
ATOM     88  O   UNL A   1      44.625  37.184  27.577  1.00  0.00    -0.237 OA
ATOM     89  O   UNL A   1      46.954  37.633  28.232  1.00  0.00    -0.237 OA
ATOM     90  O   UNL A   1      46.494  36.080  26.392  1.00  0.00    -0.744 OA
ENDBRANCH  84  87
ENDBRANCH  57  80
ENDBRANCH  31  32
ENDBRANCH  24  26
ENDBRANCH  23  24
ENDBRANCH  22  23
ENDBRANCH   1  22
TORSDOF 18
ENDMDL
MODEL 2
REMARK VINA RESULT:     -11.5      5.221     10.115
REMARK SMILES CCC1(CC)CCN(C(=O)N2CC[C@](C)(C(=O)OCCOC(=O)c3ccc(-c4c5nc(c(-c6cccc(S(=O)(=O)[O-])c6F)c6ccc([nH]6)c(-c6cccc(S(=O)(=O)[O-])c6F)c6nc(c(-c7cccc(S(=O)(=O)[O-])c7F)c7ccc4[nH]7)C=C6)C=C5)cc3)C2)C1
REMARK SMILES IDX 19 1 18 2 16 3 17 4 14 5 11 6 12 7 87 8 13 9 15 10 9 11
REMARK SMILES IDX 10 12 8 13 3 14 6 15 88 16 7 17 2 18 1 19 4 20 5 21 20 22
REMARK SMILES IDX 21 23 22 24 23 25 24 26 25 27 86 28 26 29 85 30 27 31 28 32
REMARK SMILES IDX 29 33 79 34 30 35 84 36 78 37 80 38 31 39 83 40 77 41 76 42
REMARK SMILES IDX 32 44 64 45 44 46 63 47 45 48 48 49 62 50 81 51 46 52 47 53
REMARK SMILES IDX 61 55 82 56 49 57 33 58 34 59 42 60 35 61 37 62 43 63 36 64
REMARK SMILES IDX 38 65 39 66 40 67 41 68 65 69 66 70 74 71 67 72 69 73 75 74
REMARK SMILES IDX 68 75 70 76 71 77 72 78 73 79 50 80 51 81 59 82 52 83 54 84
REMARK SMILES IDX 60 85 53 86 55 87 56 88 57 89 58 90
REMARK H PARENT 80 43 48 54
REMARK Flexibility Score: inf
ROOT
ATOM      1  C   UNL A   1      31.342  29.675  25.210  1.00  0.00     0.274 C 
ENDROOT
BRANCH   1   2
ATOM      2  O   UNL A   1      31.354  28.243  25.388  1.00  0.00    -0.462 OA
BRANCH   2   3
ATOM      3  C   UNL A   1      30.958  27.517  24.304  1.00  0.00     0.313 C 
ATOM      4  O   UNL A   1      30.716  28.005  23.207  1.00  0.00    -0.252 OA
BRANCH   3   5
ATOM      5  C   UNL A   1      30.883  26.025  24.599  1.00  0.00     0.084 C 
ATOM      6  N   UNL A   1      32.123  24.428  23.371  1.00  0.00    -0.323 N 
ATOM      7  C   UNL A   1      30.758  23.961  23.378  1.00  0.00     0.122 C 
ATOM      8  C   UNL A   1      32.299  25.425  24.404  1.00  0.00     0.139 C 
ATOM      9  C   UNL A   1      30.002  25.258  23.577  1.00  0.00     0.042 C 
ATOM     10  C   UNL A   1      30.370  25.766  26.019  1.00  0.00     0.026 C 
BRANCH   6  11
ATOM     11  C   UNL A   1      33.184  23.951  22.663  1.00  0.00     0.320 C 
ATOM     12  O   UNL A   1      33.277  24.134  21.450  1.00  0.00    -0.248 OA
BRANCH  11  13
ATOM     13  N   UNL A   1      34.106  23.200  23.347  1.00  0.00    -0.324 N 
ATOM     14  C   UNL A   1      34.924  21.672  25.008  1.00  0.00    -0.011 C 
ATOM     15  C   UNL A   1      36.065  22.250  24.135  1.00  0.00     0.030 C 
ATOM     16  C   UNL A   1      33.656  22.171  24.267  1.00  0.00     0.128 C 
ATOM     17  C   UNL A   1      35.487  23.549  23.614  1.00  0.00     0.122 C 
BRANCH  14  18
ATOM     18  C   UNL A   1      35.048  22.266  26.442  1.00  0.00     0.005 C 
ATOM     19  C   UNL A   1      33.980  21.842  27.442  1.00  0.00     0.004 C 
ENDBRANCH  14  18
BRANCH  14  20
ATOM     20  C   UNL A   1      34.957  20.123  25.004  1.00  0.00     0.005 C 
ATOM     21  C   UNL A   1      33.651  19.446  24.605  1.00  0.00     0.004 C 
ENDBRANCH  14  20
ENDBRANCH  11  13
ENDBRANCH   6  11
ENDBRANCH   3   5
ENDBRANCH   2   3
ENDBRANCH   1   2
BRANCH   1  22
ATOM     22  C   UNL A   1      32.618  30.313  25.748  1.00  0.00     0.275 C 
BRANCH  22  23
ATOM     23  O   UNL A   1      32.375  30.893  27.040  1.00  0.00    -0.458 OA
BRANCH  23  24
ATOM     24  C   UNL A   1      33.156  31.949  27.359  1.00  0.00     0.338 C 
ATOM     25  O   UNL A   1      32.850  33.129  27.328  1.00  0.00    -0.246 OA
BRANCH  24  26
ATOM     26  C   UNL A   1      34.480  31.486  27.804  1.00  0.00     0.060 A 
ATOM     27  C   UNL A   1      34.637  30.181  28.265  1.00  0.00     0.016 A 
ATOM     28  C   UNL A   1      35.526  32.399  27.918  1.00  0.00     0.016 A 
ATOM     29  C   UNL A   1      35.786  29.820  28.965  1.00  0.00     0.010 A 
ATOM     30  C   UNL A   1      36.723  32.000  28.518  1.00  0.00     0.010 A 
ATOM     31  C   UNL A   1      36.847  30.725  29.099  1.00  0.00    -0.014 A 
BRANCH  31  32
ATOM     32  C   UNL A   1      38.063  30.361  29.878  1.00  0.00     0.031 A 
ATOM     33  C   UNL A   1      39.091  29.431  29.281  1.00  0.00     0.074 A 
ATOM     34  C   UNL A   1      38.246  30.844  31.124  1.00  0.00     0.049 A 
ATOM     35  N   UNL A   1      40.109  28.848  29.857  1.00  0.00    -0.248 NA
ATOM     36  C   UNL A   1      38.941  29.097  27.854  1.00  0.00     0.031 C 
ATOM     37  C   UNL A   1      37.339  31.760  31.819  1.00  0.00     0.029 A 
ATOM     38  N   UNL A   1      39.249  30.618  32.034  1.00  0.00    -0.354 N 
ATOM     39  C   UNL A   1      40.665  28.014  28.895  1.00  0.00     0.074 A 
ATOM     40  C   UNL A   1      39.887  28.182  27.688  1.00  0.00     0.031 C 
ATOM     41  C   UNL A   1      37.831  32.027  33.038  1.00  0.00     0.029 A 
ATOM     42  C   UNL A   1      39.048  31.251  33.239  1.00  0.00     0.049 A 
ATOM     43  H   UNL A   1      40.035  30.058  31.842  1.00  0.00     0.167 HD
ATOM     44  C   UNL A   1      41.734  27.189  29.004  1.00  0.00     0.034 A 
ATOM     45  C   UNL A   1      39.742  31.186  34.392  1.00  0.00     0.034 A 
ATOM     46  C   UNL A   1      42.569  27.099  30.171  1.00  0.00     0.049 A 
ATOM     47  C   UNL A   1      40.962  30.311  34.464  1.00  0.00     0.074 A 
ATOM     48  C   UNL A   1      43.701  26.325  30.361  1.00  0.00     0.029 A 
ATOM     49  N   UNL A   1      42.380  27.826  31.335  1.00  0.00    -0.354 N 
ATOM     50  N   UNL A   1      41.497  29.566  33.527  1.00  0.00    -0.248 NA
ATOM     51  C   UNL A   1      41.684  30.278  35.744  1.00  0.00     0.031 C 
ATOM     52  C   UNL A   1      44.201  26.590  31.640  1.00  0.00     0.029 A 
ATOM     53  C   UNL A   1      43.380  27.528  32.244  1.00  0.00     0.049 A 
ATOM     54  H   UNL A   1      41.643  28.459  31.493  1.00  0.00     0.167 HD
ATOM     55  C   UNL A   1      42.625  28.990  34.099  1.00  0.00     0.074 A 
ATOM     56  C   UNL A   1      42.715  29.497  35.452  1.00  0.00     0.031 C 
ATOM     57  C   UNL A   1      43.492  28.096  33.562  1.00  0.00     0.034 A 
BRANCH  44  58
ATOM     58  C   UNL A   1      42.094  26.340  27.815  1.00  0.00     0.023 A 
ATOM     59  C   UNL A   1      42.967  26.848  26.833  1.00  0.00     0.012 A 
ATOM     60  C   UNL A   1      41.632  25.013  27.712  1.00  0.00     0.148 A 
ATOM     61  C   UNL A   1      43.360  26.054  25.756  1.00  0.00     0.002 A 
ATOM     62  C   UNL A   1      42.055  24.216  26.654  1.00  0.00     0.091 A 
ATOM     63  F   UNL A   1      40.783  24.556  28.645  1.00  0.00    -0.205 F 
ATOM     64  C   UNL A   1      42.915  24.737  25.673  1.00  0.00     0.022 A 
BRANCH  62  65
ATOM     65  S   UNL A   1      41.590  22.487  26.501  1.00  0.00     0.127 S 
ATOM     66  O   UNL A   1      41.967  21.963  27.812  1.00  0.00    -0.237 OA
ATOM     67  O   UNL A   1      40.147  22.572  26.270  1.00  0.00    -0.237 OA
ATOM     68  O   UNL A   1      42.351  21.967  25.374  1.00  0.00    -0.744 OA
ENDBRANCH  62  65
ENDBRANCH  44  58
BRANCH  45  69
ATOM     69  C   UNL A   1      39.308  31.999  35.564  1.00  0.00     0.023 A 
ATOM     70  C   UNL A   1      38.497  31.408  36.551  1.00  0.00     0.012 A 
ATOM     71  C   UNL A   1      39.731  33.331  35.733  1.00  0.00     0.148 A 
ATOM     72  C   UNL A   1      38.100  32.135  37.674  1.00  0.00     0.002 A 
ATOM     73  C   UNL A   1      39.382  34.031  36.883  1.00  0.00     0.091 A 
ATOM     74  F   UNL A   1      40.481  33.892  34.773  1.00  0.00    -0.205 F 
ATOM     75  C   UNL A   1      38.554  33.441  37.849  1.00  0.00     0.022 A 
BRANCH  73  76
ATOM     76  S   UNL A   1      40.066  35.656  37.224  1.00  0.00     0.127 S 
ATOM     77  O   UNL A   1      39.440  35.987  38.500  1.00  0.00    -0.237 OA
ATOM     78  O   UNL A   1      41.503  35.389  37.295  1.00  0.00    -0.237 OA
ATOM     79  O   UNL A   1      39.673  36.470  36.080  1.00  0.00    -0.744 OA
ENDBRANCH  73  76
ENDBRANCH  45  69
BRANCH  57  80
ATOM     80  C   UNL A   1      44.626  27.623  34.428  1.00  0.00     0.023 A 
ATOM     81  C   UNL A   1      45.851  28.319  34.399  1.00  0.00     0.012 A 
ATOM     82  C   UNL A   1      44.460  26.548  35.319  1.00  0.00     0.148 A 
ATOM     83  C   UNL A   1      46.901  27.935  35.229  1.00  0.00     0.002 A 
ATOM     84  C   UNL A   1      45.499  26.193  36.171  1.00  0.00     0.091 A 
ATOM     85  F   UNL A   1      43.295  25.882  35.314  1.00  0.00    -0.205 F 
ATOM     86  C   UNL A   1      46.724  26.880  36.123  1.00  0.00     0.022 A 
BRANCH  84  87
ATOM     87  S   UNL A   1      45.309  24.899  37.403  1.00  0.00     0.127 S 
ATOM     88  O   UNL A   1      44.864  23.771  36.588  1.00  0.00    -0.237 OA
ATOM     89  O   UNL A   1      46.665  24.765  37.938  1.00  0.00    -0.237 OA
ATOM     90  O   UNL A   1      44.339  25.414  38.360  1.00  0.00    -0.744 OA
ENDBRANCH  84  87
ENDBRANCH  57  80
ENDBRANCH  31  32
ENDBRANCH  24  26
ENDBRANCH  23  24
ENDBRANCH  22  23
ENDBRANCH   1  22
TORSDOF 18
ENDMDL
MODEL 3
REMARK VINA RESULT:     -11.4      5.158      7.561
REMARK SMILES CCC1(CC)CCN(C(=O)N2CC[C@](C)(C(=O)OCCOC(=O)c3ccc(-c4c5nc(c(-c6cccc(S(=O)(=O)[O-])c6F)c6ccc([nH]6)c(-c6cccc(S(=O)(=O)[O-])c6F)c6nc(c(-c7cccc(S(=O)(=O)[O-])c7F)c7ccc4[nH]7)C=C6)C=C5)cc3)C2)C1
REMARK SMILES IDX 19 1 18 2 16 3 17 4 14 5 11 6 12 7 87 8 13 9 15 10 9 11
REMARK SMILES IDX 10 12 8 13 3 14 6 15 88 16 7 17 2 18 1 19 4 20 5 21 20 22
REMARK SMILES IDX 21 23 22 24 23 25 24 26 25 27 86 28 26 29 85 30 27 31 28 32
REMARK SMILES IDX 29 33 79 34 30 35 84 36 78 37 80 38 31 39 83 40 77 41 76 42
REMARK SMILES IDX 32 44 64 45 44 46 63 47 45 48 48 49 62 50 81 51 46 52 47 53
REMARK SMILES IDX 61 55 82 56 49 57 33 58 34 59 42 60 35 61 37 62 43 63 36 64
REMARK SMILES IDX 38 65 39 66 40 67 41 68 65 69 66 70 74 71 67 72 69 73 75 74
REMARK SMILES IDX 68 75 70 76 71 77 72 78 73 79 50 80 51 81 59 82 52 83 54 84
REMARK SMILES IDX 60 85 53 86 55 87 56 88 57 89 58 90
REMARK H PARENT 80 43 48 54
REMARK Flexibility Score: inf
ROOT
ATOM      1  C   UNL A   1      31.885  28.823  26.758  1.00  0.00     0.274 C 
ENDROOT
BRANCH   1   2
ATOM      2  O   UNL A   1      31.654  28.180  25.487  1.00  0.00    -0.462 OA
BRANCH   2   3
ATOM      3  C   UNL A   1      31.003  26.984  25.549  1.00  0.00     0.313 C 
ATOM      4  O   UNL A   1      30.718  26.414  26.595  1.00  0.00    -0.252 OA
BRANCH   3   5
ATOM      5  C   UNL A   1      30.638  26.449  24.171  1.00  0.00     0.084 C 
ATOM      6  N   UNL A   1      32.136  25.150  22.880  1.00  0.00    -0.323 N 
ATOM      7  C   UNL A   1      31.666  26.204  22.014  1.00  0.00     0.122 C 
ATOM      8  C   UNL A   1      31.258  25.036  24.023  1.00  0.00     0.139 C 
ATOM      9  C   UNL A   1      31.285  27.268  23.022  1.00  0.00     0.042 C 
ATOM     10  C   UNL A   1      29.119  26.402  23.978  1.00  0.00     0.026 C 
BRANCH   6  11
ATOM     11  C   UNL A   1      33.130  24.246  22.661  1.00  0.00     0.320 C 
ATOM     12  O   UNL A   1      33.205  23.621  21.603  1.00  0.00    -0.248 OA
BRANCH  11  13
ATOM     13  N   UNL A   1      34.001  24.011  23.694  1.00  0.00    -0.324 N 
ATOM     14  C   UNL A   1      34.946  22.855  25.575  1.00  0.00    -0.011 C 
ATOM     15  C   UNL A   1      35.681  24.186  25.278  1.00  0.00     0.030 C 
ATOM     16  C   UNL A   1      34.012  22.712  24.344  1.00  0.00     0.128 C 
ATOM     17  C   UNL A   1      34.646  25.001  24.532  1.00  0.00     0.122 C 
BRANCH  14  18
ATOM     18  C   UNL A   1      34.154  23.012  26.906  1.00  0.00     0.005 C 
ATOM     19  C   UNL A   1      33.661  21.724  27.553  1.00  0.00     0.004 C 
ENDBRANCH  14  18
BRANCH  14  20
ATOM     20  C   UNL A   1      35.944  21.671  25.615  1.00  0.00     0.005 C 
ATOM     21  C   UNL A   1      37.095  21.757  24.621  1.00  0.00     0.004 C 
ENDBRANCH  14  20
ENDBRANCH  11  13
ENDBRANCH   6  11
ENDBRANCH   3   5
ENDBRANCH   2   3
ENDBRANCH   1   2
BRANCH   1  22
ATOM     22  C   UNL A   1      31.732  30.336  26.652  1.00  0.00     0.275 C 
BRANCH  22  23
ATOM     23  O   UNL A   1      32.993  30.939  26.317  1.00  0.00    -0.458 OA
BRANCH  23  24
ATOM     24  C   UNL A   1      33.532  31.727  27.274  1.00  0.00     0.338 C 
ATOM     25  O   UNL A   1      33.034  32.717  27.782  1.00  0.00    -0.246 OA
BRANCH  24  26
ATOM     26  C   UNL A   1      34.848  31.208  27.679  1.00  0.00     0.060 A 
ATOM     27  C   UNL A   1      35.026  29.838  27.857  1.00  0.00     0.016 A 
ATOM     28  C   UNL A   1      35.857  32.097  28.044  1.00  0.00     0.016 A 
ATOM     29  C   UNL A   1      36.151  29.359  28.523  1.00  0.00     0.010 A 
ATOM     30  C   UNL A   1      37.036  31.603  28.608  1.00  0.00     0.010 A 
ATOM     31  C   UNL A   1      37.174  30.235  28.906  1.00  0.00    -0.014 A 
BRANCH  31  32
ATOM     32  C   UNL A   1      38.362  29.738  29.653  1.00  0.00     0.031 A 
ATOM     33  C   UNL A   1      38.646  30.248  31.045  1.00  0.00     0.074 A 
ATOM     34  C   UNL A   1      39.200  28.846  29.087  1.00  0.00     0.049 A 
ATOM     35  N   UNL A   1      39.715  30.089  31.780  1.00  0.00    -0.248 NA
ATOM     36  C   UNL A   1      37.598  31.062  31.685  1.00  0.00     0.031 C 
ATOM     37  C   UNL A   1      39.042  28.261  27.754  1.00  0.00     0.029 A 
ATOM     38  N   UNL A   1      40.363  28.286  29.557  1.00  0.00    -0.354 N 
ATOM     39  C   UNL A   1      39.507  30.850  32.924  1.00  0.00     0.074 A 
ATOM     40  C   UNL A   1      38.200  31.455  32.799  1.00  0.00     0.031 C 
ATOM     41  C   UNL A   1      40.058  27.418  27.518  1.00  0.00     0.029 A 
ATOM     42  C   UNL A   1      40.977  27.454  28.649  1.00  0.00     0.049 A 
ATOM     43  H   UNL A   1      40.722  28.464  30.456  1.00  0.00     0.167 HD
ATOM     44  C   UNL A   1      40.329  31.023  33.988  1.00  0.00     0.034 A 
ATOM     45  C   UNL A   1      42.164  26.818  28.702  1.00  0.00     0.034 A 
ATOM     46  C   UNL A   1      41.583  30.342  34.158  1.00  0.00     0.049 A 
ATOM     47  C   UNL A   1      43.025  26.977  29.923  1.00  0.00     0.074 A 
ATOM     48  C   UNL A   1      42.465  30.416  35.222  1.00  0.00     0.029 A 
ATOM     49  N   UNL A   1      42.121  29.439  33.254  1.00  0.00    -0.354 N 
ATOM     50  N   UNL A   1      42.789  27.666  31.014  1.00  0.00    -0.248 NA
ATOM     51  C   UNL A   1      44.309  26.262  29.929  1.00  0.00     0.031 C 
ATOM     52  C   UNL A   1      43.534  29.552  34.965  1.00  0.00     0.029 A 
ATOM     53  C   UNL A   1      43.317  28.940  33.741  1.00  0.00     0.049 A 
ATOM     54  H   UNL A   1      41.713  29.190  32.394  1.00  0.00     0.167 HD
ATOM     55  C   UNL A   1      43.885  27.453  31.841  1.00  0.00     0.074 A 
ATOM     56  C   UNL A   1      44.770  26.546  31.140  1.00  0.00     0.031 C 
ATOM     57  C   UNL A   1      44.150  27.985  33.060  1.00  0.00     0.034 A 
BRANCH  44  58
ATOM     58  C   UNL A   1      39.883  31.959  35.078  1.00  0.00     0.023 A 
ATOM     59  C   UNL A   1      40.206  33.327  34.998  1.00  0.00     0.012 A 
ATOM     60  C   UNL A   1      39.079  31.497  36.139  1.00  0.00     0.148 A 
ATOM     61  C   UNL A   1      39.751  34.220  35.967  1.00  0.00     0.002 A 
ATOM     62  C   UNL A   1      38.600  32.398  37.083  1.00  0.00     0.091 A 
ATOM     63  F   UNL A   1      38.803  30.187  36.209  1.00  0.00    -0.205 F 
ATOM     64  C   UNL A   1      38.939  33.759  37.001  1.00  0.00     0.022 A 
BRANCH  62  65
ATOM     65  S   UNL A   1      37.491  31.909  38.410  1.00  0.00     0.127 S 
ATOM     66  O   UNL A   1      38.337  32.105  39.587  1.00  0.00    -0.237 OA
ATOM     67  O   UNL A   1      36.400  32.874  38.277  1.00  0.00    -0.237 OA
ATOM     68  O   UNL A   1      37.115  30.530  38.129  1.00  0.00    -0.744 OA
ENDBRANCH  62  65
ENDBRANCH  44  58
BRANCH  45  69
ATOM     69  C   UNL A   1      42.589  25.952  27.567  1.00  0.00     0.023 A 
ATOM     70  C   UNL A   1      43.525  26.443  26.636  1.00  0.00     0.012 A 
ATOM     71  C   UNL A   1      42.117  24.633  27.430  1.00  0.00     0.148 A 
ATOM     72  C   UNL A   1      43.965  25.644  25.581  1.00  0.00     0.002 A 
ATOM     73  C   UNL A   1      42.604  23.821  26.411  1.00  0.00     0.091 A 
ATOM     74  F   UNL A   1      41.206  24.184  28.306  1.00  0.00    -0.205 F 
ATOM     75  C   UNL A   1      43.518  24.328  25.476  1.00  0.00     0.022 A 
BRANCH  73  76
ATOM     76  S   UNL A   1      42.175  22.080  26.326  1.00  0.00     0.127 S 
ATOM     77  O   UNL A   1      43.009  21.614  25.222  1.00  0.00    -0.237 OA
ATOM     78  O   UNL A   1      42.573  21.588  27.646  1.00  0.00    -0.237 OA
ATOM     79  O   UNL A   1      40.735  22.064  26.100  1.00  0.00    -0.744 OA
ENDBRANCH  73  76
ENDBRANCH  45  69
BRANCH  57  80
ATOM     80  C   UNL A   1      45.437  27.587  33.725  1.00  0.00     0.023 A 
ATOM     81  C   UNL A   1      46.587  28.378  33.531  1.00  0.00     0.012 A 
ATOM     82  C   UNL A   1      45.493  26.483  34.596  1.00  0.00     0.148 A 
ATOM     83  C   UNL A   1      47.780  28.061  34.177  1.00  0.00     0.002 A 
ATOM     84  C   UNL A   1      46.677  26.195  35.266  1.00  0.00     0.091 A 
ATOM     85  F   UNL A   1      44.395  25.727  34.748  1.00  0.00    -0.205 F 
ATOM     86  C   UNL A   1      47.823  26.978  35.053  1.00  0.00     0.022 A 
BRANCH  84  87
ATOM     87  S   UNL A   1      46.778  24.866  36.470  1.00  0.00     0.127 S 
ATOM     88  O   UNL A   1      45.750  25.252  37.433  1.00  0.00    -0.237 OA
ATOM     89  O   UNL A   1      46.449  23.684  35.670  1.00  0.00    -0.237 OA
ATOM     90  O   UNL A   1      48.150  24.889  36.960  1.00  0.00    -0.744 OA
ENDBRANCH  84  87
ENDBRANCH  57  80
ENDBRANCH  31  32
ENDBRANCH  24  26
ENDBRANCH  23  24
ENDBRANCH  22  23
ENDBRANCH   1  22
TORSDOF 18
ENDMDL
