MODEL 1
REMARK VINA RESULT:     -10.8      0.000      0.000
REMARK SMILES CCC(CC)(Nc1nc(Cl)nc(OC)n1)C(=O)OCCOC(=O)c1ccc(-c2c3nc(c(-c4cccc(S(=O)(=O)[O-])c4F)c4ccc([nH]4)c(-c4cccc(S(=O)(=O)[O-])c4F)c4nc(c(-c5cccc(S(=O)(=O)[O-])c5F)c5ccc2[nH]5)C=C4)C=C3)cc1
REMARK SMILES IDX 19 1 18 2 16 3 17 4 3 5 2 6 1 7 4 8 5 9 6 10 7 12 8 13 15 14
REMARK SMILES IDX 9 15 12 16 10 17 11 18 13 19 14 20 20 21 21 22 22 23 23 24
REMARK SMILES IDX 24 25 25 26 86 27 26 28 85 29 27 30 28 31 29 32 79 33 30 34
REMARK SMILES IDX 84 35 78 36 80 37 31 38 83 39 77 40 76 41 32 43 64 44 44 45
REMARK SMILES IDX 63 46 45 47 48 48 62 49 81 50 46 51 47 52 61 54 82 55 49 56
REMARK SMILES IDX 33 57 34 58 42 59 35 60 37 61 43 62 36 63 38 64 39 65 40 66
REMARK SMILES IDX 41 67 65 68 66 69 74 70 67 71 69 72 75 73 68 74 70 75 71 76
REMARK SMILES IDX 72 77 73 78 50 79 51 80 59 81 52 82 54 83 60 84 53 85 55 86
REMARK SMILES IDX 56 87 57 88 58 89
REMARK H PARENT 6 11 80 42 48 53
REMARK Flexibility Score: inf
ROOT
ATOM      1  C   UNL A   1      35.000  20.494  25.073  1.00  0.00     0.274 C 
ENDROOT
BRANCH   1   2
ATOM      2  O   UNL A   1      34.650  21.770  24.495  1.00  0.00    -0.460 OA
BRANCH   2   3
ATOM      3  C   UNL A   1      33.539  22.393  24.955  1.00  0.00     0.331 C 
ATOM      4  O   UNL A   1      32.410  22.094  24.575  1.00  0.00    -0.249 OA
BRANCH   3   5
ATOM      5  C   UNL A   1      33.819  23.590  25.924  1.00  0.00     0.137 C 
BRANCH   5   6
ATOM      6  C   UNL A   1      34.857  24.566  25.267  1.00  0.00     0.037 C 
ATOM      7  C   UNL A   1      35.094  24.481  23.768  1.00  0.00     0.007 C 
ENDBRANCH   5   6
BRANCH   5   8
ATOM      8  C   UNL A   1      34.346  22.949  27.231  1.00  0.00     0.037 C 
ATOM      9  C   UNL A   1      33.326  22.173  28.052  1.00  0.00     0.007 C 
ENDBRANCH   5   8
BRANCH   5  10
ATOM     10  N   UNL A   1      32.671  24.477  26.215  1.00  0.00    -0.338 N 
ATOM     11  H   UNL A   1      32.181  24.250  27.038  1.00  0.00     0.164 HD
BRANCH  10  12
ATOM     12  C   UNL A   1      32.174  25.552  25.545  1.00  0.00     0.231 A 
ATOM     13  N   UNL A   1      31.835  25.504  24.273  1.00  0.00    -0.182 NA
ATOM     14  N   UNL A   1      32.085  26.641  26.296  1.00  0.00    -0.159 NA
ATOM     15  C   UNL A   1      31.500  26.688  23.771  1.00  0.00     0.230 A 
ATOM     16  C   UNL A   1      31.734  27.760  25.668  1.00  0.00     0.322 A 
ATOM     17  Cl  UNL A   1      31.164  26.714  22.094  1.00  0.00    -0.041 Cl
ATOM     18  N   UNL A   1      31.422  27.854  24.390  1.00  0.00    -0.164 NA
BRANCH  16  19
ATOM     19  O   UNL A   1      31.652  28.941  26.376  1.00  0.00    -0.467 OA
ATOM     20  C   UNL A   1      32.564  29.934  25.916  1.00  0.00     0.282 C 
ENDBRANCH  16  19
ENDBRANCH  10  12
ENDBRANCH   5  10
ENDBRANCH   3   5
ENDBRANCH   2   3
ENDBRANCH   1   2
BRANCH   1  21
ATOM     21  C   UNL A   1      36.492  20.268  24.882  1.00  0.00     0.275 C 
BRANCH  21  22
ATOM     22  O   UNL A   1      37.186  21.238  25.682  1.00  0.00    -0.458 OA
BRANCH  22  23
ATOM     23  C   UNL A   1      38.518  21.051  25.809  1.00  0.00     0.338 C 
ATOM     24  O   UNL A   1      39.178  20.094  25.447  1.00  0.00    -0.246 OA
BRANCH  23  25
ATOM     25  C   UNL A   1      39.100  22.255  26.421  1.00  0.00     0.060 A 
ATOM     26  C   UNL A   1      38.559  23.503  26.116  1.00  0.00     0.016 A 
ATOM     27  C   UNL A   1      40.250  22.155  27.198  1.00  0.00     0.016 A 
ATOM     28  C   UNL A   1      39.221  24.666  26.505  1.00  0.00     0.010 A 
ATOM     29  C   UNL A   1      40.865  23.322  27.662  1.00  0.00     0.010 A 
ATOM     30  C   UNL A   1      40.389  24.591  27.277  1.00  0.00    -0.014 A 
BRANCH  30  31
ATOM     31  C   UNL A   1      41.166  25.817  27.611  1.00  0.00     0.031 A 
ATOM     32  C   UNL A   1      40.544  26.882  28.481  1.00  0.00     0.074 A 
ATOM     33  C   UNL A   1      42.420  25.996  27.146  1.00  0.00     0.049 A 
ATOM     34  N   UNL A   1      40.976  28.086  28.754  1.00  0.00    -0.248 NA
ATOM     35  C   UNL A   1      39.254  26.554  29.114  1.00  0.00     0.031 C 
ATOM     36  C   UNL A   1      43.160  25.046  26.316  1.00  0.00     0.029 A 
ATOM     37  N   UNL A   1      43.291  27.046  27.305  1.00  0.00    -0.354 N 
ATOM     38  C   UNL A   1      39.975  28.688  29.508  1.00  0.00     0.074 A 
ATOM     39  C   UNL A   1      38.920  27.710  29.670  1.00  0.00     0.031 C 
ATOM     40  C   UNL A   1      44.381  25.544  26.060  1.00  0.00     0.029 A 
ATOM     41  C   UNL A   1      44.489  26.874  26.652  1.00  0.00     0.049 A 
ATOM     42  H   UNL A   1      43.077  27.848  27.836  1.00  0.00     0.167 HD
ATOM     43  C   UNL A   1      39.937  29.935  30.033  1.00  0.00     0.034 A 
ATOM     44  C   UNL A   1      45.547  27.701  26.521  1.00  0.00     0.034 A 
ATOM     45  C   UNL A   1      41.023  30.875  29.966  1.00  0.00     0.049 A 
ATOM     46  C   UNL A   1      45.499  29.066  27.153  1.00  0.00     0.074 A 
ATOM     47  C   UNL A   1      41.093  32.148  30.506  1.00  0.00     0.029 A 
ATOM     48  N   UNL A   1      42.238  30.636  29.346  1.00  0.00    -0.354 N 
ATOM     49  N   UNL A   1      44.559  29.599  27.896  1.00  0.00    -0.248 NA
ATOM     50  C   UNL A   1      46.660  29.940  26.934  1.00  0.00     0.031 C 
ATOM     51  C   UNL A   1      42.356  32.675  30.218  1.00  0.00     0.029 A 
ATOM     52  C   UNL A   1      43.070  31.731  29.497  1.00  0.00     0.049 A 
ATOM     53  H   UNL A   1      42.475  29.808  28.868  1.00  0.00     0.167 HD
ATOM     54  C   UNL A   1      45.024  30.861  28.248  1.00  0.00     0.074 A 
ATOM     55  C   UNL A   1      46.341  31.002  27.662  1.00  0.00     0.031 C 
ATOM     56  C   UNL A   1      44.404  31.829  28.967  1.00  0.00     0.034 A 
BRANCH  43  57
ATOM     57  C   UNL A   1      38.686  30.348  30.759  1.00  0.00     0.023 A 
ATOM     58  C   UNL A   1      38.552  30.065  32.133  1.00  0.00     0.012 A 
ATOM     59  C   UNL A   1      37.666  31.053  30.093  1.00  0.00     0.148 A 
ATOM     60  C   UNL A   1      37.407  30.458  32.826  1.00  0.00     0.002 A 
ATOM     61  C   UNL A   1      36.543  31.470  30.799  1.00  0.00     0.091 A 
ATOM     62  F   UNL A   1      37.796  31.284  28.778  1.00  0.00    -0.205 F 
ATOM     63  C   UNL A   1      36.409  31.167  32.163  1.00  0.00     0.022 A 
BRANCH  61  64
ATOM     64  S   UNL A   1      35.247  32.447  30.029  1.00  0.00     0.127 S 
ATOM     65  O   UNL A   1      34.321  32.641  31.143  1.00  0.00    -0.237 OA
ATOM     66  O   UNL A   1      35.963  33.655  29.615  1.00  0.00    -0.237 OA
ATOM     67  O   UNL A   1      34.752  31.636  28.925  1.00  0.00    -0.744 OA
ENDBRANCH  61  64
ENDBRANCH  43  57
BRANCH  44  68
ATOM     68  C   UNL A   1      46.766  27.240  25.798  1.00  0.00     0.023 A 
ATOM     69  C   UNL A   1      47.623  26.313  26.421  1.00  0.00     0.012 A 
ATOM     70  C   UNL A   1      47.064  27.678  24.493  1.00  0.00     0.148 A 
ATOM     71  C   UNL A   1      48.761  25.843  25.766  1.00  0.00     0.002 A 
ATOM     72  C   UNL A   1      48.168  27.162  23.824  1.00  0.00     0.091 A 
ATOM     73  F   UNL A   1      46.257  28.586  23.924  1.00  0.00    -0.205 F 
ATOM     74  C   UNL A   1      49.026  26.255  24.463  1.00  0.00     0.022 A 
BRANCH  72  75
ATOM     75  S   UNL A   1      48.483  27.538  22.096  1.00  0.00     0.127 S 
ATOM     76  O   UNL A   1      49.634  28.432  22.187  1.00  0.00    -0.237 OA
ATOM     77  O   UNL A   1      48.773  26.217  21.536  1.00  0.00    -0.237 OA
ATOM     78  O   UNL A   1      47.246  28.131  21.605  1.00  0.00    -0.744 OA
ENDBRANCH  72  75
ENDBRANCH  44  68
BRANCH  56  79
ATOM     79  C   UNL A   1      45.145  33.121  29.181  1.00  0.00     0.023 A 
ATOM     80  C   UNL A   1      45.940  33.277  30.333  1.00  0.00     0.012 A 
ATOM     81  C   UNL A   1      45.116  34.144  28.216  1.00  0.00     0.148 A 
ATOM     82  C   UNL A   1      46.677  34.443  30.532  1.00  0.00     0.002 A 
ATOM     83  C   UNL A   1      45.883  35.290  28.403  1.00  0.00     0.091 A 
ATOM     84  F   UNL A   1      44.334  33.990  27.136  1.00  0.00    -0.205 F 
ATOM     85  C   UNL A   1      46.657  35.444  29.564  1.00  0.00     0.022 A 
BRANCH  83  86
ATOM     86  S   UNL A   1      45.966  36.578  27.154  1.00  0.00     0.127 S 
ATOM     87  O   UNL A   1      46.423  35.832  25.983  1.00  0.00    -0.237 OA
ATOM     88  O   UNL A   1      44.580  37.044  27.077  1.00  0.00    -0.237 OA
ATOM     89  O   UNL A   1      46.897  37.567  27.683  1.00  0.00    -0.744 OA
ENDBRANCH  83  86
ENDBRANCH  56  79
ENDBRANCH  30  31
ENDBRANCH  23  25
ENDBRANCH  22  23
ENDBRANCH  21  22
ENDBRANCH   1  21
TORSDOF 19
ENDMDL
MODEL 2
REMARK VINA RESULT:     -10.7      1.556      1.965
REMARK SMILES CCC(CC)(Nc1nc(Cl)nc(OC)n1)C(=O)OCCOC(=O)c1ccc(-c2c3nc(c(-c4cccc(S(=O)(=O)[O-])c4F)c4ccc([nH]4)c(-c4cccc(S(=O)(=O)[O-])c4F)c4nc(c(-c5cccc(S(=O)(=O)[O-])c5F)c5ccc2[nH]5)C=C4)C=C3)cc1
REMARK SMILES IDX 19 1 18 2 16 3 17 4 3 5 2 6 1 7 4 8 5 9 6 10 7 12 8 13 15 14
REMARK SMILES IDX 9 15 12 16 10 17 11 18 13 19 14 20 20 21 21 22 22 23 23 24
REMARK SMILES IDX 24 25 25 26 86 27 26 28 85 29 27 30 28 31 29 32 79 33 30 34
REMARK SMILES IDX 84 35 78 36 80 37 31 38 83 39 77 40 76 41 32 43 64 44 44 45
REMARK SMILES IDX 63 46 45 47 48 48 62 49 81 50 46 51 47 52 61 54 82 55 49 56
REMARK SMILES IDX 33 57 34 58 42 59 35 60 37 61 43 62 36 63 38 64 39 65 40 66
REMARK SMILES IDX 41 67 65 68 66 69 74 70 67 71 69 72 75 73 68 74 70 75 71 76
REMARK SMILES IDX 72 77 73 78 50 79 51 80 59 81 52 82 54 83 60 84 53 85 55 86
REMARK SMILES IDX 56 87 57 88 58 89
REMARK H PARENT 6 11 80 42 48 53
REMARK Flexibility Score: inf
ROOT
ATOM      1  C   UNL A   1      36.510  22.602  23.524  1.00  0.00     0.274 C 
ENDROOT
BRANCH   1   2
ATOM      2  O   UNL A   1      35.787  23.401  24.485  1.00  0.00    -0.460 OA
BRANCH   2   3
ATOM      3  C   UNL A   1      34.537  23.808  24.160  1.00  0.00     0.331 C 
ATOM      4  O   UNL A   1      34.296  24.451  23.142  1.00  0.00    -0.249 OA
BRANCH   3   5
ATOM      5  C   UNL A   1      33.447  23.485  25.236  1.00  0.00     0.137 C 
BRANCH   5   6
ATOM      6  C   UNL A   1      34.094  22.665  26.408  1.00  0.00     0.037 C 
ATOM      7  C   UNL A   1      33.259  22.369  27.642  1.00  0.00     0.007 C 
ENDBRANCH   5   6
BRANCH   5   8
ATOM      8  C   UNL A   1      32.348  22.691  24.488  1.00  0.00     0.037 C 
ATOM      9  C   UNL A   1      32.758  21.325  23.956  1.00  0.00     0.007 C 
ENDBRANCH   5   8
BRANCH   5  10
ATOM     10  N   UNL A   1      32.855  24.646  25.935  1.00  0.00    -0.338 N 
ATOM     11  H   UNL A   1      33.073  24.697  26.894  1.00  0.00     0.164 HD
BRANCH  10  12
ATOM     12  C   UNL A   1      32.062  25.657  25.487  1.00  0.00     0.231 A 
ATOM     13  N   UNL A   1      30.811  25.471  25.118  1.00  0.00    -0.182 NA
ATOM     14  N   UNL A   1      32.682  26.829  25.445  1.00  0.00    -0.159 NA
ATOM     15  C   UNL A   1      30.252  26.553  24.586  1.00  0.00     0.230 A 
ATOM     16  C   UNL A   1      32.007  27.831  24.890  1.00  0.00     0.322 A 
ATOM     17  Cl  UNL A   1      28.666  26.345  23.978  1.00  0.00    -0.041 Cl
ATOM     18  N   UNL A   1      30.770  27.761  24.436  1.00  0.00    -0.164 NA
BRANCH  16  19
ATOM     19  O   UNL A   1      32.597  29.073  24.780  1.00  0.00    -0.467 OA
ATOM     20  C   UNL A   1      32.069  30.026  25.698  1.00  0.00     0.282 C 
ENDBRANCH  16  19
ENDBRANCH  10  12
ENDBRANCH   5  10
ENDBRANCH   3   5
ENDBRANCH   2   3
ENDBRANCH   1   2
BRANCH   1  21
ATOM     21  C   UNL A   1      36.901  21.287  24.184  1.00  0.00     0.275 C 
BRANCH  21  22
ATOM     22  O   UNL A   1      37.276  21.575  25.540  1.00  0.00    -0.458 OA
BRANCH  22  23
ATOM     23  C   UNL A   1      38.559  21.306  25.864  1.00  0.00     0.338 C 
ATOM     24  O   UNL A   1      39.187  20.283  25.655  1.00  0.00    -0.246 OA
BRANCH  23  25
ATOM     25  C   UNL A   1      39.144  22.506  26.481  1.00  0.00     0.060 A 
ATOM     26  C   UNL A   1      38.601  23.756  26.186  1.00  0.00     0.016 A 
ATOM     27  C   UNL A   1      40.298  22.402  27.253  1.00  0.00     0.016 A 
ATOM     28  C   UNL A   1      39.265  24.917  26.580  1.00  0.00     0.010 A 
ATOM     29  C   UNL A   1      40.914  23.566  27.721  1.00  0.00     0.010 A 
ATOM     30  C   UNL A   1      40.437  24.837  27.346  1.00  0.00    -0.014 A 
BRANCH  30  31
ATOM     31  C   UNL A   1      41.215  26.062  27.684  1.00  0.00     0.031 A 
ATOM     32  C   UNL A   1      40.582  27.139  28.530  1.00  0.00     0.074 A 
ATOM     33  C   UNL A   1      42.479  26.227  27.244  1.00  0.00     0.049 A 
ATOM     34  N   UNL A   1      41.017  28.343  28.800  1.00  0.00    -0.248 NA
ATOM     35  C   UNL A   1      39.277  26.826  29.139  1.00  0.00     0.031 C 
ATOM     36  C   UNL A   1      43.231  25.264  26.438  1.00  0.00     0.029 A 
ATOM     37  N   UNL A   1      43.354  27.273  27.411  1.00  0.00    -0.354 N 
ATOM     38  C   UNL A   1      40.004  28.959  29.528  1.00  0.00     0.074 A 
ATOM     39  C   UNL A   1      38.940  27.989  29.677  1.00  0.00     0.031 C 
ATOM     40  C   UNL A   1      44.460  25.751  26.204  1.00  0.00     0.029 A 
ATOM     41  C   UNL A   1      44.564  27.086  26.784  1.00  0.00     0.049 A 
ATOM     42  H   UNL A   1      43.135  28.081  27.929  1.00  0.00     0.167 HD
ATOM     43  C   UNL A   1      39.965  30.211  30.039  1.00  0.00     0.034 A 
ATOM     44  C   UNL A   1      45.630  27.905  26.668  1.00  0.00     0.034 A 
ATOM     45  C   UNL A   1      41.058  31.143  29.986  1.00  0.00     0.049 A 
ATOM     46  C   UNL A   1      45.578  29.276  27.285  1.00  0.00     0.074 A 
ATOM     47  C   UNL A   1      41.125  32.422  30.514  1.00  0.00     0.029 A 
ATOM     48  N   UNL A   1      42.284  30.890  29.394  1.00  0.00    -0.354 N 
ATOM     49  N   UNL A   1      44.627  29.823  28.002  1.00  0.00    -0.248 NA
ATOM     50  C   UNL A   1      46.750  30.140  27.081  1.00  0.00     0.031 C 
ATOM     51  C   UNL A   1      42.398  32.937  30.248  1.00  0.00     0.029 A 
ATOM     52  C   UNL A   1      43.120  31.981  29.551  1.00  0.00     0.049 A 
ATOM     53  H   UNL A   1      42.525  30.056  28.929  1.00  0.00     0.167 HD
ATOM     54  C   UNL A   1      45.093  31.086  28.351  1.00  0.00     0.074 A 
ATOM     55  C   UNL A   1      46.423  31.212  27.792  1.00  0.00     0.031 C 
ATOM     56  C   UNL A   1      44.465  32.065  29.048  1.00  0.00     0.034 A 
BRANCH  43  57
ATOM     57  C   UNL A   1      38.701  30.640  30.734  1.00  0.00     0.023 A 
ATOM     58  C   UNL A   1      38.555  30.413  32.117  1.00  0.00     0.012 A 
ATOM     59  C   UNL A   1      37.680  31.305  30.029  1.00  0.00     0.148 A 
ATOM     60  C   UNL A   1      37.400  30.820  32.783  1.00  0.00     0.002 A 
ATOM     61  C   UNL A   1      36.546  31.738  30.706  1.00  0.00     0.091 A 
ATOM     62  F   UNL A   1      37.822  31.483  28.708  1.00  0.00    -0.205 F 
ATOM     63  C   UNL A   1      36.401  31.491  32.081  1.00  0.00     0.022 A 
BRANCH  61  64
ATOM     64  S   UNL A   1      35.248  32.669  29.884  1.00  0.00     0.127 S 
ATOM     65  O   UNL A   1      34.750  31.692  28.917  1.00  0.00    -0.237 OA
ATOM     66  O   UNL A   1      34.325  32.964  30.981  1.00  0.00    -0.237 OA
ATOM     67  O   UNL A   1      35.905  33.841  29.323  1.00  0.00    -0.744 OA
ENDBRANCH  61  64
ENDBRANCH  43  57
BRANCH  44  68
ATOM     68  C   UNL A   1      46.861  27.428  25.974  1.00  0.00     0.023 A 
ATOM     69  C   UNL A   1      47.049  27.749  24.617  1.00  0.00     0.012 A 
ATOM     70  C   UNL A   1      47.858  26.700  26.651  1.00  0.00     0.148 A 
ATOM     71  C   UNL A   1      48.199  27.339  23.940  1.00  0.00     0.002 A 
ATOM     72  C   UNL A   1      49.028  26.344  25.987  1.00  0.00     0.091 A 
ATOM     73  F   UNL A   1      47.651  26.374  27.935  1.00  0.00    -0.205 F 
ATOM     74  C   UNL A   1      49.194  26.650  24.628  1.00  0.00     0.022 A 
BRANCH  72  75
ATOM     75  S   UNL A   1      50.408  25.587  26.851  1.00  0.00     0.127 S 
ATOM     76  O   UNL A   1      51.315  25.271  25.751  1.00  0.00    -0.237 OA
ATOM     77  O   UNL A   1      50.858  26.669  27.729  1.00  0.00    -0.237 OA
ATOM     78  O   UNL A   1      49.835  24.450  27.558  1.00  0.00    -0.744 OA
ENDBRANCH  72  75
ENDBRANCH  44  68
BRANCH  56  79
ATOM     79  C   UNL A   1      45.211  33.353  29.265  1.00  0.00     0.023 A 
ATOM     80  C   UNL A   1      46.122  33.451  30.335  1.00  0.00     0.012 A 
ATOM     81  C   UNL A   1      45.067  34.434  28.376  1.00  0.00     0.148 A 
ATOM     82  C   UNL A   1      46.863  34.616  30.528  1.00  0.00     0.002 A 
ATOM     83  C   UNL A   1      45.837  35.580  28.554  1.00  0.00     0.091 A 
ATOM     84  F   UNL A   1      44.177  34.334  27.376  1.00  0.00    -0.205 F 
ATOM     85  C   UNL A   1      46.729  35.675  29.634  1.00  0.00     0.022 A 
BRANCH  83  86
ATOM     86  S   UNL A   1      45.772  36.945  27.388  1.00  0.00     0.127 S 
ATOM     87  O   UNL A   1      46.629  36.458  26.307  1.00  0.00    -0.237 OA
ATOM     88  O   UNL A   1      44.349  37.016  27.052  1.00  0.00    -0.237 OA
ATOM     89  O   UNL A   1      46.269  38.102  28.122  1.00  0.00    -0.744 OA
ENDBRANCH  83  86
ENDBRANCH  56  79
ENDBRANCH  30  31
ENDBRANCH  23  25
ENDBRANCH  22  23
ENDBRANCH  21  22
ENDBRANCH   1  21
TORSDOF 19
ENDMDL
MODEL 3
REMARK VINA RESULT:     -10.6      5.349     10.305
REMARK SMILES CCC(CC)(Nc1nc(Cl)nc(OC)n1)C(=O)OCCOC(=O)c1ccc(-c2c3nc(c(-c4cccc(S(=O)(=O)[O-])c4F)c4ccc([nH]4)c(-c4cccc(S(=O)(=O)[O-])c4F)c4nc(c(-c5cccc(S(=O)(=O)[O-])c5F)c5ccc2[nH]5)C=C4)C=C3)cc1
REMARK SMILES IDX 19 1 18 2 16 3 17 4 3 5 2 6 1 7 4 8 5 9 6 10 7 12 8 13 15 14
REMARK SMILES IDX 9 15 12 16 10 17 11 18 13 19 14 20 20 21 21 22 22 23 23 24
REMARK SMILES IDX 24 25 25 26 86 27 26 28 85 29 27 30 28 31 29 32 79 33 30 34
REMARK SMILES IDX 84 35 78 36 80 37 31 38 83 39 77 40 76 41 32 43 64 44 44 45
REMARK SMILES IDX 63 46 45 47 48 48 62 49 81 50 46 51 47 52 61 54 82 55 49 56
REMARK SMILES IDX 33 57 34 58 42 59 35 60 37 61 43 62 36 63 38 64 39 65 40 66
REMARK SMILES IDX 41 67 65 68 66 69 74 70 67 71 69 72 75 73 68 74 70 75 71 76
REMARK SMILES IDX 72 77 73 78 50 79 51 80 59 81 52 82 54 83 60 84 53 85 55 86
REMARK SMILES IDX 56 87 57 88 58 89
REMARK H PARENT 6 11 80 42 48 53
REMARK Flexibility Score: inf
ROOT
ATOM      1  C   UNL A   1      31.306  30.679  25.340  1.00  0.00     0.274 C 
ENDROOT
BRANCH   1   2
ATOM      2  O   UNL A   1      31.247  29.238  25.286  1.00  0.00    -0.460 OA
BRANCH   2   3
ATOM      3  C   UNL A   1      32.023  28.603  24.375  1.00  0.00     0.331 C 
ATOM      4  O   UNL A   1      32.629  29.204  23.492  1.00  0.00    -0.249 OA
BRANCH   3   5
ATOM      5  C   UNL A   1      31.997  27.041  24.473  1.00  0.00     0.137 C 
BRANCH   5   6
ATOM      6  C   UNL A   1      33.435  26.475  24.200  1.00  0.00     0.037 C 
ATOM      7  C   UNL A   1      33.631  25.500  23.050  1.00  0.00     0.007 C 
ENDBRANCH   5   6
BRANCH   5   8
ATOM      8  C   UNL A   1      30.962  26.577  23.420  1.00  0.00     0.037 C 
ATOM      9  C   UNL A   1      29.514  26.955  23.697  1.00  0.00     0.007 C 
ENDBRANCH   5   8
BRANCH   5  10
ATOM     10  N   UNL A   1      31.668  26.476  25.800  1.00  0.00    -0.338 N 
ATOM     11  H   UNL A   1      31.473  27.149  26.491  1.00  0.00     0.164 HD
BRANCH  10  12
ATOM     12  C   UNL A   1      31.587  25.189  26.233  1.00  0.00     0.231 A 
ATOM     13  N   UNL A   1      30.439  24.565  26.404  1.00  0.00    -0.182 NA
ATOM     14  N   UNL A   1      32.771  24.644  26.479  1.00  0.00    -0.159 NA
ATOM     15  C   UNL A   1      30.568  23.365  26.959  1.00  0.00     0.230 A 
ATOM     16  C   UNL A   1      32.757  23.435  27.033  1.00  0.00     0.322 A 
ATOM     17  Cl  UNL A   1      29.105  22.552  27.316  1.00  0.00    -0.041 Cl
ATOM     18  N   UNL A   1      31.676  22.728  27.301  1.00  0.00    -0.164 NA
BRANCH  16  19
ATOM     19  O   UNL A   1      33.949  22.816  27.348  1.00  0.00    -0.467 OA
ATOM     20  C   UNL A   1      33.892  21.397  27.228  1.00  0.00     0.282 C 
ENDBRANCH  16  19
ENDBRANCH  10  12
ENDBRANCH   5  10
ENDBRANCH   3   5
ENDBRANCH   2   3
ENDBRANCH   1   2
BRANCH   1  21
ATOM     21  C   UNL A   1      31.645  31.097  26.763  1.00  0.00     0.275 C 
BRANCH  21  22
ATOM     22  O   UNL A   1      33.060  30.932  26.941  1.00  0.00    -0.458 OA
BRANCH  22  23
ATOM     23  C   UNL A   1      33.706  31.968  27.519  1.00  0.00     0.338 C 
ATOM     24  O   UNL A   1      33.285  33.093  27.721  1.00  0.00    -0.246 OA
BRANCH  23  25
ATOM     25  C   UNL A   1      35.034  31.507  27.950  1.00  0.00     0.060 A 
ATOM     26  C   UNL A   1      35.215  30.163  28.273  1.00  0.00     0.016 A 
ATOM     27  C   UNL A   1      36.060  32.426  28.147  1.00  0.00     0.016 A 
ATOM     28  C   UNL A   1      36.394  29.745  28.888  1.00  0.00     0.010 A 
ATOM     29  C   UNL A   1      37.275  31.988  28.683  1.00  0.00     0.010 A 
ATOM     30  C   UNL A   1      37.438  30.655  29.110  1.00  0.00    -0.014 A 
BRANCH  30  31
ATOM     31  C   UNL A   1      38.660  30.250  29.859  1.00  0.00     0.031 A 
ATOM     32  C   UNL A   1      39.647  29.302  29.223  1.00  0.00     0.074 A 
ATOM     33  C   UNL A   1      38.901  30.715  31.102  1.00  0.00     0.049 A 
ATOM     34  N   UNL A   1      40.678  28.698  29.756  1.00  0.00    -0.248 NA
ATOM     35  C   UNL A   1      39.434  28.975  27.801  1.00  0.00     0.031 C 
ATOM     36  C   UNL A   1      38.053  31.655  31.836  1.00  0.00     0.029 A 
ATOM     37  N   UNL A   1      39.934  30.454  31.970  1.00  0.00    -0.354 N 
ATOM     38  C   UNL A   1      41.178  27.856  28.769  1.00  0.00     0.074 A 
ATOM     39  C   UNL A   1      40.351  28.041  27.595  1.00  0.00     0.031 C 
ATOM     40  C   UNL A   1      38.611  31.911  33.030  1.00  0.00     0.029 A 
ATOM     41  C   UNL A   1      39.820  31.107  33.175  1.00  0.00     0.049 A 
ATOM     42  H   UNL A   1      40.683  29.855  31.750  1.00  0.00     0.167 HD
ATOM     43  C   UNL A   1      42.236  27.014  28.824  1.00  0.00     0.034 A 
ATOM     44  C   UNL A   1      40.588  31.049  34.282  1.00  0.00     0.034 A 
ATOM     45  C   UNL A   1      43.124  26.901  29.949  1.00  0.00     0.049 A 
ATOM     46  C   UNL A   1      41.786  30.139  34.303  1.00  0.00     0.074 A 
ATOM     47  C   UNL A   1      44.249  26.105  30.081  1.00  0.00     0.029 A 
ATOM     48  N   UNL A   1      43.005  27.625  31.124  1.00  0.00    -0.354 N 
ATOM     49  N   UNL A   1      42.264  29.381  33.345  1.00  0.00    -0.248 NA
ATOM     50  C   UNL A   1      42.555  30.080  35.554  1.00  0.00     0.031 C 
ATOM     51  C   UNL A   1      44.816  26.355  31.335  1.00  0.00     0.029 A 
ATOM     52  C   UNL A   1      44.041  27.304  31.984  1.00  0.00     0.049 A 
ATOM     53  H   UNL A   1      42.289  28.271  31.320  1.00  0.00     0.167 HD
ATOM     54  C   UNL A   1      43.398  28.773  33.872  1.00  0.00     0.074 A 
ATOM     55  C   UNL A   1      43.553  29.271  35.222  1.00  0.00     0.031 C 
ATOM     56  C   UNL A   1      44.221  27.860  33.299  1.00  0.00     0.034 A 
BRANCH  43  57
ATOM     57  C   UNL A   1      42.514  26.164  27.615  1.00  0.00     0.023 A 
ATOM     58  C   UNL A   1      43.258  26.698  26.544  1.00  0.00     0.012 A 
ATOM     59  C   UNL A   1      42.077  24.827  27.557  1.00  0.00     0.148 A 
ATOM     60  C   UNL A   1      43.542  25.919  25.422  1.00  0.00     0.002 A 
ATOM     61  C   UNL A   1      42.393  24.047  26.451  1.00  0.00     0.091 A 
ATOM     62  F   UNL A   1      41.342  24.346  28.570  1.00  0.00    -0.205 F 
ATOM     63  C   UNL A   1      43.119  24.593  25.380  1.00  0.00     0.022 A 
BRANCH  61  64
ATOM     64  S   UNL A   1      41.942  22.311  26.354  1.00  0.00     0.127 S 
ATOM     65  O   UNL A   1      42.475  21.795  27.613  1.00  0.00    -0.237 OA
ATOM     66  O   UNL A   1      40.481  22.365  26.288  1.00  0.00    -0.237 OA
ATOM     67  O   UNL A   1      42.578  21.811  25.142  1.00  0.00    -0.744 OA
ENDBRANCH  61  64
ENDBRANCH  43  57
BRANCH  44  68
ATOM     68  C   UNL A   1      40.273  31.917  35.453  1.00  0.00     0.023 A 
ATOM     69  C   UNL A   1      41.013  33.099  35.646  1.00  0.00     0.012 A 
ATOM     70  C   UNL A   1      39.231  31.607  36.347  1.00  0.00     0.148 A 
ATOM     71  C   UNL A   1      40.732  33.948  36.718  1.00  0.00     0.002 A 
ATOM     72  C   UNL A   1      38.919  32.485  37.380  1.00  0.00     0.091 A 
ATOM     73  F   UNL A   1      38.557  30.461  36.170  1.00  0.00    -0.205 F 
ATOM     74  C   UNL A   1      39.677  33.649  37.575  1.00  0.00     0.022 A 
BRANCH  72  75
ATOM     75  S   UNL A   1      37.482  32.234  38.428  1.00  0.00     0.127 S 
ATOM     76  O   UNL A   1      37.944  32.766  39.706  1.00  0.00    -0.237 OA
ATOM     77  O   UNL A   1      36.461  33.042  37.757  1.00  0.00    -0.237 OA
ATOM     78  O   UNL A   1      37.226  30.800  38.382  1.00  0.00    -0.744 OA
ENDBRANCH  72  75
ENDBRANCH  44  68
BRANCH  56  79
ATOM     79  C   UNL A   1      45.376  27.352  34.118  1.00  0.00     0.023 A 
ATOM     80  C   UNL A   1      46.603  28.043  34.081  1.00  0.00     0.012 A 
ATOM     81  C   UNL A   1      45.229  26.245  34.973  1.00  0.00     0.148 A 
ATOM     82  C   UNL A   1      47.675  27.624  34.869  1.00  0.00     0.002 A 
ATOM     83  C   UNL A   1      46.291  25.855  35.784  1.00  0.00     0.091 A 
ATOM     84  F   UNL A   1      44.061  25.584  34.978  1.00  0.00    -0.205 F 
ATOM     85  C   UNL A   1      47.516  26.539  35.727  1.00  0.00     0.022 A 
BRANCH  83  86
ATOM     86  S   UNL A   1      46.123  24.518  36.971  1.00  0.00     0.127 S 
ATOM     87  O   UNL A   1      45.029  24.998  37.813  1.00  0.00    -0.237 OA
ATOM     88  O   UNL A   1      45.782  23.374  36.124  1.00  0.00    -0.237 OA
ATOM     89  O   UNL A   1      47.425  24.412  37.618  1.00  0.00    -0.744 OA
ENDBRANCH  83  86
ENDBRANCH  56  79
ENDBRANCH  30  31
ENDBRANCH  23  25
ENDBRANCH  22  23
ENDBRANCH  21  22
ENDBRANCH   1  21
TORSDOF 19
ENDMDL
