MODEL 1
REMARK VINA RESULT:     -13.5      0.000      0.000
REMARK SMILES CC1=Nc2c(c(C)nn2-c2ccc(F)cc2)[C@H](c2ccc(C(=O)OCCOC(=O)c3ccc(-c4c5nc(c(-c6cccc(S(=O)(=O)[O-])c6F)c6ccc([nH]6)c(-c6cccc(S(=O)(=O)[O-])c6F)c6nc(c(-c7cccc(S(=O)(=O)[O-])c7F)c7ccc4[nH]7)C=C6)C=C5)cc3)cc2)S1
REMARK SMILES IDX 26 1 25 2 24 3 22 4 23 5 21 6 18 7 19 8 94 9 20 10 93 11
REMARK SMILES IDX 17 12 1 13 2 14 3 15 95 16 4 17 5 18 9 19 6 20 8 21 7 22
REMARK SMILES IDX 10 23 11 24 16 25 12 26 15 27 13 28 14 29 27 30 28 31 29 32
REMARK SMILES IDX 30 33 31 34 92 35 32 36 91 37 33 38 34 39 35 40 85 41 36 42
REMARK SMILES IDX 90 43 84 44 86 45 37 46 89 47 83 48 82 49 38 51 70 52 50 53
REMARK SMILES IDX 69 54 51 55 54 56 68 57 87 58 52 59 53 60 67 62 88 63 55 64
REMARK SMILES IDX 39 65 40 66 48 67 41 68 43 69 49 70 42 71 44 72 45 73 46 74
REMARK SMILES IDX 47 75 71 76 72 77 80 78 73 79 75 80 81 81 74 82 76 83 77 84
REMARK SMILES IDX 78 85 79 86 56 87 57 88 65 89 58 90 60 91 66 92 59 93 61 94
REMARK SMILES IDX 62 95 63 96 64 97
REMARK H PARENT 86 50 54 61
REMARK Flexibility Score: inf
ROOT
ATOM      1  C   UNL A   1      31.521  31.187  26.303  1.00  0.00     0.275 C 
ENDROOT
BRANCH   1   2
ATOM      2  C   UNL A   1      31.841  30.112  25.273  1.00  0.00     0.275 C 
BRANCH   2   3
ATOM      3  O   UNL A   1      30.681  29.785  24.487  1.00  0.00    -0.458 OA
BRANCH   3   4
ATOM      4  C   UNL A   1      30.906  28.888  23.483  1.00  0.00     0.338 C 
ATOM      5  O   UNL A   1      30.663  29.054  22.312  1.00  0.00    -0.246 OA
BRANCH   4   6
ATOM      6  C   UNL A   1      31.564  27.654  24.005  1.00  0.00     0.060 A 
ATOM      7  C   UNL A   1      32.798  25.404  25.211  1.00  0.00    -0.030 A 
ATOM      8  C   UNL A   1      31.581  25.917  25.695  1.00  0.00     0.006 A 
ATOM      9  C   UNL A   1      33.334  25.996  24.051  1.00  0.00     0.006 A 
ATOM     10  C   UNL A   1      30.965  27.018  25.095  1.00  0.00     0.016 A 
ATOM     11  C   UNL A   1      32.733  27.118  23.461  1.00  0.00     0.016 A 
BRANCH   7  12
ATOM     12  C   UNL A   1      33.494  24.303  26.003  1.00  0.00     0.119 C 
ATOM     13  C   UNL A   1      36.776  23.433  23.697  1.00  0.00     0.075 C 
ATOM     14  C   UNL A   1      35.549  23.183  24.531  1.00  0.00     0.074 C 
ATOM     15  N   UNL A   1      34.776  22.195  24.203  1.00  0.00    -0.227 NA
ATOM     16  S   UNL A   1      35.317  24.312  25.862  1.00  0.00    -0.098 SA
ATOM     17  C   UNL A   1      33.597  22.065  24.860  1.00  0.00     0.161 A 
ATOM     18  C   UNL A   1      32.921  22.992  25.625  1.00  0.00     0.038 A 
ATOM     19  N   UNL A   1      32.780  20.946  24.786  1.00  0.00    -0.215 N 
ATOM     20  C   UNL A   1      31.699  22.357  25.968  1.00  0.00     0.067 A 
ATOM     21  N   UNL A   1      31.582  21.159  25.382  1.00  0.00    -0.171 NA
ATOM     22  C   UNL A   1      30.600  22.840  26.842  1.00  0.00     0.069 C 
BRANCH  19  23
ATOM     23  C   UNL A   1      33.094  19.677  24.239  1.00  0.00     0.067 A 
ATOM     24  C   UNL A   1      34.164  18.931  24.755  1.00  0.00     0.031 A 
ATOM     25  C   UNL A   1      32.316  19.168  23.191  1.00  0.00     0.031 A 
ATOM     26  C   UNL A   1      34.460  17.681  24.212  1.00  0.00     0.041 A 
ATOM     27  C   UNL A   1      32.652  17.941  22.618  1.00  0.00     0.041 A 
ATOM     28  C   UNL A   1      33.715  17.207  23.137  1.00  0.00     0.123 A 
ATOM     29  F   UNL A   1      34.030  16.022  22.596  1.00  0.00    -0.207 F 
ENDBRANCH  19  23
ENDBRANCH   7  12
ENDBRANCH   4   6
ENDBRANCH   3   4
ENDBRANCH   2   3
ENDBRANCH   1   2
BRANCH   1  30
ATOM     30  O   UNL A   1      32.603  31.390  27.209  1.00  0.00    -0.458 OA
BRANCH  30  31
ATOM     31  C   UNL A   1      32.739  32.662  27.642  1.00  0.00     0.338 C 
ATOM     32  O   UNL A   1      32.044  33.623  27.348  1.00  0.00    -0.246 OA
BRANCH  31  33
ATOM     33  C   UNL A   1      34.013  32.801  28.346  1.00  0.00     0.060 A 
ATOM     34  C   UNL A   1      35.022  33.545  27.721  1.00  0.00     0.016 A 
ATOM     35  C   UNL A   1      34.273  31.968  29.442  1.00  0.00     0.016 A 
ATOM     36  C   UNL A   1      36.330  33.347  28.114  1.00  0.00     0.010 A 
ATOM     37  C   UNL A   1      35.575  31.759  29.819  1.00  0.00     0.010 A 
ATOM     38  C   UNL A   1      36.592  32.405  29.111  1.00  0.00    -0.014 A 
BRANCH  38  39
ATOM     39  C   UNL A   1      37.965  32.160  29.503  1.00  0.00     0.031 A 
ATOM     40  C   UNL A   1      38.422  30.768  29.268  1.00  0.00     0.074 A 
ATOM     41  C   UNL A   1      38.774  33.186  29.831  1.00  0.00     0.049 A 
ATOM     42  N   UNL A   1      39.007  29.972  30.101  1.00  0.00    -0.248 NA
ATOM     43  C   UNL A   1      38.082  30.140  27.979  1.00  0.00     0.031 C 
ATOM     44  C   UNL A   1      38.449  34.617  29.796  1.00  0.00     0.029 A 
ATOM     45  N   UNL A   1      40.114  33.177  30.070  1.00  0.00    -0.354 N 
ATOM     46  C   UNL A   1      39.290  28.818  29.376  1.00  0.00     0.074 A 
ATOM     47  C   UNL A   1      38.558  28.908  28.142  1.00  0.00     0.031 C 
ATOM     48  C   UNL A   1      39.598  35.325  29.727  1.00  0.00     0.029 A 
ATOM     49  C   UNL A   1      40.719  34.406  29.820  1.00  0.00     0.049 A 
ATOM     50  H   UNL A   1      40.605  32.385  30.387  1.00  0.00     0.167 HD
ATOM     51  C   UNL A   1      40.285  27.967  29.739  1.00  0.00     0.034 A 
ATOM     52  C   UNL A   1      42.036  34.626  29.588  1.00  0.00     0.034 A 
ATOM     53  C   UNL A   1      40.694  28.170  31.099  1.00  0.00     0.049 A 
ATOM     54  C   UNL A   1      42.777  33.441  30.079  1.00  0.00     0.074 A 
ATOM     55  C   UNL A   1      40.056  28.099  32.320  1.00  0.00     0.029 A 
ATOM     56  N   UNL A   1      41.856  28.871  31.309  1.00  0.00    -0.354 N 
ATOM     57  N   UNL A   1      42.877  33.122  31.339  1.00  0.00    -0.248 NA
ATOM     58  C   UNL A   1      43.066  32.370  29.137  1.00  0.00     0.031 C 
ATOM     59  C   UNL A   1      40.629  29.147  33.093  1.00  0.00     0.029 A 
ATOM     60  C   UNL A   1      41.616  29.764  32.319  1.00  0.00     0.049 A 
ATOM     61  H   UNL A   1      42.705  28.753  30.824  1.00  0.00     0.167 HD
ATOM     62  C   UNL A   1      42.786  31.736  31.350  1.00  0.00     0.074 A 
ATOM     63  C   UNL A   1      43.035  31.326  29.970  1.00  0.00     0.031 C 
ATOM     64  C   UNL A   1      42.218  31.077  32.404  1.00  0.00     0.034 A 
BRANCH  51  65
ATOM     65  C   UNL A   1      41.110  27.165  28.770  1.00  0.00     0.023 A 
ATOM     66  C   UNL A   1      41.353  25.811  29.080  1.00  0.00     0.012 A 
ATOM     67  C   UNL A   1      41.864  27.733  27.718  1.00  0.00     0.148 A 
ATOM     68  C   UNL A   1      42.320  25.068  28.397  1.00  0.00     0.002 A 
ATOM     69  C   UNL A   1      42.762  26.968  26.985  1.00  0.00     0.091 A 
ATOM     70  F   UNL A   1      41.823  29.053  27.503  1.00  0.00    -0.205 F 
ATOM     71  C   UNL A   1      43.016  25.642  27.339  1.00  0.00     0.022 A 
BRANCH  69  72
ATOM     72  S   UNL A   1      43.632  27.651  25.570  1.00  0.00     0.127 S 
ATOM     73  O   UNL A   1      44.329  28.784  26.171  1.00  0.00    -0.237 OA
ATOM     74  O   UNL A   1      44.491  26.534  25.175  1.00  0.00    -0.237 OA
ATOM     75  O   UNL A   1      42.594  27.972  24.599  1.00  0.00    -0.744 OA
ENDBRANCH  69  72
ENDBRANCH  51  65
BRANCH  52  76
ATOM     76  C   UNL A   1      42.681  35.664  28.747  1.00  0.00     0.023 A 
ATOM     77  C   UNL A   1      42.448  35.673  27.357  1.00  0.00     0.012 A 
ATOM     78  C   UNL A   1      43.314  36.791  29.321  1.00  0.00     0.148 A 
ATOM     79  C   UNL A   1      42.809  36.775  26.571  1.00  0.00     0.002 A 
ATOM     80  C   UNL A   1      43.684  37.877  28.533  1.00  0.00     0.091 A 
ATOM     81  F   UNL A   1      43.467  36.844  30.650  1.00  0.00    -0.205 F 
ATOM     82  C   UNL A   1      43.422  37.878  27.158  1.00  0.00     0.022 A 
BRANCH  80  83
ATOM     83  S   UNL A   1      44.461  39.342  29.233  1.00  0.00     0.127 S 
ATOM     84  O   UNL A   1      45.692  38.792  29.802  1.00  0.00    -0.237 OA
ATOM     85  O   UNL A   1      44.652  40.175  28.049  1.00  0.00    -0.237 OA
ATOM     86  O   UNL A   1      43.523  39.854  30.224  1.00  0.00    -0.744 OA
ENDBRANCH  80  83
ENDBRANCH  52  76
BRANCH  64  87
ATOM     87  C   UNL A   1      41.903  31.859  33.657  1.00  0.00     0.023 A 
ATOM     88  C   UNL A   1      42.876  32.094  34.651  1.00  0.00     0.012 A 
ATOM     89  C   UNL A   1      40.689  32.563  33.719  1.00  0.00     0.148 A 
ATOM     90  C   UNL A   1      42.640  32.999  35.688  1.00  0.00     0.002 A 
ATOM     91  C   UNL A   1      40.481  33.505  34.719  1.00  0.00     0.091 A 
ATOM     92  F   UNL A   1      39.772  32.333  32.766  1.00  0.00    -0.205 F 
ATOM     93  C   UNL A   1      41.450  33.719  35.712  1.00  0.00     0.022 A 
BRANCH  91  94
ATOM     94  S   UNL A   1      39.043  34.579  34.709  1.00  0.00     0.127 S 
ATOM     95  O   UNL A   1      38.707  34.627  33.288  1.00  0.00    -0.237 OA
ATOM     96  O   UNL A   1      38.090  33.839  35.538  1.00  0.00    -0.237 OA
ATOM     97  O   UNL A   1      39.482  35.840  35.294  1.00  0.00    -0.744 OA
ENDBRANCH  91  94
ENDBRANCH  64  87
ENDBRANCH  38  39
ENDBRANCH  31  33
ENDBRANCH  30  31
ENDBRANCH   1  30
TORSDOF 16
ENDMDL
MODEL 2
REMARK VINA RESULT:     -13.3      3.763      7.693
REMARK SMILES CC1=Nc2c(c(C)nn2-c2ccc(F)cc2)[C@H](c2ccc(C(=O)OCCOC(=O)c3ccc(-c4c5nc(c(-c6cccc(S(=O)(=O)[O-])c6F)c6ccc([nH]6)c(-c6cccc(S(=O)(=O)[O-])c6F)c6nc(c(-c7cccc(S(=O)(=O)[O-])c7F)c7ccc4[nH]7)C=C6)C=C5)cc3)cc2)S1
REMARK SMILES IDX 26 1 25 2 24 3 22 4 23 5 21 6 18 7 19 8 94 9 20 10 93 11
REMARK SMILES IDX 17 12 1 13 2 14 3 15 95 16 4 17 5 18 9 19 6 20 8 21 7 22
REMARK SMILES IDX 10 23 11 24 16 25 12 26 15 27 13 28 14 29 27 30 28 31 29 32
REMARK SMILES IDX 30 33 31 34 92 35 32 36 91 37 33 38 34 39 35 40 85 41 36 42
REMARK SMILES IDX 90 43 84 44 86 45 37 46 89 47 83 48 82 49 38 51 70 52 50 53
REMARK SMILES IDX 69 54 51 55 54 56 68 57 87 58 52 59 53 60 67 62 88 63 55 64
REMARK SMILES IDX 39 65 40 66 48 67 41 68 43 69 49 70 42 71 44 72 45 73 46 74
REMARK SMILES IDX 47 75 71 76 72 77 80 78 73 79 75 80 81 81 74 82 76 83 77 84
REMARK SMILES IDX 78 85 79 86 56 87 57 88 65 89 58 90 60 91 66 92 59 93 61 94
REMARK SMILES IDX 62 95 63 96 64 97
REMARK H PARENT 86 50 54 61
REMARK Flexibility Score: inf
ROOT
ATOM      1  C   UNL A   1      33.523  30.931  26.836  1.00  0.00     0.275 C 
ENDROOT
BRANCH   1   2
ATOM      2  C   UNL A   1      32.274  30.166  27.253  1.00  0.00     0.275 C 
BRANCH   2   3
ATOM      3  O   UNL A   1      32.035  29.047  26.381  1.00  0.00    -0.458 OA
BRANCH   3   4
ATOM      4  C   UNL A   1      31.843  27.855  27.018  1.00  0.00     0.338 C 
ATOM      5  O   UNL A   1      31.182  27.678  28.013  1.00  0.00    -0.246 OA
BRANCH   4   6
ATOM      6  C   UNL A   1      32.518  26.742  26.288  1.00  0.00     0.060 A 
ATOM      7  C   UNL A   1      33.751  24.742  24.702  1.00  0.00    -0.030 A 
ATOM      8  C   UNL A   1      34.069  26.103  24.539  1.00  0.00     0.006 A 
ATOM      9  C   UNL A   1      32.864  24.404  25.741  1.00  0.00     0.006 A 
ATOM     10  C   UNL A   1      33.472  27.089  25.328  1.00  0.00     0.016 A 
ATOM     11  C   UNL A   1      32.241  25.393  26.518  1.00  0.00     0.016 A 
BRANCH   7  12
ATOM     12  C   UNL A   1      34.319  23.735  23.708  1.00  0.00     0.119 C 
ATOM     13  C   UNL A   1      30.959  21.948  22.171  1.00  0.00     0.075 C 
ATOM     14  C   UNL A   1      32.335  22.054  22.770  1.00  0.00     0.074 C 
ATOM     15  N   UNL A   1      32.707  21.143  23.615  1.00  0.00    -0.227 NA
ATOM     16  S   UNL A   1      33.267  23.450  22.240  1.00  0.00    -0.098 SA
ATOM     17  C   UNL A   1      33.884  21.321  24.265  1.00  0.00     0.161 A 
ATOM     18  C   UNL A   1      34.629  22.471  24.415  1.00  0.00     0.038 A 
ATOM     19  N   UNL A   1      34.519  20.341  25.013  1.00  0.00    -0.215 N 
ATOM     20  C   UNL A   1      35.694  22.103  25.277  1.00  0.00     0.067 A 
ATOM     21  N   UNL A   1      35.570  20.842  25.707  1.00  0.00    -0.171 NA
ATOM     22  C   UNL A   1      36.855  22.908  25.734  1.00  0.00     0.069 C 
BRANCH  19  23
ATOM     23  C   UNL A   1      34.225  18.955  25.058  1.00  0.00     0.067 A 
ATOM     24  C   UNL A   1      33.015  18.508  25.610  1.00  0.00     0.031 A 
ATOM     25  C   UNL A   1      35.146  18.039  24.534  1.00  0.00     0.031 A 
ATOM     26  C   UNL A   1      32.735  17.142  25.645  1.00  0.00     0.041 A 
ATOM     27  C   UNL A   1      34.882  16.672  24.621  1.00  0.00     0.041 A 
ATOM     28  C   UNL A   1      33.679  16.237  25.169  1.00  0.00     0.123 A 
ATOM     29  F   UNL A   1      33.419  14.925  25.241  1.00  0.00    -0.207 F 
ENDBRANCH  19  23
ENDBRANCH   7  12
ENDBRANCH   4   6
ENDBRANCH   3   4
ENDBRANCH   2   3
ENDBRANCH   1   2
BRANCH   1  30
ATOM     30  O   UNL A   1      34.688  30.440  27.495  1.00  0.00    -0.458 OA
BRANCH  30  31
ATOM     31  C   UNL A   1      35.537  31.401  27.920  1.00  0.00     0.338 C 
ATOM     32  O   UNL A   1      35.526  32.586  27.617  1.00  0.00    -0.246 OA
BRANCH  31  33
ATOM     33  C   UNL A   1      36.657  30.782  28.627  1.00  0.00     0.060 A 
ATOM     34  C   UNL A   1      37.630  31.631  29.170  1.00  0.00     0.016 A 
ATOM     35  C   UNL A   1      36.867  29.405  28.482  1.00  0.00     0.016 A 
ATOM     36  C   UNL A   1      38.879  31.113  29.447  1.00  0.00     0.010 A 
ATOM     37  C   UNL A   1      38.114  28.896  28.740  1.00  0.00     0.010 A 
ATOM     38  C   UNL A   1      39.121  29.767  29.163  1.00  0.00    -0.014 A 
BRANCH  38  39
ATOM     39  C   UNL A   1      40.440  29.223  29.413  1.00  0.00     0.031 A 
ATOM     40  C   UNL A   1      40.721  28.952  30.846  1.00  0.00     0.074 A 
ATOM     41  C   UNL A   1      41.213  28.808  28.391  1.00  0.00     0.049 A 
ATOM     42  N   UNL A   1      41.747  29.323  31.539  1.00  0.00    -0.248 NA
ATOM     43  C   UNL A   1      39.673  28.283  31.638  1.00  0.00     0.031 C 
ATOM     44  C   UNL A   1      40.860  28.784  26.966  1.00  0.00     0.029 A 
ATOM     45  N   UNL A   1      42.397  28.136  28.429  1.00  0.00    -0.354 N 
ATOM     46  C   UNL A   1      41.567  28.759  32.798  1.00  0.00     0.074 A 
ATOM     47  C   UNL A   1      40.214  28.279  32.854  1.00  0.00     0.031 C 
ATOM     48  C   UNL A   1      41.659  27.898  26.332  1.00  0.00     0.029 A 
ATOM     49  C   UNL A   1      42.632  27.385  27.280  1.00  0.00     0.049 A 
ATOM     50  H   UNL A   1      43.020  28.175  29.189  1.00  0.00     0.167 HD
ATOM     51  C   UNL A   1      42.611  28.521  33.634  1.00  0.00     0.034 A 
ATOM     52  C   UNL A   1      43.484  26.337  27.160  1.00  0.00     0.034 A 
ATOM     53  C   UNL A   1      43.781  29.261  33.255  1.00  0.00     0.049 A 
ATOM     54  C   UNL A   1      44.434  26.406  28.295  1.00  0.00     0.074 A 
ATOM     55  C   UNL A   1      44.072  30.602  33.115  1.00  0.00     0.029 A 
ATOM     56  N   UNL A   1      44.768  28.578  32.587  1.00  0.00    -0.354 N 
ATOM     57  N   UNL A   1      45.331  27.341  28.432  1.00  0.00    -0.248 NA
ATOM     58  C   UNL A   1      44.117  25.662  29.505  1.00  0.00     0.031 C 
ATOM     59  C   UNL A   1      44.946  30.671  31.994  1.00  0.00     0.029 A 
ATOM     60  C   UNL A   1      45.177  29.368  31.546  1.00  0.00     0.049 A 
ATOM     61  H   UNL A   1      45.118  27.686  32.815  1.00  0.00     0.167 HD
ATOM     62  C   UNL A   1      45.347  27.606  29.795  1.00  0.00     0.074 A 
ATOM     63  C   UNL A   1      44.683  26.462  30.413  1.00  0.00     0.031 C 
ATOM     64  C   UNL A   1      45.619  28.860  30.265  1.00  0.00     0.034 A 
BRANCH  51  65
ATOM     65  C   UNL A   1      42.673  27.376  34.608  1.00  0.00     0.023 A 
ATOM     66  C   UNL A   1      42.329  27.638  35.950  1.00  0.00     0.012 A 
ATOM     67  C   UNL A   1      43.294  26.137  34.329  1.00  0.00     0.148 A 
ATOM     68  C   UNL A   1      42.616  26.724  36.968  1.00  0.00     0.002 A 
ATOM     69  C   UNL A   1      43.498  25.196  35.330  1.00  0.00     0.091 A 
ATOM     70  F   UNL A   1      43.817  25.908  33.120  1.00  0.00    -0.205 F 
ATOM     71  C   UNL A   1      43.188  25.496  36.657  1.00  0.00     0.022 A 
BRANCH  69  72
ATOM     72  S   UNL A   1      44.172  23.572  34.961  1.00  0.00     0.127 S 
ATOM     73  O   UNL A   1      43.065  22.950  34.241  1.00  0.00    -0.237 OA
ATOM     74  O   UNL A   1      45.336  23.908  34.141  1.00  0.00    -0.237 OA
ATOM     75  O   UNL A   1      44.506  22.992  36.256  1.00  0.00    -0.744 OA
ENDBRANCH  69  72
ENDBRANCH  51  65
BRANCH  52  76
ATOM     76  C   UNL A   1      43.385  25.142  26.288  1.00  0.00     0.023 A 
ATOM     77  C   UNL A   1      44.303  24.978  25.231  1.00  0.00     0.012 A 
ATOM     78  C   UNL A   1      42.568  24.041  26.633  1.00  0.00     0.148 A 
ATOM     79  C   UNL A   1      44.420  23.755  24.559  1.00  0.00     0.002 A 
ATOM     80  C   UNL A   1      42.678  22.832  25.952  1.00  0.00     0.091 A 
ATOM     81  F   UNL A   1      41.751  24.144  27.689  1.00  0.00    -0.205 F 
ATOM     82  C   UNL A   1      43.612  22.681  24.921  1.00  0.00     0.022 A 
BRANCH  80  83
ATOM     83  S   UNL A   1      41.678  21.400  26.384  1.00  0.00     0.127 S 
ATOM     84  O   UNL A   1      40.330  21.852  26.037  1.00  0.00    -0.237 OA
ATOM     85  O   UNL A   1      42.226  20.373  25.502  1.00  0.00    -0.237 OA
ATOM     86  O   UNL A   1      41.886  21.186  27.811  1.00  0.00    -0.744 OA
ENDBRANCH  80  83
ENDBRANCH  52  76
BRANCH  64  87
ATOM     87  C   UNL A   1      46.131  29.897  29.294  1.00  0.00     0.023 A 
ATOM     88  C   UNL A   1      47.493  29.968  28.930  1.00  0.00     0.012 A 
ATOM     89  C   UNL A   1      45.196  30.648  28.563  1.00  0.00     0.148 A 
ATOM     90  C   UNL A   1      47.913  30.777  27.873  1.00  0.00     0.002 A 
ATOM     91  C   UNL A   1      45.611  31.407  27.474  1.00  0.00     0.091 A 
ATOM     92  F   UNL A   1      43.904  30.571  28.916  1.00  0.00    -0.205 F 
ATOM     93  C   UNL A   1      46.970  31.483  27.132  1.00  0.00     0.022 A 
BRANCH  91  94
ATOM     94  S   UNL A   1      44.428  32.204  26.384  1.00  0.00     0.127 S 
ATOM     95  O   UNL A   1      43.934  33.298  27.216  1.00  0.00    -0.237 OA
ATOM     96  O   UNL A   1      45.266  32.621  25.259  1.00  0.00    -0.237 OA
ATOM     97  O   UNL A   1      43.447  31.180  26.043  1.00  0.00    -0.744 OA
ENDBRANCH  91  94
ENDBRANCH  64  87
ENDBRANCH  38  39
ENDBRANCH  31  33
ENDBRANCH  30  31
ENDBRANCH   1  30
TORSDOF 16
ENDMDL
MODEL 3
REMARK VINA RESULT:     -13.2      3.885      7.659
REMARK SMILES CC1=Nc2c(c(C)nn2-c2ccc(F)cc2)[C@H](c2ccc(C(=O)OCCOC(=O)c3ccc(-c4c5nc(c(-c6cccc(S(=O)(=O)[O-])c6F)c6ccc([nH]6)c(-c6cccc(S(=O)(=O)[O-])c6F)c6nc(c(-c7cccc(S(=O)(=O)[O-])c7F)c7ccc4[nH]7)C=C6)C=C5)cc3)cc2)S1
REMARK SMILES IDX 26 1 25 2 24 3 22 4 23 5 21 6 18 7 19 8 94 9 20 10 93 11
REMARK SMILES IDX 17 12 1 13 2 14 3 15 95 16 4 17 5 18 9 19 6 20 8 21 7 22
REMARK SMILES IDX 10 23 11 24 16 25 12 26 15 27 13 28 14 29 27 30 28 31 29 32
REMARK SMILES IDX 30 33 31 34 92 35 32 36 91 37 33 38 34 39 35 40 85 41 36 42
REMARK SMILES IDX 90 43 84 44 86 45 37 46 89 47 83 48 82 49 38 51 70 52 50 53
REMARK SMILES IDX 69 54 51 55 54 56 68 57 87 58 52 59 53 60 67 62 88 63 55 64
REMARK SMILES IDX 39 65 40 66 48 67 41 68 43 69 49 70 42 71 44 72 45 73 46 74
REMARK SMILES IDX 47 75 71 76 72 77 80 78 73 79 75 80 81 81 74 82 76 83 77 84
REMARK SMILES IDX 78 85 79 86 56 87 57 88 65 89 58 90 60 91 66 92 59 93 61 94
REMARK SMILES IDX 62 95 63 96 64 97
REMARK H PARENT 86 50 54 61
REMARK Flexibility Score: inf
ROOT
ATOM      1  C   UNL A   1      32.906  30.720  26.933  1.00  0.00     0.275 C 
ENDROOT
BRANCH   1   2
ATOM      2  C   UNL A   1      32.852  29.832  25.697  1.00  0.00     0.275 C 
BRANCH   2   3
ATOM      3  O   UNL A   1      31.640  30.049  24.954  1.00  0.00    -0.458 OA
BRANCH   3   4
ATOM      4  C   UNL A   1      31.305  29.040  24.098  1.00  0.00     0.338 C 
ATOM      5  O   UNL A   1      30.684  29.156  23.069  1.00  0.00    -0.246 OA
BRANCH   4   6
ATOM      6  C   UNL A   1      31.863  27.736  24.563  1.00  0.00     0.060 A 
ATOM      7  C   UNL A   1      32.922  25.348  25.664  1.00  0.00    -0.030 A 
ATOM      8  C   UNL A   1      31.775  25.956  26.206  1.00  0.00     0.006 A 
ATOM      9  C   UNL A   1      33.471  25.921  24.501  1.00  0.00     0.006 A 
ATOM     10  C   UNL A   1      31.245  27.126  25.657  1.00  0.00     0.016 A 
ATOM     11  C   UNL A   1      32.958  27.111  23.963  1.00  0.00     0.016 A 
BRANCH   7  12
ATOM     12  C   UNL A   1      33.539  24.164  26.401  1.00  0.00     0.119 C 
ATOM     13  C   UNL A   1      36.908  23.353  24.201  1.00  0.00     0.075 C 
ATOM     14  C   UNL A   1      35.630  23.085  24.950  1.00  0.00     0.074 C 
ATOM     15  N   UNL A   1      34.844  22.155  24.507  1.00  0.00    -0.227 NA
ATOM     16  S   UNL A   1      35.366  24.117  26.352  1.00  0.00    -0.098 SA
ATOM     17  C   UNL A   1      33.628  22.018  25.092  1.00  0.00     0.161 A 
ATOM     18  C   UNL A   1      32.944  22.907  25.893  1.00  0.00     0.038 A 
ATOM     19  N   UNL A   1      32.781  20.939  24.890  1.00  0.00    -0.215 N 
ATOM     20  C   UNL A   1      31.686  22.293  26.124  1.00  0.00     0.067 A 
ATOM     21  N   UNL A   1      31.560  21.149  25.440  1.00  0.00    -0.171 NA
ATOM     22  C   UNL A   1      30.559  22.749  26.977  1.00  0.00     0.069 C 
BRANCH  19  23
ATOM     23  C   UNL A   1      33.081  19.704  24.262  1.00  0.00     0.067 A 
ATOM     24  C   UNL A   1      32.267  19.224  23.225  1.00  0.00     0.031 A 
ATOM     25  C   UNL A   1      34.204  18.977  24.676  1.00  0.00     0.031 A 
ATOM     26  C   UNL A   1      32.576  18.009  22.612  1.00  0.00     0.041 A 
ATOM     27  C   UNL A   1      34.475  17.738  24.094  1.00  0.00     0.041 A 
ATOM     28  C   UNL A   1      33.663  17.269  23.065  1.00  0.00     0.123 A 
ATOM     29  F   UNL A   1      33.930  16.086  22.496  1.00  0.00    -0.207 F 
ENDBRANCH  19  23
ENDBRANCH   7  12
ENDBRANCH   4   6
ENDBRANCH   3   4
ENDBRANCH   2   3
ENDBRANCH   1   2
BRANCH   1  30
ATOM     30  O   UNL A   1      34.012  30.393  27.771  1.00  0.00    -0.458 OA
BRANCH  30  31
ATOM     31  C   UNL A   1      34.908  31.392  27.929  1.00  0.00     0.338 C 
ATOM     32  O   UNL A   1      34.861  32.513  27.445  1.00  0.00    -0.246 OA
BRANCH  31  33
ATOM     33  C   UNL A   1      36.107  30.869  28.583  1.00  0.00     0.060 A 
ATOM     34  C   UNL A   1      37.097  31.788  28.953  1.00  0.00     0.016 A 
ATOM     35  C   UNL A   1      36.348  29.489  28.546  1.00  0.00     0.016 A 
ATOM     36  C   UNL A   1      38.382  31.328  29.159  1.00  0.00     0.010 A 
ATOM     37  C   UNL A   1      37.629  29.037  28.733  1.00  0.00     0.010 A 
ATOM     38  C   UNL A   1      38.642  29.968  28.978  1.00  0.00    -0.014 A 
BRANCH  38  39
ATOM     39  C   UNL A   1      39.995  29.482  29.152  1.00  0.00     0.031 A 
ATOM     40  C   UNL A   1      40.431  29.403  30.570  1.00  0.00     0.074 A 
ATOM     41  C   UNL A   1      40.669  28.949  28.115  1.00  0.00     0.049 A 
ATOM     42  N   UNL A   1      41.512  29.878  31.096  1.00  0.00    -0.248 NA
ATOM     43  C   UNL A   1      39.492  28.827  31.548  1.00  0.00     0.031 C 
ATOM     44  C   UNL A   1      40.170  28.735  26.751  1.00  0.00     0.029 A 
ATOM     45  N   UNL A   1      41.869  28.306  28.112  1.00  0.00    -0.354 N 
ATOM     46  C   UNL A   1      41.481  29.479  32.429  1.00  0.00     0.074 A 
ATOM     47  C   UNL A   1      40.155  28.990  32.690  1.00  0.00     0.031 C 
ATOM     48  C   UNL A   1      40.924  27.786  26.154  1.00  0.00     0.029 A 
ATOM     49  C   UNL A   1      42.006  27.416  27.049  1.00  0.00     0.049 A 
ATOM     50  H   UNL A   1      42.567  28.454  28.790  1.00  0.00     0.167 HD
ATOM     51  C   UNL A   1      42.613  29.368  33.172  1.00  0.00     0.034 A 
ATOM     52  C   UNL A   1      42.871  26.375  26.974  1.00  0.00     0.034 A 
ATOM     53  C   UNL A   1      43.715  30.070  32.578  1.00  0.00     0.049 A 
ATOM     54  C   UNL A   1      43.931  26.605  27.982  1.00  0.00     0.074 A 
ATOM     55  C   UNL A   1      43.951  31.386  32.238  1.00  0.00     0.029 A 
ATOM     56  N   UNL A   1      44.647  29.322  31.902  1.00  0.00    -0.354 N 
ATOM     57  N   UNL A   1      44.810  27.564  27.902  1.00  0.00    -0.248 NA
ATOM     58  C   UNL A   1      43.763  26.020  29.305  1.00  0.00     0.031 C 
ATOM     59  C   UNL A   1      44.701  31.323  31.031  1.00  0.00     0.029 A 
ATOM     60  C   UNL A   1      44.921  29.976  30.730  1.00  0.00     0.049 A 
ATOM     61  H   UNL A   1      45.044  28.473  32.203  1.00  0.00     0.167 HD
ATOM     62  C   UNL A   1      44.960  28.004  29.210  1.00  0.00     0.074 A 
ATOM     63  C   UNL A   1      44.397  26.940  30.037  1.00  0.00     0.031 C 
ATOM     64  C   UNL A   1      45.243  29.313  29.485  1.00  0.00     0.034 A 
BRANCH  51  65
ATOM     65  C   UNL A   1      42.809  28.361  34.271  1.00  0.00     0.023 A 
ATOM     66  C   UNL A   1      43.042  28.849  35.574  1.00  0.00     0.012 A 
ATOM     67  C   UNL A   1      43.034  26.983  34.047  1.00  0.00     0.148 A 
ATOM     68  C   UNL A   1      43.503  28.013  36.595  1.00  0.00     0.002 A 
ATOM     69  C   UNL A   1      43.408  26.140  35.086  1.00  0.00     0.091 A 
ATOM     70  F   UNL A   1      43.020  26.497  32.802  1.00  0.00    -0.205 F 
ATOM     71  C   UNL A   1      43.674  26.654  36.355  1.00  0.00     0.022 A 
BRANCH  69  72
ATOM     72  S   UNL A   1      43.574  24.369  34.836  1.00  0.00     0.127 S 
ATOM     73  O   UNL A   1      44.029  24.308  33.449  1.00  0.00    -0.237 OA
ATOM     74  O   UNL A   1      44.583  24.016  35.835  1.00  0.00    -0.237 OA
ATOM     75  O   UNL A   1      42.252  23.817  35.107  1.00  0.00    -0.744 OA
ENDBRANCH  69  72
ENDBRANCH  51  65
BRANCH  52  76
ATOM     76  C   UNL A   1      42.717  25.075  26.277  1.00  0.00     0.023 A 
ATOM     77  C   UNL A   1      43.681  24.679  25.329  1.00  0.00     0.012 A 
ATOM     78  C   UNL A   1      41.778  24.111  26.712  1.00  0.00     0.148 A 
ATOM     79  C   UNL A   1      43.727  23.363  24.851  1.00  0.00     0.002 A 
ATOM     80  C   UNL A   1      41.818  22.808  26.221  1.00  0.00     0.091 A 
ATOM     81  F   UNL A   1      40.908  24.438  27.674  1.00  0.00    -0.205 F 
ATOM     82  C   UNL A   1      42.799  22.427  25.299  1.00  0.00     0.022 A 
BRANCH  80  83
ATOM     83  S   UNL A   1      40.661  21.546  26.775  1.00  0.00     0.127 S 
ATOM     84  O   UNL A   1      39.380  22.082  26.312  1.00  0.00    -0.237 OA
ATOM     85  O   UNL A   1      41.130  20.369  26.049  1.00  0.00    -0.237 OA
ATOM     86  O   UNL A   1      40.796  21.492  28.225  1.00  0.00    -0.744 OA
ENDBRANCH  80  83
ENDBRANCH  52  76
BRANCH  64  87
ATOM     87  C   UNL A   1      45.620  30.223  28.340  1.00  0.00     0.023 A 
ATOM     88  C   UNL A   1      44.659  31.001  27.660  1.00  0.00     0.012 A 
ATOM     89  C   UNL A   1      46.982  30.475  28.107  1.00  0.00     0.148 A 
ATOM     90  C   UNL A   1      45.046  31.997  26.761  1.00  0.00     0.002 A 
ATOM     91  C   UNL A   1      47.364  31.506  27.256  1.00  0.00     0.091 A 
ATOM     92  F   UNL A   1      47.887  29.731  28.761  1.00  0.00    -0.205 F 
ATOM     93  C   UNL A   1      46.398  32.263  26.573  1.00  0.00     0.022 A 
BRANCH  91  94
ATOM     94  S   UNL A   1      49.081  32.003  27.100  1.00  0.00     0.127 S 
ATOM     95  O   UNL A   1      48.993  33.117  26.159  1.00  0.00    -0.237 OA
ATOM     96  O   UNL A   1      49.426  32.386  28.470  1.00  0.00    -0.237 OA
ATOM     97  O   UNL A   1      49.795  30.826  26.617  1.00  0.00    -0.744 OA
ENDBRANCH  91  94
ENDBRANCH  64  87
ENDBRANCH  38  39
ENDBRANCH  31  33
ENDBRANCH  30  31
ENDBRANCH   1  30
TORSDOF 16
ENDMDL
