MODEL 1
REMARK VINA RESULT:     -10.4      0.000      0.000
REMARK SMILES O=C(CCC(=O)OCCOC(=O)c1ccc(-c2c3nc(c(-c4cccc(S(=O)(=O)[O-])c4F)c4ccc([nH]4)c(-c4cccc(S(=O)(=O)[O-])c4F)c4nc(c(-c5cccc(S(=O)(=O)[O-])c5F)c5ccc2[nH]5)C=C4)C=C3)cc1)Nc1cccc2c1C(=O)c1ccccc1C2=O
REMARK SMILES IDX 8 1 7 2 5 3 6 4 4 5 3 6 2 7 1 8 76 9 77 11 78 12 82 13 79 14
REMARK SMILES IDX 81 15 83 16 80 17 91 18 84 19 85 20 90 21 92 22 86 23 89 24
REMARK SMILES IDX 87 25 88 26 9 27 10 28 11 29 12 30 13 31 14 32 75 33 15 34
REMARK SMILES IDX 74 35 16 36 17 37 18 38 68 39 19 40 73 41 67 42 69 43 20 44
REMARK SMILES IDX 72 45 66 46 65 47 21 49 53 50 33 51 52 52 34 53 37 54 51 55
REMARK SMILES IDX 70 56 35 57 36 58 50 60 71 61 38 62 22 63 23 64 31 65 24 66
REMARK SMILES IDX 26 67 32 68 25 69 27 70 28 71 29 72 30 73 54 74 55 75 63 76
REMARK SMILES IDX 56 77 58 78 64 79 57 80 59 81 60 82 61 83 62 84 39 85 40 86
REMARK SMILES IDX 48 87 41 88 43 89 49 90 42 91 44 92 45 93 46 94 47 95
REMARK H PARENT 76 10 69 48 37 59
REMARK Flexibility Score: inf
ROOT
ATOM      1  C   UNL A   1      33.476  34.455  28.067  1.00  0.00     0.274 C 
ENDROOT
BRANCH   1   2
ATOM      2  O   UNL A   1      32.938  34.703  29.389  1.00  0.00    -0.462 OA
BRANCH   2   3
ATOM      3  C   UNL A   1      32.822  36.005  29.768  1.00  0.00     0.306 C 
ATOM      4  O   UNL A   1      33.095  36.962  29.057  1.00  0.00    -0.252 OA
BRANCH   3   5
ATOM      5  C   UNL A   1      32.455  36.142  31.235  1.00  0.00     0.132 C 
BRANCH   5   6
ATOM      6  C   UNL A   1      33.159  35.165  32.170  1.00  0.00     0.112 C 
BRANCH   6   7
ATOM      7  C   UNL A   1      34.676  35.286  32.341  1.00  0.00     0.224 C 
ATOM      8  O   UNL A   1      35.133  35.908  33.297  1.00  0.00    -0.275 OA
ATOM      9  N   UNL A   1      35.418  34.464  31.507  1.00  0.00    -0.325 N 
ATOM     10  H   UNL A   1      35.153  34.392  30.562  1.00  0.00     0.169 HD
BRANCH   9  11
ATOM     11  C   UNL A   1      36.544  33.724  31.954  1.00  0.00     0.053 A 
ATOM     12  C   UNL A   1      36.213  32.656  32.800  1.00  0.00     0.027 A 
ATOM     13  C   UNL A   1      37.857  34.199  31.964  1.00  0.00     0.057 A 
ATOM     14  C   UNL A   1      37.060  32.304  33.849  1.00  0.00     0.003 A 
ATOM     15  C   UNL A   1      38.634  33.951  33.093  1.00  0.00     0.036 A 
ATOM     16  C   UNL A   1      38.590  34.462  30.689  1.00  0.00     0.196 C 
ATOM     17  C   UNL A   1      38.230  33.027  34.057  1.00  0.00     0.013 A 
ATOM     18  C   UNL A   1      39.960  34.565  33.204  1.00  0.00     0.194 C 
ATOM     19  O   UNL A   1      38.028  34.444  29.600  1.00  0.00    -0.288 OA
ATOM     20  C   UNL A   1      40.082  34.513  30.740  1.00  0.00     0.034 A 
ATOM     21  C   UNL A   1      40.737  34.658  31.963  1.00  0.00     0.034 A 
ATOM     22  O   UNL A   1      40.433  34.863  34.293  1.00  0.00    -0.289 OA
ATOM     23  C   UNL A   1      40.847  34.298  29.589  1.00  0.00     0.013 A 
ATOM     24  C   UNL A   1      42.133  34.684  32.043  1.00  0.00     0.013 A 
ATOM     25  C   UNL A   1      42.245  34.252  29.673  1.00  0.00     0.001 A 
ATOM     26  C   UNL A   1      42.887  34.469  30.894  1.00  0.00     0.001 A 
ENDBRANCH   9  11
ENDBRANCH   6   7
ENDBRANCH   5   6
ENDBRANCH   3   5
ENDBRANCH   2   3
ENDBRANCH   1   2
BRANCH   1  27
ATOM     27  C   UNL A   1      34.853  33.787  28.107  1.00  0.00     0.275 C 
BRANCH  27  28
ATOM     28  O   UNL A   1      34.914  32.768  29.117  1.00  0.00    -0.458 OA
BRANCH  28  29
ATOM     29  C   UNL A   1      34.833  31.499  28.653  1.00  0.00     0.338 C 
ATOM     30  O   UNL A   1      33.872  30.993  28.098  1.00  0.00    -0.246 OA
BRANCH  29  31
ATOM     31  C   UNL A   1      36.131  30.817  28.801  1.00  0.00     0.060 A 
ATOM     32  C   UNL A   1      36.254  29.879  29.831  1.00  0.00     0.016 A 
ATOM     33  C   UNL A   1      37.228  31.135  27.995  1.00  0.00     0.016 A 
ATOM     34  C   UNL A   1      37.485  29.279  30.081  1.00  0.00     0.010 A 
ATOM     35  C   UNL A   1      38.465  30.532  28.249  1.00  0.00     0.010 A 
ATOM     36  C   UNL A   1      38.603  29.622  29.309  1.00  0.00    -0.014 A 
BRANCH  36  37
ATOM     37  C   UNL A   1      39.932  29.082  29.678  1.00  0.00     0.031 A 
ATOM     38  C   UNL A   1      40.706  29.723  30.793  1.00  0.00     0.074 A 
ATOM     39  C   UNL A   1      40.427  28.010  29.034  1.00  0.00     0.049 A 
ATOM     40  N   UNL A   1      41.861  29.376  31.301  1.00  0.00    -0.248 NA
ATOM     41  C   UNL A   1      40.104  30.910  31.424  1.00  0.00     0.031 C 
ATOM     42  C   UNL A   1      39.773  27.316  27.924  1.00  0.00     0.029 A 
ATOM     43  N   UNL A   1      41.598  27.321  29.218  1.00  0.00    -0.354 N 
ATOM     44  C   UNL A   1      42.128  30.301  32.302  1.00  0.00     0.074 A 
ATOM     45  C   UNL A   1      41.024  31.237  32.321  1.00  0.00     0.031 C 
ATOM     46  C   UNL A   1      40.561  26.307  27.515  1.00  0.00     0.029 A 
ATOM     47  C   UNL A   1      41.772  26.283  28.334  1.00  0.00     0.049 A 
ATOM     48  H   UNL A   1      42.253  27.549  29.917  1.00  0.00     0.167 HD
ATOM     49  C   UNL A   1      43.184  30.351  33.146  1.00  0.00     0.034 A 
ATOM     50  C   UNL A   1      42.787  25.407  28.208  1.00  0.00     0.034 A 
ATOM     51  C   UNL A   1      44.271  29.412  33.140  1.00  0.00     0.049 A 
ATOM     52  C   UNL A   1      43.931  25.463  29.188  1.00  0.00     0.074 A 
ATOM     53  C   UNL A   1      45.398  29.392  33.944  1.00  0.00     0.029 A 
ATOM     54  N   UNL A   1      44.363  28.318  32.295  1.00  0.00    -0.354 N 
ATOM     55  N   UNL A   1      44.113  26.282  30.195  1.00  0.00    -0.248 NA
ATOM     56  C   UNL A   1      44.984  24.448  29.041  1.00  0.00     0.031 C 
ATOM     57  C   UNL A   1      46.163  28.274  33.594  1.00  0.00     0.029 A 
ATOM     58  C   UNL A   1      45.515  27.604  32.569  1.00  0.00     0.049 A 
ATOM     59  H   UNL A   1      43.705  28.084  31.600  1.00  0.00     0.167 HD
ATOM     60  C   UNL A   1      45.283  25.864  30.820  1.00  0.00     0.074 A 
ATOM     61  C   UNL A   1      45.754  24.704  30.091  1.00  0.00     0.031 C 
ATOM     62  C   UNL A   1      45.925  26.406  31.883  1.00  0.00     0.034 A 
BRANCH  49  63
ATOM     63  C   UNL A   1      43.178  31.425  34.198  1.00  0.00     0.023 A 
ATOM     64  C   UNL A   1      44.009  32.549  34.022  1.00  0.00     0.012 A 
ATOM     65  C   UNL A   1      42.330  31.355  35.319  1.00  0.00     0.148 A 
ATOM     66  C   UNL A   1      44.008  33.584  34.956  1.00  0.00     0.002 A 
ATOM     67  C   UNL A   1      42.316  32.404  36.232  1.00  0.00     0.091 A 
ATOM     68  F   UNL A   1      41.572  30.262  35.482  1.00  0.00    -0.205 F 
ATOM     69  C   UNL A   1      43.155  33.516  36.054  1.00  0.00     0.022 A 
BRANCH  67  70
ATOM     70  S   UNL A   1      41.213  32.426  37.650  1.00  0.00     0.127 S 
ATOM     71  O   UNL A   1      40.006  31.814  37.095  1.00  0.00    -0.237 OA
ATOM     72  O   UNL A   1      41.928  31.594  38.618  1.00  0.00    -0.237 OA
ATOM     73  O   UNL A   1      41.091  33.826  38.035  1.00  0.00    -0.744 OA
ENDBRANCH  67  70
ENDBRANCH  49  63
BRANCH  50  74
ATOM     74  C   UNL A   1      42.725  24.347  27.166  1.00  0.00     0.023 A 
ATOM     75  C   UNL A   1      43.345  24.564  25.920  1.00  0.00     0.012 A 
ATOM     76  C   UNL A   1      42.085  23.117  27.407  1.00  0.00     0.148 A 
ATOM     77  C   UNL A   1      43.307  23.586  24.926  1.00  0.00     0.002 A 
ATOM     78  C   UNL A   1      42.094  22.127  26.429  1.00  0.00     0.091 A 
ATOM     79  F   UNL A   1      41.479  22.928  28.588  1.00  0.00    -0.205 F 
ATOM     80  C   UNL A   1      42.691  22.363  25.183  1.00  0.00     0.022 A 
BRANCH  78  81
ATOM     81  S   UNL A   1      41.421  20.497  26.772  1.00  0.00     0.127 S 
ATOM     82  O   UNL A   1      42.228  20.064  27.907  1.00  0.00    -0.237 OA
ATOM     83  O   UNL A   1      40.021  20.785  27.088  1.00  0.00    -0.237 OA
ATOM     84  O   UNL A   1      41.605  19.764  25.525  1.00  0.00    -0.744 OA
ENDBRANCH  78  81
ENDBRANCH  50  74
BRANCH  62  85
ATOM     85  C   UNL A   1      47.192  25.743  32.343  1.00  0.00     0.023 A 
ATOM     86  C   UNL A   1      48.408  26.068  31.711  1.00  0.00     0.012 A 
ATOM     87  C   UNL A   1      47.197  24.863  33.442  1.00  0.00     0.148 A 
ATOM     88  C   UNL A   1      49.607  25.511  32.153  1.00  0.00     0.002 A 
ATOM     89  C   UNL A   1      48.402  24.336  33.897  1.00  0.00     0.091 A 
ATOM     90  F   UNL A   1      46.029  24.543  34.019  1.00  0.00    -0.205 F 
ATOM     91  C   UNL A   1      49.606  24.655  33.252  1.00  0.00     0.022 A 
BRANCH  89  92
ATOM     92  S   UNL A   1      48.460  23.285  35.353  1.00  0.00     0.127 S 
ATOM     93  O   UNL A   1      49.890  23.013  35.476  1.00  0.00    -0.237 OA
ATOM     94  O   UNL A   1      47.914  24.149  36.402  1.00  0.00    -0.237 OA
ATOM     95  O   UNL A   1      47.615  22.143  35.025  1.00  0.00    -0.744 OA
ENDBRANCH  89  92
ENDBRANCH  62  85
ENDBRANCH  36  37
ENDBRANCH  29  31
ENDBRANCH  28  29
ENDBRANCH  27  28
ENDBRANCH   1  27
TORSDOF 17
ENDMDL
MODEL 2
REMARK VINA RESULT:     -10.4      4.512      8.275
REMARK SMILES O=C(CCC(=O)OCCOC(=O)c1ccc(-c2c3nc(c(-c4cccc(S(=O)(=O)[O-])c4F)c4ccc([nH]4)c(-c4cccc(S(=O)(=O)[O-])c4F)c4nc(c(-c5cccc(S(=O)(=O)[O-])c5F)c5ccc2[nH]5)C=C4)C=C3)cc1)Nc1cccc2c1C(=O)c1ccccc1C2=O
REMARK SMILES IDX 8 1 7 2 5 3 6 4 4 5 3 6 2 7 1 8 76 9 77 11 78 12 82 13 79 14
REMARK SMILES IDX 81 15 83 16 80 17 91 18 84 19 85 20 90 21 92 22 86 23 89 24
REMARK SMILES IDX 87 25 88 26 9 27 10 28 11 29 12 30 13 31 14 32 75 33 15 34
REMARK SMILES IDX 74 35 16 36 17 37 18 38 68 39 19 40 73 41 67 42 69 43 20 44
REMARK SMILES IDX 72 45 66 46 65 47 21 49 53 50 33 51 52 52 34 53 37 54 51 55
REMARK SMILES IDX 70 56 35 57 36 58 50 60 71 61 38 62 22 63 23 64 31 65 24 66
REMARK SMILES IDX 26 67 32 68 25 69 27 70 28 71 29 72 30 73 54 74 55 75 63 76
REMARK SMILES IDX 56 77 58 78 64 79 57 80 59 81 60 82 61 83 62 84 39 85 40 86
REMARK SMILES IDX 48 87 41 88 43 89 49 90 42 91 44 92 45 93 46 94 47 95
REMARK H PARENT 76 10 69 48 37 59
REMARK Flexibility Score: inf
ROOT
ATOM      1  C   UNL A   1      31.469  29.709  25.050  1.00  0.00     0.274 C 
ENDROOT
BRANCH   1   2
ATOM      2  O   UNL A   1      32.778  29.103  24.928  1.00  0.00    -0.462 OA
BRANCH   2   3
ATOM      3  C   UNL A   1      32.860  27.767  25.174  1.00  0.00     0.306 C 
ATOM      4  O   UNL A   1      33.434  27.272  26.133  1.00  0.00    -0.252 OA
BRANCH   3   5
ATOM      5  C   UNL A   1      32.283  26.941  24.038  1.00  0.00     0.132 C 
BRANCH   5   6
ATOM      6  C   UNL A   1      33.314  26.313  23.108  1.00  0.00     0.112 C 
BRANCH   6   7
ATOM      7  C   UNL A   1      33.592  24.812  23.236  1.00  0.00     0.224 C 
ATOM      8  O   UNL A   1      34.643  24.348  22.800  1.00  0.00    -0.275 OA
ATOM      9  N   UNL A   1      32.712  24.132  24.063  1.00  0.00    -0.325 N 
ATOM     10  H   UNL A   1      31.750  24.329  23.989  1.00  0.00     0.169 HD
BRANCH   9  11
ATOM     11  C   UNL A   1      33.135  23.161  25.009  1.00  0.00     0.053 A 
ATOM     12  C   UNL A   1      33.362  23.688  26.288  1.00  0.00     0.027 A 
ATOM     13  C   UNL A   1      33.704  21.928  24.686  1.00  0.00     0.057 A 
ATOM     14  C   UNL A   1      34.384  23.176  27.085  1.00  0.00     0.003 A 
ATOM     15  C   UNL A   1      34.817  21.510  25.412  1.00  0.00     0.036 A 
ATOM     16  C   UNL A   1      32.901  20.861  24.015  1.00  0.00     0.196 C 
ATOM     17  C   UNL A   1      35.182  22.147  26.598  1.00  0.00     0.013 A 
ATOM     18  C   UNL A   1      35.532  20.299  25.000  1.00  0.00     0.194 C 
ATOM     19  O   UNL A   1      31.781  21.076  23.566  1.00  0.00    -0.288 OA
ATOM     20  C   UNL A   1      33.392  19.455  24.112  1.00  0.00     0.034 A 
ATOM     21  C   UNL A   1      34.705  19.195  24.503  1.00  0.00     0.034 A 
ATOM     22  O   UNL A   1      36.737  20.180  25.184  1.00  0.00    -0.289 OA
ATOM     23  C   UNL A   1      32.519  18.376  23.931  1.00  0.00     0.013 A 
ATOM     24  C   UNL A   1      35.184  17.887  24.625  1.00  0.00     0.013 A 
ATOM     25  C   UNL A   1      32.974  17.065  24.121  1.00  0.00     0.001 A 
ATOM     26  C   UNL A   1      34.310  16.820  24.445  1.00  0.00     0.001 A 
ENDBRANCH   9  11
ENDBRANCH   6   7
ENDBRANCH   5   6
ENDBRANCH   3   5
ENDBRANCH   2   3
ENDBRANCH   1   2
BRANCH   1  27
ATOM     27  C   UNL A   1      31.462  30.913  25.997  1.00  0.00     0.275 C 
BRANCH  27  28
ATOM     28  O   UNL A   1      32.421  30.755  27.055  1.00  0.00    -0.458 OA
BRANCH  28  29
ATOM     29  C   UNL A   1      33.179  31.848  27.305  1.00  0.00     0.338 C 
ATOM     30  O   UNL A   1      32.812  33.010  27.250  1.00  0.00    -0.246 OA
BRANCH  29  31
ATOM     31  C   UNL A   1      34.514  31.445  27.782  1.00  0.00     0.060 A 
ATOM     32  C   UNL A   1      34.713  30.093  28.079  1.00  0.00     0.016 A 
ATOM     33  C   UNL A   1      35.532  32.379  27.999  1.00  0.00     0.016 A 
ATOM     34  C   UNL A   1      35.922  29.674  28.628  1.00  0.00     0.010 A 
ATOM     35  C   UNL A   1      36.745  31.955  28.552  1.00  0.00     0.010 A 
ATOM     36  C   UNL A   1      36.935  30.606  28.893  1.00  0.00    -0.014 A 
BRANCH  36  37
ATOM     37  C   UNL A   1      38.157  30.167  29.604  1.00  0.00     0.031 A 
ATOM     38  C   UNL A   1      38.421  30.666  30.996  1.00  0.00     0.074 A 
ATOM     39  C   UNL A   1      39.008  29.307  29.016  1.00  0.00     0.049 A 
ATOM     40  N   UNL A   1      39.403  30.367  31.806  1.00  0.00    -0.248 NA
ATOM     41  C   UNL A   1      37.453  31.627  31.551  1.00  0.00     0.031 C 
ATOM     42  C   UNL A   1      38.864  28.771  27.663  1.00  0.00     0.029 A 
ATOM     43  N   UNL A   1      40.167  28.741  29.482  1.00  0.00    -0.354 N 
ATOM     44  C   UNL A   1      39.179  31.105  32.961  1.00  0.00     0.074 A 
ATOM     45  C   UNL A   1      37.977  31.881  32.743  1.00  0.00     0.031 C 
ATOM     46  C   UNL A   1      39.905  27.961  27.401  1.00  0.00     0.029 A 
ATOM     47  C   UNL A   1      40.786  27.922  28.567  1.00  0.00     0.049 A 
ATOM     48  H   UNL A   1      40.521  28.905  30.386  1.00  0.00     0.167 HD
ATOM     49  C   UNL A   1      39.894  31.115  34.110  1.00  0.00     0.034 A 
ATOM     50  C   UNL A   1      41.928  27.215  28.665  1.00  0.00     0.034 A 
ATOM     51  C   UNL A   1      41.077  30.331  34.334  1.00  0.00     0.049 A 
ATOM     52  C   UNL A   1      42.682  27.216  29.969  1.00  0.00     0.074 A 
ATOM     53  C   UNL A   1      41.884  30.290  35.458  1.00  0.00     0.029 A 
ATOM     54  N   UNL A   1      41.618  29.441  33.420  1.00  0.00    -0.354 N 
ATOM     55  N   UNL A   1      42.395  27.838  31.087  1.00  0.00    -0.248 NA
ATOM     56  C   UNL A   1      43.891  26.381  30.040  1.00  0.00     0.031 C 
ATOM     57  C   UNL A   1      42.905  29.360  35.228  1.00  0.00     0.029 A 
ATOM     58  C   UNL A   1      42.736  28.830  33.959  1.00  0.00     0.049 A 
ATOM     59  H   UNL A   1      41.260  29.271  32.518  1.00  0.00     0.167 HD
ATOM     60  C   UNL A   1      43.369  27.449  32.001  1.00  0.00     0.074 A 
ATOM     61  C   UNL A   1      44.239  26.517  31.313  1.00  0.00     0.031 C 
ATOM     62  C   UNL A   1      43.542  27.846  33.285  1.00  0.00     0.034 A 
BRANCH  49  63
ATOM     63  C   UNL A   1      39.373  31.955  35.241  1.00  0.00     0.023 A 
ATOM     64  C   UNL A   1      38.399  31.406  36.099  1.00  0.00     0.012 A 
ATOM     65  C   UNL A   1      39.868  33.249  35.490  1.00  0.00     0.148 A 
ATOM     66  C   UNL A   1      37.914  32.139  37.182  1.00  0.00     0.002 A 
ATOM     67  C   UNL A   1      39.398  33.962  36.587  1.00  0.00     0.091 A 
ATOM     68  F   UNL A   1      40.770  33.762  34.642  1.00  0.00    -0.205 F 
ATOM     69  C   UNL A   1      38.420  33.411  37.430  1.00  0.00     0.022 A 
BRANCH  67  70
ATOM     70  S   UNL A   1      40.030  35.589  37.014  1.00  0.00     0.127 S 
ATOM     71  O   UNL A   1      39.651  36.371  35.839  1.00  0.00    -0.237 OA
ATOM     72  O   UNL A   1      39.280  35.909  38.228  1.00  0.00    -0.237 OA
ATOM     73  O   UNL A   1      41.462  35.415  37.221  1.00  0.00    -0.744 OA
ENDBRANCH  67  70
ENDBRANCH  49  63
BRANCH  50  74
ATOM     74  C   UNL A   1      42.380  26.378  27.520  1.00  0.00     0.023 A 
ATOM     75  C   UNL A   1      43.247  26.933  26.558  1.00  0.00     0.012 A 
ATOM     76  C   UNL A   1      41.985  25.034  27.393  1.00  0.00     0.148 A 
ATOM     77  C   UNL A   1      43.691  26.169  25.478  1.00  0.00     0.002 A 
ATOM     78  C   UNL A   1      42.471  24.265  26.340  1.00  0.00     0.091 A 
ATOM     79  F   UNL A   1      41.142  24.523  28.301  1.00  0.00    -0.205 F 
ATOM     80  C   UNL A   1      43.313  24.833  25.373  1.00  0.00     0.022 A 
BRANCH  78  81
ATOM     81  S   UNL A   1      42.106  22.509  26.245  1.00  0.00     0.127 S 
ATOM     82  O   UNL A   1      42.775  22.122  25.008  1.00  0.00    -0.237 OA
ATOM     83  O   UNL A   1      42.722  21.984  27.465  1.00  0.00    -0.237 OA
ATOM     84  O   UNL A   1      40.649  22.444  26.245  1.00  0.00    -0.744 OA
ENDBRANCH  78  81
ENDBRANCH  50  74
BRANCH  62  85
ATOM     85  C   UNL A   1      44.701  27.262  34.043  1.00  0.00     0.023 A 
ATOM     86  C   UNL A   1      45.935  27.940  34.045  1.00  0.00     0.012 A 
ATOM     87  C   UNL A   1      44.552  26.093  34.813  1.00  0.00     0.148 A 
ATOM     88  C   UNL A   1      47.011  27.452  34.785  1.00  0.00     0.002 A 
ATOM     89  C   UNL A   1      45.621  25.629  35.573  1.00  0.00     0.091 A 
ATOM     90  F   UNL A   1      43.379  25.443  34.782  1.00  0.00    -0.205 F 
ATOM     91  C   UNL A   1      46.851  26.303  35.557  1.00  0.00     0.022 A 
BRANCH  89  92
ATOM     92  S   UNL A   1      45.443  24.195  36.641  1.00  0.00     0.127 S 
ATOM     93  O   UNL A   1      44.970  23.176  35.707  1.00  0.00    -0.237 OA
ATOM     94  O   UNL A   1      46.805  23.982  37.133  1.00  0.00    -0.237 OA
ATOM     95  O   UNL A   1      44.497  24.610  37.671  1.00  0.00    -0.744 OA
ENDBRANCH  89  92
ENDBRANCH  62  85
ENDBRANCH  36  37
ENDBRANCH  29  31
ENDBRANCH  28  29
ENDBRANCH  27  28
ENDBRANCH   1  27
TORSDOF 17
ENDMDL
MODEL 3
REMARK VINA RESULT:     -10.4      5.588     11.563
REMARK SMILES O=C(CCC(=O)OCCOC(=O)c1ccc(-c2c3nc(c(-c4cccc(S(=O)(=O)[O-])c4F)c4ccc([nH]4)c(-c4cccc(S(=O)(=O)[O-])c4F)c4nc(c(-c5cccc(S(=O)(=O)[O-])c5F)c5ccc2[nH]5)C=C4)C=C3)cc1)Nc1cccc2c1C(=O)c1ccccc1C2=O
REMARK SMILES IDX 8 1 7 2 5 3 6 4 4 5 3 6 2 7 1 8 76 9 77 11 78 12 82 13 79 14
REMARK SMILES IDX 81 15 83 16 80 17 91 18 84 19 85 20 90 21 92 22 86 23 89 24
REMARK SMILES IDX 87 25 88 26 9 27 10 28 11 29 12 30 13 31 14 32 75 33 15 34
REMARK SMILES IDX 74 35 16 36 17 37 18 38 68 39 19 40 73 41 67 42 69 43 20 44
REMARK SMILES IDX 72 45 66 46 65 47 21 49 53 50 33 51 52 52 34 53 37 54 51 55
REMARK SMILES IDX 70 56 35 57 36 58 50 60 71 61 38 62 22 63 23 64 31 65 24 66
REMARK SMILES IDX 26 67 32 68 25 69 27 70 28 71 29 72 30 73 54 74 55 75 63 76
REMARK SMILES IDX 56 77 58 78 64 79 57 80 59 81 60 82 61 83 62 84 39 85 40 86
REMARK SMILES IDX 48 87 41 88 43 89 49 90 42 91 44 92 45 93 46 94 47 95
REMARK H PARENT 76 10 69 48 37 59
REMARK Flexibility Score: inf
ROOT
ATOM      1  C   UNL A   1      35.654  21.247  25.218  1.00  0.00     0.274 C 
ENDROOT
BRANCH   1   2
ATOM      2  O   UNL A   1      35.607  22.543  24.576  1.00  0.00    -0.462 OA
BRANCH   2   3
ATOM      3  C   UNL A   1      34.412  23.195  24.598  1.00  0.00     0.306 C 
ATOM      4  O   UNL A   1      33.739  23.441  23.608  1.00  0.00    -0.252 OA
BRANCH   3   5
ATOM      5  C   UNL A   1      34.075  23.721  25.982  1.00  0.00     0.132 C 
BRANCH   5   6
ATOM      6  C   UNL A   1      32.585  23.853  26.277  1.00  0.00     0.112 C 
BRANCH   6   7
ATOM      7  C   UNL A   1      31.894  25.181  25.955  1.00  0.00     0.224 C 
ATOM      8  O   UNL A   1      31.610  25.956  26.866  1.00  0.00    -0.275 OA
ATOM      9  N   UNL A   1      31.860  25.502  24.607  1.00  0.00    -0.325 N 
ATOM     10  H   UNL A   1      31.630  24.795  23.962  1.00  0.00     0.169 HD
BRANCH   9  11
ATOM     11  C   UNL A   1      32.140  26.805  24.115  1.00  0.00     0.053 A 
ATOM     12  C   UNL A   1      33.500  27.028  23.863  1.00  0.00     0.027 A 
ATOM     13  C   UNL A   1      31.299  27.909  24.263  1.00  0.00     0.057 A 
ATOM     14  C   UNL A   1      34.057  28.286  24.088  1.00  0.00     0.003 A 
ATOM     15  C   UNL A   1      31.874  29.124  24.629  1.00  0.00     0.036 A 
ATOM     16  C   UNL A   1      29.981  27.974  23.562  1.00  0.00     0.196 C 
ATOM     17  C   UNL A   1      33.254  29.313  24.573  1.00  0.00     0.013 A 
ATOM     18  C   UNL A   1      31.008  30.264  24.944  1.00  0.00     0.194 C 
ATOM     19  O   UNL A   1      29.507  27.005  22.979  1.00  0.00    -0.288 OA
ATOM     20  C   UNL A   1      29.355  29.316  23.377  1.00  0.00     0.034 A 
ATOM     21  C   UNL A   1      29.800  30.407  24.125  1.00  0.00     0.034 A 
ATOM     22  O   UNL A   1      31.347  31.113  25.759  1.00  0.00    -0.289 OA
ATOM     23  C   UNL A   1      28.401  29.532  22.376  1.00  0.00     0.013 A 
ATOM     24  C   UNL A   1      29.248  31.680  23.955  1.00  0.00     0.013 A 
ATOM     25  C   UNL A   1      27.896  30.819  22.153  1.00  0.00     0.001 A 
ATOM     26  C   UNL A   1      28.301  31.887  22.956  1.00  0.00     0.001 A 
ENDBRANCH   9  11
ENDBRANCH   6   7
ENDBRANCH   5   6
ENDBRANCH   3   5
ENDBRANCH   2   3
ENDBRANCH   1   2
BRANCH   1  27
ATOM     27  C   UNL A   1      37.065  20.651  25.241  1.00  0.00     0.275 C 
BRANCH  27  28
ATOM     28  O   UNL A   1      38.069  21.677  25.242  1.00  0.00    -0.458 OA
BRANCH  28  29
ATOM     29  C   UNL A   1      39.135  21.432  26.040  1.00  0.00     0.338 C 
ATOM     30  O   UNL A   1      39.707  20.362  26.173  1.00  0.00    -0.246 OA
BRANCH  29  31
ATOM     31  C   UNL A   1      39.606  22.682  26.661  1.00  0.00     0.060 A 
ATOM     32  C   UNL A   1      39.031  23.879  26.222  1.00  0.00     0.016 A 
ATOM     33  C   UNL A   1      40.638  22.694  27.605  1.00  0.00     0.016 A 
ATOM     34  C   UNL A   1      39.509  25.096  26.701  1.00  0.00     0.010 A 
ATOM     35  C   UNL A   1      41.118  23.918  28.083  1.00  0.00     0.010 A 
ATOM     36  C   UNL A   1      40.573  25.123  27.613  1.00  0.00    -0.014 A 
BRANCH  36  37
ATOM     37  C   UNL A   1      41.160  26.425  28.003  1.00  0.00     0.031 A 
ATOM     38  C   UNL A   1      42.592  26.721  27.663  1.00  0.00     0.074 A 
ATOM     39  C   UNL A   1      40.406  27.344  28.633  1.00  0.00     0.049 A 
ATOM     40  N   UNL A   1      43.281  27.814  27.871  1.00  0.00    -0.248 NA
ATOM     41  C   UNL A   1      43.353  25.648  26.999  1.00  0.00     0.031 C 
ATOM     42  C   UNL A   1      39.010  27.161  29.030  1.00  0.00     0.029 A 
ATOM     43  N   UNL A   1      40.713  28.612  29.056  1.00  0.00    -0.354 N 
ATOM     44  C   UNL A   1      44.553  27.561  27.375  1.00  0.00     0.074 A 
ATOM     45  C   UNL A   1      44.549  26.205  26.868  1.00  0.00     0.031 C 
ATOM     46  C   UNL A   1      38.584  28.274  29.653  1.00  0.00     0.029 A 
ATOM     47  C   UNL A   1      39.675  29.246  29.696  1.00  0.00     0.049 A 
ATOM     48  H   UNL A   1      41.594  29.028  28.913  1.00  0.00     0.167 HD
ATOM     49  C   UNL A   1      45.619  28.392  27.320  1.00  0.00     0.034 A 
ATOM     50  C   UNL A   1      39.612  30.474  30.246  1.00  0.00     0.034 A 
ATOM     51  C   UNL A   1      45.619  29.744  27.806  1.00  0.00     0.049 A 
ATOM     52  C   UNL A   1      40.802  31.390  30.136  1.00  0.00     0.074 A 
ATOM     53  C   UNL A   1      46.658  30.658  27.814  1.00  0.00     0.029 A 
ATOM     54  N   UNL A   1      44.520  30.382  28.360  1.00  0.00    -0.354 N 
ATOM     55  N   UNL A   1      41.963  31.168  29.567  1.00  0.00    -0.248 NA
ATOM     56  C   UNL A   1      40.659  32.739  30.702  1.00  0.00     0.031 C 
ATOM     57  C   UNL A   1      46.181  31.856  28.359  1.00  0.00     0.029 A 
ATOM     58  C   UNL A   1      44.848  31.683  28.695  1.00  0.00     0.049 A 
ATOM     59  H   UNL A   1      43.636  29.968  28.496  1.00  0.00     0.167 HD
ATOM     60  C   UNL A   1      42.676  32.357  29.680  1.00  0.00     0.074 A 
ATOM     61  C   UNL A   1      41.807  33.303  30.350  1.00  0.00     0.031 C 
ATOM     62  C   UNL A   1      43.944  32.633  29.289  1.00  0.00     0.034 A 
BRANCH  49  63
ATOM     63  C   UNL A   1      46.861  27.878  26.648  1.00  0.00     0.023 A 
ATOM     64  C   UNL A   1      47.846  27.249  27.435  1.00  0.00     0.012 A 
ATOM     65  C   UNL A   1      47.038  27.968  25.254  1.00  0.00     0.148 A 
ATOM     66  C   UNL A   1      48.998  26.728  26.846  1.00  0.00     0.002 A 
ATOM     67  C   UNL A   1      48.177  27.422  24.672  1.00  0.00     0.091 A 
ATOM     68  F   UNL A   1      46.104  28.599  24.530  1.00  0.00    -0.205 F 
ATOM     69  C   UNL A   1      49.158  26.806  25.466  1.00  0.00     0.022 A 
BRANCH  67  70
ATOM     70  S   UNL A   1      48.444  27.431  22.895  1.00  0.00     0.127 S 
ATOM     71  O   UNL A   1      49.787  28.000  22.802  1.00  0.00    -0.237 OA
ATOM     72  O   UNL A   1      48.358  26.011  22.557  1.00  0.00    -0.237 OA
ATOM     73  O   UNL A   1      47.373  28.248  22.339  1.00  0.00    -0.744 OA
ENDBRANCH  67  70
ENDBRANCH  49  63
BRANCH  50  74
ATOM     74  C   UNL A   1      38.345  30.938  30.874  1.00  0.00     0.023 A 
ATOM     75  C   UNL A   1      38.171  30.801  32.265  1.00  0.00     0.012 A 
ATOM     76  C   UNL A   1      37.327  31.541  30.112  1.00  0.00     0.148 A 
ATOM     77  C   UNL A   1      36.995  31.232  32.880  1.00  0.00     0.002 A 
ATOM     78  C   UNL A   1      36.178  32.013  30.740  1.00  0.00     0.091 A 
ATOM     79  F   UNL A   1      37.493  31.647  28.786  1.00  0.00    -0.205 F 
ATOM     80  C   UNL A   1      36.003  31.849  32.121  1.00  0.00     0.022 A 
BRANCH  78  81
ATOM     81  S   UNL A   1      34.938  32.924  29.813  1.00  0.00     0.127 S 
ATOM     82  O   UNL A   1      34.028  33.363  30.866  1.00  0.00    -0.237 OA
ATOM     83  O   UNL A   1      35.720  33.996  29.193  1.00  0.00    -0.237 OA
ATOM     84  O   UNL A   1      34.414  31.952  28.862  1.00  0.00    -0.744 OA
ENDBRANCH  78  81
ENDBRANCH  50  74
BRANCH  62  85
ATOM     85  C   UNL A   1      44.467  34.017  29.551  1.00  0.00     0.023 A 
ATOM     86  C   UNL A   1      45.184  34.269  30.737  1.00  0.00     0.012 A 
ATOM     87  C   UNL A   1      44.320  35.044  28.599  1.00  0.00     0.148 A 
ATOM     88  C   UNL A   1      45.730  35.529  30.980  1.00  0.00     0.002 A 
ATOM     89  C   UNL A   1      44.894  36.289  28.835  1.00  0.00     0.091 A 
ATOM     90  F   UNL A   1      43.614  34.796  27.485  1.00  0.00    -0.205 F 
ATOM     91  C   UNL A   1      45.594  36.535  30.026  1.00  0.00     0.022 A 
BRANCH  89  92
ATOM     92  S   UNL A   1      44.809  37.595  27.604  1.00  0.00     0.127 S 
ATOM     93  O   UNL A   1      45.813  37.165  26.633  1.00  0.00    -0.237 OA
ATOM     94  O   UNL A   1      43.428  37.506  27.129  1.00  0.00    -0.237 OA
ATOM     95  O   UNL A   1      45.108  38.820  28.336  1.00  0.00    -0.744 OA
ENDBRANCH  89  92
ENDBRANCH  62  85
ENDBRANCH  36  37
ENDBRANCH  29  31
ENDBRANCH  28  29
ENDBRANCH  27  28
ENDBRANCH   1  27
TORSDOF 17
ENDMDL
