MODEL 1
REMARK VINA RESULT:     -12.3      0.000      0.000
REMARK SMILES Cc1nn(C)c(C)c1CCC(=O)Nc1sccc1C(=O)OCCOC(=O)c1ccc(-c2c3nc(c(-c4cccc(S(=O)(=O)[O-])c4F)c4ccc([nH]4)c(-c4cccc(S(=O)(=O)[O-])c4F)c4nc(c(-c5cccc(S(=O)(=O)[O-])c5F)c5ccc2[nH]5)C=C4)C=C3)cc1
REMARK SMILES IDX 22 1 21 2 19 3 20 4 18 5 14 6 15 7 16 8 17 9 13 10 11 11
REMARK SMILES IDX 12 12 10 14 9 15 8 16 1 17 2 18 3 19 4 20 6 21 5 22 7 23
REMARK SMILES IDX 23 24 24 25 25 26 26 27 27 28 28 29 89 30 29 31 88 32 30 33
REMARK SMILES IDX 31 34 32 35 82 36 33 37 87 38 81 39 83 40 34 41 86 42 80 43
REMARK SMILES IDX 79 44 35 46 67 47 47 48 66 49 48 50 51 51 65 52 84 53 49 54
REMARK SMILES IDX 50 55 64 57 85 58 52 59 36 60 37 61 45 62 38 63 40 64 46 65
REMARK SMILES IDX 39 66 41 67 42 68 43 69 44 70 68 71 69 72 77 73 70 74 72 75
REMARK SMILES IDX 78 76 71 77 73 78 74 79 75 80 76 81 53 82 54 83 62 84 55 85
REMARK SMILES IDX 57 86 63 87 56 88 58 89 59 90 60 91 61 92
REMARK H PARENT 13 13 83 45 51 56
REMARK Flexibility Score: inf
ROOT
ATOM      1  C   UNL A   1      35.650  20.644  25.374  1.00  0.00     0.275 C 
ENDROOT
BRANCH   1   2
ATOM      2  O   UNL A   1      34.836  19.627  24.722  1.00  0.00    -0.458 OA
BRANCH   2   3
ATOM      3  C   UNL A   1      33.419  20.117  24.310  1.00  0.00     0.341 C 
ATOM      4  O   UNL A   1      32.764  19.010  24.342  1.00  0.00    -0.246 OA
BRANCH   3   5
ATOM      5  C   UNL A   1      32.856  22.128  23.713  1.00  0.00     0.094 A 
ATOM      6  C   UNL A   1      31.795  23.143  24.108  1.00  0.00     0.110 A 
ATOM      7  S   UNL A   1      31.386  24.296  22.890  1.00  0.00    -0.126 S 
ATOM      8  C   UNL A   1      32.858  24.181  22.105  1.00  0.00     0.068 A 
ATOM      9  C   UNL A   1      33.597  23.146  22.602  1.00  0.00     0.029 A 
BRANCH   6  10
ATOM     10  N   UNL A   1      30.843  23.352  25.112  1.00  0.00    -0.317 N 
ATOM     11  C   UNL A   1      30.888  24.007  26.308  1.00  0.00     0.225 C 
ATOM     12  O   UNL A   1      30.067  23.711  27.181  1.00  0.00    -0.275 OA
ATOM     13  H   UNL A   1      29.968  22.945  24.917  1.00  0.00     0.170 HD
BRANCH  11  14
ATOM     14  C   UNL A   1      31.828  25.172  26.509  1.00  0.00     0.105 C 
BRANCH  14  15
ATOM     15  C   UNL A   1      31.101  26.444  26.825  1.00  0.00     0.049 C 
BRANCH  15  16
ATOM     16  C   UNL A   1      31.326  27.387  25.727  1.00  0.00    -0.004 A 
ATOM     17  C   UNL A   1      34.157  28.626  26.356  1.00  0.00     0.069 C 
ATOM     18  C   UNL A   1      32.884  28.593  25.578  1.00  0.00     0.063 A 
ATOM     19  N   UNL A   1      32.826  29.306  23.958  1.00  0.00    -0.178 NA
ATOM     20  N   UNL A   1      31.232  28.802  23.122  1.00  0.00    -0.272 N 
ATOM     21  C   UNL A   1      30.300  27.621  24.219  1.00  0.00     0.038 A 
ATOM     22  C   UNL A   1      30.659  29.570  22.039  1.00  0.00     0.174 C 
ATOM     23  C   UNL A   1      29.019  27.039  23.706  1.00  0.00     0.066 C 
ENDBRANCH  15  16
ENDBRANCH  14  15
ENDBRANCH  11  14
ENDBRANCH   6  10
ENDBRANCH   3   5
ENDBRANCH   2   3
ENDBRANCH   1   2
BRANCH   1  24
ATOM     24  C   UNL A   1      36.649  21.311  24.430  1.00  0.00     0.275 C 
BRANCH  24  25
ATOM     25  O   UNL A   1      37.485  22.265  25.100  1.00  0.00    -0.458 OA
BRANCH  25  26
ATOM     26  C   UNL A   1      38.567  21.723  25.707  1.00  0.00     0.338 C 
ATOM     27  O   UNL A   1      39.050  20.618  25.507  1.00  0.00    -0.246 OA
BRANCH  26  28
ATOM     28  C   UNL A   1      39.245  22.754  26.502  1.00  0.00     0.060 A 
ATOM     29  C   UNL A   1      38.977  24.053  26.110  1.00  0.00     0.016 A 
ATOM     30  C   UNL A   1      40.188  22.521  27.489  1.00  0.00     0.016 A 
ATOM     31  C   UNL A   1      39.571  25.153  26.679  1.00  0.00     0.010 A 
ATOM     32  C   UNL A   1      40.840  23.626  28.063  1.00  0.00     0.010 A 
ATOM     33  C   UNL A   1      40.530  24.942  27.651  1.00  0.00    -0.014 A 
BRANCH  33  34
ATOM     34  C   UNL A   1      41.336  26.112  28.035  1.00  0.00     0.031 A 
ATOM     35  C   UNL A   1      40.681  27.152  28.884  1.00  0.00     0.074 A 
ATOM     36  C   UNL A   1      42.653  26.158  27.768  1.00  0.00     0.049 A 
ATOM     37  N   UNL A   1      41.086  28.353  29.176  1.00  0.00    -0.248 NA
ATOM     38  C   UNL A   1      39.392  26.781  29.498  1.00  0.00     0.031 C 
ATOM     39  C   UNL A   1      43.433  25.082  27.150  1.00  0.00     0.029 A 
ATOM     40  N   UNL A   1      43.569  27.154  27.979  1.00  0.00    -0.354 N 
ATOM     41  C   UNL A   1      40.067  28.913  29.933  1.00  0.00     0.074 A 
ATOM     42  C   UNL A   1      39.039  27.910  30.090  1.00  0.00     0.031 C 
ATOM     43  C   UNL A   1      44.702  25.495  26.993  1.00  0.00     0.029 A 
ATOM     44  C   UNL A   1      44.791  26.888  27.407  1.00  0.00     0.049 A 
ATOM     45  H   UNL A   1      43.372  27.975  28.487  1.00  0.00     0.167 HD
ATOM     46  C   UNL A   1      40.002  30.170  30.423  1.00  0.00     0.034 A 
ATOM     47  C   UNL A   1      45.823  27.717  27.169  1.00  0.00     0.034 A 
ATOM     48  C   UNL A   1      41.059  31.125  30.248  1.00  0.00     0.049 A 
ATOM     49  C   UNL A   1      45.671  29.153  27.598  1.00  0.00     0.074 A 
ATOM     50  C   UNL A   1      41.102  32.449  30.638  1.00  0.00     0.029 A 
ATOM     51  N   UNL A   1      42.265  30.847  29.619  1.00  0.00    -0.354 N 
ATOM     52  N   UNL A   1      44.682  29.722  28.248  1.00  0.00    -0.248 NA
ATOM     53  C   UNL A   1      46.776  30.063  27.270  1.00  0.00     0.031 C 
ATOM     54  C   UNL A   1      42.317  32.984  30.199  1.00  0.00     0.029 A 
ATOM     55  C   UNL A   1      43.058  31.976  29.598  1.00  0.00     0.049 A 
ATOM     56  H   UNL A   1      42.518  29.972  29.243  1.00  0.00     0.167 HD
ATOM     57  C   UNL A   1      45.063  31.041  28.448  1.00  0.00     0.074 A 
ATOM     58  C   UNL A   1      46.383  31.181  27.863  1.00  0.00     0.031 C 
ATOM     59  C   UNL A   1      44.388  32.052  29.049  1.00  0.00     0.034 A 
BRANCH  46  60
ATOM     60  C   UNL A   1      38.731  30.585  31.107  1.00  0.00     0.023 A 
ATOM     61  C   UNL A   1      38.541  30.345  32.483  1.00  0.00     0.012 A 
ATOM     62  C   UNL A   1      37.716  31.223  30.368  1.00  0.00     0.148 A 
ATOM     63  C   UNL A   1      37.343  30.703  33.103  1.00  0.00     0.002 A 
ATOM     64  C   UNL A   1      36.550  31.625  31.004  1.00  0.00     0.091 A 
ATOM     65  F   UNL A   1      37.906  31.412  29.055  1.00  0.00    -0.205 F 
ATOM     66  C   UNL A   1      36.354  31.352  32.366  1.00  0.00     0.022 A 
BRANCH  64  67
ATOM     67  S   UNL A   1      35.250  32.529  30.157  1.00  0.00     0.127 S 
ATOM     68  O   UNL A   1      34.855  31.577  29.118  1.00  0.00    -0.237 OA
ATOM     69  O   UNL A   1      34.266  32.710  31.224  1.00  0.00    -0.237 OA
ATOM     70  O   UNL A   1      35.860  33.756  29.667  1.00  0.00    -0.744 OA
ENDBRANCH  64  67
ENDBRANCH  46  60
BRANCH  47  71
ATOM     71  C   UNL A   1      47.039  27.252  26.439  1.00  0.00     0.023 A 
ATOM     72  C   UNL A   1      47.116  27.407  25.042  1.00  0.00     0.012 A 
ATOM     73  C   UNL A   1      48.102  26.616  27.114  1.00  0.00     0.148 A 
ATOM     74  C   UNL A   1      48.198  26.894  24.325  1.00  0.00     0.002 A 
ATOM     75  C   UNL A   1      49.205  26.160  26.402  1.00  0.00     0.091 A 
ATOM     76  F   UNL A   1      48.012  26.461  28.442  1.00  0.00    -0.205 F 
ATOM     77  C   UNL A   1      49.244  26.275  25.005  1.00  0.00     0.022 A 
BRANCH  75  78
ATOM     78  S   UNL A   1      50.649  25.448  27.201  1.00  0.00     0.127 S 
ATOM     79  O   UNL A   1      50.093  24.234  27.794  1.00  0.00    -0.237 OA
ATOM     80  O   UNL A   1      51.541  25.226  26.064  1.00  0.00    -0.237 OA
ATOM     81  O   UNL A   1      51.116  26.454  28.146  1.00  0.00    -0.744 OA
ENDBRANCH  75  78
ENDBRANCH  47  71
BRANCH  59  82
ATOM     82  C   UNL A   1      45.101  33.370  29.178  1.00  0.00     0.023 A 
ATOM     83  C   UNL A   1      45.965  33.612  30.262  1.00  0.00     0.012 A 
ATOM     84  C   UNL A   1      44.961  34.339  28.167  1.00  0.00     0.148 A 
ATOM     85  C   UNL A   1      46.650  34.822  30.358  1.00  0.00     0.002 A 
ATOM     86  C   UNL A   1      45.695  35.514  28.235  1.00  0.00     0.091 A 
ATOM     87  F   UNL A   1      44.121  34.089  27.151  1.00  0.00    -0.205 F 
ATOM     88  C   UNL A   1      46.526  35.765  29.339  1.00  0.00     0.022 A 
BRANCH  86  89
ATOM     89  S   UNL A   1      45.683  36.731  26.917  1.00  0.00     0.127 S 
ATOM     90  O   UNL A   1      46.234  35.965  25.801  1.00  0.00    -0.237 OA
ATOM     91  O   UNL A   1      44.258  37.042  26.800  1.00  0.00    -0.237 OA
ATOM     92  O   UNL A   1      46.511  37.838  27.379  1.00  0.00    -0.744 OA
ENDBRANCH  86  89
ENDBRANCH  59  82
ENDBRANCH  33  34
ENDBRANCH  26  28
ENDBRANCH  25  26
ENDBRANCH  24  25
ENDBRANCH   1  24
TORSDOF 18
ENDMDL
MODEL 2
REMARK VINA RESULT:     -12.1      4.931     10.050
REMARK SMILES Cc1nn(C)c(C)c1CCC(=O)Nc1sccc1C(=O)OCCOC(=O)c1ccc(-c2c3nc(c(-c4cccc(S(=O)(=O)[O-])c4F)c4ccc([nH]4)c(-c4cccc(S(=O)(=O)[O-])c4F)c4nc(c(-c5cccc(S(=O)(=O)[O-])c5F)c5ccc2[nH]5)C=C4)C=C3)cc1
REMARK SMILES IDX 22 1 21 2 19 3 20 4 18 5 14 6 15 7 16 8 17 9 13 10 11 11
REMARK SMILES IDX 12 12 10 14 9 15 8 16 1 17 2 18 3 19 4 20 6 21 5 22 7 23
REMARK SMILES IDX 23 24 24 25 25 26 26 27 27 28 28 29 89 30 29 31 88 32 30 33
REMARK SMILES IDX 31 34 32 35 82 36 33 37 87 38 81 39 83 40 34 41 86 42 80 43
REMARK SMILES IDX 79 44 35 46 67 47 47 48 66 49 48 50 51 51 65 52 84 53 49 54
REMARK SMILES IDX 50 55 64 57 85 58 52 59 36 60 37 61 45 62 38 63 40 64 46 65
REMARK SMILES IDX 39 66 41 67 42 68 43 69 44 70 68 71 69 72 77 73 70 74 72 75
REMARK SMILES IDX 78 76 71 77 73 78 74 79 75 80 76 81 53 82 54 83 62 84 55 85
REMARK SMILES IDX 57 86 63 87 56 88 58 89 59 90 60 91 61 92
REMARK H PARENT 13 13 83 45 51 56
REMARK Flexibility Score: inf
ROOT
ATOM      1  C   UNL A   1      32.907  29.324  24.533  1.00  0.00     0.275 C 
ENDROOT
BRANCH   1   2
ATOM      2  O   UNL A   1      33.893  28.259  24.657  1.00  0.00    -0.458 OA
BRANCH   2   3
ATOM      3  C   UNL A   1      33.355  26.849  24.279  1.00  0.00     0.341 C 
ATOM      4  O   UNL A   1      33.215  26.979  23.007  1.00  0.00    -0.246 OA
BRANCH   3   5
ATOM      5  C   UNL A   1      32.867  25.231  25.643  1.00  0.00     0.094 A 
ATOM      6  C   UNL A   1      33.624  24.132  26.371  1.00  0.00     0.110 A 
ATOM      7  S   UNL A   1      32.688  22.743  26.791  1.00  0.00    -0.126 S 
ATOM      8  C   UNL A   1      31.235  23.570  26.817  1.00  0.00     0.068 A 
ATOM      9  C   UNL A   1      31.383  24.833  26.321  1.00  0.00     0.029 A 
BRANCH   6  10
ATOM     10  N   UNL A   1      34.941  23.760  26.663  1.00  0.00    -0.317 N 
ATOM     11  C   UNL A   1      36.009  23.445  25.875  1.00  0.00     0.225 C 
ATOM     12  O   UNL A   1      36.924  22.768  26.354  1.00  0.00    -0.275 OA
ATOM     13  H   UNL A   1      35.134  23.715  27.628  1.00  0.00     0.170 HD
BRANCH  11  14
ATOM     14  C   UNL A   1      36.142  24.034  24.491  1.00  0.00     0.105 C 
BRANCH  14  15
ATOM     15  C   UNL A   1      36.104  22.987  23.419  1.00  0.00     0.049 C 
BRANCH  15  16
ATOM     16  C   UNL A   1      34.960  22.108  23.674  1.00  0.00    -0.004 A 
ATOM     17  C   UNL A   1      32.555  23.553  22.235  1.00  0.00     0.069 C 
ATOM     18  C   UNL A   1      33.099  22.496  23.137  1.00  0.00     0.063 A 
ATOM     19  N   UNL A   1      32.167  21.017  23.420  1.00  0.00    -0.178 NA
ATOM     20  N   UNL A   1      33.249  19.766  24.290  1.00  0.00    -0.272 N 
ATOM     21  C   UNL A   1      34.975  20.444  24.455  1.00  0.00     0.038 A 
ATOM     22  C   UNL A   1      32.693  18.688  25.078  1.00  0.00     0.174 C 
ATOM     23  C   UNL A   1      36.024  19.567  25.067  1.00  0.00     0.066 C 
ENDBRANCH  15  16
ENDBRANCH  14  15
ENDBRANCH  11  14
ENDBRANCH   6  10
ENDBRANCH   3   5
ENDBRANCH   2   3
ENDBRANCH   1   2
BRANCH   1  24
ATOM     24  C   UNL A   1      31.984  29.432  25.745  1.00  0.00     0.275 C 
BRANCH  24  25
ATOM     25  O   UNL A   1      32.706  29.651  26.966  1.00  0.00    -0.458 OA
BRANCH  25  26
ATOM     26  C   UNL A   1      33.160  30.917  27.120  1.00  0.00     0.338 C 
ATOM     27  O   UNL A   1      32.503  31.946  27.092  1.00  0.00    -0.246 OA
BRANCH  26  28
ATOM     28  C   UNL A   1      34.558  30.881  27.566  1.00  0.00     0.060 A 
ATOM     29  C   UNL A   1      35.001  29.634  27.973  1.00  0.00     0.016 A 
ATOM     30  C   UNL A   1      35.386  31.980  27.719  1.00  0.00     0.016 A 
ATOM     31  C   UNL A   1      36.251  29.409  28.493  1.00  0.00     0.010 A 
ATOM     32  C   UNL A   1      36.657  31.785  28.283  1.00  0.00     0.010 A 
ATOM     33  C   UNL A   1      37.086  30.496  28.673  1.00  0.00    -0.014 A 
BRANCH  33  34
ATOM     34  C   UNL A   1      38.294  30.263  29.480  1.00  0.00     0.031 A 
ATOM     35  C   UNL A   1      39.358  29.394  28.893  1.00  0.00     0.074 A 
ATOM     36  C   UNL A   1      38.498  30.938  30.624  1.00  0.00     0.049 A 
ATOM     37  N   UNL A   1      40.399  28.865  29.466  1.00  0.00    -0.248 NA
ATOM     38  C   UNL A   1      39.234  29.086  27.456  1.00  0.00     0.031 C 
ATOM     39  C   UNL A   1      37.624  31.986  31.161  1.00  0.00     0.029 A 
ATOM     40  N   UNL A   1      39.506  30.841  31.547  1.00  0.00    -0.354 N 
ATOM     41  C   UNL A   1      41.007  28.093  28.486  1.00  0.00     0.074 A 
ATOM     42  C   UNL A   1      40.243  28.250  27.271  1.00  0.00     0.031 C 
ATOM     43  C   UNL A   1      38.112  32.402  32.341  1.00  0.00     0.029 A 
ATOM     44  C   UNL A   1      39.268  31.584  32.680  1.00  0.00     0.049 A 
ATOM     45  H   UNL A   1      40.314  30.295  31.414  1.00  0.00     0.167 HD
ATOM     46  C   UNL A   1      42.097  27.306  28.618  1.00  0.00     0.034 A 
ATOM     47  C   UNL A   1      39.871  31.529  33.882  1.00  0.00     0.034 A 
ATOM     48  C   UNL A   1      42.829  27.195  29.848  1.00  0.00     0.049 A 
ATOM     49  C   UNL A   1      40.994  30.538  34.048  1.00  0.00     0.074 A 
ATOM     50  C   UNL A   1      43.912  26.391  30.141  1.00  0.00     0.029 A 
ATOM     51  N   UNL A   1      42.537  27.919  30.997  1.00  0.00    -0.354 N 
ATOM     52  N   UNL A   1      41.535  29.743  33.154  1.00  0.00    -0.248 NA
ATOM     53  C   UNL A   1      41.597  30.439  35.383  1.00  0.00     0.031 C 
ATOM     54  C   UNL A   1      44.243  26.593  31.485  1.00  0.00     0.029 A 
ATOM     55  C   UNL A   1      43.410  27.573  32.008  1.00  0.00     0.049 A 
ATOM     56  H   UNL A   1      41.812  28.581  31.078  1.00  0.00     0.167 HD
ATOM     57  C   UNL A   1      42.569  29.084  33.804  1.00  0.00     0.074 A 
ATOM     58  C   UNL A   1      42.588  29.588  35.163  1.00  0.00     0.031 C 
ATOM     59  C   UNL A   1      43.422  28.142  33.331  1.00  0.00     0.034 A 
BRANCH  46  60
ATOM     60  C   UNL A   1      42.492  26.462  27.440  1.00  0.00     0.023 A 
ATOM     61  C   UNL A   1      43.252  27.006  26.386  1.00  0.00     0.012 A 
ATOM     62  C   UNL A   1      42.102  25.110  27.387  1.00  0.00     0.148 A 
ATOM     63  C   UNL A   1      43.586  26.225  25.279  1.00  0.00     0.002 A 
ATOM     64  C   UNL A   1      42.483  24.325  26.308  1.00  0.00     0.091 A 
ATOM     65  F   UNL A   1      41.351  24.623  28.385  1.00  0.00    -0.205 F 
ATOM     66  C   UNL A   1      43.211  24.883  25.246  1.00  0.00     0.022 A 
BRANCH  64  67
ATOM     67  S   UNL A   1      42.110  22.571  26.209  1.00  0.00     0.127 S 
ATOM     68  O   UNL A   1      40.648  22.582  26.152  1.00  0.00    -0.237 OA
ATOM     69  O   UNL A   1      42.765  22.195  24.957  1.00  0.00    -0.237 OA
ATOM     70  O   UNL A   1      42.674  21.966  27.406  1.00  0.00    -0.744 OA
ENDBRANCH  64  67
ENDBRANCH  46  60
BRANCH  47  71
ATOM     71  C   UNL A   1      39.396  32.360  35.026  1.00  0.00     0.023 A 
ATOM     72  C   UNL A   1      38.395  31.862  35.882  1.00  0.00     0.012 A 
ATOM     73  C   UNL A   1      39.897  33.660  35.247  1.00  0.00     0.148 A 
ATOM     74  C   UNL A   1      37.866  32.657  36.900  1.00  0.00     0.002 A 
ATOM     75  C   UNL A   1      39.408  34.425  36.300  1.00  0.00     0.091 A 
ATOM     76  F   UNL A   1      40.839  34.130  34.418  1.00  0.00    -0.205 F 
ATOM     77  C   UNL A   1      38.375  33.936  37.112  1.00  0.00     0.022 A 
BRANCH  75  78
ATOM     78  S   UNL A   1      40.077  36.039  36.718  1.00  0.00     0.127 S 
ATOM     79  O   UNL A   1      39.273  36.403  37.882  1.00  0.00    -0.237 OA
ATOM     80  O   UNL A   1      41.474  35.718  37.010  1.00  0.00    -0.237 OA
ATOM     81  O   UNL A   1      39.885  36.868  35.536  1.00  0.00    -0.744 OA
ENDBRANCH  75  78
ENDBRANCH  47  71
BRANCH  59  82
ATOM     82  C   UNL A   1      44.498  27.661  34.266  1.00  0.00     0.023 A 
ATOM     83  C   UNL A   1      45.698  28.383  34.408  1.00  0.00     0.012 A 
ATOM     84  C   UNL A   1      44.271  26.522  35.062  1.00  0.00     0.148 A 
ATOM     85  C   UNL A   1      46.676  27.952  35.301  1.00  0.00     0.002 A 
ATOM     86  C   UNL A   1      45.220  26.135  35.995  1.00  0.00     0.091 A 
ATOM     87  F   UNL A   1      43.124  25.844  34.897  1.00  0.00    -0.205 F 
ATOM     88  C   UNL A   1      46.432  26.838  36.103  1.00  0.00     0.022 A 
BRANCH  86  89
ATOM     89  S   UNL A   1      44.944  24.786  37.144  1.00  0.00     0.127 S 
ATOM     90  O   UNL A   1      44.578  23.697  36.241  1.00  0.00    -0.237 OA
ATOM     91  O   UNL A   1      46.259  24.644  37.771  1.00  0.00    -0.237 OA
ATOM     92  O   UNL A   1      43.887  25.228  38.044  1.00  0.00    -0.744 OA
ENDBRANCH  86  89
ENDBRANCH  59  82
ENDBRANCH  33  34
ENDBRANCH  26  28
ENDBRANCH  25  26
ENDBRANCH  24  25
ENDBRANCH   1  24
TORSDOF 18
ENDMDL
MODEL 3
REMARK VINA RESULT:     -11.5      0.887      7.945
REMARK SMILES Cc1nn(C)c(C)c1CCC(=O)Nc1sccc1C(=O)OCCOC(=O)c1ccc(-c2c3nc(c(-c4cccc(S(=O)(=O)[O-])c4F)c4ccc([nH]4)c(-c4cccc(S(=O)(=O)[O-])c4F)c4nc(c(-c5cccc(S(=O)(=O)[O-])c5F)c5ccc2[nH]5)C=C4)C=C3)cc1
REMARK SMILES IDX 22 1 21 2 19 3 20 4 18 5 14 6 15 7 16 8 17 9 13 10 11 11
REMARK SMILES IDX 12 12 10 14 9 15 8 16 1 17 2 18 3 19 4 20 6 21 5 22 7 23
REMARK SMILES IDX 23 24 24 25 25 26 26 27 27 28 28 29 89 30 29 31 88 32 30 33
REMARK SMILES IDX 31 34 32 35 82 36 33 37 87 38 81 39 83 40 34 41 86 42 80 43
REMARK SMILES IDX 79 44 35 46 67 47 47 48 66 49 48 50 51 51 65 52 84 53 49 54
REMARK SMILES IDX 50 55 64 57 85 58 52 59 36 60 37 61 45 62 38 63 40 64 46 65
REMARK SMILES IDX 39 66 41 67 42 68 43 69 44 70 68 71 69 72 77 73 70 74 72 75
REMARK SMILES IDX 78 76 71 77 73 78 74 79 75 80 76 81 53 82 54 83 62 84 55 85
REMARK SMILES IDX 57 86 63 87 56 88 58 89 59 90 60 91 61 92
REMARK H PARENT 13 13 83 45 51 56
REMARK Flexibility Score: inf
ROOT
ATOM      1  C   UNL A   1      36.353  21.208  24.731  1.00  0.00     0.275 C 
ENDROOT
BRANCH   1   2
ATOM      2  O   UNL A   1      35.548  20.004  24.883  1.00  0.00    -0.458 OA
BRANCH   2   3
ATOM      3  C   UNL A   1      34.021  20.234  24.699  1.00  0.00     0.341 C 
ATOM      4  O   UNL A   1      33.569  19.055  24.948  1.00  0.00    -0.246 OA
BRANCH   3   5
ATOM      5  C   UNL A   1      33.047  22.062  24.045  1.00  0.00     0.094 A 
ATOM      6  C   UNL A   1      31.777  22.822  24.389  1.00  0.00     0.110 A 
ATOM      7  S   UNL A   1      31.161  23.839  23.137  1.00  0.00    -0.126 S 
ATOM      8  C   UNL A   1      32.645  24.039  22.393  1.00  0.00     0.068 A 
ATOM      9  C   UNL A   1      33.578  23.201  22.932  1.00  0.00     0.029 A 
BRANCH   6  10
ATOM     10  N   UNL A   1      30.772  22.831  25.363  1.00  0.00    -0.317 N 
ATOM     11  C   UNL A   1      30.567  23.596  26.475  1.00  0.00     0.225 C 
ATOM     12  O   UNL A   1      29.850  23.156  27.378  1.00  0.00    -0.275 OA
ATOM     13  H   UNL A   1      30.076  22.150  25.219  1.00  0.00     0.170 HD
BRANCH  11  14
ATOM     14  C   UNL A   1      31.087  25.013  26.537  1.00  0.00     0.105 C 
BRANCH  14  15
ATOM     15  C   UNL A   1      30.107  26.005  25.988  1.00  0.00     0.049 C 
BRANCH  15  16
ATOM     16  C   UNL A   1      30.772  26.773  24.932  1.00  0.00    -0.004 A 
ATOM     17  C   UNL A   1      28.392  28.023  23.285  1.00  0.00     0.069 C 
ATOM     18  C   UNL A   1      29.841  27.720  23.470  1.00  0.00     0.063 A 
ATOM     19  N   UNL A   1      31.058  28.708  22.645  1.00  0.00    -0.178 NA
ATOM     20  N   UNL A   1      32.746  28.312  23.343  1.00  0.00    -0.272 N 
ATOM     21  C   UNL A   1      32.570  27.109  24.752  1.00  0.00     0.038 A 
ATOM     22  C   UNL A   1      33.960  28.558  22.596  1.00  0.00     0.174 C 
ATOM     23  C   UNL A   1      33.806  26.710  25.500  1.00  0.00     0.066 C 
ENDBRANCH  15  16
ENDBRANCH  14  15
ENDBRANCH  11  14
ENDBRANCH   6  10
ENDBRANCH   3   5
ENDBRANCH   2   3
ENDBRANCH   1   2
BRANCH   1  24
ATOM     24  C   UNL A   1      37.402  21.372  25.831  1.00  0.00     0.275 C 
BRANCH  24  25
ATOM     25  O   UNL A   1      38.742  21.347  25.318  1.00  0.00    -0.458 OA
BRANCH  25  26
ATOM     26  C   UNL A   1      39.688  21.102  26.255  1.00  0.00     0.338 C 
ATOM     27  O   UNL A   1      40.274  20.048  26.455  1.00  0.00    -0.246 OA
BRANCH  26  28
ATOM     28  C   UNL A   1      40.098  22.368  26.874  1.00  0.00     0.060 A 
ATOM     29  C   UNL A   1      39.531  23.496  26.307  1.00  0.00     0.016 A 
ATOM     30  C   UNL A   1      41.064  22.511  27.856  1.00  0.00     0.016 A 
ATOM     31  C   UNL A   1      39.845  24.775  26.696  1.00  0.00     0.010 A 
ATOM     32  C   UNL A   1      41.432  23.809  28.246  1.00  0.00     0.010 A 
ATOM     33  C   UNL A   1      40.821  24.941  27.660  1.00  0.00    -0.014 A 
BRANCH  33  34
ATOM     34  C   UNL A   1      41.324  26.311  27.849  1.00  0.00     0.031 A 
ATOM     35  C   UNL A   1      42.685  26.625  27.318  1.00  0.00     0.074 A 
ATOM     36  C   UNL A   1      40.525  27.277  28.333  1.00  0.00     0.049 A 
ATOM     37  N   UNL A   1      43.435  27.664  27.536  1.00  0.00    -0.248 NA
ATOM     38  C   UNL A   1      43.278  25.628  26.406  1.00  0.00     0.031 C 
ATOM     39  C   UNL A   1      39.104  27.122  28.659  1.00  0.00     0.029 A 
ATOM     40  N   UNL A   1      40.795  28.585  28.639  1.00  0.00    -0.354 N 
ATOM     41  C   UNL A   1      44.621  27.412  26.861  1.00  0.00     0.074 A 
ATOM     42  C   UNL A   1      44.481  26.138  26.194  1.00  0.00     0.031 C 
ATOM     43  C   UNL A   1      38.640  28.279  29.162  1.00  0.00     0.029 A 
ATOM     44  C   UNL A   1      39.752  29.212  29.280  1.00  0.00     0.049 A 
ATOM     45  H   UNL A   1      41.648  29.029  28.424  1.00  0.00     0.167 HD
ATOM     46  C   UNL A   1      45.732  28.179  26.835  1.00  0.00     0.034 A 
ATOM     47  C   UNL A   1      39.740  30.372  29.962  1.00  0.00     0.034 A 
ATOM     48  C   UNL A   1      45.815  29.445  27.507  1.00  0.00     0.049 A 
ATOM     49  C   UNL A   1      41.031  31.143  30.040  1.00  0.00     0.074 A 
ATOM     50  C   UNL A   1      46.896  30.298  27.617  1.00  0.00     0.029 A 
ATOM     51  N   UNL A   1      44.761  30.034  28.193  1.00  0.00    -0.354 N 
ATOM     52  N   UNL A   1      42.186  30.882  29.473  1.00  0.00    -0.248 NA
ATOM     53  C   UNL A   1      41.021  32.370  30.845  1.00  0.00     0.031 C 
ATOM     54  C   UNL A   1      46.507  31.380  28.412  1.00  0.00     0.029 A 
ATOM     55  C   UNL A   1      45.166  31.235  28.740  1.00  0.00     0.049 A 
ATOM     56  H   UNL A   1      43.858  29.651  28.278  1.00  0.00     0.167 HD
ATOM     57  C   UNL A   1      43.026  31.933  29.812  1.00  0.00     0.074 A 
ATOM     58  C   UNL A   1      42.239  32.843  30.622  1.00  0.00     0.031 C 
ATOM     59  C   UNL A   1      44.330  32.132  29.496  1.00  0.00     0.034 A 
BRANCH  46  60
ATOM     60  C   UNL A   1      46.941  27.629  26.135  1.00  0.00     0.023 A 
ATOM     61  C   UNL A   1      47.125  27.823  24.752  1.00  0.00     0.012 A 
ATOM     62  C   UNL A   1      47.907  26.912  26.868  1.00  0.00     0.148 A 
ATOM     63  C   UNL A   1      48.234  27.280  24.103  1.00  0.00     0.002 A 
ATOM     64  C   UNL A   1      49.035  26.420  26.226  1.00  0.00     0.091 A 
ATOM     65  F   UNL A   1      47.696  26.711  28.177  1.00  0.00    -0.205 F 
ATOM     66  C   UNL A   1      49.193  26.589  24.842  1.00  0.00     0.022 A 
BRANCH  64  67
ATOM     67  S   UNL A   1      50.358  25.580  27.103  1.00  0.00     0.127 S 
ATOM     68  O   UNL A   1      49.673  24.386  27.599  1.00  0.00    -0.237 OA
ATOM     69  O   UNL A   1      51.318  25.329  26.029  1.00  0.00    -0.237 OA
ATOM     70  O   UNL A   1      50.813  26.501  28.133  1.00  0.00    -0.744 OA
ENDBRANCH  64  67
ENDBRANCH  46  60
BRANCH  47  71
ATOM     71  C   UNL A   1      38.515  30.836  30.677  1.00  0.00     0.023 A 
ATOM     72  C   UNL A   1      38.330  30.503  32.033  1.00  0.00     0.012 A 
ATOM     73  C   UNL A   1      37.510  31.571  30.012  1.00  0.00     0.148 A 
ATOM     74  C   UNL A   1      37.151  30.843  32.696  1.00  0.00     0.002 A 
ATOM     75  C   UNL A   1      36.364  31.958  30.696  1.00  0.00     0.091 A 
ATOM     76  F   UNL A   1      37.690  31.870  28.719  1.00  0.00    -0.205 F 
ATOM     77  C   UNL A   1      36.170  31.575  32.030  1.00  0.00     0.022 A 
BRANCH  75  78
ATOM     78  S   UNL A   1      35.096  32.993  29.954  1.00  0.00     0.127 S 
ATOM     79  O   UNL A   1      34.444  32.058  29.041  1.00  0.00    -0.237 OA
ATOM     80  O   UNL A   1      34.299  33.373  31.120  1.00  0.00    -0.237 OA
ATOM     81  O   UNL A   1      35.805  34.099  29.323  1.00  0.00    -0.744 OA
ENDBRANCH  75  78
ENDBRANCH  47  71
BRANCH  59  82
ATOM     82  C   UNL A   1      44.958  33.419  29.956  1.00  0.00     0.023 A 
ATOM     83  C   UNL A   1      45.647  33.480  31.182  1.00  0.00     0.012 A 
ATOM     84  C   UNL A   1      44.922  34.550  29.118  1.00  0.00     0.148 A 
ATOM     85  C   UNL A   1      46.257  34.666  31.587  1.00  0.00     0.002 A 
ATOM     86  C   UNL A   1      45.586  35.706  29.497  1.00  0.00     0.091 A 
ATOM     87  F   UNL A   1      44.247  34.468  27.961  1.00  0.00    -0.205 F 
ATOM     88  C   UNL A   1      46.238  35.772  30.739  1.00  0.00     0.022 A 
BRANCH  86  89
ATOM     89  S   UNL A   1      45.710  37.138  28.424  1.00  0.00     0.127 S 
ATOM     90  O   UNL A   1      44.319  37.585  28.363  1.00  0.00    -0.237 OA
ATOM     91  O   UNL A   1      46.600  38.015  29.185  1.00  0.00    -0.237 OA
ATOM     92  O   UNL A   1      46.263  36.656  27.165  1.00  0.00    -0.744 OA
ENDBRANCH  86  89
ENDBRANCH  59  82
ENDBRANCH  33  34
ENDBRANCH  26  28
ENDBRANCH  25  26
ENDBRANCH  24  25
ENDBRANCH   1  24
TORSDOF 18
ENDMDL
