MODEL 1
REMARK VINA RESULT:     -12.0      0.000      0.000
REMARK SMILES O=C(COc1ccccc1C[NH+]1CCC2(CC[NH2+]CC2)CC1)OCCOC(=O)c1ccc(-c2c3nc(c(-c4cccc(S(=O)(=O)[O-])c4F)c4ccc([nH]4)c(-c4cccc(S(=O)(=O)[O-])c4F)c4nc(c(-c5cccc(S(=O)(=O)[O-])c5F)c5ccc2[nH]5)C=C4)C=C3)cc1
REMARK SMILES IDX 24 1 23 2 2 3 1 4 3 5 4 6 5 7 6 8 10 9 7 10 9 11 8 12 11 13
REMARK SMILES IDX 12 14 13 15 22 16 14 18 21 19 15 20 16 21 20 22 17 23 19 24
REMARK SMILES IDX 18 25 25 28 26 29 27 30 28 31 29 32 30 33 91 34 31 35 90 36
REMARK SMILES IDX 32 37 33 38 34 39 84 40 35 41 89 42 83 43 85 44 36 45 88 46
REMARK SMILES IDX 82 47 81 48 37 50 69 51 49 52 68 53 50 54 53 55 67 56 86 57
REMARK SMILES IDX 51 58 52 59 66 61 87 62 54 63 38 64 39 65 47 66 40 67 42 68
REMARK SMILES IDX 48 69 41 70 43 71 44 72 45 73 46 74 70 75 71 76 79 77 72 78
REMARK SMILES IDX 74 79 80 80 73 81 75 82 76 83 77 84 78 85 55 86 56 87 64 88
REMARK SMILES IDX 57 89 59 90 65 91 58 92 60 93 61 94 62 95 63 96
REMARK H PARENT 12 17 18 26 18 27 85 49 53 60
REMARK Flexibility Score: inf
ROOT
ATOM      1  C   UNL A   1      31.426  31.905  26.523  1.00  0.00     0.274 C 
ENDROOT
BRANCH   1   2
ATOM      2  O   UNL A   1      32.201  30.795  27.017  1.00  0.00    -0.460 OA
BRANCH   2   3
ATOM      3  C   UNL A   1      32.990  30.042  26.210  1.00  0.00     0.344 C 
ATOM      4  O   UNL A   1      34.095  29.672  26.604  1.00  0.00    -0.248 OA
BRANCH   3   5
ATOM      5  C   UNL A   1      32.442  29.612  24.857  1.00  0.00     0.351 C 
BRANCH   5   6
ATOM      6  O   UNL A   1      32.171  28.214  24.857  1.00  0.00    -0.481 OA
BRANCH   6   7
ATOM      7  C   UNL A   1      30.941  27.943  24.316  1.00  0.00     0.129 A 
ATOM      8  C   UNL A   1      30.271  29.012  23.709  1.00  0.00     0.047 A 
ATOM      9  C   UNL A   1      30.320  26.692  24.475  1.00  0.00     0.048 A 
ATOM     10  C   UNL A   1      28.990  28.830  23.191  1.00  0.00     0.004 A 
ATOM     11  C   UNL A   1      29.047  26.521  23.901  1.00  0.00     0.013 A 
ATOM     12  C   UNL A   1      28.385  27.580  23.274  1.00  0.00     0.001 A 
BRANCH   9  13
ATOM     13  C   UNL A   1      30.949  25.525  25.208  1.00  0.00     0.302 C 
BRANCH  13  14
ATOM     14  N   UNL A   1      32.367  25.207  24.999  1.00  0.00    -0.331 N 
ATOM     15  C   UNL A   1      33.055  24.493  26.060  1.00  0.00     0.263 C 
ATOM     16  C   UNL A   1      32.741  24.730  23.682  1.00  0.00     0.263 C 
ATOM     17  H   UNL A   1      32.734  26.156  25.054  1.00  0.00     0.348 HD
ATOM     18  C   UNL A   1      32.909  22.973  26.012  1.00  0.00     0.069 C 
ATOM     19  C   UNL A   1      32.541  23.233  23.488  1.00  0.00     0.069 C 
ATOM     20  C   UNL A   1      33.120  22.340  24.613  1.00  0.00    -0.008 C 
ATOM     21  C   UNL A   1      34.627  22.078  24.369  1.00  0.00     0.069 C 
ATOM     22  C   UNL A   1      32.375  20.980  24.548  1.00  0.00     0.069 C 
ATOM     23  C   UNL A   1      35.180  20.931  25.225  1.00  0.00     0.261 C 
ATOM     24  C   UNL A   1      33.002  19.918  25.444  1.00  0.00     0.261 C 
ATOM     25  N   UNL A   1      34.405  19.696  25.082  1.00  0.00    -0.346 N 
ATOM     26  H   UNL A   1      34.798  18.982  25.694  1.00  0.00     0.346 HD
ATOM     27  H   UNL A   1      34.448  19.395  24.109  1.00  0.00     0.346 HD
ENDBRANCH  13  14
ENDBRANCH   9  13
ENDBRANCH   6   7
ENDBRANCH   5   6
ENDBRANCH   3   5
ENDBRANCH   2   3
ENDBRANCH   1   2
BRANCH   1  28
ATOM     28  C   UNL A   1      32.106  33.221  26.903  1.00  0.00     0.275 C 
BRANCH  28  29
ATOM     29  O   UNL A   1      32.969  32.992  28.031  1.00  0.00    -0.458 OA
BRANCH  29  30
ATOM     30  C   UNL A   1      34.059  33.797  28.136  1.00  0.00     0.338 C 
ATOM     31  O   UNL A   1      34.083  35.012  28.081  1.00  0.00    -0.246 OA
BRANCH  30  32
ATOM     32  C   UNL A   1      35.192  32.944  28.558  1.00  0.00     0.060 A 
ATOM     33  C   UNL A   1      34.928  31.651  29.028  1.00  0.00     0.016 A 
ATOM     34  C   UNL A   1      36.509  33.394  28.431  1.00  0.00     0.016 A 
ATOM     35  C   UNL A   1      35.980  30.805  29.376  1.00  0.00     0.010 A 
ATOM     36  C   UNL A   1      37.560  32.560  28.808  1.00  0.00     0.010 A 
ATOM     37  C   UNL A   1      37.299  31.273  29.306  1.00  0.00    -0.014 A 
BRANCH  37  38
ATOM     38  C   UNL A   1      38.386  30.535  29.983  1.00  0.00     0.031 A 
ATOM     39  C   UNL A   1      38.724  30.941  31.392  1.00  0.00     0.074 A 
ATOM     40  C   UNL A   1      39.097  29.584  29.353  1.00  0.00     0.049 A 
ATOM     41  N   UNL A   1      39.672  30.503  32.176  1.00  0.00    -0.248 NA
ATOM     42  C   UNL A   1      37.880  31.991  31.990  1.00  0.00     0.031 C 
ATOM     43  C   UNL A   1      38.865  29.112  27.989  1.00  0.00     0.029 A 
ATOM     44  N   UNL A   1      40.188  28.868  29.778  1.00  0.00    -0.354 N 
ATOM     45  C   UNL A   1      39.548  31.231  33.352  1.00  0.00     0.074 A 
ATOM     46  C   UNL A   1      38.445  32.148  33.177  1.00  0.00     0.031 C 
ATOM     47  C   UNL A   1      39.814  28.212  27.674  1.00  0.00     0.029 A 
ATOM     48  C   UNL A   1      40.726  28.057  28.807  1.00  0.00     0.049 A 
ATOM     49  H   UNL A   1      40.551  28.930  30.691  1.00  0.00     0.167 HD
ATOM     50  C   UNL A   1      40.279  31.137  34.486  1.00  0.00     0.034 A 
ATOM     51  C   UNL A   1      41.838  27.294  28.832  1.00  0.00     0.034 A 
ATOM     52  C   UNL A   1      41.381  30.235  34.657  1.00  0.00     0.049 A 
ATOM     53  C   UNL A   1      42.658  27.233  30.098  1.00  0.00     0.074 A 
ATOM     54  C   UNL A   1      42.169  30.042  35.776  1.00  0.00     0.029 A 
ATOM     55  N   UNL A   1      41.860  29.385  33.672  1.00  0.00    -0.354 N 
ATOM     56  N   UNL A   1      42.448  27.824  31.251  1.00  0.00    -0.248 NA
ATOM     57  C   UNL A   1      43.852  26.374  30.077  1.00  0.00     0.031 C 
ATOM     58  C   UNL A   1      43.143  29.088  35.460  1.00  0.00     0.029 A 
ATOM     59  C   UNL A   1      42.944  28.672  34.153  1.00  0.00     0.049 A 
ATOM     60  H   UNL A   1      41.487  29.303  32.766  1.00  0.00     0.167 HD
ATOM     61  C   UNL A   1      43.456  27.376  32.100  1.00  0.00     0.074 A 
ATOM     62  C   UNL A   1      44.267  26.453  31.335  1.00  0.00     0.031 C 
ATOM     63  C   UNL A   1      43.698  27.709  33.394  1.00  0.00     0.034 A 
BRANCH  50  64
ATOM     64  C   UNL A   1      39.883  32.024  35.633  1.00  0.00     0.023 A 
ATOM     65  C   UNL A   1      40.532  33.264  35.805  1.00  0.00     0.012 A 
ATOM     66  C   UNL A   1      38.865  31.644  36.526  1.00  0.00     0.148 A 
ATOM     67  C   UNL A   1      40.191  34.101  36.866  1.00  0.00     0.002 A 
ATOM     68  C   UNL A   1      38.503  32.502  37.558  1.00  0.00     0.091 A 
ATOM     69  F   UNL A   1      38.285  30.446  36.364  1.00  0.00    -0.205 F 
ATOM     70  C   UNL A   1      39.172  33.724  37.735  1.00  0.00     0.022 A 
BRANCH  68  71
ATOM     71  S   UNL A   1      37.159  32.134  38.692  1.00  0.00     0.127 S 
ATOM     72  O   UNL A   1      37.092  30.676  38.608  1.00  0.00    -0.237 OA
ATOM     73  O   UNL A   1      37.678  32.649  39.959  1.00  0.00    -0.237 OA
ATOM     74  O   UNL A   1      35.997  32.846  38.178  1.00  0.00    -0.744 OA
ENDBRANCH  68  71
ENDBRANCH  50  64
BRANCH  51  75
ATOM     75  C   UNL A   1      42.226  26.490  27.638  1.00  0.00     0.023 A 
ATOM     76  C   UNL A   1      42.927  27.110  26.584  1.00  0.00     0.012 A 
ATOM     77  C   UNL A   1      41.906  25.122  27.536  1.00  0.00     0.148 A 
ATOM     78  C   UNL A   1      43.270  26.393  25.438  1.00  0.00     0.002 A 
ATOM     79  C   UNL A   1      42.297  24.401  26.413  1.00  0.00     0.091 A 
ATOM     80  F   UNL A   1      41.221  24.553  28.539  1.00  0.00    -0.205 F 
ATOM     81  C   UNL A   1      42.963  25.038  25.355  1.00  0.00     0.022 A 
BRANCH  79  82
ATOM     82  S   UNL A   1      42.054  22.626  26.276  1.00  0.00     0.127 S 
ATOM     83  O   UNL A   1      42.724  22.138  27.478  1.00  0.00    -0.237 OA
ATOM     84  O   UNL A   1      40.595  22.518  26.297  1.00  0.00    -0.237 OA
ATOM     85  O   UNL A   1      42.662  22.244  25.009  1.00  0.00    -0.744 OA
ENDBRANCH  79  82
ENDBRANCH  51  75
BRANCH  63  86
ATOM     86  C   UNL A   1      44.862  27.048  34.085  1.00  0.00     0.023 A 
ATOM     87  C   UNL A   1      46.140  27.638  34.023  1.00  0.00     0.012 A 
ATOM     88  C   UNL A   1      44.667  25.898  34.876  1.00  0.00     0.148 A 
ATOM     89  C   UNL A   1      47.212  27.077  34.717  1.00  0.00     0.002 A 
ATOM     90  C   UNL A   1      45.730  25.373  35.603  1.00  0.00     0.091 A 
ATOM     91  F   UNL A   1      43.448  25.341  34.908  1.00  0.00    -0.205 F 
ATOM     92  C   UNL A   1      47.005  25.955  35.516  1.00  0.00     0.022 A 
BRANCH  90  93
ATOM     93  S   UNL A   1      45.530  23.991  36.733  1.00  0.00     0.127 S 
ATOM     94  O   UNL A   1      46.882  23.845  37.267  1.00  0.00    -0.237 OA
ATOM     95  O   UNL A   1      44.548  24.508  37.688  1.00  0.00    -0.237 OA
ATOM     96  O   UNL A   1      45.051  22.880  35.922  1.00  0.00    -0.744 OA
ENDBRANCH  90  93
ENDBRANCH  63  86
ENDBRANCH  37  38
ENDBRANCH  30  32
ENDBRANCH  29  30
ENDBRANCH  28  29
ENDBRANCH   1  28
TORSDOF 18
ENDMDL
MODEL 2
REMARK VINA RESULT:     -12.0      5.201      8.457
REMARK SMILES O=C(COc1ccccc1C[NH+]1CCC2(CC[NH2+]CC2)CC1)OCCOC(=O)c1ccc(-c2c3nc(c(-c4cccc(S(=O)(=O)[O-])c4F)c4ccc([nH]4)c(-c4cccc(S(=O)(=O)[O-])c4F)c4nc(c(-c5cccc(S(=O)(=O)[O-])c5F)c5ccc2[nH]5)C=C4)C=C3)cc1
REMARK SMILES IDX 24 1 23 2 2 3 1 4 3 5 4 6 5 7 6 8 10 9 7 10 9 11 8 12 11 13
REMARK SMILES IDX 12 14 13 15 22 16 14 18 21 19 15 20 16 21 20 22 17 23 19 24
REMARK SMILES IDX 18 25 25 28 26 29 27 30 28 31 29 32 30 33 91 34 31 35 90 36
REMARK SMILES IDX 32 37 33 38 34 39 84 40 35 41 89 42 83 43 85 44 36 45 88 46
REMARK SMILES IDX 82 47 81 48 37 50 69 51 49 52 68 53 50 54 53 55 67 56 86 57
REMARK SMILES IDX 51 58 52 59 66 61 87 62 54 63 38 64 39 65 47 66 40 67 42 68
REMARK SMILES IDX 48 69 41 70 43 71 44 72 45 73 46 74 70 75 71 76 79 77 72 78
REMARK SMILES IDX 74 79 80 80 73 81 75 82 76 83 77 84 78 85 55 86 56 87 64 88
REMARK SMILES IDX 57 89 59 90 65 91 58 92 60 93 61 94 62 95 63 96
REMARK H PARENT 12 17 18 26 18 27 85 49 53 60
REMARK Flexibility Score: inf
ROOT
ATOM      1  C   UNL A   1      35.224  20.641  25.268  1.00  0.00     0.274 C 
ENDROOT
BRANCH   1   2
ATOM      2  O   UNL A   1      34.331  19.710  24.627  1.00  0.00    -0.460 OA
BRANCH   2   3
ATOM      3  C   UNL A   1      33.046  20.024  24.325  1.00  0.00     0.344 C 
ATOM      4  O   UNL A   1      32.542  19.611  23.282  1.00  0.00    -0.248 OA
BRANCH   3   5
ATOM      5  C   UNL A   1      32.238  20.824  25.338  1.00  0.00     0.351 C 
BRANCH   5   6
ATOM      6  O   UNL A   1      31.921  22.108  24.810  1.00  0.00    -0.481 OA
BRANCH   6   7
ATOM      7  C   UNL A   1      32.965  22.984  24.965  1.00  0.00     0.129 A 
ATOM      8  C   UNL A   1      33.442  23.170  26.268  1.00  0.00     0.047 A 
ATOM      9  C   UNL A   1      33.449  23.757  23.895  1.00  0.00     0.048 A 
ATOM     10  C   UNL A   1      34.460  24.090  26.514  1.00  0.00     0.004 A 
ATOM     11  C   UNL A   1      34.508  24.644  24.162  1.00  0.00     0.013 A 
ATOM     12  C   UNL A   1      35.003  24.815  25.458  1.00  0.00     0.001 A 
BRANCH   9  13
ATOM     13  C   UNL A   1      32.908  23.676  22.482  1.00  0.00     0.302 C 
BRANCH  13  14
ATOM     14  N   UNL A   1      31.935  24.670  22.014  1.00  0.00    -0.331 N 
ATOM     15  C   UNL A   1      30.932  25.122  22.963  1.00  0.00     0.263 C 
ATOM     16  C   UNL A   1      32.449  25.753  21.198  1.00  0.00     0.263 C 
ATOM     17  H   UNL A   1      31.420  24.071  21.370  1.00  0.00     0.348 HD
ATOM     18  C   UNL A   1      31.376  26.271  23.868  1.00  0.00     0.069 C 
ATOM     19  C   UNL A   1      33.012  26.917  22.002  1.00  0.00     0.069 C 
ATOM     20  C   UNL A   1      32.098  27.434  23.141  1.00  0.00    -0.008 C 
ATOM     21  C   UNL A   1      31.060  28.439  22.584  1.00  0.00     0.069 C 
ATOM     22  C   UNL A   1      33.006  28.184  24.152  1.00  0.00     0.069 C 
ATOM     23  C   UNL A   1      30.366  29.253  23.684  1.00  0.00     0.261 C 
ATOM     24  C   UNL A   1      32.213  28.949  25.206  1.00  0.00     0.261 C 
ATOM     25  N   UNL A   1      31.316  29.922  24.575  1.00  0.00    -0.346 N 
ATOM     26  H   UNL A   1      30.800  30.419  25.300  1.00  0.00     0.346 HD
ATOM     27  H   UNL A   1      31.876  30.573  24.025  1.00  0.00     0.346 HD
ENDBRANCH  13  14
ENDBRANCH   9  13
ENDBRANCH   6   7
ENDBRANCH   5   6
ENDBRANCH   3   5
ENDBRANCH   2   3
ENDBRANCH   1   2
BRANCH   1  28
ATOM     28  C   UNL A   1      36.674  20.263  24.962  1.00  0.00     0.275 C 
BRANCH  28  29
ATOM     29  O   UNL A   1      37.535  21.337  25.379  1.00  0.00    -0.458 OA
BRANCH  29  30
ATOM     30  C   UNL A   1      38.764  20.987  25.841  1.00  0.00     0.338 C 
ATOM     31  O   UNL A   1      39.332  19.923  25.683  1.00  0.00    -0.246 OA
BRANCH  30  32
ATOM     32  C   UNL A   1      39.392  22.213  26.382  1.00  0.00     0.060 A 
ATOM     33  C   UNL A   1      38.889  23.460  25.991  1.00  0.00     0.016 A 
ATOM     34  C   UNL A   1      40.428  22.130  27.318  1.00  0.00     0.016 A 
ATOM     35  C   UNL A   1      39.423  24.630  26.532  1.00  0.00     0.010 A 
ATOM     36  C   UNL A   1      40.983  23.298  27.834  1.00  0.00     0.010 A 
ATOM     37  C   UNL A   1      40.501  24.552  27.424  1.00  0.00    -0.014 A 
BRANCH  37  38
ATOM     38  C   UNL A   1      41.294  25.760  27.736  1.00  0.00     0.031 A 
ATOM     39  C   UNL A   1      40.600  26.872  28.474  1.00  0.00     0.074 A 
ATOM     40  C   UNL A   1      42.567  25.898  27.324  1.00  0.00     0.049 A 
ATOM     41  N   UNL A   1      41.048  28.053  28.805  1.00  0.00    -0.248 NA
ATOM     42  C   UNL A   1      39.208  26.615  28.884  1.00  0.00     0.031 C 
ATOM     43  C   UNL A   1      43.339  24.892  26.598  1.00  0.00     0.029 A 
ATOM     44  N   UNL A   1      43.419  26.967  27.432  1.00  0.00    -0.354 N 
ATOM     45  C   UNL A   1      39.991  28.684  29.449  1.00  0.00     0.074 A 
ATOM     46  C   UNL A   1      38.877  27.765  29.450  1.00  0.00     0.031 C 
ATOM     47  C   UNL A   1      44.543  25.409  26.289  1.00  0.00     0.029 A 
ATOM     48  C   UNL A   1      44.618  26.784  26.782  1.00  0.00     0.049 A 
ATOM     49  H   UNL A   1      43.195  27.789  27.928  1.00  0.00     0.167 HD
ATOM     50  C   UNL A   1      39.953  29.917  30.003  1.00  0.00     0.034 A 
ATOM     51  C   UNL A   1      45.643  27.640  26.596  1.00  0.00     0.034 A 
ATOM     52  C   UNL A   1      41.056  30.834  29.993  1.00  0.00     0.049 A 
ATOM     53  C   UNL A   1      45.563  29.024  27.194  1.00  0.00     0.074 A 
ATOM     54  C   UNL A   1      41.131  32.097  30.551  1.00  0.00     0.029 A 
ATOM     55  N   UNL A   1      42.274  30.592  29.378  1.00  0.00    -0.354 N 
ATOM     56  N   UNL A   1      44.610  29.558  27.920  1.00  0.00    -0.248 NA
ATOM     57  C   UNL A   1      46.715  29.911  26.974  1.00  0.00     0.031 C 
ATOM     58  C   UNL A   1      42.389  32.628  30.253  1.00  0.00     0.029 A 
ATOM     59  C   UNL A   1      43.106  31.687  29.531  1.00  0.00     0.049 A 
ATOM     60  H   UNL A   1      42.512  29.765  28.901  1.00  0.00     0.167 HD
ATOM     61  C   UNL A   1      45.065  30.825  28.277  1.00  0.00     0.074 A 
ATOM     62  C   UNL A   1      46.385  30.971  27.701  1.00  0.00     0.031 C 
ATOM     63  C   UNL A   1      44.442  31.787  29.004  1.00  0.00     0.034 A 
BRANCH  50  64
ATOM     64  C   UNL A   1      38.679  30.323  30.687  1.00  0.00     0.023 A 
ATOM     65  C   UNL A   1      38.486  29.994  32.045  1.00  0.00     0.012 A 
ATOM     66  C   UNL A   1      37.683  31.043  30.001  1.00  0.00     0.148 A 
ATOM     67  C   UNL A   1      37.310  30.350  32.701  1.00  0.00     0.002 A 
ATOM     68  C   UNL A   1      36.531  31.429  30.673  1.00  0.00     0.091 A 
ATOM     69  F   UNL A   1      37.872  31.316  28.702  1.00  0.00    -0.205 F 
ATOM     70  C   UNL A   1      36.338  31.075  32.018  1.00  0.00     0.022 A 
BRANCH  68  71
ATOM     71  S   UNL A   1      35.249  32.420  29.898  1.00  0.00     0.127 S 
ATOM     72  O   UNL A   1      34.319  32.622  31.009  1.00  0.00    -0.237 OA
ATOM     73  O   UNL A   1      35.987  33.618  29.496  1.00  0.00    -0.237 OA
ATOM     74  O   UNL A   1      34.739  31.622  28.792  1.00  0.00    -0.744 OA
ENDBRANCH  68  71
ENDBRANCH  50  64
BRANCH  51  75
ATOM     75  C   UNL A   1      46.856  27.208  25.844  1.00  0.00     0.023 A 
ATOM     76  C   UNL A   1      47.812  26.394  26.484  1.00  0.00     0.012 A 
ATOM     77  C   UNL A   1      47.072  27.596  24.507  1.00  0.00     0.148 A 
ATOM     78  C   UNL A   1      48.975  26.004  25.819  1.00  0.00     0.002 A 
ATOM     79  C   UNL A   1      48.208  27.161  23.834  1.00  0.00     0.091 A 
ATOM     80  F   UNL A   1      46.161  28.387  23.920  1.00  0.00    -0.205 F 
ATOM     81  C   UNL A   1      49.170  26.380  24.493  1.00  0.00     0.022 A 
BRANCH  79  82
ATOM     82  S   UNL A   1      48.479  27.493  22.089  1.00  0.00     0.127 S 
ATOM     83  O   UNL A   1      47.254  28.197  21.724  1.00  0.00    -0.237 OA
ATOM     84  O   UNL A   1      49.682  28.325  22.123  1.00  0.00    -0.237 OA
ATOM     85  O   UNL A   1      48.673  26.190  21.469  1.00  0.00    -0.744 OA
ENDBRANCH  79  82
ENDBRANCH  51  75
BRANCH  63  86
ATOM     86  C   UNL A   1      45.186  33.072  29.257  1.00  0.00     0.023 A 
ATOM     87  C   UNL A   1      46.042  33.177  30.371  1.00  0.00     0.012 A 
ATOM     88  C   UNL A   1      45.112  34.137  28.337  1.00  0.00     0.148 A 
ATOM     89  C   UNL A   1      46.792  34.333  30.580  1.00  0.00     0.002 A 
ATOM     90  C   UNL A   1      45.899  35.267  28.527  1.00  0.00     0.091 A 
ATOM     91  F   UNL A   1      44.279  34.025  27.293  1.00  0.00    -0.205 F 
ATOM     92  C   UNL A   1      46.731  35.371  29.653  1.00  0.00     0.022 A 
BRANCH  90  93
ATOM     93  S   UNL A   1      45.958  36.607  27.332  1.00  0.00     0.127 S 
ATOM     94  O   UNL A   1      44.539  36.899  27.140  1.00  0.00    -0.237 OA
ATOM     95  O   UNL A   1      46.702  37.639  28.055  1.00  0.00    -0.237 OA
ATOM     96  O   UNL A   1      46.651  36.071  26.167  1.00  0.00    -0.744 OA
ENDBRANCH  90  93
ENDBRANCH  63  86
ENDBRANCH  37  38
ENDBRANCH  30  32
ENDBRANCH  29  30
ENDBRANCH  28  29
ENDBRANCH   1  28
TORSDOF 18
ENDMDL
MODEL 3
REMARK VINA RESULT:     -11.8      0.798      7.492
REMARK SMILES O=C(COc1ccccc1C[NH+]1CCC2(CC[NH2+]CC2)CC1)OCCOC(=O)c1ccc(-c2c3nc(c(-c4cccc(S(=O)(=O)[O-])c4F)c4ccc([nH]4)c(-c4cccc(S(=O)(=O)[O-])c4F)c4nc(c(-c5cccc(S(=O)(=O)[O-])c5F)c5ccc2[nH]5)C=C4)C=C3)cc1
REMARK SMILES IDX 24 1 23 2 2 3 1 4 3 5 4 6 5 7 6 8 10 9 7 10 9 11 8 12 11 13
REMARK SMILES IDX 12 14 13 15 22 16 14 18 21 19 15 20 16 21 20 22 17 23 19 24
REMARK SMILES IDX 18 25 25 28 26 29 27 30 28 31 29 32 30 33 91 34 31 35 90 36
REMARK SMILES IDX 32 37 33 38 34 39 84 40 35 41 89 42 83 43 85 44 36 45 88 46
REMARK SMILES IDX 82 47 81 48 37 50 69 51 49 52 68 53 50 54 53 55 67 56 86 57
REMARK SMILES IDX 51 58 52 59 66 61 87 62 54 63 38 64 39 65 47 66 40 67 42 68
REMARK SMILES IDX 48 69 41 70 43 71 44 72 45 73 46 74 70 75 71 76 79 77 72 78
REMARK SMILES IDX 74 79 80 80 73 81 75 82 76 83 77 84 78 85 55 86 56 87 64 88
REMARK SMILES IDX 57 89 59 90 65 91 58 92 60 93 61 94 62 95 63 96
REMARK H PARENT 12 17 18 26 18 27 85 49 53 60
REMARK Flexibility Score: inf
ROOT
ATOM      1  C   UNL A   1      31.689  30.206  25.214  1.00  0.00     0.274 C 
ENDROOT
BRANCH   1   2
ATOM      2  O   UNL A   1      32.966  29.542  25.138  1.00  0.00    -0.460 OA
BRANCH   2   3
ATOM      3  C   UNL A   1      33.232  28.578  24.222  1.00  0.00     0.344 C 
ATOM      4  O   UNL A   1      33.966  27.636  24.517  1.00  0.00    -0.248 OA
BRANCH   3   5
ATOM      5  C   UNL A   1      32.544  28.657  22.866  1.00  0.00     0.351 C 
BRANCH   5   6
ATOM      6  O   UNL A   1      31.890  27.426  22.574  1.00  0.00    -0.481 OA
BRANCH   6   7
ATOM      7  C   UNL A   1      30.550  27.493  22.857  1.00  0.00     0.129 A 
ATOM      8  C   UNL A   1      29.903  28.699  22.560  1.00  0.00     0.047 A 
ATOM      9  C   UNL A   1      29.882  26.456  23.530  1.00  0.00     0.048 A 
ATOM     10  C   UNL A   1      28.556  28.865  22.876  1.00  0.00     0.004 A 
ATOM     11  C   UNL A   1      28.511  26.630  23.794  1.00  0.00     0.013 A 
ATOM     12  C   UNL A   1      27.856  27.824  23.479  1.00  0.00     0.001 A 
BRANCH   9  13
ATOM     13  C   UNL A   1      30.548  25.167  23.968  1.00  0.00     0.302 C 
BRANCH  13  14
ATOM     14  N   UNL A   1      32.012  25.062  23.964  1.00  0.00    -0.331 N 
ATOM     15  C   UNL A   1      32.655  24.642  25.197  1.00  0.00     0.263 C 
ATOM     16  C   UNL A   1      32.620  24.461  22.793  1.00  0.00     0.263 C 
ATOM     17  H   UNL A   1      32.224  26.057  23.895  1.00  0.00     0.348 HD
ATOM     18  C   UNL A   1      32.742  23.129  25.392  1.00  0.00     0.069 C 
ATOM     19  C   UNL A   1      32.670  22.940  22.837  1.00  0.00     0.069 C 
ATOM     20  C   UNL A   1      33.224  22.336  24.151  1.00  0.00    -0.008 C 
ATOM     21  C   UNL A   1      34.772  22.296  24.114  1.00  0.00     0.069 C 
ATOM     22  C   UNL A   1      32.703  20.877  24.241  1.00  0.00     0.069 C 
ATOM     23  C   UNL A   1      35.373  21.400  25.205  1.00  0.00     0.261 C 
ATOM     24  C   UNL A   1      33.359  20.083  25.365  1.00  0.00     0.261 C 
ATOM     25  N   UNL A   1      34.814  20.046  25.194  1.00  0.00    -0.346 N 
ATOM     26  H   UNL A   1      35.226  19.509  25.956  1.00  0.00     0.346 HD
ATOM     27  H   UNL A   1      35.026  19.613  24.296  1.00  0.00     0.346 HD
ENDBRANCH  13  14
ENDBRANCH   9  13
ENDBRANCH   6   7
ENDBRANCH   5   6
ENDBRANCH   3   5
ENDBRANCH   2   3
ENDBRANCH   1   2
BRANCH   1  28
ATOM     28  C   UNL A   1      31.627  31.067  26.476  1.00  0.00     0.275 C 
BRANCH  28  29
ATOM     29  O   UNL A   1      32.853  30.905  27.212  1.00  0.00    -0.458 OA
BRANCH  29  30
ATOM     30  C   UNL A   1      33.548  32.038  27.493  1.00  0.00     0.338 C 
ATOM     31  O   UNL A   1      33.125  33.179  27.490  1.00  0.00    -0.246 OA
BRANCH  30  32
ATOM     32  C   UNL A   1      34.863  31.622  28.028  1.00  0.00     0.060 A 
ATOM     33  C   UNL A   1      35.062  30.277  28.366  1.00  0.00     0.016 A 
ATOM     34  C   UNL A   1      35.913  32.539  28.135  1.00  0.00     0.016 A 
ATOM     35  C   UNL A   1      36.310  29.845  28.816  1.00  0.00     0.010 A 
ATOM     36  C   UNL A   1      37.150  32.115  28.614  1.00  0.00     0.010 A 
ATOM     37  C   UNL A   1      37.346  30.774  28.981  1.00  0.00    -0.014 A 
BRANCH  37  38
ATOM     38  C   UNL A   1      38.545  30.416  29.768  1.00  0.00     0.031 A 
ATOM     39  C   UNL A   1      39.478  29.393  29.180  1.00  0.00     0.074 A 
ATOM     40  C   UNL A   1      38.769  30.927  30.991  1.00  0.00     0.049 A 
ATOM     41  N   UNL A   1      40.553  28.859  29.693  1.00  0.00    -0.248 NA
ATOM     42  C   UNL A   1      39.142  28.901  27.832  1.00  0.00     0.031 C 
ATOM     43  C   UNL A   1      37.933  31.919  31.664  1.00  0.00     0.029 A 
ATOM     44  N   UNL A   1      39.759  30.646  31.899  1.00  0.00    -0.354 N 
ATOM     45  C   UNL A   1      41.014  27.961  28.740  1.00  0.00     0.074 A 
ATOM     46  C   UNL A   1      40.098  28.009  27.624  1.00  0.00     0.031 C 
ATOM     47  C   UNL A   1      38.425  32.135  32.898  1.00  0.00     0.029 A 
ATOM     48  C   UNL A   1      39.598  31.286  33.105  1.00  0.00     0.049 A 
ATOM     49  H   UNL A   1      40.514  30.044  31.705  1.00  0.00     0.167 HD
ATOM     50  C   UNL A   1      42.112  27.173  28.781  1.00  0.00     0.034 A 
ATOM     51  C   UNL A   1      40.309  31.179  34.246  1.00  0.00     0.034 A 
ATOM     52  C   UNL A   1      43.017  27.117  29.892  1.00  0.00     0.049 A 
ATOM     53  C   UNL A   1      41.511  30.266  34.279  1.00  0.00     0.074 A 
ATOM     54  C   UNL A   1      44.175  26.373  30.023  1.00  0.00     0.029 A 
ATOM     55  N   UNL A   1      42.855  27.824  31.074  1.00  0.00    -0.354 N 
ATOM     56  N   UNL A   1      42.015  29.525  33.321  1.00  0.00    -0.248 NA
ATOM     57  C   UNL A   1      42.261  30.198  35.543  1.00  0.00     0.031 C 
ATOM     58  C   UNL A   1      44.703  26.613  31.296  1.00  0.00     0.029 A 
ATOM     59  C   UNL A   1      43.886  27.525  31.947  1.00  0.00     0.049 A 
ATOM     60  H   UNL A   1      42.116  28.444  31.264  1.00  0.00     0.167 HD
ATOM     61  C   UNL A   1      43.161  28.939  33.852  1.00  0.00     0.074 A 
ATOM     62  C   UNL A   1      43.285  29.423  35.210  1.00  0.00     0.031 C 
ATOM     63  C   UNL A   1      44.026  28.067  33.273  1.00  0.00     0.034 A 
BRANCH  50  64
ATOM     64  C   UNL A   1      42.399  26.330  27.570  1.00  0.00     0.023 A 
ATOM     65  C   UNL A   1      43.082  26.900  26.476  1.00  0.00     0.012 A 
ATOM     66  C   UNL A   1      42.013  24.978  27.519  1.00  0.00     0.148 A 
ATOM     67  C   UNL A   1      43.352  26.144  25.337  1.00  0.00     0.002 A 
ATOM     68  C   UNL A   1      42.321  24.220  26.396  1.00  0.00     0.091 A 
ATOM     69  F   UNL A   1      41.335  24.466  28.556  1.00  0.00    -0.205 F 
ATOM     70  C   UNL A   1      42.980  24.803  25.301  1.00  0.00     0.022 A 
BRANCH  68  71
ATOM     71  S   UNL A   1      41.941  22.468  26.281  1.00  0.00     0.127 S 
ATOM     72  O   UNL A   1      42.565  21.950  27.499  1.00  0.00    -0.237 OA
ATOM     73  O   UNL A   1      40.478  22.469  26.299  1.00  0.00    -0.237 OA
ATOM     74  O   UNL A   1      42.532  22.011  25.031  1.00  0.00    -0.744 OA
ENDBRANCH  68  71
ENDBRANCH  50  64
BRANCH  51  75
ATOM     75  C   UNL A   1      39.937  31.985  35.443  1.00  0.00     0.023 A 
ATOM     76  C   UNL A   1      40.562  33.229  35.662  1.00  0.00     0.012 A 
ATOM     77  C   UNL A   1      38.973  31.532  36.366  1.00  0.00     0.148 A 
ATOM     78  C   UNL A   1      40.262  33.989  36.792  1.00  0.00     0.002 A 
ATOM     79  C   UNL A   1      38.641  32.319  37.463  1.00  0.00     0.091 A 
ATOM     80  F   UNL A   1      38.402  30.338  36.153  1.00  0.00    -0.205 F 
ATOM     81  C   UNL A   1      39.296  33.538  37.688  1.00  0.00     0.022 A 
BRANCH  79  82
ATOM     82  S   UNL A   1      37.321  31.877  38.600  1.00  0.00     0.127 S 
ATOM     83  O   UNL A   1      37.093  30.475  38.263  1.00  0.00    -0.237 OA
ATOM     84  O   UNL A   1      37.953  32.104  39.900  1.00  0.00    -0.237 OA
ATOM     85  O   UNL A   1      36.226  32.789  38.302  1.00  0.00    -0.744 OA
ENDBRANCH  79  82
ENDBRANCH  51  75
BRANCH  63  86
ATOM     86  C   UNL A   1      45.208  27.604  34.084  1.00  0.00     0.023 A 
ATOM     87  C   UNL A   1      46.392  28.367  34.093  1.00  0.00     0.012 A 
ATOM     88  C   UNL A   1      45.109  26.468  34.911  1.00  0.00     0.148 A 
ATOM     89  C   UNL A   1      47.469  27.991  34.894  1.00  0.00     0.002 A 
ATOM     90  C   UNL A   1      46.170  26.127  35.742  1.00  0.00     0.091 A 
ATOM     91  F   UNL A   1      43.981  25.745  34.874  1.00  0.00    -0.205 F 
ATOM     92  C   UNL A   1      47.354  26.881  35.727  1.00  0.00     0.022 A 
BRANCH  90  93
ATOM     93  S   UNL A   1      46.070  24.772  36.918  1.00  0.00     0.127 S 
ATOM     94  O   UNL A   1      47.405  24.794  37.513  1.00  0.00    -0.237 OA
ATOM     95  O   UNL A   1      44.996  25.211  37.811  1.00  0.00    -0.237 OA
ATOM     96  O   UNL A   1      45.751  23.586  36.134  1.00  0.00    -0.744 OA
ENDBRANCH  90  93
ENDBRANCH  63  86
ENDBRANCH  37  38
ENDBRANCH  30  32
ENDBRANCH  29  30
ENDBRANCH  28  29
ENDBRANCH   1  28
TORSDOF 18
ENDMDL
