MODEL 1
REMARK VINA RESULT:     -10.5      0.000      0.000
REMARK SMILES CN(C(=O)[C@H]1CCCC[C@H]1C(=O)OCCOC(=O)c1ccc(-c2c3nc(c(-c4cccc(S(=O)(=O)[O-])c4F)c4ccc([nH]4)c(-c4cccc(S(=O)(=O)[O-])c4F)c4nc(c(-c5cccc(S(=O)(=O)[O-])c5F)c5ccc2[nH]5)C=C4)C=C3)cc1)C1CC1
REMARK SMILES IDX 14 1 13 2 11 3 12 4 10 5 5 6 6 7 7 8 9 9 8 10 3 11 4 12 2 13
REMARK SMILES IDX 1 14 82 15 83 16 84 17 15 18 16 19 17 20 18 21 19 22 20 23
REMARK SMILES IDX 81 24 21 25 80 26 22 27 23 28 24 29 74 30 25 31 79 32 73 33
REMARK SMILES IDX 75 34 26 35 78 36 72 37 71 38 27 40 59 41 39 42 58 43 40 44
REMARK SMILES IDX 43 45 57 46 76 47 41 48 42 49 56 51 77 52 44 53 28 54 29 55
REMARK SMILES IDX 37 56 30 57 32 58 38 59 31 60 33 61 34 62 35 63 36 64 60 65
REMARK SMILES IDX 61 66 69 67 62 68 64 69 70 70 63 71 65 72 66 73 67 74 68 75
REMARK SMILES IDX 45 76 46 77 54 78 47 79 49 80 55 81 48 82 50 83 51 84 52 85
REMARK SMILES IDX 53 86
REMARK H PARENT 75 39 43 50
REMARK Flexibility Score: inf
ROOT
ATOM      1  C   UNL A   1      31.741  28.535  27.198  1.00  0.00     0.274 C 
ENDROOT
BRANCH   1   2
ATOM      2  O   UNL A   1      32.537  27.475  26.634  1.00  0.00    -0.462 OA
BRANCH   2   3
ATOM      3  C   UNL A   1      31.902  26.304  26.391  1.00  0.00     0.309 C 
ATOM      4  O   UNL A   1      30.727  26.084  26.674  1.00  0.00    -0.252 OA
BRANCH   3   5
ATOM      5  C   UNL A   1      32.753  25.270  25.669  1.00  0.00     0.111 C 
ATOM      6  C   UNL A   1      32.490  25.033  24.160  1.00  0.00     0.093 C 
ATOM      7  C   UNL A   1      33.358  23.841  23.709  1.00  0.00     0.014 C 
ATOM      8  C   UNL A   1      34.842  24.053  23.997  1.00  0.00     0.001 C 
ATOM      9  C   UNL A   1      34.240  25.483  25.995  1.00  0.00     0.016 C 
ATOM     10  C   UNL A   1      35.097  24.336  25.473  1.00  0.00     0.001 C 
BRANCH   6  11
ATOM     11  C   UNL A   1      32.716  26.286  23.293  1.00  0.00     0.226 C 
ATOM     12  O   UNL A   1      33.596  27.100  23.596  1.00  0.00    -0.275 OA
BRANCH  11  13
ATOM     13  N   UNL A   1      31.909  26.489  22.171  1.00  0.00    -0.343 N 
ATOM     14  C   UNL A   1      32.159  25.954  20.834  1.00  0.00     0.147 C 
BRANCH  13  15
ATOM     15  C   UNL A   1      30.653  27.192  22.325  1.00  0.00     0.084 C 
ATOM     16  C   UNL A   1      30.261  27.887  23.603  1.00  0.00     0.027 C 
ATOM     17  C   UNL A   1      30.594  28.698  22.390  1.00  0.00     0.027 C 
ENDBRANCH  13  15
ENDBRANCH  11  13
ENDBRANCH   6  11
ENDBRANCH   3   5
ENDBRANCH   2   3
ENDBRANCH   1   2
BRANCH   1  18
ATOM     18  C   UNL A   1      31.776  29.768  26.297  1.00  0.00     0.275 C 
BRANCH  18  19
ATOM     19  O   UNL A   1      33.116  30.269  26.153  1.00  0.00    -0.458 OA
BRANCH  19  20
ATOM     20  C   UNL A   1      33.438  31.287  26.985  1.00  0.00     0.338 C 
ATOM     21  O   UNL A   1      32.751  32.249  27.285  1.00  0.00    -0.246 OA
BRANCH  20  22
ATOM     22  C   UNL A   1      34.734  31.007  27.618  1.00  0.00     0.060 A 
ATOM     23  C   UNL A   1      35.016  29.685  27.970  1.00  0.00     0.016 A 
ATOM     24  C   UNL A   1      35.626  32.034  27.930  1.00  0.00     0.016 A 
ATOM     25  C   UNL A   1      36.190  29.380  28.651  1.00  0.00     0.010 A 
ATOM     26  C   UNL A   1      36.803  31.728  28.616  1.00  0.00     0.010 A 
ATOM     27  C   UNL A   1      37.082  30.402  28.995  1.00  0.00    -0.014 A 
BRANCH  27  28
ATOM     28  C   UNL A   1      38.284  30.089  29.799  1.00  0.00     0.031 A 
ATOM     29  C   UNL A   1      39.306  29.126  29.268  1.00  0.00     0.074 A 
ATOM     30  C   UNL A   1      38.444  30.653  31.010  1.00  0.00     0.049 A 
ATOM     31  N   UNL A   1      40.387  28.671  29.842  1.00  0.00    -0.248 NA
ATOM     32  C   UNL A   1      39.073  28.600  27.913  1.00  0.00     0.031 C 
ATOM     33  C   UNL A   1      37.511  31.595  31.628  1.00  0.00     0.029 A 
ATOM     34  N   UNL A   1      39.431  30.491  31.947  1.00  0.00    -0.354 N 
ATOM     35  C   UNL A   1      40.945  27.774  28.940  1.00  0.00     0.074 A 
ATOM     36  C   UNL A   1      40.082  27.749  27.778  1.00  0.00     0.031 C 
ATOM     37  C   UNL A   1      37.952  31.901  32.858  1.00  0.00     0.029 A 
ATOM     38  C   UNL A   1      39.181  31.157  33.124  1.00  0.00     0.049 A 
ATOM     39  H   UNL A   1      40.239  29.950  31.793  1.00  0.00     0.167 HD
ATOM     40  C   UNL A   1      42.081  27.048  29.064  1.00  0.00     0.034 A 
ATOM     41  C   UNL A   1      39.850  31.144  34.292  1.00  0.00     0.034 A 
ATOM     42  C   UNL A   1      42.953  27.105  30.206  1.00  0.00     0.049 A 
ATOM     43  C   UNL A   1      41.116  30.339  34.401  1.00  0.00     0.074 A 
ATOM     44  C   UNL A   1      44.161  26.458  30.400  1.00  0.00     0.029 A 
ATOM     45  N   UNL A   1      42.707  27.844  31.353  1.00  0.00    -0.354 N 
ATOM     46  N   UNL A   1      41.699  29.594  33.493  1.00  0.00    -0.248 NA
ATOM     47  C   UNL A   1      41.832  30.394  35.683  1.00  0.00     0.031 C 
ATOM     48  C   UNL A   1      44.637  26.797  31.673  1.00  0.00     0.029 A 
ATOM     49  C   UNL A   1      43.733  27.664  32.264  1.00  0.00     0.049 A 
ATOM     50  H   UNL A   1      41.918  28.415  31.497  1.00  0.00     0.167 HD
ATOM     51  C   UNL A   1      42.860  29.110  34.084  1.00  0.00     0.074 A 
ATOM     52  C   UNL A   1      42.911  29.666  35.421  1.00  0.00     0.031 C 
ATOM     53  C   UNL A   1      43.791  28.263  33.574  1.00  0.00     0.034 A 
BRANCH  40  54
ATOM     54  C   UNL A   1      42.458  26.150  27.917  1.00  0.00     0.023 A 
ATOM     55  C   UNL A   1      43.372  26.609  26.947  1.00  0.00     0.012 A 
ATOM     56  C   UNL A   1      41.938  24.846  27.815  1.00  0.00     0.148 A 
ATOM     57  C   UNL A   1      43.738  25.794  25.875  1.00  0.00     0.002 A 
ATOM     58  C   UNL A   1      42.335  24.027  26.764  1.00  0.00     0.091 A 
ATOM     59  F   UNL A   1      41.046  24.437  28.730  1.00  0.00    -0.205 F 
ATOM     60  C   UNL A   1      43.226  24.502  25.789  1.00  0.00     0.022 A 
BRANCH  58  61
ATOM     61  S   UNL A   1      41.776  22.326  26.613  1.00  0.00     0.127 S 
ATOM     62  O   UNL A   1      42.286  21.735  27.849  1.00  0.00    -0.237 OA
ATOM     63  O   UNL A   1      40.321  22.477  26.565  1.00  0.00    -0.237 OA
ATOM     64  O   UNL A   1      42.369  21.825  25.379  1.00  0.00    -0.744 OA
ENDBRANCH  58  61
ENDBRANCH  40  54
BRANCH  41  65
ATOM     65  C   UNL A   1      39.340  31.950  35.436  1.00  0.00     0.023 A 
ATOM     66  C   UNL A   1      38.473  31.358  36.372  1.00  0.00     0.012 A 
ATOM     67  C   UNL A   1      39.761  33.281  35.632  1.00  0.00     0.148 A 
ATOM     68  C   UNL A   1      38.022  32.081  37.478  1.00  0.00     0.002 A 
ATOM     69  C   UNL A   1      39.353  33.977  36.763  1.00  0.00     0.091 A 
ATOM     70  F   UNL A   1      40.571  33.833  34.716  1.00  0.00    -0.205 F 
ATOM     71  C   UNL A   1      38.472  33.383  37.681  1.00  0.00     0.022 A 
BRANCH  69  72
ATOM     72  S   UNL A   1      39.993  35.606  37.169  1.00  0.00     0.127 S 
ATOM     73  O   UNL A   1      39.290  35.900  38.416  1.00  0.00    -0.237 OA
ATOM     74  O   UNL A   1      41.425  35.343  37.317  1.00  0.00    -0.237 OA
ATOM     75  O   UNL A   1      39.653  36.453  36.034  1.00  0.00    -0.744 OA
ENDBRANCH  69  72
ENDBRANCH  41  65
BRANCH  53  76
ATOM     76  C   UNL A   1      44.952  27.893  34.457  1.00  0.00     0.023 A 
ATOM     77  C   UNL A   1      46.124  28.674  34.424  1.00  0.00     0.012 A 
ATOM     78  C   UNL A   1      44.854  26.829  35.375  1.00  0.00     0.148 A 
ATOM     79  C   UNL A   1      47.192  28.384  35.273  1.00  0.00     0.002 A 
ATOM     80  C   UNL A   1      45.906  26.573  36.247  1.00  0.00     0.091 A 
ATOM     81  F   UNL A   1      43.738  26.084  35.376  1.00  0.00    -0.205 F 
ATOM     82  C   UNL A   1      47.079  27.343  36.192  1.00  0.00     0.022 A 
BRANCH  80  83
ATOM     83  S   UNL A   1      45.805  25.311  37.521  1.00  0.00     0.127 S 
ATOM     84  O   UNL A   1      44.629  25.740  38.275  1.00  0.00    -0.237 OA
ATOM     85  O   UNL A   1      45.615  24.088  36.739  1.00  0.00    -0.237 OA
ATOM     86  O   UNL A   1      47.071  25.371  38.240  1.00  0.00    -0.744 OA
ENDBRANCH  80  83
ENDBRANCH  53  76
ENDBRANCH  27  28
ENDBRANCH  20  22
ENDBRANCH  19  20
ENDBRANCH  18  19
ENDBRANCH   1  18
TORSDOF 17
ENDMDL
MODEL 2
REMARK VINA RESULT:     -10.4      5.549      8.084
REMARK SMILES CN(C(=O)[C@H]1CCCC[C@H]1C(=O)OCCOC(=O)c1ccc(-c2c3nc(c(-c4cccc(S(=O)(=O)[O-])c4F)c4ccc([nH]4)c(-c4cccc(S(=O)(=O)[O-])c4F)c4nc(c(-c5cccc(S(=O)(=O)[O-])c5F)c5ccc2[nH]5)C=C4)C=C3)cc1)C1CC1
REMARK SMILES IDX 14 1 13 2 11 3 12 4 10 5 5 6 6 7 7 8 9 9 8 10 3 11 4 12 2 13
REMARK SMILES IDX 1 14 82 15 83 16 84 17 15 18 16 19 17 20 18 21 19 22 20 23
REMARK SMILES IDX 81 24 21 25 80 26 22 27 23 28 24 29 74 30 25 31 79 32 73 33
REMARK SMILES IDX 75 34 26 35 78 36 72 37 71 38 27 40 59 41 39 42 58 43 40 44
REMARK SMILES IDX 43 45 57 46 76 47 41 48 42 49 56 51 77 52 44 53 28 54 29 55
REMARK SMILES IDX 37 56 30 57 32 58 38 59 31 60 33 61 34 62 35 63 36 64 60 65
REMARK SMILES IDX 61 66 69 67 62 68 64 69 70 70 63 71 65 72 66 73 67 74 68 75
REMARK SMILES IDX 45 76 46 77 54 78 47 79 49 80 55 81 48 82 50 83 51 84 52 85
REMARK SMILES IDX 53 86
REMARK H PARENT 75 39 43 50
REMARK Flexibility Score: inf
ROOT
ATOM      1  C   UNL A   1      36.565  20.103  24.969  1.00  0.00     0.274 C 
ENDROOT
BRANCH   1   2
ATOM      2  O   UNL A   1      36.157  21.479  25.096  1.00  0.00    -0.462 OA
BRANCH   2   3
ATOM      3  C   UNL A   1      34.966  21.704  25.700  1.00  0.00     0.309 C 
ATOM      4  O   UNL A   1      34.746  21.500  26.891  1.00  0.00    -0.252 OA
BRANCH   3   5
ATOM      5  C   UNL A   1      33.906  22.302  24.787  1.00  0.00     0.111 C 
ATOM      6  C   UNL A   1      33.295  21.396  23.687  1.00  0.00     0.093 C 
ATOM      7  C   UNL A   1      32.380  22.271  22.808  1.00  0.00     0.014 C 
ATOM      8  C   UNL A   1      31.300  22.987  23.615  1.00  0.00     0.001 C 
ATOM      9  C   UNL A   1      32.845  23.041  25.617  1.00  0.00     0.016 C 
ATOM     10  C   UNL A   1      31.896  23.839  24.728  1.00  0.00     0.001 C 
BRANCH   6  11
ATOM     11  C   UNL A   1      32.566  20.159  24.245  1.00  0.00     0.226 C 
ATOM     12  O   UNL A   1      31.798  20.272  25.206  1.00  0.00    -0.275 OA
BRANCH  11  13
ATOM     13  N   UNL A   1      32.796  18.914  23.654  1.00  0.00    -0.343 N 
ATOM     14  C   UNL A   1      32.283  18.479  22.358  1.00  0.00     0.147 C 
BRANCH  13  15
ATOM     15  C   UNL A   1      33.701  17.985  24.299  1.00  0.00     0.084 C 
ATOM     16  C   UNL A   1      33.257  17.033  25.379  1.00  0.00     0.027 C 
ATOM     17  C   UNL A   1      33.633  16.502  24.031  1.00  0.00     0.027 C 
ENDBRANCH  13  15
ENDBRANCH  11  13
ENDBRANCH   6  11
ENDBRANCH   3   5
ENDBRANCH   2   3
ENDBRANCH   1   2
BRANCH   1  18
ATOM     18  C   UNL A   1      38.078  19.976  25.141  1.00  0.00     0.275 C 
BRANCH  18  19
ATOM     19  O   UNL A   1      38.659  21.221  25.565  1.00  0.00    -0.458 OA
BRANCH  19  20
ATOM     20  C   UNL A   1      39.701  21.103  26.421  1.00  0.00     0.338 C 
ATOM     21  O   UNL A   1      40.315  20.091  26.712  1.00  0.00    -0.246 OA
BRANCH  20  22
ATOM     22  C   UNL A   1      40.107  22.439  26.880  1.00  0.00     0.060 A 
ATOM     23  C   UNL A   1      39.537  23.547  26.248  1.00  0.00     0.016 A 
ATOM     24  C   UNL A   1      41.086  22.602  27.860  1.00  0.00     0.016 A 
ATOM     25  C   UNL A   1      39.952  24.831  26.583  1.00  0.00     0.010 A 
ATOM     26  C   UNL A   1      41.505  23.892  28.194  1.00  0.00     0.010 A 
ATOM     27  C   UNL A   1      40.953  25.010  27.545  1.00  0.00    -0.014 A 
BRANCH  27  28
ATOM     28  C   UNL A   1      41.459  26.372  27.835  1.00  0.00     0.031 A 
ATOM     29  C   UNL A   1      42.856  26.748  27.438  1.00  0.00     0.074 A 
ATOM     30  C   UNL A   1      40.669  27.256  28.471  1.00  0.00     0.049 A 
ATOM     31  N   UNL A   1      43.506  27.859  27.659  1.00  0.00    -0.248 NA
ATOM     32  C   UNL A   1      43.627  25.734  26.700  1.00  0.00     0.031 C 
ATOM     33  C   UNL A   1      39.299  26.994  28.910  1.00  0.00     0.029 A 
ATOM     34  N   UNL A   1      40.918  28.538  28.885  1.00  0.00    -0.354 N 
ATOM     35  C   UNL A   1      44.775  27.668  27.127  1.00  0.00     0.074 A 
ATOM     36  C   UNL A   1      44.804  26.332  26.570  1.00  0.00     0.031 C 
ATOM     37  C   UNL A   1      38.839  28.073  29.565  1.00  0.00     0.029 A 
ATOM     38  C   UNL A   1      39.890  29.086  29.614  1.00  0.00     0.049 A 
ATOM     39  H   UNL A   1      41.752  29.020  28.681  1.00  0.00     0.167 HD
ATOM     40  C   UNL A   1      45.816  28.532  27.094  1.00  0.00     0.034 A 
ATOM     41  C   UNL A   1      39.815  30.258  30.272  1.00  0.00     0.034 A 
ATOM     42  C   UNL A   1      45.768  29.871  27.617  1.00  0.00     0.049 A 
ATOM     43  C   UNL A   1      40.980  31.207  30.210  1.00  0.00     0.074 A 
ATOM     44  C   UNL A   1      46.747  30.848  27.574  1.00  0.00     0.029 A 
ATOM     45  N   UNL A   1      44.685  30.420  28.287  1.00  0.00    -0.354 N 
ATOM     46  N   UNL A   1      42.128  31.063  29.593  1.00  0.00    -0.248 NA
ATOM     47  C   UNL A   1      40.831  32.492  30.907  1.00  0.00     0.031 C 
ATOM     48  C   UNL A   1      46.260  31.984  28.232  1.00  0.00     0.029 A 
ATOM     49  C   UNL A   1      44.973  31.718  28.673  1.00  0.00     0.049 A 
ATOM     50  H   UNL A   1      43.836  29.955  28.462  1.00  0.00     0.167 HD
ATOM     51  C   UNL A   1      42.830  32.243  29.809  1.00  0.00     0.074 A 
ATOM     52  C   UNL A   1      41.966  33.104  30.593  1.00  0.00     0.031 C 
ATOM     53  C   UNL A   1      44.084  32.578  29.413  1.00  0.00     0.034 A 
BRANCH  40  54
ATOM     54  C   UNL A   1      47.087  28.062  26.442  1.00  0.00     0.023 A 
ATOM     55  C   UNL A   1      48.138  27.569  27.241  1.00  0.00     0.012 A 
ATOM     56  C   UNL A   1      47.232  28.076  25.041  1.00  0.00     0.148 A 
ATOM     57  C   UNL A   1      49.326  27.128  26.659  1.00  0.00     0.002 A 
ATOM     58  C   UNL A   1      48.405  27.599  24.466  1.00  0.00     0.091 A 
ATOM     59  F   UNL A   1      46.234  28.576  24.297  1.00  0.00    -0.205 F 
ATOM     60  C   UNL A   1      49.455  27.134  25.272  1.00  0.00     0.022 A 
BRANCH  58  61
ATOM     61  S   UNL A   1      48.630  27.511  22.686  1.00  0.00     0.127 S 
ATOM     62  O   UNL A   1      49.954  28.107  22.524  1.00  0.00    -0.237 OA
ATOM     63  O   UNL A   1      48.574  26.071  22.433  1.00  0.00    -0.237 OA
ATOM     64  O   UNL A   1      47.522  28.264  22.111  1.00  0.00    -0.744 OA
ENDBRANCH  58  61
ENDBRANCH  40  54
BRANCH  41  65
ATOM     65  C   UNL A   1      38.572  30.600  31.018  1.00  0.00     0.023 A 
ATOM     66  C   UNL A   1      38.469  30.280  32.383  1.00  0.00     0.012 A 
ATOM     67  C   UNL A   1      37.519  31.298  30.392  1.00  0.00     0.148 A 
ATOM     68  C   UNL A   1      37.333  30.636  33.112  1.00  0.00     0.002 A 
ATOM     69  C   UNL A   1      36.415  31.697  31.136  1.00  0.00     0.091 A 
ATOM     70  F   UNL A   1      37.628  31.575  29.084  1.00  0.00    -0.205 F 
ATOM     71  C   UNL A   1      36.314  31.355  32.493  1.00  0.00     0.022 A 
BRANCH  69  72
ATOM     72  S   UNL A   1      35.124  32.743  30.451  1.00  0.00     0.127 S 
ATOM     73  O   UNL A   1      34.608  31.908  29.369  1.00  0.00    -0.237 OA
ATOM     74  O   UNL A   1      34.221  32.899  31.592  1.00  0.00    -0.237 OA
ATOM     75  O   UNL A   1      35.792  33.971  30.042  1.00  0.00    -0.744 OA
ENDBRANCH  69  72
ENDBRANCH  41  65
BRANCH  53  76
ATOM     76  C   UNL A   1      44.598  33.936  29.807  1.00  0.00     0.023 A 
ATOM     77  C   UNL A   1      45.123  34.129  31.101  1.00  0.00     0.012 A 
ATOM     78  C   UNL A   1      44.639  34.994  28.877  1.00  0.00     0.148 A 
ATOM     79  C   UNL A   1      45.656  35.363  31.471  1.00  0.00     0.002 A 
ATOM     80  C   UNL A   1      45.212  36.207  29.241  1.00  0.00     0.091 A 
ATOM     81  F   UNL A   1      44.116  34.796  27.659  1.00  0.00    -0.205 F 
ATOM     82  C   UNL A   1      45.712  36.398  30.539  1.00  0.00     0.022 A 
BRANCH  80  83
ATOM     83  S   UNL A   1      45.405  37.560  28.074  1.00  0.00     0.127 S 
ATOM     84  O   UNL A   1      46.036  38.583  28.904  1.00  0.00    -0.237 OA
ATOM     85  O   UNL A   1      46.280  36.975  27.056  1.00  0.00    -0.237 OA
ATOM     86  O   UNL A   1      44.063  37.871  27.602  1.00  0.00    -0.744 OA
ENDBRANCH  80  83
ENDBRANCH  53  76
ENDBRANCH  27  28
ENDBRANCH  20  22
ENDBRANCH  19  20
ENDBRANCH  18  19
ENDBRANCH   1  18
TORSDOF 17
ENDMDL
MODEL 3
REMARK VINA RESULT:     -10.2      1.641      2.598
REMARK SMILES CN(C(=O)[C@H]1CCCC[C@H]1C(=O)OCCOC(=O)c1ccc(-c2c3nc(c(-c4cccc(S(=O)(=O)[O-])c4F)c4ccc([nH]4)c(-c4cccc(S(=O)(=O)[O-])c4F)c4nc(c(-c5cccc(S(=O)(=O)[O-])c5F)c5ccc2[nH]5)C=C4)C=C3)cc1)C1CC1
REMARK SMILES IDX 14 1 13 2 11 3 12 4 10 5 5 6 6 7 7 8 9 9 8 10 3 11 4 12 2 13
REMARK SMILES IDX 1 14 82 15 83 16 84 17 15 18 16 19 17 20 18 21 19 22 20 23
REMARK SMILES IDX 81 24 21 25 80 26 22 27 23 28 24 29 74 30 25 31 79 32 73 33
REMARK SMILES IDX 75 34 26 35 78 36 72 37 71 38 27 40 59 41 39 42 58 43 40 44
REMARK SMILES IDX 43 45 57 46 76 47 41 48 42 49 56 51 77 52 44 53 28 54 29 55
REMARK SMILES IDX 37 56 30 57 32 58 38 59 31 60 33 61 34 62 35 63 36 64 60 65
REMARK SMILES IDX 61 66 69 67 62 68 64 69 70 70 63 71 65 72 66 73 67 74 68 75
REMARK SMILES IDX 45 76 46 77 54 78 47 79 49 80 55 81 48 82 50 83 51 84 52 85
REMARK SMILES IDX 53 86
REMARK H PARENT 75 39 43 50
REMARK Flexibility Score: inf
ROOT
ATOM      1  C   UNL A   1      31.661  28.646  27.423  1.00  0.00     0.274 C 
ENDROOT
BRANCH   1   2
ATOM      2  O   UNL A   1      32.337  27.499  26.872  1.00  0.00    -0.462 OA
BRANCH   2   3
ATOM      3  C   UNL A   1      31.567  26.603  26.210  1.00  0.00     0.309 C 
ATOM      4  O   UNL A   1      30.402  26.345  26.500  1.00  0.00    -0.252 OA
BRANCH   3   5
ATOM      5  C   UNL A   1      32.248  25.963  25.009  1.00  0.00     0.111 C 
ATOM      6  C   UNL A   1      33.436  25.002  25.270  1.00  0.00     0.093 C 
ATOM      7  C   UNL A   1      34.044  24.621  23.905  1.00  0.00     0.014 C 
ATOM      8  C   UNL A   1      33.019  24.006  22.957  1.00  0.00     0.001 C 
ATOM      9  C   UNL A   1      31.197  25.375  24.054  1.00  0.00     0.016 C 
ATOM     10  C   UNL A   1      31.825  24.927  22.739  1.00  0.00     0.001 C 
BRANCH   6  11
ATOM     11  C   UNL A   1      33.057  23.768  26.110  1.00  0.00     0.226 C 
ATOM     12  O   UNL A   1      32.024  23.773  26.788  1.00  0.00    -0.275 OA
BRANCH  11  13
ATOM     13  N   UNL A   1      33.901  22.655  26.097  1.00  0.00    -0.343 N 
ATOM     14  C   UNL A   1      35.335  22.670  26.374  1.00  0.00     0.147 C 
BRANCH  13  15
ATOM     15  C   UNL A   1      33.328  21.339  25.902  1.00  0.00     0.084 C 
ATOM     16  C   UNL A   1      32.171  21.085  24.970  1.00  0.00     0.027 C 
ATOM     17  C   UNL A   1      33.532  20.570  24.621  1.00  0.00     0.027 C 
ENDBRANCH  13  15
ENDBRANCH  11  13
ENDBRANCH   6  11
ENDBRANCH   3   5
ENDBRANCH   2   3
ENDBRANCH   1   2
BRANCH   1  18
ATOM     18  C   UNL A   1      31.775  29.840  26.476  1.00  0.00     0.275 C 
BRANCH  18  19
ATOM     19  O   UNL A   1      33.142  30.264  26.338  1.00  0.00    -0.458 OA
BRANCH  19  20
ATOM     20  C   UNL A   1      33.517  31.267  27.166  1.00  0.00     0.338 C 
ATOM     21  O   UNL A   1      32.858  32.234  27.509  1.00  0.00    -0.246 OA
BRANCH  20  22
ATOM     22  C   UNL A   1      34.837  30.962  27.734  1.00  0.00     0.060 A 
ATOM     23  C   UNL A   1      35.070  29.658  28.178  1.00  0.00     0.016 A 
ATOM     24  C   UNL A   1      35.803  31.955  27.897  1.00  0.00     0.016 A 
ATOM     25  C   UNL A   1      36.270  29.339  28.804  1.00  0.00     0.010 A 
ATOM     26  C   UNL A   1      37.007  31.635  28.529  1.00  0.00     0.010 A 
ATOM     27  C   UNL A   1      37.239  30.331  29.000  1.00  0.00    -0.014 A 
BRANCH  27  28
ATOM     28  C   UNL A   1      38.476  30.012  29.748  1.00  0.00     0.031 A 
ATOM     29  C   UNL A   1      39.450  29.017  29.187  1.00  0.00     0.074 A 
ATOM     30  C   UNL A   1      38.710  30.600  30.935  1.00  0.00     0.049 A 
ATOM     31  N   UNL A   1      40.552  28.554  29.713  1.00  0.00    -0.248 NA
ATOM     32  C   UNL A   1      39.137  28.466  27.858  1.00  0.00     0.031 C 
ATOM     33  C   UNL A   1      37.828  31.573  31.578  1.00  0.00     0.029 A 
ATOM     34  N   UNL A   1      39.742  30.439  31.823  1.00  0.00    -0.354 N 
ATOM     35  C   UNL A   1      41.045  27.626  28.805  1.00  0.00     0.074 A 
ATOM     36  C   UNL A   1      40.121  27.593  27.690  1.00  0.00     0.031 C 
ATOM     37  C   UNL A   1      38.339  31.898  32.777  1.00  0.00     0.029 A 
ATOM     38  C   UNL A   1      39.566  31.136  32.995  1.00  0.00     0.049 A 
ATOM     39  H   UNL A   1      40.530  29.879  31.639  1.00  0.00     0.167 HD
ATOM     40  C   UNL A   1      42.172  26.881  28.886  1.00  0.00     0.034 A 
ATOM     41  C   UNL A   1      40.296  31.136  34.126  1.00  0.00     0.034 A 
ATOM     42  C   UNL A   1      43.104  26.946  29.979  1.00  0.00     0.049 A 
ATOM     43  C   UNL A   1      41.550  30.309  34.188  1.00  0.00     0.074 A 
ATOM     44  C   UNL A   1      44.308  26.280  30.125  1.00  0.00     0.029 A 
ATOM     45  N   UNL A   1      42.932  27.716  31.120  1.00  0.00    -0.354 N 
ATOM     46  N   UNL A   1      42.072  29.533  33.268  1.00  0.00    -0.248 NA
ATOM     47  C   UNL A   1      42.335  30.379  35.429  1.00  0.00     0.031 C 
ATOM     48  C   UNL A   1      44.857  26.638  31.362  1.00  0.00     0.029 A 
ATOM     49  C   UNL A   1      44.002  27.536  31.980  1.00  0.00     0.049 A 
ATOM     50  H   UNL A   1      42.163  28.306  31.291  1.00  0.00     0.167 HD
ATOM     51  C   UNL A   1      43.253  29.039  33.809  1.00  0.00     0.074 A 
ATOM     52  C   UNL A   1      43.384  29.624  35.128  1.00  0.00     0.031 C 
ATOM     53  C   UNL A   1      44.139  28.163  33.270  1.00  0.00     0.034 A 
BRANCH  40  54
ATOM     54  C   UNL A   1      42.472  25.951  27.742  1.00  0.00     0.023 A 
ATOM     55  C   UNL A   1      43.310  26.384  26.694  1.00  0.00     0.012 A 
ATOM     56  C   UNL A   1      41.955  24.641  27.717  1.00  0.00     0.148 A 
ATOM     57  C   UNL A   1      43.602  25.540  25.624  1.00  0.00     0.002 A 
ATOM     58  C   UNL A   1      42.281  23.793  26.665  1.00  0.00     0.091 A 
ATOM     59  F   UNL A   1      41.135  24.256  28.706  1.00  0.00    -0.205 F 
ATOM     60  C   UNL A   1      43.096  24.242  25.614  1.00  0.00     0.022 A 
BRANCH  58  61
ATOM     61  S   UNL A   1      41.725  22.085  26.606  1.00  0.00     0.127 S 
ATOM     62  O   UNL A   1      40.274  22.248  26.540  1.00  0.00    -0.237 OA
ATOM     63  O   UNL A   1      42.340  21.597  25.371  1.00  0.00    -0.237 OA
ATOM     64  O   UNL A   1      42.238  21.462  27.819  1.00  0.00    -0.744 OA
ENDBRANCH  58  61
ENDBRANCH  40  54
BRANCH  41  65
ATOM     65  C   UNL A   1      39.861  31.977  35.276  1.00  0.00     0.023 A 
ATOM     66  C   UNL A   1      40.218  33.337  35.317  1.00  0.00     0.012 A 
ATOM     67  C   UNL A   1      39.043  31.448  36.295  1.00  0.00     0.148 A 
ATOM     68  C   UNL A   1      39.780  34.155  36.360  1.00  0.00     0.002 A 
ATOM     69  C   UNL A   1      38.565  32.280  37.300  1.00  0.00     0.091 A 
ATOM     70  F   UNL A   1      38.732  30.144  36.248  1.00  0.00    -0.205 F 
ATOM     71  C   UNL A   1      38.944  33.631  37.343  1.00  0.00     0.022 A 
BRANCH  69  72
ATOM     72  S   UNL A   1      37.376  31.718  38.525  1.00  0.00     0.127 S 
ATOM     73  O   UNL A   1      36.315  32.712  38.388  1.00  0.00    -0.237 OA
ATOM     74  O   UNL A   1      37.037  30.383  38.030  1.00  0.00    -0.237 OA
ATOM     75  O   UNL A   1      38.091  31.723  39.794  1.00  0.00    -0.744 OA
ENDBRANCH  69  72
ENDBRANCH  41  65
BRANCH  53  76
ATOM     76  C   UNL A   1      45.339  27.790  34.100  1.00  0.00     0.023 A 
ATOM     77  C   UNL A   1      46.504  28.578  34.026  1.00  0.00     0.012 A 
ATOM     78  C   UNL A   1      45.285  26.715  35.009  1.00  0.00     0.148 A 
ATOM     79  C   UNL A   1      47.608  28.285  34.827  1.00  0.00     0.002 A 
ATOM     80  C   UNL A   1      46.374  26.457  35.834  1.00  0.00     0.091 A 
ATOM     81  F   UNL A   1      44.174  25.964  35.049  1.00  0.00    -0.205 F 
ATOM     82  C   UNL A   1      47.539  27.234  35.738  1.00  0.00     0.022 A 
BRANCH  80  83
ATOM     83  S   UNL A   1      46.333  25.180  37.097  1.00  0.00     0.127 S 
ATOM     84  O   UNL A   1      46.203  23.967  36.293  1.00  0.00    -0.237 OA
ATOM     85  O   UNL A   1      47.634  25.341  37.751  1.00  0.00    -0.237 OA
ATOM     86  O   UNL A   1      45.193  25.498  37.946  1.00  0.00    -0.744 OA
ENDBRANCH  80  83
ENDBRANCH  53  76
ENDBRANCH  27  28
ENDBRANCH  20  22
ENDBRANCH  19  20
ENDBRANCH  18  19
ENDBRANCH   1  18
TORSDOF 17
ENDMDL
