MODEL 1
REMARK VINA RESULT:     -11.5      0.000      0.000
REMARK SMILES [NH3+][C@@]1(C(=O)OCCOC(=O)c2ccc(-c3c4nc(c(-c5cccc(S(=O)(=O)[O-])c5F)c5ccc([nH]5)c(-c5cccc(S(=O)(=O)[O-])c5F)c5nc(c(-c6cccc(S(=O)(=O)[O-])c6F)c6ccc3[nH]6)C=C5)C=C4)cc2)CCC[C@@H](Oc2ccccc2[N+](=O)[O-])C1
REMARK SMILES IDX 6 1 5 2 3 3 4 4 2 5 74 6 88 7 75 8 77 9 76 10 1 11 78 15
REMARK SMILES IDX 79 16 80 17 84 18 81 19 83 20 82 21 85 22 86 23 87 24 7 25
REMARK SMILES IDX 8 26 9 27 10 28 11 29 12 30 73 31 13 32 72 33 14 34 15 35
REMARK SMILES IDX 16 36 66 37 17 38 71 39 65 40 67 41 18 42 70 43 64 44 63 45
REMARK SMILES IDX 19 47 51 48 31 49 50 50 32 51 35 52 49 53 68 54 33 55 34 56
REMARK SMILES IDX 48 58 69 59 36 60 20 61 21 62 29 63 22 64 24 65 30 66 23 67
REMARK SMILES IDX 25 68 26 69 27 70 28 71 52 72 53 73 61 74 54 75 56 76 62 77
REMARK SMILES IDX 55 78 57 79 58 80 59 81 60 82 37 83 38 84 46 85 39 86 41 87
REMARK SMILES IDX 47 88 40 89 42 90 43 91 44 92 45 93
REMARK H PARENT 1 12 1 13 1 14 67 46 35 57
REMARK Flexibility Score: inf
ROOT
ATOM      1  C   UNL A   1      35.106  20.621  25.151  1.00  0.00     0.274 C 
ENDROOT
BRANCH   1   2
ATOM      2  O   UNL A   1      34.910  22.045  25.229  1.00  0.00    -0.457 OA
BRANCH   2   3
ATOM      3  C   UNL A   1      33.640  22.468  25.498  1.00  0.00     0.368 C 
ATOM      4  O   UNL A   1      32.999  22.117  26.484  1.00  0.00    -0.245 OA
BRANCH   3   5
ATOM      5  C   UNL A   1      33.068  23.400  24.376  1.00  0.00     0.196 C 
ATOM      6  C   UNL A   1      33.529  23.011  22.962  1.00  0.00     0.081 C 
ATOM      7  C   UNL A   1      33.611  24.819  24.681  1.00  0.00     0.126 C 
ATOM      8  C   UNL A   1      33.070  24.007  21.889  1.00  0.00     0.011 C 
ATOM      9  C   UNL A   1      33.409  25.909  23.622  1.00  0.00     0.180 C 
ATOM     10  C   UNL A   1      33.560  25.429  22.168  1.00  0.00     0.046 C 
BRANCH   5  11
ATOM     11  N   UNL A   1      31.600  23.270  24.407  1.00  0.00    -0.343 N 
ATOM     12  H   UNL A   1      31.287  22.754  23.586  1.00  0.00     0.345 HD
ATOM     13  H   UNL A   1      31.176  24.198  24.408  1.00  0.00     0.345 HD
ATOM     14  H   UNL A   1      31.321  22.769  25.251  1.00  0.00     0.345 HD
ENDBRANCH   5  11
BRANCH   9  15
ATOM     15  O   UNL A   1      32.333  26.840  23.875  1.00  0.00    -0.483 OA
BRANCH  15  16
ATOM     16  C   UNL A   1      32.357  27.538  25.039  1.00  0.00     0.197 A 
ATOM     17  C   UNL A   1      33.274  28.581  25.172  1.00  0.00     0.054 A 
ATOM     18  C   UNL A   1      31.540  27.222  26.131  1.00  0.00     0.310 A 
ATOM     19  C   UNL A   1      33.273  29.381  26.319  1.00  0.00     0.004 A 
ATOM     20  C   UNL A   1      31.522  28.027  27.280  1.00  0.00     0.090 A 
ATOM     21  C   UNL A   1      32.381  29.121  27.360  1.00  0.00     0.007 A 
BRANCH  18  22
ATOM     22  N   UNL A   1      30.594  26.123  26.069  1.00  0.00     0.066 N 
ATOM     23  O   UNL A   1      30.841  25.142  26.789  1.00  0.00    -0.258 OA
ATOM     24  O   UNL A   1      29.640  26.220  25.289  1.00  0.00    -0.258 OA
ENDBRANCH  18  22
ENDBRANCH  15  16
ENDBRANCH   9  15
ENDBRANCH   3   5
ENDBRANCH   2   3
ENDBRANCH   1   2
BRANCH   1  25
ATOM     25  C   UNL A   1      36.587  20.302  24.986  1.00  0.00     0.275 C 
BRANCH  25  26
ATOM     26  O   UNL A   1      37.363  21.399  25.497  1.00  0.00    -0.458 OA
BRANCH  26  27
ATOM     27  C   UNL A   1      38.626  21.102  25.878  1.00  0.00     0.338 C 
ATOM     28  O   UNL A   1      39.228  20.055  25.711  1.00  0.00    -0.246 OA
BRANCH  27  29
ATOM     29  C   UNL A   1      39.239  22.290  26.492  1.00  0.00     0.060 A 
ATOM     30  C   UNL A   1      38.757  23.547  26.146  1.00  0.00     0.016 A 
ATOM     31  C   UNL A   1      40.372  22.182  27.291  1.00  0.00     0.016 A 
ATOM     32  C   UNL A   1      39.460  24.695  26.479  1.00  0.00     0.010 A 
ATOM     33  C   UNL A   1      41.007  23.346  27.742  1.00  0.00     0.010 A 
ATOM     34  C   UNL A   1      40.583  24.616  27.307  1.00  0.00    -0.014 A 
BRANCH  34  35
ATOM     35  C   UNL A   1      41.311  25.860  27.677  1.00  0.00     0.031 A 
ATOM     36  C   UNL A   1      40.641  26.904  28.529  1.00  0.00     0.074 A 
ATOM     37  C   UNL A   1      42.585  26.044  27.273  1.00  0.00     0.049 A 
ATOM     38  N   UNL A   1      41.043  28.114  28.820  1.00  0.00    -0.248 NA
ATOM     39  C   UNL A   1      39.340  26.549  29.122  1.00  0.00     0.031 C 
ATOM     40  C   UNL A   1      43.365  25.099  26.468  1.00  0.00     0.029 A 
ATOM     41  N   UNL A   1      43.454  27.086  27.484  1.00  0.00    -0.354 N 
ATOM     42  C   UNL A   1      40.010  28.694  29.546  1.00  0.00     0.074 A 
ATOM     43  C   UNL A   1      38.971  27.696  29.675  1.00  0.00     0.031 C 
ATOM     44  C   UNL A   1      44.603  25.581  26.292  1.00  0.00     0.029 A 
ATOM     45  C   UNL A   1      44.679  26.911  26.882  1.00  0.00     0.049 A 
ATOM     46  H   UNL A   1      43.223  27.882  28.016  1.00  0.00     0.167 HD
ATOM     47  C   UNL A   1      39.937  29.945  30.060  1.00  0.00     0.034 A 
ATOM     48  C   UNL A   1      45.734  27.742  26.775  1.00  0.00     0.034 A 
ATOM     49  C   UNL A   1      41.008  30.902  30.001  1.00  0.00     0.049 A 
ATOM     50  C   UNL A   1      45.639  29.111  27.384  1.00  0.00     0.074 A 
ATOM     51  C   UNL A   1      41.042  32.190  30.509  1.00  0.00     0.029 A 
ATOM     52  N   UNL A   1      42.244  30.670  29.417  1.00  0.00    -0.354 N 
ATOM     53  N   UNL A   1      44.658  29.639  28.075  1.00  0.00    -0.248 NA
ATOM     54  C   UNL A   1      46.796  29.998  27.202  1.00  0.00     0.031 C 
ATOM     55  C   UNL A   1      42.301  32.736  30.231  1.00  0.00     0.029 A 
ATOM     56  C   UNL A   1      43.053  31.786  29.556  1.00  0.00     0.049 A 
ATOM     57  H   UNL A   1      42.509  29.835  28.968  1.00  0.00     0.167 HD
ATOM     58  C   UNL A   1      45.077  30.919  28.412  1.00  0.00     0.074 A 
ATOM     59  C   UNL A   1      46.421  31.069  27.889  1.00  0.00     0.031 C 
ATOM     60  C   UNL A   1      44.402  31.896  29.066  1.00  0.00     0.034 A 
BRANCH  47  61
ATOM     61  C   UNL A   1      38.656  30.343  30.743  1.00  0.00     0.023 A 
ATOM     62  C   UNL A   1      38.460  30.035  32.103  1.00  0.00     0.012 A 
ATOM     63  C   UNL A   1      37.663  31.059  30.045  1.00  0.00     0.148 A 
ATOM     64  C   UNL A   1      37.282  30.408  32.752  1.00  0.00     0.002 A 
ATOM     65  C   UNL A   1      36.509  31.461  30.709  1.00  0.00     0.091 A 
ATOM     66  F   UNL A   1      37.855  31.318  28.743  1.00  0.00    -0.205 F 
ATOM     67  C   UNL A   1      36.313  31.128  32.059  1.00  0.00     0.022 A 
BRANCH  65  68
ATOM     68  S   UNL A   1      35.236  32.450  29.914  1.00  0.00     0.127 S 
ATOM     69  O   UNL A   1      34.302  32.672  31.016  1.00  0.00    -0.237 OA
ATOM     70  O   UNL A   1      35.982  33.640  29.499  1.00  0.00    -0.237 OA
ATOM     71  O   UNL A   1      34.733  31.640  28.814  1.00  0.00    -0.744 OA
ENDBRANCH  65  68
ENDBRANCH  47  61
BRANCH  48  72
ATOM     72  C   UNL A   1      46.966  27.292  26.063  1.00  0.00     0.023 A 
ATOM     73  C   UNL A   1      47.143  27.628  24.707  1.00  0.00     0.012 A 
ATOM     74  C   UNL A   1      47.983  26.585  26.732  1.00  0.00     0.148 A 
ATOM     75  C   UNL A   1      48.305  27.257  24.029  1.00  0.00     0.002 A 
ATOM     76  C   UNL A   1      49.166  26.275  26.069  1.00  0.00     0.091 A 
ATOM     77  F   UNL A   1      47.787  26.243  28.013  1.00  0.00    -0.205 F 
ATOM     78  C   UNL A   1      49.322  26.596  24.713  1.00  0.00     0.022 A 
BRANCH  76  79
ATOM     79  S   UNL A   1      50.576  25.574  26.932  1.00  0.00     0.127 S 
ATOM     80  O   UNL A   1      51.513  25.339  25.837  1.00  0.00    -0.237 OA
ATOM     81  O   UNL A   1      50.952  26.655  27.844  1.00  0.00    -0.237 OA
ATOM     82  O   UNL A   1      50.062  24.386  27.602  1.00  0.00    -0.744 OA
ENDBRANCH  76  79
ENDBRANCH  48  72
BRANCH  60  83
ATOM     83  C   UNL A   1      45.111  33.209  29.249  1.00  0.00     0.023 A 
ATOM     84  C   UNL A   1      45.954  33.389  30.365  1.00  0.00     0.012 A 
ATOM     85  C   UNL A   1      44.979  34.246  28.308  1.00  0.00     0.148 A 
ATOM     86  C   UNL A   1      46.626  34.594  30.558  1.00  0.00     0.002 A 
ATOM     87  C   UNL A   1      45.684  35.430  28.485  1.00  0.00     0.091 A 
ATOM     88  F   UNL A   1      44.152  34.068  27.267  1.00  0.00    -0.205 F 
ATOM     89  C   UNL A   1      46.500  35.610  29.614  1.00  0.00     0.022 A 
BRANCH  87  90
ATOM     90  S   UNL A   1      45.633  36.747  27.264  1.00  0.00     0.127 S 
ATOM     91  O   UNL A   1      44.198  36.998  27.153  1.00  0.00    -0.237 OA
ATOM     92  O   UNL A   1      46.389  37.817  27.917  1.00  0.00    -0.237 OA
ATOM     93  O   UNL A   1      46.278  36.201  26.078  1.00  0.00    -0.744 OA
ENDBRANCH  87  90
ENDBRANCH  60  83
ENDBRANCH  34  35
ENDBRANCH  27  29
ENDBRANCH  26  27
ENDBRANCH  25  26
ENDBRANCH   1  25
TORSDOF 18
ENDMDL
MODEL 2
REMARK VINA RESULT:     -11.5      4.729      9.958
REMARK SMILES [NH3+][C@@]1(C(=O)OCCOC(=O)c2ccc(-c3c4nc(c(-c5cccc(S(=O)(=O)[O-])c5F)c5ccc([nH]5)c(-c5cccc(S(=O)(=O)[O-])c5F)c5nc(c(-c6cccc(S(=O)(=O)[O-])c6F)c6ccc3[nH]6)C=C5)C=C4)cc2)CCC[C@@H](Oc2ccccc2[N+](=O)[O-])C1
REMARK SMILES IDX 6 1 5 2 3 3 4 4 2 5 74 6 88 7 75 8 77 9 76 10 1 11 78 15
REMARK SMILES IDX 79 16 80 17 84 18 81 19 83 20 82 21 85 22 86 23 87 24 7 25
REMARK SMILES IDX 8 26 9 27 10 28 11 29 12 30 73 31 13 32 72 33 14 34 15 35
REMARK SMILES IDX 16 36 66 37 17 38 71 39 65 40 67 41 18 42 70 43 64 44 63 45
REMARK SMILES IDX 19 47 51 48 31 49 50 50 32 51 35 52 49 53 68 54 33 55 34 56
REMARK SMILES IDX 48 58 69 59 36 60 20 61 21 62 29 63 22 64 24 65 30 66 23 67
REMARK SMILES IDX 25 68 26 69 27 70 28 71 52 72 53 73 61 74 54 75 56 76 62 77
REMARK SMILES IDX 55 78 57 79 58 80 59 81 60 82 37 83 38 84 46 85 39 86 41 87
REMARK SMILES IDX 47 88 40 89 42 90 43 91 44 92 45 93
REMARK H PARENT 1 12 1 13 1 14 67 46 35 57
REMARK Flexibility Score: inf
ROOT
ATOM      1  C   UNL A   1      31.195  29.465  24.360  1.00  0.00     0.274 C 
ENDROOT
BRANCH   1   2
ATOM      2  O   UNL A   1      30.443  28.238  24.315  1.00  0.00    -0.457 OA
BRANCH   2   3
ATOM      3  C   UNL A   1      30.944  27.249  23.519  1.00  0.00     0.368 C 
ATOM      4  O   UNL A   1      31.236  27.407  22.338  1.00  0.00    -0.245 OA
BRANCH   3   5
ATOM      5  C   UNL A   1      31.045  25.873  24.263  1.00  0.00     0.196 C 
ATOM      6  C   UNL A   1      30.580  25.933  25.727  1.00  0.00     0.081 C 
ATOM      7  C   UNL A   1      32.548  25.494  24.255  1.00  0.00     0.126 C 
ATOM      8  C   UNL A   1      30.807  24.616  26.480  1.00  0.00     0.011 C 
ATOM      9  C   UNL A   1      32.992  24.305  25.115  1.00  0.00     0.180 C 
ATOM     10  C   UNL A   1      32.276  24.187  26.472  1.00  0.00     0.046 C 
BRANCH   5  11
ATOM     11  N   UNL A   1      30.156  24.931  23.561  1.00  0.00    -0.343 N 
ATOM     12  H   UNL A   1      30.293  25.020  22.555  1.00  0.00     0.345 HD
ATOM     13  H   UNL A   1      29.185  25.143  23.792  1.00  0.00     0.345 HD
ATOM     14  H   UNL A   1      30.374  23.977  23.852  1.00  0.00     0.345 HD
ENDBRANCH   5  11
BRANCH   9  15
ATOM     15  O   UNL A   1      33.217  23.066  24.406  1.00  0.00    -0.483 OA
BRANCH  15  16
ATOM     16  C   UNL A   1      34.482  22.576  24.367  1.00  0.00     0.197 A 
ATOM     17  C   UNL A   1      35.387  23.135  23.463  1.00  0.00     0.054 A 
ATOM     18  C   UNL A   1      34.903  21.498  25.155  1.00  0.00     0.310 A 
ATOM     19  C   UNL A   1      36.722  22.720  23.451  1.00  0.00     0.004 A 
ATOM     20  C   UNL A   1      36.244  21.084  25.160  1.00  0.00     0.090 A 
ATOM     21  C   UNL A   1      37.155  21.715  24.316  1.00  0.00     0.007 A 
BRANCH  18  22
ATOM     22  N   UNL A   1      33.999  20.848  26.085  1.00  0.00     0.066 N 
ATOM     23  O   UNL A   1      33.286  19.944  25.619  1.00  0.00    -0.258 OA
ATOM     24  O   UNL A   1      33.972  21.255  27.251  1.00  0.00    -0.258 OA
ENDBRANCH  18  22
ENDBRANCH  15  16
ENDBRANCH   9  15
ENDBRANCH   3   5
ENDBRANCH   2   3
ENDBRANCH   1   2
BRANCH   1  25
ATOM     25  C   UNL A   1      31.424  29.888  25.806  1.00  0.00     0.275 C 
BRANCH  25  26
ATOM     26  O   UNL A   1      32.827  30.130  26.008  1.00  0.00    -0.458 OA
BRANCH  26  27
ATOM     27  C   UNL A   1      33.137  31.143  26.848  1.00  0.00     0.338 C 
ATOM     28  O   UNL A   1      32.435  32.085  27.171  1.00  0.00    -0.246 OA
BRANCH  27  29
ATOM     29  C   UNL A   1      34.480  30.915  27.407  1.00  0.00     0.060 A 
ATOM     30  C   UNL A   1      34.890  29.609  27.651  1.00  0.00     0.016 A 
ATOM     31  C   UNL A   1      35.274  31.978  27.821  1.00  0.00     0.016 A 
ATOM     32  C   UNL A   1      36.018  29.350  28.415  1.00  0.00     0.010 A 
ATOM     33  C   UNL A   1      36.485  31.714  28.476  1.00  0.00     0.010 A 
ATOM     34  C   UNL A   1      36.851  30.398  28.817  1.00  0.00    -0.014 A 
BRANCH  34  35
ATOM     35  C   UNL A   1      38.072  30.102  29.613  1.00  0.00     0.031 A 
ATOM     36  C   UNL A   1      39.171  29.257  29.027  1.00  0.00     0.074 A 
ATOM     37  C   UNL A   1      38.211  30.612  30.855  1.00  0.00     0.049 A 
ATOM     38  N   UNL A   1      40.228  28.756  29.613  1.00  0.00    -0.248 NA
ATOM     39  C   UNL A   1      39.063  28.917  27.598  1.00  0.00     0.031 C 
ATOM     40  C   UNL A   1      37.236  31.472  31.533  1.00  0.00     0.029 A 
ATOM     41  N   UNL A   1      39.228  30.488  31.770  1.00  0.00    -0.354 N 
ATOM     42  C   UNL A   1      40.856  27.969  28.655  1.00  0.00     0.074 A 
ATOM     43  C   UNL A   1      40.078  28.079  27.440  1.00  0.00     0.031 C 
ATOM     44  C   UNL A   1      37.718  31.831  32.731  1.00  0.00     0.029 A 
ATOM     45  C   UNL A   1      38.988  31.151  32.952  1.00  0.00     0.049 A 
ATOM     46  H   UNL A   1      40.049  29.974  31.597  1.00  0.00     0.167 HD
ATOM     47  C   UNL A   1      41.981  27.225  28.778  1.00  0.00     0.034 A 
ATOM     48  C   UNL A   1      39.685  31.176  34.104  1.00  0.00     0.034 A 
ATOM     49  C   UNL A   1      42.796  27.189  29.962  1.00  0.00     0.049 A 
ATOM     50  C   UNL A   1      40.948  30.371  34.201  1.00  0.00     0.074 A 
ATOM     51  C   UNL A   1      43.967  26.484  30.182  1.00  0.00     0.029 A 
ATOM     52  N   UNL A   1      42.538  27.906  31.121  1.00  0.00    -0.354 N 
ATOM     53  N   UNL A   1      41.532  29.640  33.282  1.00  0.00    -0.248 NA
ATOM     54  C   UNL A   1      41.649  30.392  35.492  1.00  0.00     0.031 C 
ATOM     55  C   UNL A   1      44.416  26.775  31.476  1.00  0.00     0.029 A 
ATOM     56  C   UNL A   1      43.529  27.667  32.059  1.00  0.00     0.049 A 
ATOM     57  H   UNL A   1      41.763  28.498  31.259  1.00  0.00     0.167 HD
ATOM     58  C   UNL A   1      42.670  29.117  33.881  1.00  0.00     0.074 A 
ATOM     59  C   UNL A   1      42.717  29.652  35.227  1.00  0.00     0.031 C 
ATOM     60  C   UNL A   1      43.578  28.245  33.376  1.00  0.00     0.034 A 
BRANCH  47  61
ATOM     61  C   UNL A   1      42.403  26.400  27.592  1.00  0.00     0.023 A 
ATOM     62  C   UNL A   1      43.212  26.971  26.590  1.00  0.00     0.012 A 
ATOM     63  C   UNL A   1      42.029  25.044  27.492  1.00  0.00     0.148 A 
ATOM     64  C   UNL A   1      43.620  26.214  25.492  1.00  0.00     0.002 A 
ATOM     65  C   UNL A   1      42.472  24.286  26.413  1.00  0.00     0.091 A 
ATOM     66  F   UNL A   1      41.236  24.527  28.441  1.00  0.00    -0.205 F 
ATOM     67  C   UNL A   1      43.258  24.871  25.408  1.00  0.00     0.022 A 
BRANCH  65  68
ATOM     68  S   UNL A   1      42.112  22.533  26.257  1.00  0.00     0.127 S 
ATOM     69  O   UNL A   1      40.651  22.533  26.208  1.00  0.00    -0.237 OA
ATOM     70  O   UNL A   1      42.765  22.192  24.993  1.00  0.00    -0.237 OA
ATOM     71  O   UNL A   1      42.702  21.900  27.429  1.00  0.00    -0.744 OA
ENDBRANCH  65  68
ENDBRANCH  47  61
BRANCH  48  72
ATOM     72  C   UNL A   1      39.198  31.998  35.250  1.00  0.00     0.023 A 
ATOM     73  C   UNL A   1      38.319  31.425  36.188  1.00  0.00     0.012 A 
ATOM     74  C   UNL A   1      39.641  33.320  35.446  1.00  0.00     0.148 A 
ATOM     75  C   UNL A   1      37.881  32.157  37.293  1.00  0.00     0.002 A 
ATOM     76  C   UNL A   1      39.253  34.022  36.582  1.00  0.00     0.091 A 
ATOM     77  F   UNL A   1      40.451  33.866  34.528  1.00  0.00    -0.205 F 
ATOM     78  C   UNL A   1      38.361  33.448  37.499  1.00  0.00     0.022 A 
BRANCH  76  79
ATOM     79  S   UNL A   1      39.960  35.622  36.991  1.00  0.00     0.127 S 
ATOM     80  O   UNL A   1      39.297  35.930  38.255  1.00  0.00    -0.237 OA
ATOM     81  O   UNL A   1      41.386  35.312  37.103  1.00  0.00    -0.237 OA
ATOM     82  O   UNL A   1      39.629  36.486  35.865  1.00  0.00    -0.744 OA
ENDBRANCH  76  79
ENDBRANCH  48  72
BRANCH  60  83
ATOM     83  C   UNL A   1      44.696  27.822  34.288  1.00  0.00     0.023 A 
ATOM     84  C   UNL A   1      45.882  28.583  34.326  1.00  0.00     0.012 A 
ATOM     85  C   UNL A   1      44.564  26.704  35.131  1.00  0.00     0.148 A 
ATOM     86  C   UNL A   1      46.933  28.215  35.164  1.00  0.00     0.002 A 
ATOM     87  C   UNL A   1      45.600  26.367  35.994  1.00  0.00     0.091 A 
ATOM     88  F   UNL A   1      43.440  25.975  35.063  1.00  0.00    -0.205 F 
ATOM     89  C   UNL A   1      46.788  27.115  36.006  1.00  0.00     0.022 A 
BRANCH  87  90
ATOM     90  S   UNL A   1      45.447  25.012  37.164  1.00  0.00     0.127 S 
ATOM     91  O   UNL A   1      46.684  25.136  37.931  1.00  0.00    -0.237 OA
ATOM     92  O   UNL A   1      44.234  25.364  37.904  1.00  0.00    -0.237 OA
ATOM     93  O   UNL A   1      45.320  23.811  36.350  1.00  0.00    -0.744 OA
ENDBRANCH  87  90
ENDBRANCH  60  83
ENDBRANCH  34  35
ENDBRANCH  27  29
ENDBRANCH  26  27
ENDBRANCH  25  26
ENDBRANCH   1  25
TORSDOF 18
ENDMDL
MODEL 3
REMARK VINA RESULT:     -11.2      1.283      1.842
REMARK SMILES [NH3+][C@@]1(C(=O)OCCOC(=O)c2ccc(-c3c4nc(c(-c5cccc(S(=O)(=O)[O-])c5F)c5ccc([nH]5)c(-c5cccc(S(=O)(=O)[O-])c5F)c5nc(c(-c6cccc(S(=O)(=O)[O-])c6F)c6ccc3[nH]6)C=C5)C=C4)cc2)CCC[C@@H](Oc2ccccc2[N+](=O)[O-])C1
REMARK SMILES IDX 6 1 5 2 3 3 4 4 2 5 74 6 88 7 75 8 77 9 76 10 1 11 78 15
REMARK SMILES IDX 79 16 80 17 84 18 81 19 83 20 82 21 85 22 86 23 87 24 7 25
REMARK SMILES IDX 8 26 9 27 10 28 11 29 12 30 73 31 13 32 72 33 14 34 15 35
REMARK SMILES IDX 16 36 66 37 17 38 71 39 65 40 67 41 18 42 70 43 64 44 63 45
REMARK SMILES IDX 19 47 51 48 31 49 50 50 32 51 35 52 49 53 68 54 33 55 34 56
REMARK SMILES IDX 48 58 69 59 36 60 20 61 21 62 29 63 22 64 24 65 30 66 23 67
REMARK SMILES IDX 25 68 26 69 27 70 28 71 52 72 53 73 61 74 54 75 56 76 62 77
REMARK SMILES IDX 55 78 57 79 58 80 59 81 60 82 37 83 38 84 46 85 39 86 41 87
REMARK SMILES IDX 47 88 40 89 42 90 43 91 44 92 45 93
REMARK H PARENT 1 12 1 13 1 14 67 46 35 57
REMARK Flexibility Score: inf
ROOT
ATOM      1  C   UNL A   1      34.990  20.563  25.005  1.00  0.00     0.274 C 
ENDROOT
BRANCH   1   2
ATOM      2  O   UNL A   1      34.775  21.916  24.562  1.00  0.00    -0.457 OA
BRANCH   2   3
ATOM      3  C   UNL A   1      33.508  22.229  24.163  1.00  0.00     0.368 C 
ATOM      4  O   UNL A   1      33.008  21.836  23.114  1.00  0.00    -0.245 OA
BRANCH   3   5
ATOM      5  C   UNL A   1      32.786  23.199  25.160  1.00  0.00     0.196 C 
ATOM      6  C   UNL A   1      31.710  22.509  26.015  1.00  0.00     0.081 C 
ATOM      7  C   UNL A   1      32.085  24.268  24.284  1.00  0.00     0.126 C 
ATOM      8  C   UNL A   1      30.923  23.492  26.890  1.00  0.00     0.011 C 
ATOM      9  C   UNL A   1      31.103  25.226  24.968  1.00  0.00     0.180 C 
ATOM     10  C   UNL A   1      30.238  24.585  26.067  1.00  0.00     0.046 C 
BRANCH   5  11
ATOM     11  N   UNL A   1      33.811  23.717  26.084  1.00  0.00    -0.343 N 
ATOM     12  H   UNL A   1      34.701  23.259  25.895  1.00  0.00     0.345 HD
ATOM     13  H   UNL A   1      33.529  23.529  27.046  1.00  0.00     0.345 HD
ATOM     14  H   UNL A   1      33.910  24.724  25.950  1.00  0.00     0.345 HD
ENDBRANCH   5  11
BRANCH   9  15
ATOM     15  O   UNL A   1      31.610  26.550  25.250  1.00  0.00    -0.483 OA
BRANCH  15  16
ATOM     16  C   UNL A   1      31.048  27.598  24.597  1.00  0.00     0.197 A 
ATOM     17  C   UNL A   1      30.220  27.337  23.504  1.00  0.00     0.054 A 
ATOM     18  C   UNL A   1      31.305  28.931  24.938  1.00  0.00     0.310 A 
ATOM     19  C   UNL A   1      29.553  28.382  22.858  1.00  0.00     0.004 A 
ATOM     20  C   UNL A   1      30.629  29.985  24.305  1.00  0.00     0.090 A 
ATOM     21  C   UNL A   1      29.736  29.701  23.274  1.00  0.00     0.007 A 
BRANCH  18  22
ATOM     22  N   UNL A   1      32.188  29.268  26.039  1.00  0.00     0.066 N 
ATOM     23  O   UNL A   1      31.752  29.049  27.181  1.00  0.00    -0.258 OA
ATOM     24  O   UNL A   1      33.283  29.776  25.773  1.00  0.00    -0.258 OA
ENDBRANCH  18  22
ENDBRANCH  15  16
ENDBRANCH   9  15
ENDBRANCH   3   5
ENDBRANCH   2   3
ENDBRANCH   1   2
BRANCH   1  25
ATOM     25  C   UNL A   1      36.475  20.226  24.963  1.00  0.00     0.275 C 
BRANCH  25  26
ATOM     26  O   UNL A   1      37.209  21.249  25.656  1.00  0.00    -0.458 OA
BRANCH  26  27
ATOM     27  C   UNL A   1      38.527  21.009  25.841  1.00  0.00     0.338 C 
ATOM     28  O   UNL A   1      39.156  20.015  25.520  1.00  0.00    -0.246 OA
BRANCH  27  29
ATOM     29  C   UNL A   1      39.154  22.193  26.451  1.00  0.00     0.060 A 
ATOM     30  C   UNL A   1      38.659  23.452  26.132  1.00  0.00     0.016 A 
ATOM     31  C   UNL A   1      40.309  22.078  27.216  1.00  0.00     0.016 A 
ATOM     32  C   UNL A   1      39.369  24.598  26.458  1.00  0.00     0.010 A 
ATOM     33  C   UNL A   1      40.954  23.239  27.662  1.00  0.00     0.010 A 
ATOM     34  C   UNL A   1      40.515  24.513  27.253  1.00  0.00    -0.014 A 
BRANCH  34  35
ATOM     35  C   UNL A   1      41.250  25.754  27.616  1.00  0.00     0.031 A 
ATOM     36  C   UNL A   1      40.587  26.806  28.464  1.00  0.00     0.074 A 
ATOM     37  C   UNL A   1      42.525  25.929  27.209  1.00  0.00     0.049 A 
ATOM     38  N   UNL A   1      40.996  28.015  28.748  1.00  0.00    -0.248 NA
ATOM     39  C   UNL A   1      39.285  26.461  29.060  1.00  0.00     0.031 C 
ATOM     40  C   UNL A   1      43.298  24.976  26.408  1.00  0.00     0.029 A 
ATOM     41  N   UNL A   1      43.400  26.967  27.414  1.00  0.00    -0.354 N 
ATOM     42  C   UNL A   1      39.967  28.605  29.473  1.00  0.00     0.074 A 
ATOM     43  C   UNL A   1      38.923  27.613  29.609  1.00  0.00     0.031 C 
ATOM     44  C   UNL A   1      44.539  25.451  26.228  1.00  0.00     0.029 A 
ATOM     45  C   UNL A   1      44.624  26.783  26.812  1.00  0.00     0.049 A 
ATOM     46  H   UNL A   1      43.174  27.767  27.942  1.00  0.00     0.167 HD
ATOM     47  C   UNL A   1      39.902  29.858  29.980  1.00  0.00     0.034 A 
ATOM     48  C   UNL A   1      45.682  27.608  26.699  1.00  0.00     0.034 A 
ATOM     49  C   UNL A   1      40.978  30.809  29.916  1.00  0.00     0.049 A 
ATOM     50  C   UNL A   1      45.596  28.980  27.301  1.00  0.00     0.074 A 
ATOM     51  C   UNL A   1      41.021  32.099  30.417  1.00  0.00     0.029 A 
ATOM     52  N   UNL A   1      42.212  30.568  29.331  1.00  0.00    -0.354 N 
ATOM     53  N   UNL A   1      44.618  29.517  27.991  1.00  0.00    -0.248 NA
ATOM     54  C   UNL A   1      46.757  29.860  27.113  1.00  0.00     0.031 C 
ATOM     55  C   UNL A   1      42.282  32.637  30.135  1.00  0.00     0.029 A 
ATOM     56  C   UNL A   1      43.027  31.680  29.464  1.00  0.00     0.049 A 
ATOM     57  H   UNL A   1      42.472  29.729  28.886  1.00  0.00     0.167 HD
ATOM     58  C   UNL A   1      45.046  30.796  28.321  1.00  0.00     0.074 A 
ATOM     59  C   UNL A   1      46.389  30.936  27.796  1.00  0.00     0.031 C 
ATOM     60  C   UNL A   1      44.377  31.780  28.971  1.00  0.00     0.034 A 
BRANCH  47  61
ATOM     61  C   UNL A   1      38.624  30.267  30.664  1.00  0.00     0.023 A 
ATOM     62  C   UNL A   1      38.415  29.939  32.017  1.00  0.00     0.012 A 
ATOM     63  C   UNL A   1      37.647  31.011  29.972  1.00  0.00     0.148 A 
ATOM     64  C   UNL A   1      37.241  30.321  32.666  1.00  0.00     0.002 A 
ATOM     65  C   UNL A   1      36.496  31.422  30.637  1.00  0.00     0.091 A 
ATOM     66  F   UNL A   1      37.851  31.289  28.676  1.00  0.00    -0.205 F 
ATOM     67  C   UNL A   1      36.288  31.070  31.980  1.00  0.00     0.022 A 
BRANCH  65  68
ATOM     68  S   UNL A   1      35.246  32.446  29.852  1.00  0.00     0.127 S 
ATOM     69  O   UNL A   1      34.719  31.541  28.833  1.00  0.00    -0.237 OA
ATOM     70  O   UNL A   1      34.328  32.718  30.959  1.00  0.00    -0.237 OA
ATOM     71  O   UNL A   1      35.949  33.618  29.351  1.00  0.00    -0.744 OA
ENDBRANCH  65  68
ENDBRANCH  47  61
BRANCH  48  72
ATOM     72  C   UNL A   1      46.911  27.148  25.988  1.00  0.00     0.023 A 
ATOM     73  C   UNL A   1      47.048  27.401  24.609  1.00  0.00     0.012 A 
ATOM     74  C   UNL A   1      47.963  26.514  26.675  1.00  0.00     0.148 A 
ATOM     75  C   UNL A   1      48.205  27.019  23.928  1.00  0.00     0.002 A 
ATOM     76  C   UNL A   1      49.139  26.195  26.005  1.00  0.00     0.091 A 
ATOM     77  F   UNL A   1      47.806  26.249  27.980  1.00  0.00    -0.205 F 
ATOM     78  C   UNL A   1      49.256  26.432  24.628  1.00  0.00     0.022 A 
BRANCH  76  79
ATOM     79  S   UNL A   1      50.589  25.590  26.877  1.00  0.00     0.127 S 
ATOM     80  O   UNL A   1      50.923  26.726  27.730  1.00  0.00    -0.237 OA
ATOM     81  O   UNL A   1      50.062  24.422  27.583  1.00  0.00    -0.237 OA
ATOM     82  O   UNL A   1      51.554  25.266  25.834  1.00  0.00    -0.744 OA
ENDBRANCH  76  79
ENDBRANCH  48  72
BRANCH  60  83
ATOM     83  C   UNL A   1      45.093  33.090  29.147  1.00  0.00     0.023 A 
ATOM     84  C   UNL A   1      45.868  33.303  30.305  1.00  0.00     0.012 A 
ATOM     85  C   UNL A   1      45.034  34.090  28.160  1.00  0.00     0.148 A 
ATOM     86  C   UNL A   1      46.546  34.506  30.492  1.00  0.00     0.002 A 
ATOM     87  C   UNL A   1      45.746  35.271  28.335  1.00  0.00     0.091 A 
ATOM     88  F   UNL A   1      44.270  33.882  27.077  1.00  0.00    -0.205 F 
ATOM     89  C   UNL A   1      46.494  35.485  29.504  1.00  0.00     0.022 A 
BRANCH  87  90
ATOM     90  S   UNL A   1      45.789  36.540  27.063  1.00  0.00     0.127 S 
ATOM     91  O   UNL A   1      46.317  35.801  25.919  1.00  0.00    -0.237 OA
ATOM     92  O   UNL A   1      44.381  36.922  26.945  1.00  0.00    -0.237 OA
ATOM     93  O   UNL A   1      46.649  37.590  27.594  1.00  0.00    -0.744 OA
ENDBRANCH  87  90
ENDBRANCH  60  83
ENDBRANCH  34  35
ENDBRANCH  27  29
ENDBRANCH  26  27
ENDBRANCH  25  26
ENDBRANCH   1  25
TORSDOF 18
ENDMDL
