MODEL 1
REMARK VINA RESULT:     -12.6      0.000      0.000
REMARK SMILES COc1cc([C@@H]2CC(=O)Nc3c(C(=O)OCCOC(=O)c4ccc(-c5c6nc(c(-c7cccc(S(=O)(=O)[O-])c7F)c7ccc([nH]7)c(-c7cccc(S(=O)(=O)[O-])c7F)c7nc(c(-c8cccc(S(=O)(=O)[O-])c8F)c8ccc5[nH]8)C=C7)C=C6)cc4)cn(-c4ccc(F)cc4)c32)c(OC)c2c1OCO2
REMARK SMILES IDX 17 1 16 2 15 3 13 4 14 5 12 6 6 7 7 8 93 9 8 10 11 11 85 12
REMARK SMILES IDX 9 13 10 14 84 15 5 17 3 18 4 19 98 20 97 21 99 22 94 23
REMARK SMILES IDX 101 24 100 25 2 26 1 27 95 28 96 29 86 30 87 31 92 32 88 33
REMARK SMILES IDX 91 34 89 35 90 36 18 37 19 38 20 39 21 40 22 41 83 42 23 43
REMARK SMILES IDX 82 44 24 45 25 46 26 47 76 48 27 49 81 50 75 51 77 52 28 53
REMARK SMILES IDX 80 54 74 55 73 56 29 58 61 59 41 60 60 61 42 62 45 63 59 64
REMARK SMILES IDX 78 65 43 66 44 67 58 69 79 70 46 71 30 72 31 73 39 74 32 75
REMARK SMILES IDX 34 76 40 77 33 78 35 79 36 80 37 81 38 82 62 83 63 84 71 85
REMARK SMILES IDX 64 86 66 87 72 88 65 89 67 90 68 91 69 92 70 93 47 94 48 95
REMARK SMILES IDX 56 96 49 97 51 98 57 99 50 100 52 101 53 102 54 103 55 104
REMARK H PARENT 10 16 77 57 45 68
REMARK Flexibility Score: inf
ROOT
ATOM      1  C   UNL A   1      32.926  30.195  26.165  1.00  0.00     0.275 C 
ENDROOT
BRANCH   1   2
ATOM      2  C   UNL A   1      32.452  28.806  25.761  1.00  0.00     0.275 C 
BRANCH   2   3
ATOM      3  O   UNL A   1      33.319  28.236  24.769  1.00  0.00    -0.458 OA
BRANCH   3   4
ATOM      4  C   UNL A   1      32.889  27.063  24.212  1.00  0.00     0.341 C 
ATOM      5  O   UNL A   1      32.143  26.988  23.237  1.00  0.00    -0.246 OA
BRANCH   4   6
ATOM      6  C   UNL A   1      33.419  25.898  24.892  1.00  0.00     0.102 A 
ATOM      7  C   UNL A   1      33.065  22.609  26.501  1.00  0.00     0.082 C 
ATOM      8  C   UNL A   1      31.864  22.887  27.421  1.00  0.00     0.115 C 
ATOM      9  C   UNL A   1      33.556  23.898  25.919  1.00  0.00     0.055 A 
ATOM     10  C   UNL A   1      30.922  23.988  26.947  1.00  0.00     0.225 C 
ATOM     11  C   UNL A   1      32.756  25.002  25.754  1.00  0.00     0.078 A 
ATOM     12  N   UNL A   1      34.804  24.200  25.414  1.00  0.00    -0.317 N 
ATOM     13  O   UNL A   1      29.731  23.996  27.263  1.00  0.00    -0.275 OA
ATOM     14  N   UNL A   1      31.468  25.030  26.240  1.00  0.00    -0.324 N 
ATOM     15  C   UNL A   1      34.723  25.428  24.794  1.00  0.00     0.109 A 
ATOM     16  H   UNL A   1      30.918  25.829  26.075  1.00  0.00     0.170 HD
BRANCH   7  17
ATOM     17  C   UNL A   1      32.756  21.561  25.418  1.00  0.00     0.012 A 
ATOM     18  C   UNL A   1      33.068  19.226  24.715  1.00  0.00     0.165 A 
ATOM     19  C   UNL A   1      33.093  20.212  25.704  1.00  0.00     0.059 A 
ATOM     20  C   UNL A   1      32.632  19.589  23.455  1.00  0.00     0.211 A 
ATOM     21  C   UNL A   1      32.231  20.881  23.173  1.00  0.00     0.211 A 
ATOM     22  O   UNL A   1      32.518  18.773  22.368  1.00  0.00    -0.449 OA
ATOM     23  C   UNL A   1      32.269  21.887  24.127  1.00  0.00     0.168 A 
ATOM     24  O   UNL A   1      31.832  21.011  21.875  1.00  0.00    -0.449 OA
ATOM     25  C   UNL A   1      31.970  19.670  21.392  1.00  0.00     0.468 C 
BRANCH  18  26
ATOM     26  O   UNL A   1      33.472  17.982  25.106  1.00  0.00    -0.493 OA
ATOM     27  C   UNL A   1      32.412  17.092  25.441  1.00  0.00     0.278 C 
ENDBRANCH  18  26
BRANCH  23  28
ATOM     28  O   UNL A   1      31.873  23.172  23.931  1.00  0.00    -0.492 OA
ATOM     29  C   UNL A   1      30.663  23.459  23.253  1.00  0.00     0.278 C 
ENDBRANCH  23  28
ENDBRANCH   7  17
BRANCH  12  30
ATOM     30  C   UNL A   1      35.944  23.372  25.381  1.00  0.00     0.046 A 
ATOM     31  C   UNL A   1      35.930  22.225  24.584  1.00  0.00     0.029 A 
ATOM     32  C   UNL A   1      37.076  23.714  26.127  1.00  0.00     0.029 A 
ATOM     33  C   UNL A   1      37.022  21.360  24.600  1.00  0.00     0.041 A 
ATOM     34  C   UNL A   1      38.171  22.844  26.132  1.00  0.00     0.041 A 
ATOM     35  C   UNL A   1      38.127  21.670  25.384  1.00  0.00     0.123 A 
ATOM     36  F   UNL A   1      39.167  20.826  25.409  1.00  0.00    -0.207 F 
ENDBRANCH  12  30
ENDBRANCH   4   6
ENDBRANCH   3   4
ENDBRANCH   2   3
ENDBRANCH   1   2
BRANCH   1  37
ATOM     37  O   UNL A   1      33.375  30.216  27.519  1.00  0.00    -0.458 OA
BRANCH  37  38
ATOM     38  C   UNL A   1      34.093  31.308  27.865  1.00  0.00     0.338 C 
ATOM     39  O   UNL A   1      33.685  32.452  27.981  1.00  0.00    -0.246 OA
BRANCH  38  40
ATOM     40  C   UNL A   1      35.513  30.963  27.866  1.00  0.00     0.060 A 
ATOM     41  C   UNL A   1      35.856  29.611  27.792  1.00  0.00     0.016 A 
ATOM     42  C   UNL A   1      36.440  31.950  28.229  1.00  0.00     0.016 A 
ATOM     43  C   UNL A   1      37.102  29.232  28.240  1.00  0.00     0.010 A 
ATOM     44  C   UNL A   1      37.675  31.568  28.688  1.00  0.00     0.010 A 
ATOM     45  C   UNL A   1      37.967  30.210  28.753  1.00  0.00    -0.014 A 
BRANCH  45  46
ATOM     46  C   UNL A   1      39.290  29.802  29.182  1.00  0.00     0.031 A 
ATOM     47  C   UNL A   1      39.538  30.194  30.591  1.00  0.00     0.074 A 
ATOM     48  C   UNL A   1      40.104  29.044  28.421  1.00  0.00     0.049 A 
ATOM     49  N   UNL A   1      40.371  31.081  31.023  1.00  0.00    -0.248 NA
ATOM     50  C   UNL A   1      38.592  29.711  31.615  1.00  0.00     0.031 C 
ATOM     51  C   UNL A   1      39.783  28.401  27.141  1.00  0.00     0.029 A 
ATOM     52  N   UNL A   1      41.350  28.565  28.693  1.00  0.00    -0.354 N 
ATOM     53  C   UNL A   1      40.246  31.037  32.408  1.00  0.00     0.074 A 
ATOM     54  C   UNL A   1      38.998  30.385  32.692  1.00  0.00     0.031 C 
ATOM     55  C   UNL A   1      40.693  27.430  26.888  1.00  0.00     0.029 A 
ATOM     56  C   UNL A   1      41.725  27.475  27.908  1.00  0.00     0.049 A 
ATOM     57  H   UNL A   1      41.934  28.956  29.383  1.00  0.00     0.167 HD
ATOM     58  C   UNL A   1      41.338  31.213  33.198  1.00  0.00     0.034 A 
ATOM     59  C   UNL A   1      42.765  26.631  28.136  1.00  0.00     0.034 A 
ATOM     60  C   UNL A   1      42.401  31.870  32.483  1.00  0.00     0.049 A 
ATOM     61  C   UNL A   1      43.690  27.324  29.057  1.00  0.00     0.074 A 
ATOM     62  C   UNL A   1      42.550  33.075  31.830  1.00  0.00     0.029 A 
ATOM     63  N   UNL A   1      43.395  31.048  32.016  1.00  0.00    -0.354 N 
ATOM     64  N   UNL A   1      44.370  28.386  28.733  1.00  0.00    -0.248 NA
ATOM     65  C   UNL A   1      43.549  27.075  30.480  1.00  0.00     0.031 C 
ATOM     66  C   UNL A   1      43.374  32.788  30.701  1.00  0.00     0.029 A 
ATOM     67  C   UNL A   1      43.752  31.445  30.758  1.00  0.00     0.049 A 
ATOM     68  H   UNL A   1      43.788  30.292  32.510  1.00  0.00     0.167 HD
ATOM     69  C   UNL A   1      44.313  29.179  29.869  1.00  0.00     0.074 A 
ATOM     70  C   UNL A   1      43.926  28.268  30.945  1.00  0.00     0.031 C 
ATOM     71  C   UNL A   1      44.291  30.542  29.763  1.00  0.00     0.034 A 
BRANCH  58  72
ATOM     72  C   UNL A   1      41.599  30.381  34.436  1.00  0.00     0.023 A 
ATOM     73  C   UNL A   1      42.026  31.057  35.598  1.00  0.00     0.012 A 
ATOM     74  C   UNL A   1      41.715  28.969  34.442  1.00  0.00     0.148 A 
ATOM     75  C   UNL A   1      42.554  30.366  36.694  1.00  0.00     0.002 A 
ATOM     76  C   UNL A   1      42.146  28.280  35.568  1.00  0.00     0.091 A 
ATOM     77  F   UNL A   1      41.554  28.276  33.312  1.00  0.00    -0.205 F 
ATOM     78  C   UNL A   1      42.598  28.976  36.688  1.00  0.00     0.022 A 
BRANCH  76  79
ATOM     79  S   UNL A   1      42.160  26.483  35.624  1.00  0.00     0.127 S 
ATOM     80  O   UNL A   1      43.257  26.171  34.713  1.00  0.00    -0.237 OA
ATOM     81  O   UNL A   1      42.435  26.236  37.039  1.00  0.00    -0.237 OA
ATOM     82  O   UNL A   1      40.830  26.068  35.196  1.00  0.00    -0.744 OA
ENDBRANCH  76  79
ENDBRANCH  58  72
BRANCH  59  83
ATOM     83  C   UNL A   1      42.916  25.177  27.871  1.00  0.00     0.023 A 
ATOM     84  C   UNL A   1      41.909  24.285  28.303  1.00  0.00     0.012 A 
ATOM     85  C   UNL A   1      43.856  24.710  26.929  1.00  0.00     0.148 A 
ATOM     86  C   UNL A   1      41.816  22.989  27.780  1.00  0.00     0.002 A 
ATOM     87  C   UNL A   1      43.761  23.419  26.414  1.00  0.00     0.091 A 
ATOM     88  F   UNL A   1      44.782  25.559  26.467  1.00  0.00    -0.205 F 
ATOM     89  C   UNL A   1      42.733  22.560  26.826  1.00  0.00     0.022 A 
BRANCH  87  90
ATOM     90  S   UNL A   1      44.884  22.803  25.152  1.00  0.00     0.127 S 
ATOM     91  O   UNL A   1      46.104  22.566  25.925  1.00  0.00    -0.237 OA
ATOM     92  O   UNL A   1      44.200  21.592  24.703  1.00  0.00    -0.237 OA
ATOM     93  O   UNL A   1      44.997  23.868  24.163  1.00  0.00    -0.744 OA
ENDBRANCH  87  90
ENDBRANCH  59  83
BRANCH  71  94
ATOM     94  C   UNL A   1      44.681  31.142  28.432  1.00  0.00     0.023 A 
ATOM     95  C   UNL A   1      43.758  31.420  27.401  1.00  0.00     0.012 A 
ATOM     96  C   UNL A   1      46.019  31.532  28.264  1.00  0.00     0.148 A 
ATOM     97  C   UNL A   1      44.172  32.040  26.217  1.00  0.00     0.002 A 
ATOM     98  C   UNL A   1      46.418  32.188  27.107  1.00  0.00     0.091 A 
ATOM     99  F   UNL A   1      46.886  31.260  29.251  1.00  0.00    -0.205 F 
ATOM    100  C   UNL A   1      45.502  32.434  26.074  1.00  0.00     0.022 A 
BRANCH  98 101
ATOM    101  S   UNL A   1      48.089  32.810  26.922  1.00  0.00     0.127 S 
ATOM    102  O   UNL A   1      47.949  33.729  25.795  1.00  0.00    -0.237 OA
ATOM    103  O   UNL A   1      48.331  33.456  28.213  1.00  0.00    -0.237 OA
ATOM    104  O   UNL A   1      48.926  31.641  26.679  1.00  0.00    -0.744 OA
ENDBRANCH  98 101
ENDBRANCH  71  94
ENDBRANCH  45  46
ENDBRANCH  38  40
ENDBRANCH  37  38
ENDBRANCH   1  37
TORSDOF 18
ENDMDL
MODEL 2
REMARK VINA RESULT:     -12.4      5.008      9.557
REMARK SMILES COc1cc([C@@H]2CC(=O)Nc3c(C(=O)OCCOC(=O)c4ccc(-c5c6nc(c(-c7cccc(S(=O)(=O)[O-])c7F)c7ccc([nH]7)c(-c7cccc(S(=O)(=O)[O-])c7F)c7nc(c(-c8cccc(S(=O)(=O)[O-])c8F)c8ccc5[nH]8)C=C7)C=C6)cc4)cn(-c4ccc(F)cc4)c32)c(OC)c2c1OCO2
REMARK SMILES IDX 17 1 16 2 15 3 13 4 14 5 12 6 6 7 7 8 93 9 8 10 11 11 85 12
REMARK SMILES IDX 9 13 10 14 84 15 5 17 3 18 4 19 98 20 97 21 99 22 94 23
REMARK SMILES IDX 101 24 100 25 2 26 1 27 95 28 96 29 86 30 87 31 92 32 88 33
REMARK SMILES IDX 91 34 89 35 90 36 18 37 19 38 20 39 21 40 22 41 83 42 23 43
REMARK SMILES IDX 82 44 24 45 25 46 26 47 76 48 27 49 81 50 75 51 77 52 28 53
REMARK SMILES IDX 80 54 74 55 73 56 29 58 61 59 41 60 60 61 42 62 45 63 59 64
REMARK SMILES IDX 78 65 43 66 44 67 58 69 79 70 46 71 30 72 31 73 39 74 32 75
REMARK SMILES IDX 34 76 40 77 33 78 35 79 36 80 37 81 38 82 62 83 63 84 71 85
REMARK SMILES IDX 64 86 66 87 72 88 65 89 67 90 68 91 69 92 70 93 47 94 48 95
REMARK SMILES IDX 56 96 49 97 51 98 57 99 50 100 52 101 53 102 54 103 55 104
REMARK H PARENT 10 16 77 57 45 68
REMARK Flexibility Score: inf
ROOT
ATOM      1  C   UNL A   1      36.257  33.338  29.576  1.00  0.00     0.275 C 
ENDROOT
BRANCH   1   2
ATOM      2  C   UNL A   1      34.850  33.615  30.085  1.00  0.00     0.275 C 
BRANCH   2   3
ATOM      3  O   UNL A   1      34.673  33.099  31.413  1.00  0.00    -0.458 OA
BRANCH   3   4
ATOM      4  C   UNL A   1      34.946  33.974  32.428  1.00  0.00     0.341 C 
ATOM      5  O   UNL A   1      34.501  35.119  32.499  1.00  0.00    -0.246 OA
BRANCH   4   6
ATOM      6  C   UNL A   1      35.820  33.403  33.434  1.00  0.00     0.102 A 
ATOM      7  C   UNL A   1      38.499  31.132  34.529  1.00  0.00     0.082 C 
ATOM      8  C   UNL A   1      38.038  29.828  33.855  1.00  0.00     0.115 C 
ATOM      9  C   UNL A   1      37.412  32.157  34.426  1.00  0.00     0.055 A 
ATOM     10  C   UNL A   1      37.190  30.007  32.601  1.00  0.00     0.225 C 
ATOM     11  C   UNL A   1      36.460  32.148  33.436  1.00  0.00     0.078 A 
ATOM     12  N   UNL A   1      37.194  33.269  35.213  1.00  0.00    -0.317 N 
ATOM     13  O   UNL A   1      37.166  29.152  31.714  1.00  0.00    -0.275 OA
ATOM     14  N   UNL A   1      36.372  31.107  32.539  1.00  0.00    -0.324 N 
ATOM     15  C   UNL A   1      36.213  34.027  34.612  1.00  0.00     0.109 A 
ATOM     16  H   UNL A   1      35.695  31.153  31.826  1.00  0.00     0.170 HD
BRANCH   7  17
ATOM     17  C   UNL A   1      39.839  31.647  33.974  1.00  0.00     0.012 A 
ATOM     18  C   UNL A   1      41.021  32.465  31.980  1.00  0.00     0.165 A 
ATOM     19  C   UNL A   1      39.834  32.184  32.660  1.00  0.00     0.059 A 
ATOM     20  C   UNL A   1      42.211  32.273  32.656  1.00  0.00     0.211 A 
ATOM     21  C   UNL A   1      42.236  31.818  33.961  1.00  0.00     0.211 A 
ATOM     22  O   UNL A   1      43.466  32.506  32.176  1.00  0.00    -0.449 OA
ATOM     23  C   UNL A   1      41.075  31.507  34.653  1.00  0.00     0.168 A 
ATOM     24  O   UNL A   1      43.512  31.711  34.431  1.00  0.00    -0.449 OA
ATOM     25  C   UNL A   1      44.274  32.191  33.318  1.00  0.00     0.468 C 
BRANCH  18  26
ATOM     26  O   UNL A   1      40.880  32.921  30.701  1.00  0.00    -0.493 OA
ATOM     27  C   UNL A   1      40.360  34.242  30.596  1.00  0.00     0.278 C 
ENDBRANCH  18  26
BRANCH  23  28
ATOM     28  O   UNL A   1      41.019  31.076  35.940  1.00  0.00    -0.492 OA
ATOM     29  C   UNL A   1      41.730  31.754  36.961  1.00  0.00     0.278 C 
ENDBRANCH  23  28
ENDBRANCH   7  17
BRANCH  12  30
ATOM     30  C   UNL A   1      37.919  33.675  36.351  1.00  0.00     0.046 A 
ATOM     31  C   UNL A   1      39.002  34.543  36.195  1.00  0.00     0.029 A 
ATOM     32  C   UNL A   1      37.539  33.223  37.619  1.00  0.00     0.029 A 
ATOM     33  C   UNL A   1      39.772  34.893  37.301  1.00  0.00     0.041 A 
ATOM     34  C   UNL A   1      38.313  33.585  38.726  1.00  0.00     0.041 A 
ATOM     35  C   UNL A   1      39.429  34.400  38.555  1.00  0.00     0.123 A 
ATOM     36  F   UNL A   1      40.184  34.726  39.613  1.00  0.00    -0.207 F 
ENDBRANCH  12  30
ENDBRANCH   4   6
ENDBRANCH   3   4
ENDBRANCH   2   3
ENDBRANCH   1   2
BRANCH   1  37
ATOM     37  O   UNL A   1      36.634  31.982  29.804  1.00  0.00    -0.458 OA
BRANCH  37  38
ATOM     38  C   UNL A   1      36.440  31.151  28.755  1.00  0.00     0.338 C 
ATOM     39  O   UNL A   1      35.386  30.911  28.189  1.00  0.00    -0.246 OA
BRANCH  38  40
ATOM     40  C   UNL A   1      37.663  30.385  28.523  1.00  0.00     0.060 A 
ATOM     41  C   UNL A   1      37.533  29.032  28.202  1.00  0.00     0.016 A 
ATOM     42  C   UNL A   1      38.888  30.946  28.911  1.00  0.00     0.016 A 
ATOM     43  C   UNL A   1      38.612  28.205  28.424  1.00  0.00     0.010 A 
ATOM     44  C   UNL A   1      39.956  30.119  29.146  1.00  0.00     0.010 A 
ATOM     45  C   UNL A   1      39.786  28.750  28.966  1.00  0.00    -0.014 A 
BRANCH  45  46
ATOM     46  C   UNL A   1      40.926  27.876  29.156  1.00  0.00     0.031 A 
ATOM     47  C   UNL A   1      41.565  28.112  30.473  1.00  0.00     0.074 A 
ATOM     48  C   UNL A   1      41.247  26.893  28.290  1.00  0.00     0.049 A 
ATOM     49  N   UNL A   1      42.731  28.622  30.699  1.00  0.00    -0.248 NA
ATOM     50  C   UNL A   1      40.725  27.981  31.678  1.00  0.00     0.031 C 
ATOM     51  C   UNL A   1      40.475  26.446  27.125  1.00  0.00     0.029 A 
ATOM     52  N   UNL A   1      42.261  25.986  28.345  1.00  0.00    -0.354 N 
ATOM     53  C   UNL A   1      42.867  28.590  32.084  1.00  0.00     0.074 A 
ATOM     54  C   UNL A   1      41.546  28.432  32.627  1.00  0.00     0.031 C 
ATOM     55  C   UNL A   1      40.903  25.218  26.750  1.00  0.00     0.029 A 
ATOM     56  C   UNL A   1      42.056  24.856  27.554  1.00  0.00     0.049 A 
ATOM     57  H   UNL A   1      43.068  26.117  28.893  1.00  0.00     0.167 HD
ATOM     58  C   UNL A   1      44.078  28.334  32.644  1.00  0.00     0.034 A 
ATOM     59  C   UNL A   1      42.742  23.684  27.620  1.00  0.00     0.034 A 
ATOM     60  C   UNL A   1      45.148  28.576  31.712  1.00  0.00     0.049 A 
ATOM     61  C   UNL A   1      44.014  23.967  28.316  1.00  0.00     0.074 A 
ATOM     62  C   UNL A   1      45.596  29.661  30.989  1.00  0.00     0.029 A 
ATOM     63  N   UNL A   1      45.666  27.461  31.105  1.00  0.00    -0.354 N 
ATOM     64  N   UNL A   1      44.957  24.716  27.822  1.00  0.00    -0.248 NA
ATOM     65  C   UNL A   1      44.069  23.749  29.751  1.00  0.00     0.031 C 
ATOM     66  C   UNL A   1      46.027  29.123  29.739  1.00  0.00     0.029 A 
ATOM     67  C   UNL A   1      45.894  27.734  29.785  1.00  0.00     0.049 A 
ATOM     68  H   UNL A   1      45.845  26.601  31.550  1.00  0.00     0.167 HD
ATOM     69  C   UNL A   1      45.412  25.444  28.911  1.00  0.00     0.074 A 
ATOM     70  C   UNL A   1      44.935  24.709  30.081  1.00  0.00     0.031 C 
ATOM     71  C   UNL A   1      45.866  26.723  28.749  1.00  0.00     0.034 A 
BRANCH  58  72
ATOM     72  C   UNL A   1      44.252  27.431  33.847  1.00  0.00     0.023 A 
ATOM     73  C   UNL A   1      45.000  27.931  34.934  1.00  0.00     0.012 A 
ATOM     74  C   UNL A   1      43.964  26.044  33.857  1.00  0.00     0.148 A 
ATOM     75  C   UNL A   1      45.449  27.091  35.961  1.00  0.00     0.002 A 
ATOM     76  C   UNL A   1      44.326  25.234  34.924  1.00  0.00     0.091 A 
ATOM     77  F   UNL A   1      43.468  25.453  32.767  1.00  0.00    -0.205 F 
ATOM     78  C   UNL A   1      45.097  25.746  35.966  1.00  0.00     0.022 A 
BRANCH  76  79
ATOM     79  S   UNL A   1      43.839  23.505  35.001  1.00  0.00     0.127 S 
ATOM     80  O   UNL A   1      44.570  23.047  36.178  1.00  0.00    -0.237 OA
ATOM     81  O   UNL A   1      42.390  23.615  35.171  1.00  0.00    -0.237 OA
ATOM     82  O   UNL A   1      44.245  22.927  33.726  1.00  0.00    -0.744 OA
ENDBRANCH  76  79
ENDBRANCH  58  72
BRANCH  59  83
ATOM     83  C   UNL A   1      42.300  22.283  27.398  1.00  0.00     0.023 A 
ATOM     84  C   UNL A   1      40.930  21.961  27.513  1.00  0.00     0.012 A 
ATOM     85  C   UNL A   1      43.149  21.351  26.764  1.00  0.00     0.148 A 
ATOM     86  C   UNL A   1      40.416  20.774  26.975  1.00  0.00     0.002 A 
ATOM     87  C   UNL A   1      42.634  20.171  26.233  1.00  0.00     0.091 A 
ATOM     88  F   UNL A   1      44.440  21.666  26.598  1.00  0.00    -0.205 F 
ATOM     89  C   UNL A   1      41.265  19.886  26.323  1.00  0.00     0.022 A 
BRANCH  87  90
ATOM     90  S   UNL A   1      43.659  18.989  25.346  1.00  0.00     0.127 S 
ATOM     91  O   UNL A   1      42.795  17.809  25.311  1.00  0.00    -0.237 OA
ATOM     92  O   UNL A   1      43.839  19.654  24.057  1.00  0.00    -0.237 OA
ATOM     93  O   UNL A   1      44.865  18.827  26.147  1.00  0.00    -0.744 OA
ENDBRANCH  87  90
ENDBRANCH  59  83
BRANCH  71  94
ATOM     94  C   UNL A   1      46.183  27.175  27.342  1.00  0.00     0.023 A 
ATOM     95  C   UNL A   1      45.241  27.786  26.487  1.00  0.00     0.012 A 
ATOM     96  C   UNL A   1      47.516  27.067  26.912  1.00  0.00     0.148 A 
ATOM     97  C   UNL A   1      45.615  28.244  25.219  1.00  0.00     0.002 A 
ATOM     98  C   UNL A   1      47.894  27.564  25.671  1.00  0.00     0.091 A 
ATOM     99  F   UNL A   1      48.401  26.483  27.734  1.00  0.00    -0.205 F 
ATOM    100  C   UNL A   1      46.946  28.142  24.815  1.00  0.00     0.022 A 
BRANCH  98 101
ATOM    101  S   UNL A   1      49.610  27.555  25.152  1.00  0.00     0.127 S 
ATOM    102  O   UNL A   1      49.509  27.986  23.759  1.00  0.00    -0.237 OA
ATOM    103  O   UNL A   1      50.218  28.535  26.053  1.00  0.00    -0.237 OA
ATOM    104  O   UNL A   1      50.082  26.191  25.355  1.00  0.00    -0.744 OA
ENDBRANCH  98 101
ENDBRANCH  71  94
ENDBRANCH  45  46
ENDBRANCH  38  40
ENDBRANCH  37  38
ENDBRANCH   1  37
TORSDOF 18
ENDMDL
MODEL 3
REMARK VINA RESULT:     -12.2      5.327      9.442
REMARK SMILES COc1cc([C@@H]2CC(=O)Nc3c(C(=O)OCCOC(=O)c4ccc(-c5c6nc(c(-c7cccc(S(=O)(=O)[O-])c7F)c7ccc([nH]7)c(-c7cccc(S(=O)(=O)[O-])c7F)c7nc(c(-c8cccc(S(=O)(=O)[O-])c8F)c8ccc5[nH]8)C=C7)C=C6)cc4)cn(-c4ccc(F)cc4)c32)c(OC)c2c1OCO2
REMARK SMILES IDX 17 1 16 2 15 3 13 4 14 5 12 6 6 7 7 8 93 9 8 10 11 11 85 12
REMARK SMILES IDX 9 13 10 14 84 15 5 17 3 18 4 19 98 20 97 21 99 22 94 23
REMARK SMILES IDX 101 24 100 25 2 26 1 27 95 28 96 29 86 30 87 31 92 32 88 33
REMARK SMILES IDX 91 34 89 35 90 36 18 37 19 38 20 39 21 40 22 41 83 42 23 43
REMARK SMILES IDX 82 44 24 45 25 46 26 47 76 48 27 49 81 50 75 51 77 52 28 53
REMARK SMILES IDX 80 54 74 55 73 56 29 58 61 59 41 60 60 61 42 62 45 63 59 64
REMARK SMILES IDX 78 65 43 66 44 67 58 69 79 70 46 71 30 72 31 73 39 74 32 75
REMARK SMILES IDX 34 76 40 77 33 78 35 79 36 80 37 81 38 82 62 83 63 84 71 85
REMARK SMILES IDX 64 86 66 87 72 88 65 89 67 90 68 91 69 92 70 93 47 94 48 95
REMARK SMILES IDX 56 96 49 97 51 98 57 99 50 100 52 101 53 102 54 103 55 104
REMARK H PARENT 10 16 77 57 45 68
REMARK Flexibility Score: inf
ROOT
ATOM      1  C   UNL A   1      35.941  33.031  29.858  1.00  0.00     0.275 C 
ENDROOT
BRANCH   1   2
ATOM      2  C   UNL A   1      34.509  33.218  30.338  1.00  0.00     0.275 C 
BRANCH   2   3
ATOM      3  O   UNL A   1      34.320  32.625  31.632  1.00  0.00    -0.458 OA
BRANCH   3   4
ATOM      4  C   UNL A   1      34.416  33.481  32.694  1.00  0.00     0.341 C 
ATOM      5  O   UNL A   1      33.645  34.415  32.907  1.00  0.00    -0.246 OA
BRANCH   4   6
ATOM      6  C   UNL A   1      35.533  33.165  33.563  1.00  0.00     0.102 A 
ATOM      7  C   UNL A   1      38.732  31.508  34.303  1.00  0.00     0.082 C 
ATOM      8  C   UNL A   1      38.424  30.088  33.796  1.00  0.00     0.115 C 
ATOM      9  C   UNL A   1      37.470  32.312  34.333  1.00  0.00     0.055 A 
ATOM     10  C   UNL A   1      37.367  30.003  32.701  1.00  0.00     0.225 C 
ATOM     11  C   UNL A   1      36.390  32.047  33.526  1.00  0.00     0.078 A 
ATOM     12  N   UNL A   1      37.175  33.433  35.081  1.00  0.00    -0.317 N 
ATOM     13  O   UNL A   1      37.362  29.082  31.882  1.00  0.00    -0.275 OA
ATOM     14  N   UNL A   1      36.357  30.932  32.720  1.00  0.00    -0.324 N 
ATOM     15  C   UNL A   1      35.985  33.950  34.617  1.00  0.00     0.109 A 
ATOM     16  H   UNL A   1      35.578  30.795  32.134  1.00  0.00     0.170 HD
BRANCH   7  17
ATOM     17  C   UNL A   1      39.844  32.201  33.494  1.00  0.00     0.012 A 
ATOM     18  C   UNL A   1      40.379  33.430  31.433  1.00  0.00     0.165 A 
ATOM     19  C   UNL A   1      39.447  32.956  32.360  1.00  0.00     0.059 A 
ATOM     20  C   UNL A   1      41.717  33.203  31.694  1.00  0.00     0.211 A 
ATOM     21  C   UNL A   1      42.129  32.532  32.829  1.00  0.00     0.211 A 
ATOM     22  O   UNL A   1      42.773  33.600  30.927  1.00  0.00    -0.449 OA
ATOM     23  C   UNL A   1      41.227  32.027  33.753  1.00  0.00     0.168 A 
ATOM     24  O   UNL A   1      43.489  32.430  32.887  1.00  0.00    -0.449 OA
ATOM     25  C   UNL A   1      43.885  33.146  31.712  1.00  0.00     0.468 C 
BRANCH  18  26
ATOM     26  O   UNL A   1      39.863  34.090  30.356  1.00  0.00    -0.493 OA
ATOM     27  C   UNL A   1      38.685  34.841  30.629  1.00  0.00     0.278 C 
ENDBRANCH  18  26
BRANCH  23  28
ATOM     28  O   UNL A   1      41.556  31.377  34.900  1.00  0.00    -0.492 OA
ATOM     29  C   UNL A   1      41.369  31.996  36.160  1.00  0.00     0.278 C 
ENDBRANCH  23  28
ENDBRANCH   7  17
BRANCH  12  30
ATOM     30  C   UNL A   1      37.984  34.061  36.049  1.00  0.00     0.046 A 
ATOM     31  C   UNL A   1      37.837  33.708  37.392  1.00  0.00     0.029 A 
ATOM     32  C   UNL A   1      38.932  35.011  35.656  1.00  0.00     0.029 A 
ATOM     33  C   UNL A   1      38.578  34.374  38.366  1.00  0.00     0.041 A 
ATOM     34  C   UNL A   1      39.677  35.670  36.639  1.00  0.00     0.041 A 
ATOM     35  C   UNL A   1      39.481  35.357  37.982  1.00  0.00     0.123 A 
ATOM     36  F   UNL A   1      40.178  36.006  38.925  1.00  0.00    -0.207 F 
ENDBRANCH  12  30
ENDBRANCH   4   6
ENDBRANCH   3   4
ENDBRANCH   2   3
ENDBRANCH   1   2
BRANCH   1  37
ATOM     37  O   UNL A   1      36.327  31.659  29.899  1.00  0.00    -0.458 OA
BRANCH  37  38
ATOM     38  C   UNL A   1      36.488  31.075  28.691  1.00  0.00     0.338 C 
ATOM     39  O   UNL A   1      35.652  30.957  27.810  1.00  0.00    -0.246 OA
BRANCH  38  40
ATOM     40  C   UNL A   1      37.776  30.384  28.664  1.00  0.00     0.060 A 
ATOM     41  C   UNL A   1      37.780  29.023  28.349  1.00  0.00     0.016 A 
ATOM     42  C   UNL A   1      38.889  31.023  29.228  1.00  0.00     0.016 A 
ATOM     43  C   UNL A   1      38.859  28.266  28.750  1.00  0.00     0.010 A 
ATOM     44  C   UNL A   1      39.955  30.265  29.640  1.00  0.00     0.010 A 
ATOM     45  C   UNL A   1      39.899  28.887  29.459  1.00  0.00    -0.014 A 
BRANCH  45  46
ATOM     46  C   UNL A   1      41.046  28.087  29.838  1.00  0.00     0.031 A 
ATOM     47  C   UNL A   1      41.250  28.110  31.306  1.00  0.00     0.074 A 
ATOM     48  C   UNL A   1      41.726  27.322  28.961  1.00  0.00     0.049 A 
ATOM     49  N   UNL A   1      42.225  28.657  31.954  1.00  0.00    -0.248 NA
ATOM     50  C   UNL A   1      40.129  27.679  32.163  1.00  0.00     0.031 C 
ATOM     51  C   UNL A   1      41.382  27.052  27.559  1.00  0.00     0.029 A 
ATOM     52  N   UNL A   1      42.797  26.506  29.169  1.00  0.00    -0.354 N 
ATOM     53  C   UNL A   1      41.968  28.365  33.290  1.00  0.00     0.074 A 
ATOM     54  C   UNL A   1      40.582  27.998  33.376  1.00  0.00     0.031 C 
ATOM     55  C   UNL A   1      42.059  25.959  27.135  1.00  0.00     0.029 A 
ATOM     56  C   UNL A   1      42.977  25.540  28.179  1.00  0.00     0.049 A 
ATOM     57  H   UNL A   1      43.391  26.591  29.950  1.00  0.00     0.167 HD
ATOM     58  C   UNL A   1      42.995  28.102  34.140  1.00  0.00     0.034 A 
ATOM     59  C   UNL A   1      43.767  24.437  28.256  1.00  0.00     0.034 A 
ATOM     60  C   UNL A   1      44.242  28.608  33.628  1.00  0.00     0.049 A 
ATOM     61  C   UNL A   1      44.741  24.678  29.341  1.00  0.00     0.074 A 
ATOM     62  C   UNL A   1      44.725  29.846  33.261  1.00  0.00     0.029 A 
ATOM     63  N   UNL A   1      45.055  27.679  33.031  1.00  0.00    -0.354 N 
ATOM     64  N   UNL A   1      45.675  25.583  29.284  1.00  0.00    -0.248 NA
ATOM     65  C   UNL A   1      44.418  24.188  30.669  1.00  0.00     0.031 C 
ATOM     66  C   UNL A   1      45.559  29.600  32.129  1.00  0.00     0.029 A 
ATOM     67  C   UNL A   1      45.606  28.222  31.905  1.00  0.00     0.049 A 
ATOM     68  H   UNL A   1      45.215  26.765  33.362  1.00  0.00     0.167 HD
ATOM     69  C   UNL A   1      45.703  26.117  30.564  1.00  0.00     0.074 A 
ATOM     70  C   UNL A   1      45.019  25.131  31.398  1.00  0.00     0.031 C 
ATOM     71  C   UNL A   1      46.008  27.435  30.757  1.00  0.00     0.034 A 
BRANCH  58  72
ATOM     72  C   UNL A   1      42.943  26.998  35.175  1.00  0.00     0.023 A 
ATOM     73  C   UNL A   1      41.822  26.140  35.158  1.00  0.00     0.012 A 
ATOM     74  C   UNL A   1      43.780  26.929  36.316  1.00  0.00     0.148 A 
ATOM     75  C   UNL A   1      41.545  25.278  36.225  1.00  0.00     0.002 A 
ATOM     76  C   UNL A   1      43.557  26.003  37.326  1.00  0.00     0.091 A 
ATOM     77  F   UNL A   1      44.719  27.856  36.517  1.00  0.00    -0.205 F 
ATOM     78  C   UNL A   1      42.421  25.196  37.302  1.00  0.00     0.022 A 
BRANCH  76  79
ATOM     79  S   UNL A   1      44.697  25.821  38.704  1.00  0.00     0.127 S 
ATOM     80  O   UNL A   1      45.882  26.504  38.195  1.00  0.00    -0.237 OA
ATOM     81  O   UNL A   1      43.984  26.522  39.771  1.00  0.00    -0.237 OA
ATOM     82  O   UNL A   1      44.825  24.385  38.918  1.00  0.00    -0.744 OA
ENDBRANCH  76  79
ENDBRANCH  58  72
BRANCH  59  83
ATOM     83  C   UNL A   1      43.598  23.076  27.685  1.00  0.00     0.023 A 
ATOM     84  C   UNL A   1      42.441  22.330  28.001  1.00  0.00     0.012 A 
ATOM     85  C   UNL A   1      44.386  22.649  26.596  1.00  0.00     0.148 A 
ATOM     86  C   UNL A   1      42.059  21.224  27.230  1.00  0.00     0.002 A 
ATOM     87  C   UNL A   1      44.003  21.547  25.834  1.00  0.00     0.091 A 
ATOM     88  F   UNL A   1      45.455  23.377  26.249  1.00  0.00    -0.205 F 
ATOM     89  C   UNL A   1      42.832  20.841  26.138  1.00  0.00     0.022 A 
BRANCH  87  90
ATOM     90  S   UNL A   1      44.928  21.011  24.388  1.00  0.00     0.127 S 
ATOM     91  O   UNL A   1      44.646  22.085  23.435  1.00  0.00    -0.237 OA
ATOM     92  O   UNL A   1      46.298  20.988  24.896  1.00  0.00    -0.237 OA
ATOM     93  O   UNL A   1      44.371  19.716  24.016  1.00  0.00    -0.744 OA
ENDBRANCH  87  90
ENDBRANCH  59  83
BRANCH  71  94
ATOM     94  C   UNL A   1      46.646  28.178  29.607  1.00  0.00     0.023 A 
ATOM     95  C   UNL A   1      48.009  28.060  29.261  1.00  0.00     0.012 A 
ATOM     96  C   UNL A   1      45.804  28.945  28.784  1.00  0.00     0.148 A 
ATOM     97  C   UNL A   1      48.524  28.723  28.141  1.00  0.00     0.002 A 
ATOM     98  C   UNL A   1      46.309  29.564  27.648  1.00  0.00     0.091 A 
ATOM     99  F   UNL A   1      44.511  29.050  29.125  1.00  0.00    -0.205 F 
ATOM    100  C   UNL A   1      47.671  29.467  27.328  1.00  0.00     0.022 A 
BRANCH  98 101
ATOM    101  S   UNL A   1      45.233  30.441  26.513  1.00  0.00     0.127 S 
ATOM    102  O   UNL A   1      46.161  30.834  25.455  1.00  0.00    -0.237 OA
ATOM    103  O   UNL A   1      44.269  29.408  26.129  1.00  0.00    -0.237 OA
ATOM    104  O   UNL A   1      44.652  31.537  27.279  1.00  0.00    -0.744 OA
ENDBRANCH  98 101
ENDBRANCH  71  94
ENDBRANCH  45  46
ENDBRANCH  38  40
ENDBRANCH  37  38
ENDBRANCH   1  37
TORSDOF 18
ENDMDL
