MODEL 1
REMARK VINA RESULT:     -12.1      0.000      0.000
REMARK SMILES O=C(OCCOC(=O)c1ccccc1/C=C1/SC(=S)N(C2CCCC2)C1=O)c1ccc(-c2c3nc(c(-c4cccc(S(=O)(=O)[O-])c4F)c4ccc([nH]4)c(-c4cccc(S(=O)(=O)[O-])c4F)c4nc(c(-c5cccc(S(=O)(=O)[O-])c5F)c5ccc2[nH]5)C=C4)C=C3)cc1
REMARK SMILES IDX 4 1 3 2 2 3 1 4 28 5 29 6 90 7 30 8 89 9 31 10 32 11 33 12
REMARK SMILES IDX 83 13 34 14 88 15 82 16 84 17 35 18 87 19 81 20 80 21 36 23
REMARK SMILES IDX 68 24 48 25 67 26 49 27 52 28 66 29 85 30 50 31 51 32 65 34
REMARK SMILES IDX 86 35 53 36 37 37 38 38 46 39 39 40 41 41 47 42 40 43 42 44
REMARK SMILES IDX 43 45 44 46 45 47 69 48 70 49 78 50 71 51 73 52 79 53 72 54
REMARK SMILES IDX 74 55 75 56 76 57 77 58 54 59 55 60 63 61 56 62 58 63 64 64
REMARK SMILES IDX 57 65 59 66 60 67 61 68 62 69 5 70 6 71 7 72 8 73 9 74 10 75
REMARK SMILES IDX 14 76 11 77 13 78 12 79 15 80 16 81 17 82 26 83 18 84 20 85
REMARK SMILES IDX 27 86 19 87 21 88 22 89 25 90 23 91 24 92
REMARK H PARENT 84 22 52 33
REMARK Flexibility Score: inf
ROOT
ATOM      1  C   UNL A   1      32.265  30.967  26.421  1.00  0.00     0.275 C 
ENDROOT
BRANCH   1   2
ATOM      2  O   UNL A   1      32.367  32.102  27.300  1.00  0.00    -0.458 OA
BRANCH   2   3
ATOM      3  C   UNL A   1      33.448  32.799  27.722  1.00  0.00     0.338 C 
ATOM      4  O   UNL A   1      33.412  34.028  27.646  1.00  0.00    -0.246 OA
BRANCH   3   5
ATOM      5  C   UNL A   1      34.724  32.175  28.199  1.00  0.00     0.060 A 
ATOM      6  C   UNL A   1      34.860  30.888  28.722  1.00  0.00     0.016 A 
ATOM      7  C   UNL A   1      35.879  32.984  28.144  1.00  0.00     0.016 A 
ATOM      8  C   UNL A   1      36.102  30.406  29.139  1.00  0.00     0.010 A 
ATOM      9  C   UNL A   1      37.125  32.512  28.572  1.00  0.00     0.010 A 
ATOM     10  C   UNL A   1      37.235  31.223  29.092  1.00  0.00    -0.014 A 
BRANCH  10  11
ATOM     11  C   UNL A   1      38.465  30.741  29.760  1.00  0.00     0.031 A 
ATOM     12  C   UNL A   1      38.694  31.140  31.177  1.00  0.00     0.074 A 
ATOM     13  C   UNL A   1      39.289  29.874  29.149  1.00  0.00     0.049 A 
ATOM     14  N   UNL A   1      39.575  30.681  32.019  1.00  0.00    -0.248 NA
ATOM     15  C   UNL A   1      37.811  32.186  31.720  1.00  0.00     0.031 C 
ATOM     16  C   UNL A   1      39.136  29.463  27.767  1.00  0.00     0.029 A 
ATOM     17  N   UNL A   1      40.383  29.172  29.576  1.00  0.00    -0.354 N 
ATOM     18  C   UNL A   1      39.372  31.395  33.188  1.00  0.00     0.074 A 
ATOM     19  C   UNL A   1      38.283  32.317  32.949  1.00  0.00     0.031 C 
ATOM     20  C   UNL A   1      40.056  28.541  27.453  1.00  0.00     0.029 A 
ATOM     21  C   UNL A   1      40.899  28.321  28.620  1.00  0.00     0.049 A 
ATOM     22  H   UNL A   1      40.765  29.264  30.478  1.00  0.00     0.167 HD
ATOM     23  C   UNL A   1      40.041  31.285  34.356  1.00  0.00     0.034 A 
ATOM     24  C   UNL A   1      41.931  27.458  28.689  1.00  0.00     0.034 A 
ATOM     25  C   UNL A   1      41.140  30.383  34.555  1.00  0.00     0.049 A 
ATOM     26  C   UNL A   1      42.654  27.356  30.004  1.00  0.00     0.074 A 
ATOM     27  C   UNL A   1      41.907  30.195  35.688  1.00  0.00     0.029 A 
ATOM     28  N   UNL A   1      41.643  29.532  33.579  1.00  0.00    -0.354 N 
ATOM     29  N   UNL A   1      42.382  27.961  31.136  1.00  0.00    -0.248 NA
ATOM     30  C   UNL A   1      43.806  26.449  30.064  1.00  0.00     0.031 C 
ATOM     31  C   UNL A   1      42.893  29.247  35.387  1.00  0.00     0.029 A 
ATOM     32  C   UNL A   1      42.720  28.822  34.078  1.00  0.00     0.049 A 
ATOM     33  H   UNL A   1      41.285  29.446  32.665  1.00  0.00     0.167 HD
ATOM     34  C   UNL A   1      43.314  27.495  32.051  1.00  0.00     0.074 A 
ATOM     35  C   UNL A   1      44.140  26.533  31.344  1.00  0.00     0.031 C 
ATOM     36  C   UNL A   1      43.489  27.843  33.349  1.00  0.00     0.034 A 
BRANCH  23  37
ATOM     37  C   UNL A   1      39.604  32.196  35.465  1.00  0.00     0.023 A 
ATOM     38  C   UNL A   1      38.659  31.747  36.411  1.00  0.00     0.012 A 
ATOM     39  C   UNL A   1      40.084  33.516  35.535  1.00  0.00     0.148 A 
ATOM     40  C   UNL A   1      38.167  32.614  37.386  1.00  0.00     0.002 A 
ATOM     41  C   UNL A   1      39.618  34.363  36.533  1.00  0.00     0.091 A 
ATOM     42  F   UNL A   1      40.951  33.932  34.601  1.00  0.00    -0.205 F 
ATOM     43  C   UNL A   1      38.651  33.918  37.450  1.00  0.00     0.022 A 
BRANCH  41  44
ATOM     44  S   UNL A   1      40.215  36.044  36.726  1.00  0.00     0.127 S 
ATOM     45  O   UNL A   1      39.501  36.474  37.927  1.00  0.00    -0.237 OA
ATOM     46  O   UNL A   1      41.652  35.839  36.910  1.00  0.00    -0.237 OA
ATOM     47  O   UNL A   1      39.853  36.740  35.499  1.00  0.00    -0.744 OA
ENDBRANCH  41  44
ENDBRANCH  23  37
BRANCH  24  48
ATOM     48  C   UNL A   1      42.296  26.598  27.525  1.00  0.00     0.023 A 
ATOM     49  C   UNL A   1      43.067  27.135  26.475  1.00  0.00     0.012 A 
ATOM     50  C   UNL A   1      41.906  25.245  27.456  1.00  0.00     0.148 A 
ATOM     51  C   UNL A   1      43.416  26.354  25.369  1.00  0.00     0.002 A 
ATOM     52  C   UNL A   1      42.304  24.457  26.381  1.00  0.00     0.091 A 
ATOM     53  F   UNL A   1      41.156  24.749  28.451  1.00  0.00    -0.205 F 
ATOM     54  C   UNL A   1      43.045  25.013  25.328  1.00  0.00     0.022 A 
BRANCH  52  55
ATOM     55  S   UNL A   1      41.985  22.689  26.324  1.00  0.00     0.127 S 
ATOM     56  O   UNL A   1      42.581  22.319  25.042  1.00  0.00    -0.237 OA
ATOM     57  O   UNL A   1      42.708  22.209  27.502  1.00  0.00    -0.237 OA
ATOM     58  O   UNL A   1      40.537  22.558  26.418  1.00  0.00    -0.744 OA
ENDBRANCH  52  55
ENDBRANCH  24  48
BRANCH  36  59
ATOM     59  C   UNL A   1      44.602  27.160  34.091  1.00  0.00     0.023 A 
ATOM     60  C   UNL A   1      45.885  27.741  34.121  1.00  0.00     0.012 A 
ATOM     61  C   UNL A   1      44.351  25.984  34.822  1.00  0.00     0.148 A 
ATOM     62  C   UNL A   1      46.912  27.143  34.847  1.00  0.00     0.002 A 
ATOM     63  C   UNL A   1      45.365  25.422  35.584  1.00  0.00     0.091 A 
ATOM     64  F   UNL A   1      43.129  25.436  34.754  1.00  0.00    -0.205 F 
ATOM     65  C   UNL A   1      46.648  25.993  35.590  1.00  0.00     0.022 A 
BRANCH  63  66
ATOM     66  S   UNL A   1      45.079  24.006  36.649  1.00  0.00     0.127 S 
ATOM     67  O   UNL A   1      44.310  24.603  37.739  1.00  0.00    -0.237 OA
ATOM     68  O   UNL A   1      44.313  23.111  35.779  1.00  0.00    -0.237 OA
ATOM     69  O   UNL A   1      46.399  23.507  37.008  1.00  0.00    -0.744 OA
ENDBRANCH  63  66
ENDBRANCH  36  59
ENDBRANCH  10  11
ENDBRANCH   3   5
ENDBRANCH   2   3
ENDBRANCH   1   2
BRANCH   1  70
ATOM     70  C   UNL A   1      31.764  29.688  27.088  1.00  0.00     0.275 C 
BRANCH  70  71
ATOM     71  O   UNL A   1      31.566  28.604  26.170  1.00  0.00    -0.458 OA
BRANCH  71  72
ATOM     72  C   UNL A   1      32.649  27.808  25.973  1.00  0.00     0.338 C 
ATOM     73  O   UNL A   1      33.317  27.292  26.857  1.00  0.00    -0.246 OA
BRANCH  72  74
ATOM     74  C   UNL A   1      32.887  27.560  24.528  1.00  0.00     0.067 A 
ATOM     75  C   UNL A   1      33.691  28.517  23.883  1.00  0.00     0.016 A 
ATOM     76  C   UNL A   1      32.344  26.480  23.798  1.00  0.00    -0.010 A 
ATOM     77  C   UNL A   1      33.987  28.395  22.527  1.00  0.00     0.001 A 
ATOM     78  C   UNL A   1      32.612  26.411  22.420  1.00  0.00     0.009 A 
ATOM     79  C   UNL A   1      33.442  27.346  21.795  1.00  0.00     0.001 A 
BRANCH  76  80
ATOM     80  C   UNL A   1      31.558  25.376  24.382  1.00  0.00     0.030 C 
ATOM     81  C   UNL A   1      32.050  24.229  24.855  1.00  0.00     0.081 C 
ATOM     82  S   UNL A   1      31.115  22.833  25.197  1.00  0.00    -0.054 SA
ATOM     83  C   UNL A   1      33.479  23.891  24.903  1.00  0.00     0.266 C 
ATOM     84  C   UNL A   1      32.500  21.770  24.917  1.00  0.00     0.148 C 
ATOM     85  N   UNL A   1      33.634  22.530  24.706  1.00  0.00    -0.290 N 
ATOM     86  O   UNL A   1      34.373  24.707  25.082  1.00  0.00    -0.268 OA
ATOM     87  S   UNL A   1      32.312  20.111  24.912  1.00  0.00    -0.052 S 
BRANCH  85  88
ATOM     88  C   UNL A   1      34.992  22.094  24.404  1.00  0.00     0.092 C 
ATOM     89  C   UNL A   1      35.705  22.927  23.353  1.00  0.00     0.025 C 
ATOM     90  C   UNL A   1      35.972  21.970  25.571  1.00  0.00     0.025 C 
ATOM     91  C   UNL A   1      37.127  22.401  23.453  1.00  0.00     0.002 C 
ATOM     92  C   UNL A   1      37.354  22.171  24.946  1.00  0.00     0.002 C 
ENDBRANCH  85  88
ENDBRANCH  76  80
ENDBRANCH  72  74
ENDBRANCH  71  72
ENDBRANCH  70  71
ENDBRANCH   1  70
TORSDOF 16
ENDMDL
MODEL 2
REMARK VINA RESULT:     -12.0      1.796      2.350
REMARK SMILES O=C(OCCOC(=O)c1ccccc1/C=C1/SC(=S)N(C2CCCC2)C1=O)c1ccc(-c2c3nc(c(-c4cccc(S(=O)(=O)[O-])c4F)c4ccc([nH]4)c(-c4cccc(S(=O)(=O)[O-])c4F)c4nc(c(-c5cccc(S(=O)(=O)[O-])c5F)c5ccc2[nH]5)C=C4)C=C3)cc1
REMARK SMILES IDX 4 1 3 2 2 3 1 4 28 5 29 6 90 7 30 8 89 9 31 10 32 11 33 12
REMARK SMILES IDX 83 13 34 14 88 15 82 16 84 17 35 18 87 19 81 20 80 21 36 23
REMARK SMILES IDX 68 24 48 25 67 26 49 27 52 28 66 29 85 30 50 31 51 32 65 34
REMARK SMILES IDX 86 35 53 36 37 37 38 38 46 39 39 40 41 41 47 42 40 43 42 44
REMARK SMILES IDX 43 45 44 46 45 47 69 48 70 49 78 50 71 51 73 52 79 53 72 54
REMARK SMILES IDX 74 55 75 56 76 57 77 58 54 59 55 60 63 61 56 62 58 63 64 64
REMARK SMILES IDX 57 65 59 66 60 67 61 68 62 69 5 70 6 71 7 72 8 73 9 74 10 75
REMARK SMILES IDX 14 76 11 77 13 78 12 79 15 80 16 81 17 82 26 83 18 84 20 85
REMARK SMILES IDX 27 86 19 87 21 88 22 89 25 90 23 91 24 92
REMARK H PARENT 84 22 52 33
REMARK Flexibility Score: inf
ROOT
ATOM      1  C   UNL A   1      31.747  29.694  27.029  1.00  0.00     0.275 C 
ENDROOT
BRANCH   1   2
ATOM      2  O   UNL A   1      32.738  30.660  26.638  1.00  0.00    -0.458 OA
BRANCH   2   3
ATOM      3  C   UNL A   1      33.581  31.413  27.384  1.00  0.00     0.338 C 
ATOM      4  O   UNL A   1      33.256  32.575  27.632  1.00  0.00    -0.246 OA
BRANCH   3   5
ATOM      5  C   UNL A   1      34.926  30.957  27.860  1.00  0.00     0.060 A 
ATOM      6  C   UNL A   1      35.290  29.639  28.146  1.00  0.00     0.016 A 
ATOM      7  C   UNL A   1      35.893  31.963  28.071  1.00  0.00     0.016 A 
ATOM      8  C   UNL A   1      36.577  29.326  28.587  1.00  0.00     0.010 A 
ATOM      9  C   UNL A   1      37.181  31.658  28.524  1.00  0.00     0.010 A 
ATOM     10  C   UNL A   1      37.520  30.334  28.804  1.00  0.00    -0.014 A 
BRANCH  10  11
ATOM     11  C   UNL A   1      38.780  29.968  29.489  1.00  0.00     0.031 A 
ATOM     12  C   UNL A   1      39.000  30.479  30.872  1.00  0.00     0.074 A 
ATOM     13  C   UNL A   1      39.645  29.104  28.931  1.00  0.00     0.049 A 
ATOM     14  N   UNL A   1      39.911  30.129  31.733  1.00  0.00    -0.248 NA
ATOM     15  C   UNL A   1      38.067  31.512  31.349  1.00  0.00     0.031 C 
ATOM     16  C   UNL A   1      39.502  28.587  27.585  1.00  0.00     0.029 A 
ATOM     17  N   UNL A   1      40.778  28.493  29.394  1.00  0.00    -0.354 N 
ATOM     18  C   UNL A   1      39.680  30.913  32.851  1.00  0.00     0.074 A 
ATOM     19  C   UNL A   1      38.542  31.757  32.560  1.00  0.00     0.031 C 
ATOM     20  C   UNL A   1      40.468  27.695  27.325  1.00  0.00     0.029 A 
ATOM     21  C   UNL A   1      41.331  27.604  28.494  1.00  0.00     0.049 A 
ATOM     22  H   UNL A   1      41.163  28.670  30.282  1.00  0.00     0.167 HD
ATOM     23  C   UNL A   1      40.365  30.923  34.014  1.00  0.00     0.034 A 
ATOM     24  C   UNL A   1      42.409  26.805  28.612  1.00  0.00     0.034 A 
ATOM     25  C   UNL A   1      41.513  30.098  34.263  1.00  0.00     0.049 A 
ATOM     26  C   UNL A   1      43.148  26.836  29.921  1.00  0.00     0.074 A 
ATOM     27  C   UNL A   1      42.299  30.033  35.397  1.00  0.00     0.029 A 
ATOM     28  N   UNL A   1      42.052  29.206  33.344  1.00  0.00    -0.354 N 
ATOM     29  N   UNL A   1      42.853  27.506  31.011  1.00  0.00    -0.248 NA
ATOM     30  C   UNL A   1      44.348  25.999  30.031  1.00  0.00     0.031 C 
ATOM     31  C   UNL A   1      43.331  29.120  35.152  1.00  0.00     0.029 A 
ATOM     32  C   UNL A   1      43.170  28.593  33.879  1.00  0.00     0.049 A 
ATOM     33  H   UNL A   1      41.692  29.036  32.444  1.00  0.00     0.167 HD
ATOM     34  C   UNL A   1      43.818  27.157  31.945  1.00  0.00     0.074 A 
ATOM     35  C   UNL A   1      44.688  26.191  31.298  1.00  0.00     0.031 C 
ATOM     36  C   UNL A   1      43.985  27.606  33.212  1.00  0.00     0.034 A 
BRANCH  23  37
ATOM     37  C   UNL A   1      39.889  31.887  35.062  1.00  0.00     0.023 A 
ATOM     38  C   UNL A   1      40.377  33.210  35.071  1.00  0.00     0.012 A 
ATOM     39  C   UNL A   1      39.005  31.465  36.071  1.00  0.00     0.148 A 
ATOM     40  C   UNL A   1      40.024  34.086  36.097  1.00  0.00     0.002 A 
ATOM     41  C   UNL A   1      38.627  32.355  37.067  1.00  0.00     0.091 A 
ATOM     42  F   UNL A   1      38.587  30.191  36.062  1.00  0.00    -0.205 F 
ATOM     43  C   UNL A   1      39.145  33.661  37.090  1.00  0.00     0.022 A 
BRANCH  41  44
ATOM     44  S   UNL A   1      37.465  31.915  38.362  1.00  0.00     0.127 S 
ATOM     45  O   UNL A   1      38.265  32.136  39.565  1.00  0.00    -0.237 OA
ATOM     46  O   UNL A   1      36.392  32.888  38.153  1.00  0.00    -0.237 OA
ATOM     47  O   UNL A   1      37.088  30.531  38.108  1.00  0.00    -0.744 OA
ENDBRANCH  41  44
ENDBRANCH  23  37
BRANCH  24  48
ATOM     48  C   UNL A   1      42.809  25.884  27.507  1.00  0.00     0.023 A 
ATOM     49  C   UNL A   1      43.764  26.303  26.560  1.00  0.00     0.012 A 
ATOM     50  C   UNL A   1      42.270  24.586  27.397  1.00  0.00     0.148 A 
ATOM     51  C   UNL A   1      44.152  25.464  25.512  1.00  0.00     0.002 A 
ATOM     52  C   UNL A   1      42.701  23.734  26.384  1.00  0.00     0.091 A 
ATOM     53  F   UNL A   1      41.347  24.203  28.291  1.00  0.00    -0.205 F 
ATOM     54  C   UNL A   1      43.629  24.176  25.431  1.00  0.00     0.022 A 
BRANCH  52  55
ATOM     55  S   UNL A   1      42.180  22.017  26.296  1.00  0.00     0.127 S 
ATOM     56  O   UNL A   1      42.541  21.526  27.624  1.00  0.00    -0.237 OA
ATOM     57  O   UNL A   1      40.742  22.145  26.056  1.00  0.00    -0.237 OA
ATOM     58  O   UNL A   1      42.922  21.447  25.180  1.00  0.00    -0.744 OA
ENDBRANCH  52  55
ENDBRANCH  24  48
BRANCH  36  59
ATOM     59  C   UNL A   1      45.139  27.039  33.987  1.00  0.00     0.023 A 
ATOM     60  C   UNL A   1      46.392  27.680  33.949  1.00  0.00     0.012 A 
ATOM     61  C   UNL A   1      44.956  25.913  34.812  1.00  0.00     0.148 A 
ATOM     62  C   UNL A   1      47.457  27.192  34.703  1.00  0.00     0.002 A 
ATOM     63  C   UNL A   1      46.006  25.463  35.600  1.00  0.00     0.091 A 
ATOM     64  F   UNL A   1      43.761  25.304  34.809  1.00  0.00    -0.205 F 
ATOM     65  C   UNL A   1      47.260  26.093  35.538  1.00  0.00     0.022 A 
BRANCH  63  66
ATOM     66  S   UNL A   1      45.803  24.124  36.777  1.00  0.00     0.127 S 
ATOM     67  O   UNL A   1      47.134  24.051  37.377  1.00  0.00    -0.237 OA
ATOM     68  O   UNL A   1      44.760  24.642  37.663  1.00  0.00    -0.237 OA
ATOM     69  O   UNL A   1      45.402  22.964  35.992  1.00  0.00    -0.744 OA
ENDBRANCH  63  66
ENDBRANCH  36  59
ENDBRANCH  10  11
ENDBRANCH   3   5
ENDBRANCH   2   3
ENDBRANCH   1   2
BRANCH   1  70
ATOM     70  C   UNL A   1      32.261  28.260  27.134  1.00  0.00     0.275 C 
BRANCH  70  71
ATOM     71  O   UNL A   1      31.217  27.280  27.209  1.00  0.00    -0.458 OA
BRANCH  71  72
ATOM     72  C   UNL A   1      31.361  26.217  26.376  1.00  0.00     0.338 C 
ATOM     73  O   UNL A   1      31.514  25.057  26.731  1.00  0.00    -0.246 OA
BRANCH  72  74
ATOM     74  C   UNL A   1      31.221  26.617  24.952  1.00  0.00     0.067 A 
ATOM     75  C   UNL A   1      29.951  27.102  24.591  1.00  0.00     0.016 A 
ATOM     76  C   UNL A   1      32.243  26.510  23.983  1.00  0.00    -0.010 A 
ATOM     77  C   UNL A   1      29.694  27.510  23.285  1.00  0.00     0.001 A 
ATOM     78  C   UNL A   1      31.941  26.876  22.660  1.00  0.00     0.009 A 
ATOM     79  C   UNL A   1      30.687  27.391  22.318  1.00  0.00     0.001 A 
BRANCH  76  80
ATOM     80  C   UNL A   1      33.631  26.095  24.262  1.00  0.00     0.030 C 
ATOM     81  C   UNL A   1      34.101  24.848  24.208  1.00  0.00     0.081 C 
ATOM     82  S   UNL A   1      35.600  24.340  24.867  1.00  0.00    -0.054 SA
ATOM     83  C   UNL A   1      33.308  23.672  23.820  1.00  0.00     0.266 C 
ATOM     84  C   UNL A   1      35.006  22.688  25.088  1.00  0.00     0.148 C 
ATOM     85  N   UNL A   1      33.747  22.569  24.532  1.00  0.00    -0.290 N 
ATOM     86  O   UNL A   1      32.400  23.696  23.001  1.00  0.00    -0.268 OA
ATOM     87  S   UNL A   1      35.929  21.553  25.891  1.00  0.00    -0.052 S 
BRANCH  85  88
ATOM     88  C   UNL A   1      32.859  21.414  24.502  1.00  0.00     0.092 C 
ATOM     89  C   UNL A   1      33.026  20.520  23.285  1.00  0.00     0.025 C 
ATOM     90  C   UNL A   1      32.874  20.477  25.710  1.00  0.00     0.025 C 
ATOM     91  C   UNL A   1      32.180  19.317  23.667  1.00  0.00     0.002 C 
ATOM     92  C   UNL A   1      32.434  19.120  25.160  1.00  0.00     0.002 C 
ENDBRANCH  85  88
ENDBRANCH  76  80
ENDBRANCH  72  74
ENDBRANCH  71  72
ENDBRANCH  70  71
ENDBRANCH   1  70
TORSDOF 16
ENDMDL
MODEL 3
REMARK VINA RESULT:     -11.9      5.081     10.264
REMARK SMILES O=C(OCCOC(=O)c1ccccc1/C=C1/SC(=S)N(C2CCCC2)C1=O)c1ccc(-c2c3nc(c(-c4cccc(S(=O)(=O)[O-])c4F)c4ccc([nH]4)c(-c4cccc(S(=O)(=O)[O-])c4F)c4nc(c(-c5cccc(S(=O)(=O)[O-])c5F)c5ccc2[nH]5)C=C4)C=C3)cc1
REMARK SMILES IDX 4 1 3 2 2 3 1 4 28 5 29 6 90 7 30 8 89 9 31 10 32 11 33 12
REMARK SMILES IDX 83 13 34 14 88 15 82 16 84 17 35 18 87 19 81 20 80 21 36 23
REMARK SMILES IDX 68 24 48 25 67 26 49 27 52 28 66 29 85 30 50 31 51 32 65 34
REMARK SMILES IDX 86 35 53 36 37 37 38 38 46 39 39 40 41 41 47 42 40 43 42 44
REMARK SMILES IDX 43 45 44 46 45 47 69 48 70 49 78 50 71 51 73 52 79 53 72 54
REMARK SMILES IDX 74 55 75 56 76 57 77 58 54 59 55 60 63 61 56 62 58 63 64 64
REMARK SMILES IDX 57 65 59 66 60 67 61 68 62 69 5 70 6 71 7 72 8 73 9 74 10 75
REMARK SMILES IDX 14 76 11 77 13 78 12 79 15 80 16 81 17 82 26 83 18 84 20 85
REMARK SMILES IDX 27 86 19 87 21 88 22 89 25 90 23 91 24 92
REMARK H PARENT 84 22 52 33
REMARK Flexibility Score: inf
ROOT
ATOM      1  C   UNL A   1      36.897  21.634  24.111  1.00  0.00     0.275 C 
ENDROOT
BRANCH   1   2
ATOM      2  O   UNL A   1      37.447  21.346  25.408  1.00  0.00    -0.458 OA
BRANCH   2   3
ATOM      3  C   UNL A   1      38.707  21.484  25.885  1.00  0.00     0.338 C 
ATOM      4  O   UNL A   1      39.437  20.493  25.890  1.00  0.00    -0.246 OA
BRANCH   3   5
ATOM      5  C   UNL A   1      39.250  22.745  26.487  1.00  0.00     0.060 A 
ATOM      6  C   UNL A   1      38.716  24.025  26.328  1.00  0.00     0.016 A 
ATOM      7  C   UNL A   1      40.429  22.618  27.253  1.00  0.00     0.016 A 
ATOM      8  C   UNL A   1      39.307  25.133  26.936  1.00  0.00     0.010 A 
ATOM      9  C   UNL A   1      41.033  23.727  27.856  1.00  0.00     0.010 A 
ATOM     10  C   UNL A   1      40.482  24.996  27.679  1.00  0.00    -0.014 A 
BRANCH  10  11
ATOM     11  C   UNL A   1      41.184  26.229  28.100  1.00  0.00     0.031 A 
ATOM     12  C   UNL A   1      42.565  26.458  27.590  1.00  0.00     0.074 A 
ATOM     13  C   UNL A   1      40.554  27.171  28.822  1.00  0.00     0.049 A 
ATOM     14  N   UNL A   1      43.286  27.540  27.650  1.00  0.00    -0.248 NA
ATOM     15  C   UNL A   1      43.216  25.323  26.915  1.00  0.00     0.031 C 
ATOM     16  C   UNL A   1      39.222  27.004  29.368  1.00  0.00     0.029 A 
ATOM     17  N   UNL A   1      40.906  28.436  29.209  1.00  0.00    -0.354 N 
ATOM     18  C   UNL A   1      44.487  27.215  27.042  1.00  0.00     0.074 A 
ATOM     19  C   UNL A   1      44.399  25.835  26.618  1.00  0.00     0.031 C 
ATOM     20  C   UNL A   1      38.825  28.129  29.978  1.00  0.00     0.029 A 
ATOM     21  C   UNL A   1      39.908  29.098  29.896  1.00  0.00     0.049 A 
ATOM     22  H   UNL A   1      41.785  28.834  29.018  1.00  0.00     0.167 HD
ATOM     23  C   UNL A   1      45.566  28.006  26.860  1.00  0.00     0.034 A 
ATOM     24  C   UNL A   1      39.879  30.351  30.391  1.00  0.00     0.034 A 
ATOM     25  C   UNL A   1      45.639  29.363  27.321  1.00  0.00     0.049 A 
ATOM     26  C   UNL A   1      41.094  31.207  30.168  1.00  0.00     0.074 A 
ATOM     27  C   UNL A   1      46.685  30.258  27.210  1.00  0.00     0.029 A 
ATOM     28  N   UNL A   1      44.621  30.014  28.008  1.00  0.00    -0.354 N 
ATOM     29  N   UNL A   1      42.184  30.921  29.496  1.00  0.00    -0.248 NA
ATOM     30  C   UNL A   1      41.076  32.555  30.749  1.00  0.00     0.031 C 
ATOM     31  C   UNL A   1      46.310  31.442  27.855  1.00  0.00     0.029 A 
ATOM     32  C   UNL A   1      45.018  31.296  28.340  1.00  0.00     0.049 A 
ATOM     33  H   UNL A   1      43.746  29.620  28.228  1.00  0.00     0.167 HD
ATOM     34  C   UNL A   1      42.976  32.058  29.553  1.00  0.00     0.074 A 
ATOM     35  C   UNL A   1      42.223  33.049  30.302  1.00  0.00     0.031 C 
ATOM     36  C   UNL A   1      44.219  32.263  29.053  1.00  0.00     0.034 A 
BRANCH  23  37
ATOM     37  C   UNL A   1      46.742  27.383  26.165  1.00  0.00     0.023 A 
ATOM     38  C   UNL A   1      47.608  26.531  26.879  1.00  0.00     0.012 A 
ATOM     39  C   UNL A   1      47.021  27.691  24.820  1.00  0.00     0.148 A 
ATOM     40  C   UNL A   1      48.760  26.027  26.276  1.00  0.00     0.002 A 
ATOM     41  C   UNL A   1      48.149  27.154  24.215  1.00  0.00     0.091 A 
ATOM     42  F   UNL A   1      46.204  28.535  24.175  1.00  0.00    -0.205 F 
ATOM     43  C   UNL A   1      49.027  26.333  24.944  1.00  0.00     0.022 A 
BRANCH  41  44
ATOM     44  S   UNL A   1      48.551  27.453  22.492  1.00  0.00     0.127 S 
ATOM     45  O   UNL A   1      48.653  26.090  21.972  1.00  0.00    -0.237 OA
ATOM     46  O   UNL A   1      47.380  28.197  22.029  1.00  0.00    -0.237 OA
ATOM     47  O   UNL A   1      49.792  28.215  22.497  1.00  0.00    -0.744 OA
ENDBRANCH  41  44
ENDBRANCH  23  37
BRANCH  24  48
ATOM     48  C   UNL A   1      38.661  30.879  31.077  1.00  0.00     0.023 A 
ATOM     49  C   UNL A   1      38.573  30.822  32.482  1.00  0.00     0.012 A 
ATOM     50  C   UNL A   1      37.599  31.458  30.353  1.00  0.00     0.148 A 
ATOM     51  C   UNL A   1      37.442  31.303  33.149  1.00  0.00     0.002 A 
ATOM     52  C   UNL A   1      36.502  31.985  31.026  1.00  0.00     0.091 A 
ATOM     53  F   UNL A   1      37.685  31.489  29.016  1.00  0.00    -0.205 F 
ATOM     54  C   UNL A   1      36.412  31.894  32.422  1.00  0.00     0.022 A 
BRANCH  52  55
ATOM     55  S   UNL A   1      35.202  32.886  30.172  1.00  0.00     0.127 S 
ATOM     56  O   UNL A   1      35.932  34.038  29.646  1.00  0.00    -0.237 OA
ATOM     57  O   UNL A   1      34.770  31.918  29.164  1.00  0.00    -0.237 OA
ATOM     58  O   UNL A   1      34.201  33.174  31.190  1.00  0.00    -0.744 OA
ENDBRANCH  52  55
ENDBRANCH  24  48
BRANCH  36  59
ATOM     59  C   UNL A   1      44.829  33.616  29.282  1.00  0.00     0.023 A 
ATOM     60  C   UNL A   1      45.609  33.849  30.431  1.00  0.00     0.012 A 
ATOM     61  C   UNL A   1      44.690  34.630  28.316  1.00  0.00     0.148 A 
ATOM     62  C   UNL A   1      46.221  35.084  30.629  1.00  0.00     0.002 A 
ATOM     63  C   UNL A   1      45.345  35.841  28.495  1.00  0.00     0.091 A 
ATOM     64  F   UNL A   1      43.919  34.393  27.244  1.00  0.00    -0.205 F 
ATOM     65  C   UNL A   1      46.100  36.074  29.655  1.00  0.00     0.022 A 
BRANCH  63  66
ATOM     66  S   UNL A   1      45.326  37.124  27.240  1.00  0.00     0.127 S 
ATOM     67  O   UNL A   1      43.895  37.262  26.977  1.00  0.00    -0.237 OA
ATOM     68  O   UNL A   1      45.931  38.257  27.943  1.00  0.00    -0.237 OA
ATOM     69  O   UNL A   1      46.123  36.609  26.135  1.00  0.00    -0.744 OA
ENDBRANCH  63  66
ENDBRANCH  36  59
ENDBRANCH  10  11
ENDBRANCH   3   5
ENDBRANCH   2   3
ENDBRANCH   1   2
BRANCH   1  70
ATOM     70  C   UNL A   1      36.426  23.074  23.923  1.00  0.00     0.275 C 
BRANCH  70  71
ATOM     71  O   UNL A   1      35.595  23.260  22.769  1.00  0.00    -0.458 OA
BRANCH  71  72
ATOM     72  C   UNL A   1      34.389  23.836  23.012  1.00  0.00     0.338 C 
ATOM     73  O   UNL A   1      34.026  24.922  22.582  1.00  0.00    -0.246 OA
BRANCH  72  74
ATOM     74  C   UNL A   1      33.507  22.942  23.804  1.00  0.00     0.067 A 
ATOM     75  C   UNL A   1      33.153  21.738  23.168  1.00  0.00     0.016 A 
ATOM     76  C   UNL A   1      33.004  23.241  25.089  1.00  0.00    -0.010 A 
ATOM     77  C   UNL A   1      32.331  20.814  23.809  1.00  0.00     0.001 A 
ATOM     78  C   UNL A   1      32.132  22.317  25.690  1.00  0.00     0.009 A 
ATOM     79  C   UNL A   1      31.815  21.107  25.066  1.00  0.00     0.001 A 
BRANCH  76  80
ATOM     80  C   UNL A   1      33.371  24.429  25.884  1.00  0.00     0.030 C 
ATOM     81  C   UNL A   1      32.755  25.612  25.852  1.00  0.00     0.081 C 
ATOM     82  S   UNL A   1      33.396  27.064  26.501  1.00  0.00    -0.054 SA
ATOM     83  C   UNL A   1      31.572  25.917  25.035  1.00  0.00     0.266 C 
ATOM     84  C   UNL A   1      32.473  28.047  25.358  1.00  0.00     0.148 C 
ATOM     85  N   UNL A   1      31.625  27.238  24.626  1.00  0.00    -0.290 N 
ATOM     86  O   UNL A   1      30.697  25.106  24.764  1.00  0.00    -0.268 OA
ATOM     87  S   UNL A   1      32.713  29.697  25.268  1.00  0.00    -0.052 S 
BRANCH  85  88
ATOM     88  C   UNL A   1      30.706  27.597  23.554  1.00  0.00     0.092 C 
ATOM     89  C   UNL A   1      29.347  28.088  24.025  1.00  0.00     0.025 C 
ATOM     90  C   UNL A   1      31.184  28.622  22.525  1.00  0.00     0.025 C 
ATOM     91  C   UNL A   1      28.742  28.610  22.733  1.00  0.00     0.002 C 
ATOM     92  C   UNL A   1      29.904  29.274  21.998  1.00  0.00     0.002 C 
ENDBRANCH  85  88
ENDBRANCH  76  80
ENDBRANCH  72  74
ENDBRANCH  71  72
ENDBRANCH  70  71
ENDBRANCH   1  70
TORSDOF 16
ENDMDL
