MODEL 1
REMARK VINA RESULT:     -12.6      0.000      0.000
REMARK SMILES Cc1ccc(C2=NN(C(=O)CCC(=O)OCCOC(=O)c3ccc(-c4c5nc(c(-c6cccc(S(=O)(=O)[O-])c6F)c6ccc([nH]6)c(-c6cccc(S(=O)(=O)[O-])c6F)c6nc(c(-c7cccc(S(=O)(=O)[O-])c7F)c7ccc4[nH]7)C=C6)C=C5)cc3)[C@H](C[C@@H]3C=c4cccc(C)c4=NC3=O)C2)cc1
REMARK SMILES IDX 16 1 15 2 13 3 14 4 12 5 11 6 9 7 10 8 8 9 6 10 7 11 98 12
REMARK SMILES IDX 84 13 5 14 1 15 2 16 3 17 100 18 4 19 99 20 85 21 86 22
REMARK SMILES IDX 87 23 96 24 88 25 95 26 97 27 89 28 94 29 90 30 92 31 91 32
REMARK SMILES IDX 93 33 17 34 18 35 19 36 20 37 21 38 22 39 83 40 23 41 82 42
REMARK SMILES IDX 24 43 25 44 26 45 76 46 27 47 81 48 75 49 77 50 28 51 80 52
REMARK SMILES IDX 74 53 73 54 29 56 61 57 41 58 60 59 42 60 45 61 59 62 78 63
REMARK SMILES IDX 43 64 44 65 58 67 79 68 46 69 30 70 31 71 39 72 32 73 34 74
REMARK SMILES IDX 40 75 33 76 35 77 36 78 37 79 38 80 62 81 63 82 71 83 64 84
REMARK SMILES IDX 66 85 72 86 65 87 67 88 68 89 69 90 70 91 47 92 48 93 56 94
REMARK SMILES IDX 49 95 51 96 57 97 50 98 52 99 53 100 54 101 55 102
REMARK H PARENT 77 55 45 66
REMARK Flexibility Score: inf
ROOT
ATOM      1  C   UNL A   1      33.818  29.979  27.031  1.00  0.00     0.274 C 
ENDROOT
BRANCH   1   2
ATOM      2  O   UNL A   1      33.604  28.556  27.105  1.00  0.00    -0.462 OA
BRANCH   2   3
ATOM      3  C   UNL A   1      32.413  27.940  27.037  1.00  0.00     0.306 C 
ATOM      4  O   UNL A   1      31.324  28.475  27.152  1.00  0.00    -0.252 OA
BRANCH   3   5
ATOM      5  C   UNL A   1      32.526  26.523  26.587  1.00  0.00     0.132 C 
BRANCH   5   6
ATOM      6  C   UNL A   1      33.758  26.449  25.707  1.00  0.00     0.114 C 
BRANCH   6   7
ATOM      7  C   UNL A   1      33.388  26.218  24.253  1.00  0.00     0.243 C 
ATOM      8  O   UNL A   1      34.292  25.845  23.493  1.00  0.00    -0.273 OA
BRANCH   7   9
ATOM      9  N   UNL A   1      32.093  26.432  23.783  1.00  0.00    -0.230 N 
ATOM     10  C   UNL A   1      30.626  27.950  23.303  1.00  0.00     0.070 C 
ATOM     11  N   UNL A   1      31.890  27.759  23.451  1.00  0.00    -0.174 NA
ATOM     12  C   UNL A   1      29.774  26.734  23.315  1.00  0.00     0.086 C 
ATOM     13  C   UNL A   1      30.779  25.713  23.871  1.00  0.00     0.118 C 
BRANCH  10  14
ATOM     14  C   UNL A   1      30.049  29.264  23.065  1.00  0.00    -0.002 A 
ATOM     15  C   UNL A   1      28.281  33.117  22.502  1.00  0.00     0.044 C 
ATOM     16  C   UNL A   1      28.905  31.765  22.681  1.00  0.00    -0.051 A 
ATOM     17  C   UNL A   1      29.446  31.418  23.928  1.00  0.00     0.004 A 
ATOM     18  C   UNL A   1      28.932  30.836  21.631  1.00  0.00     0.004 A 
ATOM     19  C   UNL A   1      30.017  30.165  24.124  1.00  0.00     0.010 A 
ATOM     20  C   UNL A   1      29.502  29.577  21.820  1.00  0.00     0.010 A 
ENDBRANCH  10  14
BRANCH  13  21
ATOM     21  C   UNL A   1      30.517  24.354  23.178  1.00  0.00     0.045 C 
BRANCH  21  22
ATOM     22  C   UNL A   1      31.224  23.125  23.758  1.00  0.00     0.106 C 
ATOM     23  C   UNL A   1      31.315  23.278  25.235  1.00  0.00    -0.003 C 
ATOM     24  C   UNL A   1      32.615  22.875  23.135  1.00  0.00     0.253 C 
ATOM     25  C   UNL A   1      32.309  22.798  25.968  1.00  0.00    -0.003 A 
ATOM     26  N   UNL A   1      33.631  22.368  23.926  1.00  0.00    -0.212 NA
ATOM     27  O   UNL A   1      32.811  23.117  21.944  1.00  0.00    -0.272 OA
ATOM     28  C   UNL A   1      32.221  22.722  27.400  1.00  0.00     0.010 A 
ATOM     29  C   UNL A   1      33.503  22.342  25.215  1.00  0.00     0.077 A 
ATOM     30  C   UNL A   1      33.253  22.249  28.102  1.00  0.00     0.001 A 
ATOM     31  C   UNL A   1      34.646  21.927  26.102  1.00  0.00    -0.025 A 
ATOM     32  C   UNL A   1      34.487  21.898  27.440  1.00  0.00     0.005 A 
ATOM     33  C   UNL A   1      35.958  21.679  25.434  1.00  0.00     0.047 C 
ENDBRANCH  21  22
ENDBRANCH  13  21
ENDBRANCH   7   9
ENDBRANCH   6   7
ENDBRANCH   5   6
ENDBRANCH   3   5
ENDBRANCH   2   3
ENDBRANCH   1   2
BRANCH   1  34
ATOM     34  C   UNL A   1      34.917  30.834  27.748  1.00  0.00     0.275 C 
BRANCH  34  35
ATOM     35  O   UNL A   1      34.717  32.051  28.524  1.00  0.00    -0.458 OA
BRANCH  35  36
ATOM     36  C   UNL A   1      35.117  32.402  29.797  1.00  0.00     0.338 C 
ATOM     37  O   UNL A   1      34.398  32.975  30.576  1.00  0.00    -0.246 OA
BRANCH  36  38
ATOM     38  C   UNL A   1      36.471  31.945  30.165  1.00  0.00     0.060 A 
ATOM     39  C   UNL A   1      36.684  31.052  31.233  1.00  0.00     0.016 A 
ATOM     40  C   UNL A   1      37.420  32.137  29.198  1.00  0.00     0.016 A 
ATOM     41  C   UNL A   1      37.752  30.142  31.181  1.00  0.00     0.010 A 
ATOM     42  C   UNL A   1      38.312  31.117  29.042  1.00  0.00     0.010 A 
ATOM     43  C   UNL A   1      38.520  30.108  30.023  1.00  0.00    -0.014 A 
BRANCH  43  44
ATOM     44  C   UNL A   1      39.721  29.302  29.755  1.00  0.00     0.031 A 
ATOM     45  C   UNL A   1      39.829  27.872  29.405  1.00  0.00     0.074 A 
ATOM     46  C   UNL A   1      40.799  30.109  29.625  1.00  0.00     0.049 A 
ATOM     47  N   UNL A   1      40.939  27.215  29.487  1.00  0.00    -0.248 NA
ATOM     48  C   UNL A   1      38.740  27.044  28.913  1.00  0.00     0.031 C 
ATOM     49  C   UNL A   1      42.053  29.941  28.931  1.00  0.00     0.029 A 
ATOM     50  N   UNL A   1      40.898  31.381  30.198  1.00  0.00    -0.354 N 
ATOM     51  C   UNL A   1      40.776  25.999  28.847  1.00  0.00     0.074 A 
ATOM     52  C   UNL A   1      39.361  25.899  28.592  1.00  0.00     0.031 C 
ATOM     53  C   UNL A   1      42.878  30.937  29.318  1.00  0.00     0.029 A 
ATOM     54  C   UNL A   1      42.229  31.653  30.416  1.00  0.00     0.049 A 
ATOM     55  H   UNL A   1      40.145  31.979  30.410  1.00  0.00     0.167 HD
ATOM     56  C   UNL A   1      41.875  25.294  28.451  1.00  0.00     0.034 A 
ATOM     57  C   UNL A   1      42.660  31.838  31.698  1.00  0.00     0.034 A 
ATOM     58  C   UNL A   1      43.090  26.064  28.744  1.00  0.00     0.049 A 
ATOM     59  C   UNL A   1      43.645  30.753  32.046  1.00  0.00     0.074 A 
ATOM     60  C   UNL A   1      43.828  26.941  27.967  1.00  0.00     0.029 A 
ATOM     61  N   UNL A   1      43.514  26.235  30.052  1.00  0.00    -0.354 N 
ATOM     62  N   UNL A   1      43.773  29.651  31.361  1.00  0.00    -0.248 NA
ATOM     63  C   UNL A   1      44.584  30.835  33.152  1.00  0.00     0.031 C 
ATOM     64  C   UNL A   1      44.645  27.710  28.835  1.00  0.00     0.029 A 
ATOM     65  C   UNL A   1      44.427  27.275  30.133  1.00  0.00     0.049 A 
ATOM     66  H   UNL A   1      43.211  25.693  30.817  1.00  0.00     0.167 HD
ATOM     67  C   UNL A   1      44.750  28.874  31.903  1.00  0.00     0.074 A 
ATOM     68  C   UNL A   1      45.258  29.679  33.002  1.00  0.00     0.031 C 
ATOM     69  C   UNL A   1      45.026  27.628  31.415  1.00  0.00     0.034 A 
BRANCH  56  70
ATOM     70  C   UNL A   1      41.903  24.085  27.521  1.00  0.00     0.023 A 
ATOM     71  C   UNL A   1      40.757  23.249  27.521  1.00  0.00     0.012 A 
ATOM     72  C   UNL A   1      42.948  23.693  26.653  1.00  0.00     0.148 A 
ATOM     73  C   UNL A   1      40.676  22.059  26.792  1.00  0.00     0.002 A 
ATOM     74  C   UNL A   1      42.884  22.479  25.947  1.00  0.00     0.091 A 
ATOM     75  F   UNL A   1      43.985  24.516  26.462  1.00  0.00    -0.205 F 
ATOM     76  C   UNL A   1      41.753  21.659  26.024  1.00  0.00     0.022 A 
BRANCH  74  77
ATOM     77  S   UNL A   1      44.241  21.838  24.946  1.00  0.00     0.127 S 
ATOM     78  O   UNL A   1      44.171  22.689  23.755  1.00  0.00    -0.237 OA
ATOM     79  O   UNL A   1      45.405  22.083  25.794  1.00  0.00    -0.237 OA
ATOM     80  O   UNL A   1      43.930  20.436  24.698  1.00  0.00    -0.744 OA
ENDBRANCH  74  77
ENDBRANCH  56  70
BRANCH  57  81
ATOM     81  C   UNL A   1      41.605  32.423  32.616  1.00  0.00     0.023 A 
ATOM     82  C   UNL A   1      41.007  33.645  32.198  1.00  0.00     0.012 A 
ATOM     83  C   UNL A   1      40.913  31.650  33.573  1.00  0.00     0.148 A 
ATOM     84  C   UNL A   1      39.724  34.018  32.619  1.00  0.00     0.002 A 
ATOM     85  C   UNL A   1      39.631  32.035  33.993  1.00  0.00     0.091 A 
ATOM     86  F   UNL A   1      41.469  30.509  34.000  1.00  0.00    -0.205 F 
ATOM     87  C   UNL A   1      39.027  33.200  33.496  1.00  0.00     0.022 A 
BRANCH  85  88
ATOM     88  S   UNL A   1      38.641  30.987  35.076  1.00  0.00     0.127 S 
ATOM     89  O   UNL A   1      37.368  31.702  35.093  1.00  0.00    -0.237 OA
ATOM     90  O   UNL A   1      38.615  29.708  34.364  1.00  0.00    -0.237 OA
ATOM     91  O   UNL A   1      39.387  30.949  36.326  1.00  0.00    -0.744 OA
ENDBRANCH  85  88
ENDBRANCH  57  81
BRANCH  69  92
ATOM     92  C   UNL A   1      45.884  26.603  32.112  1.00  0.00     0.023 A 
ATOM     93  C   UNL A   1      47.282  26.590  31.973  1.00  0.00     0.012 A 
ATOM     94  C   UNL A   1      45.323  25.743  33.090  1.00  0.00     0.148 A 
ATOM     95  C   UNL A   1      48.087  25.734  32.728  1.00  0.00     0.002 A 
ATOM     96  C   UNL A   1      46.139  24.992  33.927  1.00  0.00     0.091 A 
ATOM     97  F   UNL A   1      43.992  25.639  33.217  1.00  0.00    -0.205 F 
ATOM     98  C   UNL A   1      47.519  24.958  33.729  1.00  0.00     0.022 A 
BRANCH  96  99
ATOM     99  S   UNL A   1      45.449  24.214  35.392  1.00  0.00     0.127 S 
ATOM    100  O   UNL A   1      44.911  22.967  34.853  1.00  0.00    -0.237 OA
ATOM    101  O   UNL A   1      46.624  24.051  36.250  1.00  0.00    -0.237 OA
ATOM    102  O   UNL A   1      44.476  25.178  35.892  1.00  0.00    -0.744 OA
ENDBRANCH  96  99
ENDBRANCH  69  92
ENDBRANCH  43  44
ENDBRANCH  36  38
ENDBRANCH  35  36
ENDBRANCH  34  35
ENDBRANCH   1  34
TORSDOF 20
ENDMDL
MODEL 2
REMARK VINA RESULT:     -12.1      5.721      9.291
REMARK SMILES Cc1ccc(C2=NN(C(=O)CCC(=O)OCCOC(=O)c3ccc(-c4c5nc(c(-c6cccc(S(=O)(=O)[O-])c6F)c6ccc([nH]6)c(-c6cccc(S(=O)(=O)[O-])c6F)c6nc(c(-c7cccc(S(=O)(=O)[O-])c7F)c7ccc4[nH]7)C=C6)C=C5)cc3)[C@H](C[C@@H]3C=c4cccc(C)c4=NC3=O)C2)cc1
REMARK SMILES IDX 16 1 15 2 13 3 14 4 12 5 11 6 9 7 10 8 8 9 6 10 7 11 98 12
REMARK SMILES IDX 84 13 5 14 1 15 2 16 3 17 100 18 4 19 99 20 85 21 86 22
REMARK SMILES IDX 87 23 96 24 88 25 95 26 97 27 89 28 94 29 90 30 92 31 91 32
REMARK SMILES IDX 93 33 17 34 18 35 19 36 20 37 21 38 22 39 83 40 23 41 82 42
REMARK SMILES IDX 24 43 25 44 26 45 76 46 27 47 81 48 75 49 77 50 28 51 80 52
REMARK SMILES IDX 74 53 73 54 29 56 61 57 41 58 60 59 42 60 45 61 59 62 78 63
REMARK SMILES IDX 43 64 44 65 58 67 79 68 46 69 30 70 31 71 39 72 32 73 34 74
REMARK SMILES IDX 40 75 33 76 35 77 36 78 37 79 38 80 62 81 63 82 71 83 64 84
REMARK SMILES IDX 66 85 72 86 65 87 67 88 68 89 69 90 70 91 47 92 48 93 56 94
REMARK SMILES IDX 49 95 51 96 57 97 50 98 52 99 53 100 54 101 55 102
REMARK H PARENT 77 55 45 66
REMARK Flexibility Score: inf
ROOT
ATOM      1  C   UNL A   1      42.428  32.172  35.999  1.00  0.00     0.274 C 
ENDROOT
BRANCH   1   2
ATOM      2  O   UNL A   1      41.667  32.544  34.833  1.00  0.00    -0.462 OA
BRANCH   2   3
ATOM      3  C   UNL A   1      41.467  33.799  34.399  1.00  0.00     0.306 C 
ATOM      4  O   UNL A   1      41.568  34.812  35.068  1.00  0.00    -0.252 OA
BRANCH   3   5
ATOM      5  C   UNL A   1      41.306  33.873  32.918  1.00  0.00     0.132 C 
BRANCH   5   6
ATOM      6  C   UNL A   1      40.790  32.518  32.475  1.00  0.00     0.114 C 
BRANCH   6   7
ATOM      7  C   UNL A   1      39.536  32.650  31.631  1.00  0.00     0.243 C 
ATOM      8  O   UNL A   1      39.274  33.773  31.178  1.00  0.00    -0.273 OA
BRANCH   7   9
ATOM      9  N   UNL A   1      38.699  31.562  31.386  1.00  0.00    -0.230 N 
ATOM     10  C   UNL A   1      38.514  29.695  30.307  1.00  0.00     0.070 C 
ATOM     11  N   UNL A   1      39.378  30.533  30.759  1.00  0.00    -0.174 NA
ATOM     12  C   UNL A   1      37.107  29.913  30.727  1.00  0.00     0.086 C 
ATOM     13  C   UNL A   1      37.218  31.337  31.291  1.00  0.00     0.118 C 
BRANCH  10  14
ATOM     14  C   UNL A   1      38.880  28.548  29.488  1.00  0.00    -0.002 A 
ATOM     15  C   UNL A   1      40.055  25.137  27.193  1.00  0.00     0.044 C 
ATOM     16  C   UNL A   1      39.634  26.341  27.983  1.00  0.00    -0.051 A 
ATOM     17  C   UNL A   1      39.429  26.218  29.365  1.00  0.00     0.004 A 
ATOM     18  C   UNL A   1      39.470  27.589  27.365  1.00  0.00     0.004 A 
ATOM     19  C   UNL A   1      39.054  27.323  30.122  1.00  0.00     0.010 A 
ATOM     20  C   UNL A   1      39.095  28.702  28.118  1.00  0.00     0.010 A 
ENDBRANCH  10  14
BRANCH  13  21
ATOM     21  C   UNL A   1      36.272  31.446  32.512  1.00  0.00     0.045 C 
BRANCH  21  22
ATOM     22  C   UNL A   1      34.969  32.228  32.320  1.00  0.00     0.106 C 
ATOM     23  C   UNL A   1      34.881  32.671  30.903  1.00  0.00    -0.003 C 
ATOM     24  C   UNL A   1      34.830  33.422  33.289  1.00  0.00     0.253 C 
ATOM     25  C   UNL A   1      34.293  33.793  30.514  1.00  0.00    -0.003 A 
ATOM     26  N   UNL A   1      34.206  34.579  32.854  1.00  0.00    -0.212 NA
ATOM     27  O   UNL A   1      35.262  33.340  34.438  1.00  0.00    -0.272 OA
ATOM     28  C   UNL A   1      33.986  34.044  29.133  1.00  0.00     0.010 A 
ATOM     29  C   UNL A   1      33.970  34.758  31.592  1.00  0.00     0.077 A 
ATOM     30  C   UNL A   1      33.410  35.196  28.782  1.00  0.00     0.001 A 
ATOM     31  C   UNL A   1      33.423  36.065  31.082  1.00  0.00    -0.025 A 
ATOM     32  C   UNL A   1      33.177  36.225  29.767  1.00  0.00     0.005 A 
ATOM     33  C   UNL A   1      33.293  37.172  32.075  1.00  0.00     0.047 C 
ENDBRANCH  21  22
ENDBRANCH  13  21
ENDBRANCH   7   9
ENDBRANCH   6   7
ENDBRANCH   5   6
ENDBRANCH   3   5
ENDBRANCH   2   3
ENDBRANCH   1   2
BRANCH   1  34
ATOM     34  C   UNL A   1      42.551  30.761  36.668  1.00  0.00     0.275 C 
BRANCH  34  35
ATOM     35  O   UNL A   1      41.649  29.629  36.501  1.00  0.00    -0.458 OA
BRANCH  35  36
ATOM     36  C   UNL A   1      41.743  28.488  35.732  1.00  0.00     0.338 C 
ATOM     37  O   UNL A   1      41.291  27.426  36.076  1.00  0.00    -0.246 OA
BRANCH  36  38
ATOM     38  C   UNL A   1      42.368  28.687  34.409  1.00  0.00     0.060 A 
ATOM     39  C   UNL A   1      43.734  28.421  34.192  1.00  0.00     0.016 A 
ATOM     40  C   UNL A   1      41.484  28.772  33.368  1.00  0.00     0.016 A 
ATOM     41  C   UNL A   1      44.166  27.969  32.934  1.00  0.00     0.010 A 
ATOM     42  C   UNL A   1      41.861  28.128  32.226  1.00  0.00     0.010 A 
ATOM     43  C   UNL A   1      43.200  27.726  31.965  1.00  0.00    -0.014 A 
BRANCH  43  44
ATOM     44  C   UNL A   1      43.403  27.321  30.565  1.00  0.00     0.031 A 
ATOM     45  C   UNL A   1      43.638  25.975  30.006  1.00  0.00     0.074 A 
ATOM     46  C   UNL A   1      43.105  28.349  29.738  1.00  0.00     0.049 A 
ATOM     47  N   UNL A   1      44.094  25.786  28.811  1.00  0.00    -0.248 NA
ATOM     48  C   UNL A   1      43.373  24.722  30.694  1.00  0.00     0.031 C 
ATOM     49  C   UNL A   1      42.680  28.389  28.360  1.00  0.00     0.029 A 
ATOM     50  N   UNL A   1      43.159  29.696  30.114  1.00  0.00    -0.354 N 
ATOM     51  C   UNL A   1      43.950  24.446  28.495  1.00  0.00     0.074 A 
ATOM     52  C   UNL A   1      43.587  23.808  29.735  1.00  0.00     0.031 C 
ATOM     53  C   UNL A   1      42.754  29.670  27.939  1.00  0.00     0.029 A 
ATOM     54  C   UNL A   1      43.413  30.447  28.989  1.00  0.00     0.049 A 
ATOM     55  H   UNL A   1      43.037  30.046  31.026  1.00  0.00     0.167 HD
ATOM     56  C   UNL A   1      43.985  24.055  27.188  1.00  0.00     0.034 A 
ATOM     57  C   UNL A   1      44.569  31.169  28.930  1.00  0.00     0.034 A 
ATOM     58  C   UNL A   1      44.104  25.234  26.321  1.00  0.00     0.049 A 
ATOM     59  C   UNL A   1      45.417  30.646  27.801  1.00  0.00     0.074 A 
ATOM     60  C   UNL A   1      43.146  26.002  25.683  1.00  0.00     0.029 A 
ATOM     61  N   UNL A   1      45.290  25.950  26.270  1.00  0.00    -0.354 N 
ATOM     62  N   UNL A   1      45.223  29.489  27.232  1.00  0.00    -0.248 NA
ATOM     63  C   UNL A   1      46.512  31.387  27.198  1.00  0.00     0.031 C 
ATOM     64  C   UNL A   1      43.747  27.235  25.321  1.00  0.00     0.029 A 
ATOM     65  C   UNL A   1      45.076  27.200  25.709  1.00  0.00     0.049 A 
ATOM     66  H   UNL A   1      46.161  25.617  26.587  1.00  0.00     0.167 HD
ATOM     67  C   UNL A   1      46.131  29.298  26.236  1.00  0.00     0.074 A 
ATOM     68  C   UNL A   1      46.893  30.537  26.226  1.00  0.00     0.031 C 
ATOM     69  C   UNL A   1      46.189  28.126  25.536  1.00  0.00     0.034 A 
BRANCH  56  70
ATOM     70  C   UNL A   1      43.595  22.691  26.628  1.00  0.00     0.023 A 
ATOM     71  C   UNL A   1      42.306  22.203  26.967  1.00  0.00     0.012 A 
ATOM     72  C   UNL A   1      44.374  21.844  25.807  1.00  0.00     0.148 A 
ATOM     73  C   UNL A   1      41.847  20.933  26.605  1.00  0.00     0.002 A 
ATOM     74  C   UNL A   1      43.930  20.554  25.471  1.00  0.00     0.091 A 
ATOM     75  F   UNL A   1      45.524  22.302  25.298  1.00  0.00    -0.205 F 
ATOM     76  C   UNL A   1      42.672  20.096  25.878  1.00  0.00     0.022 A 
BRANCH  74  77
ATOM     77  S   UNL A   1      44.933  19.363  24.561  1.00  0.00     0.127 S 
ATOM     78  O   UNL A   1      46.294  19.811  24.867  1.00  0.00    -0.237 OA
ATOM     79  O   UNL A   1      44.562  18.094  25.182  1.00  0.00    -0.237 OA
ATOM     80  O   UNL A   1      44.558  19.508  23.160  1.00  0.00    -0.744 OA
ENDBRANCH  74  77
ENDBRANCH  56  70
BRANCH  57  81
ATOM     81  C   UNL A   1      45.064  31.638  30.284  1.00  0.00     0.023 A 
ATOM     82  C   UNL A   1      46.089  30.858  30.889  1.00  0.00     0.012 A 
ATOM     83  C   UNL A   1      44.892  32.961  30.743  1.00  0.00     0.148 A 
ATOM     84  C   UNL A   1      46.982  31.408  31.817  1.00  0.00     0.002 A 
ATOM     85  C   UNL A   1      45.788  33.501  31.679  1.00  0.00     0.091 A 
ATOM     86  F   UNL A   1      43.917  33.705  30.207  1.00  0.00    -0.205 F 
ATOM     87  C   UNL A   1      46.846  32.737  32.193  1.00  0.00     0.022 A 
BRANCH  85  88
ATOM     88  S   UNL A   1      45.712  35.239  32.159  1.00  0.00     0.127 S 
ATOM     89  O   UNL A   1      45.995  35.905  30.891  1.00  0.00    -0.237 OA
ATOM     90  O   UNL A   1      44.337  35.390  32.637  1.00  0.00    -0.237 OA
ATOM     91  O   UNL A   1      46.717  35.369  33.205  1.00  0.00    -0.744 OA
ENDBRANCH  85  88
ENDBRANCH  57  81
BRANCH  69  92
ATOM     92  C   UNL A   1      47.319  27.727  24.623  1.00  0.00     0.023 A 
ATOM     93  C   UNL A   1      47.295  28.011  23.246  1.00  0.00     0.012 A 
ATOM     94  C   UNL A   1      48.535  27.230  25.158  1.00  0.00     0.148 A 
ATOM     95  C   UNL A   1      48.400  27.770  22.427  1.00  0.00     0.002 A 
ATOM     96  C   UNL A   1      49.668  27.118  24.363  1.00  0.00     0.091 A 
ATOM     97  F   UNL A   1      48.604  26.856  26.444  1.00  0.00    -0.205 F 
ATOM     98  C   UNL A   1      49.598  27.355  22.990  1.00  0.00     0.022 A 
BRANCH  96  99
ATOM     99  S   UNL A   1      51.276  26.860  25.123  1.00  0.00     0.127 S 
ATOM    100  O   UNL A   1      51.359  27.983  26.053  1.00  0.00    -0.237 OA
ATOM    101  O   UNL A   1      51.121  25.551  25.760  1.00  0.00    -0.237 OA
ATOM    102  O   UNL A   1      52.213  26.872  24.006  1.00  0.00    -0.744 OA
ENDBRANCH  96  99
ENDBRANCH  69  92
ENDBRANCH  43  44
ENDBRANCH  36  38
ENDBRANCH  35  36
ENDBRANCH  34  35
ENDBRANCH   1  34
TORSDOF 20
ENDMDL
MODEL 3
REMARK VINA RESULT:     -11.6      1.753      2.080
REMARK SMILES Cc1ccc(C2=NN(C(=O)CCC(=O)OCCOC(=O)c3ccc(-c4c5nc(c(-c6cccc(S(=O)(=O)[O-])c6F)c6ccc([nH]6)c(-c6cccc(S(=O)(=O)[O-])c6F)c6nc(c(-c7cccc(S(=O)(=O)[O-])c7F)c7ccc4[nH]7)C=C6)C=C5)cc3)[C@H](C[C@@H]3C=c4cccc(C)c4=NC3=O)C2)cc1
REMARK SMILES IDX 16 1 15 2 13 3 14 4 12 5 11 6 9 7 10 8 8 9 6 10 7 11 98 12
REMARK SMILES IDX 84 13 5 14 1 15 2 16 3 17 100 18 4 19 99 20 85 21 86 22
REMARK SMILES IDX 87 23 96 24 88 25 95 26 97 27 89 28 94 29 90 30 92 31 91 32
REMARK SMILES IDX 93 33 17 34 18 35 19 36 20 37 21 38 22 39 83 40 23 41 82 42
REMARK SMILES IDX 24 43 25 44 26 45 76 46 27 47 81 48 75 49 77 50 28 51 80 52
REMARK SMILES IDX 74 53 73 54 29 56 61 57 41 58 60 59 42 60 45 61 59 62 78 63
REMARK SMILES IDX 43 64 44 65 58 67 79 68 46 69 30 70 31 71 39 72 32 73 34 74
REMARK SMILES IDX 40 75 33 76 35 77 36 78 37 79 38 80 62 81 63 82 71 83 64 84
REMARK SMILES IDX 66 85 72 86 65 87 67 88 68 89 69 90 70 91 47 92 48 93 56 94
REMARK SMILES IDX 49 95 51 96 57 97 50 98 52 99 53 100 54 101 55 102
REMARK H PARENT 77 55 45 66
REMARK Flexibility Score: inf
ROOT
ATOM      1  C   UNL A   1      33.967  29.618  26.782  1.00  0.00     0.274 C 
ENDROOT
BRANCH   1   2
ATOM      2  O   UNL A   1      33.659  28.238  27.063  1.00  0.00    -0.462 OA
BRANCH   2   3
ATOM      3  C   UNL A   1      32.426  27.720  27.177  1.00  0.00     0.306 C 
ATOM      4  O   UNL A   1      31.414  28.338  27.459  1.00  0.00    -0.252 OA
BRANCH   3   5
ATOM      5  C   UNL A   1      32.354  26.306  26.710  1.00  0.00     0.132 C 
BRANCH   5   6
ATOM      6  C   UNL A   1      33.592  26.068  25.867  1.00  0.00     0.114 C 
BRANCH   6   7
ATOM      7  C   UNL A   1      33.256  26.018  24.388  1.00  0.00     0.243 C 
ATOM      8  O   UNL A   1      34.201  25.890  23.598  1.00  0.00    -0.273 OA
BRANCH   7   9
ATOM      9  N   UNL A   1      31.943  26.129  23.930  1.00  0.00    -0.230 N 
ATOM     10  C   UNL A   1      30.331  27.518  23.537  1.00  0.00     0.070 C 
ATOM     11  N   UNL A   1      31.608  27.446  23.673  1.00  0.00    -0.174 NA
ATOM     12  C   UNL A   1      29.603  26.225  23.480  1.00  0.00     0.086 C 
ATOM     13  C   UNL A   1      30.707  25.279  23.978  1.00  0.00     0.118 C 
BRANCH  10  14
ATOM     14  C   UNL A   1      29.625  28.780  23.372  1.00  0.00    -0.002 A 
ATOM     15  C   UNL A   1      27.585  32.523  23.035  1.00  0.00     0.044 C 
ATOM     16  C   UNL A   1      28.292  31.205  23.137  1.00  0.00    -0.051 A 
ATOM     17  C   UNL A   1      29.529  31.137  23.795  1.00  0.00     0.004 A 
ATOM     18  C   UNL A   1      27.723  30.036  22.609  1.00  0.00     0.004 A 
ATOM     19  C   UNL A   1      30.197  29.924  23.916  1.00  0.00     0.010 A 
ATOM     20  C   UNL A   1      28.388  28.815  22.728  1.00  0.00     0.010 A 
ENDBRANCH  10  14
BRANCH  13  21
ATOM     21  C   UNL A   1      30.577  23.941  23.210  1.00  0.00     0.045 C 
BRANCH  21  22
ATOM     22  C   UNL A   1      31.493  22.793  23.646  1.00  0.00     0.106 C 
ATOM     23  C   UNL A   1      31.688  22.868  25.118  1.00  0.00    -0.003 C 
ATOM     24  C   UNL A   1      32.846  22.782  22.902  1.00  0.00     0.253 C 
ATOM     25  C   UNL A   1      32.796  22.492  25.738  1.00  0.00    -0.003 A 
ATOM     26  N   UNL A   1      33.986  22.378  23.576  1.00  0.00    -0.212 NA
ATOM     27  O   UNL A   1      32.905  23.120  21.720  1.00  0.00    -0.272 OA
ATOM     28  C   UNL A   1      32.842  22.318  27.163  1.00  0.00     0.010 A 
ATOM     29  C   UNL A   1      33.973  22.256  24.866  1.00  0.00     0.077 A 
ATOM     30  C   UNL A   1      33.986  21.955  27.749  1.00  0.00     0.001 A 
ATOM     31  C   UNL A   1      35.234  21.955  25.631  1.00  0.00    -0.025 A 
ATOM     32  C   UNL A   1      35.195  21.824  26.971  1.00  0.00     0.005 A 
ATOM     33  C   UNL A   1      36.506  21.938  24.849  1.00  0.00     0.047 C 
ENDBRANCH  21  22
ENDBRANCH  13  21
ENDBRANCH   7   9
ENDBRANCH   6   7
ENDBRANCH   5   6
ENDBRANCH   3   5
ENDBRANCH   2   3
ENDBRANCH   1   2
BRANCH   1  34
ATOM     34  C   UNL A   1      34.886  30.592  27.594  1.00  0.00     0.275 C 
BRANCH  34  35
ATOM     35  O   UNL A   1      34.522  31.893  28.140  1.00  0.00    -0.458 OA
BRANCH  35  36
ATOM     36  C   UNL A   1      34.807  32.491  29.350  1.00  0.00     0.338 C 
ATOM     37  O   UNL A   1      34.032  33.215  29.922  1.00  0.00    -0.246 OA
BRANCH  36  38
ATOM     38  C   UNL A   1      36.107  32.108  29.935  1.00  0.00     0.060 A 
ATOM     39  C   UNL A   1      36.198  31.164  30.977  1.00  0.00     0.016 A 
ATOM     40  C   UNL A   1      37.194  32.430  29.168  1.00  0.00     0.016 A 
ATOM     41  C   UNL A   1      37.328  30.337  31.073  1.00  0.00     0.010 A 
ATOM     42  C   UNL A   1      38.179  31.487  29.126  1.00  0.00     0.010 A 
ATOM     43  C   UNL A   1      38.290  30.433  30.074  1.00  0.00    -0.014 A 
BRANCH  43  44
ATOM     44  C   UNL A   1      39.582  29.734  29.989  1.00  0.00     0.031 A 
ATOM     45  C   UNL A   1      39.859  28.319  29.670  1.00  0.00     0.074 A 
ATOM     46  C   UNL A   1      40.595  30.629  30.010  1.00  0.00     0.049 A 
ATOM     47  N   UNL A   1      40.998  27.759  29.916  1.00  0.00    -0.248 NA
ATOM     48  C   UNL A   1      38.927  27.404  29.032  1.00  0.00     0.031 C 
ATOM     49  C   UNL A   1      41.946  30.572  29.506  1.00  0.00     0.029 A 
ATOM     50  N   UNL A   1      40.502  31.903  30.582  1.00  0.00    -0.354 N 
ATOM     51  C   UNL A   1      41.032  26.536  29.269  1.00  0.00     0.074 A 
ATOM     52  C   UNL A   1      39.683  26.318  28.813  1.00  0.00     0.031 C 
ATOM     53  C   UNL A   1      42.619  31.633  30.000  1.00  0.00     0.029 A 
ATOM     54  C   UNL A   1      41.760  32.286  30.987  1.00  0.00     0.049 A 
ATOM     55  H   UNL A   1      39.678  32.434  30.678  1.00  0.00     0.167 HD
ATOM     56  C   UNL A   1      42.233  25.929  29.041  1.00  0.00     0.034 A 
ATOM     57  C   UNL A   1      41.983  32.502  32.316  1.00  0.00     0.034 A 
ATOM     58  C   UNL A   1      43.323  26.798  29.500  1.00  0.00     0.049 A 
ATOM     59  C   UNL A   1      42.996  31.503  32.811  1.00  0.00     0.074 A 
ATOM     60  C   UNL A   1      44.089  27.738  28.831  1.00  0.00     0.029 A 
ATOM     61  N   UNL A   1      43.538  26.998  30.855  1.00  0.00    -0.354 N 
ATOM     62  N   UNL A   1      43.314  30.419  32.161  1.00  0.00    -0.248 NA
ATOM     63  C   UNL A   1      43.755  31.658  34.041  1.00  0.00     0.031 C 
ATOM     64  C   UNL A   1      44.704  28.569  29.803  1.00  0.00     0.029 A 
ATOM     65  C   UNL A   1      44.338  28.112  31.059  1.00  0.00     0.049 A 
ATOM     66  H   UNL A   1      43.174  26.429  31.572  1.00  0.00     0.167 HD
ATOM     67  C   UNL A   1      44.266  29.725  32.844  1.00  0.00     0.074 A 
ATOM     68  C   UNL A   1      44.539  30.565  33.999  1.00  0.00     0.031 C 
ATOM     69  C   UNL A   1      44.713  28.509  32.411  1.00  0.00     0.034 A 
BRANCH  56  70
ATOM     70  C   UNL A   1      42.498  24.731  28.135  1.00  0.00     0.023 A 
ATOM     71  C   UNL A   1      41.961  23.484  28.547  1.00  0.00     0.012 A 
ATOM     72  C   UNL A   1      43.224  24.715  26.922  1.00  0.00     0.148 A 
ATOM     73  C   UNL A   1      42.199  22.285  27.868  1.00  0.00     0.002 A 
ATOM     74  C   UNL A   1      43.495  23.507  26.257  1.00  0.00     0.091 A 
ATOM     75  F   UNL A   1      43.610  25.873  26.374  1.00  0.00    -0.205 F 
ATOM     76  C   UNL A   1      42.991  22.292  26.735  1.00  0.00     0.022 A 
BRANCH  74  77
ATOM     77  S   UNL A   1      44.544  23.390  24.794  1.00  0.00     0.127 S 
ATOM     78  O   UNL A   1      45.579  22.451  25.235  1.00  0.00    -0.237 OA
ATOM     79  O   UNL A   1      43.630  22.853  23.789  1.00  0.00    -0.237 OA
ATOM     80  O   UNL A   1      45.032  24.740  24.541  1.00  0.00    -0.744 OA
ENDBRANCH  74  77
ENDBRANCH  56  70
BRANCH  57  81
ATOM     81  C   UNL A   1      40.760  32.990  33.068  1.00  0.00     0.023 A 
ATOM     82  C   UNL A   1      39.667  32.084  33.158  1.00  0.00     0.012 A 
ATOM     83  C   UNL A   1      40.811  34.050  33.999  1.00  0.00     0.148 A 
ATOM     84  C   UNL A   1      38.737  32.155  34.203  1.00  0.00     0.002 A 
ATOM     85  C   UNL A   1      39.870  34.117  35.038  1.00  0.00     0.091 A 
ATOM     86  F   UNL A   1      41.817  34.930  33.916  1.00  0.00    -0.205 F 
ATOM     87  C   UNL A   1      38.854  33.157  35.156  1.00  0.00     0.022 A 
BRANCH  85  88
ATOM     88  S   UNL A   1      40.003  35.348  36.349  1.00  0.00     0.127 S 
ATOM     89  O   UNL A   1      41.390  35.178  36.771  1.00  0.00    -0.237 OA
ATOM     90  O   UNL A   1      39.724  36.604  35.652  1.00  0.00    -0.237 OA
ATOM     91  O   UNL A   1      38.976  34.967  37.309  1.00  0.00    -0.744 OA
ENDBRANCH  85  88
ENDBRANCH  57  81
BRANCH  69  92
ATOM     92  C   UNL A   1      45.545  27.558  33.232  1.00  0.00     0.023 A 
ATOM     93  C   UNL A   1      44.985  26.787  34.266  1.00  0.00     0.012 A 
ATOM     94  C   UNL A   1      46.880  27.261  32.856  1.00  0.00     0.148 A 
ATOM     95  C   UNL A   1      45.721  25.803  34.930  1.00  0.00     0.002 A 
ATOM     96  C   UNL A   1      47.561  26.196  33.432  1.00  0.00     0.091 A 
ATOM     97  F   UNL A   1      47.507  28.013  31.939  1.00  0.00    -0.205 F 
ATOM     98  C   UNL A   1      46.999  25.485  34.492  1.00  0.00     0.022 A 
BRANCH  96  99
ATOM     99  S   UNL A   1      49.083  25.597  32.690  1.00  0.00     0.127 S 
ATOM    100  O   UNL A   1      49.237  24.287  33.317  1.00  0.00    -0.237 OA
ATOM    101  O   UNL A   1      48.748  25.555  31.265  1.00  0.00    -0.237 OA
ATOM    102  O   UNL A   1      50.079  26.604  33.037  1.00  0.00    -0.744 OA
ENDBRANCH  96  99
ENDBRANCH  69  92
ENDBRANCH  43  44
ENDBRANCH  36  38
ENDBRANCH  35  36
ENDBRANCH  34  35
ENDBRANCH   1  34
TORSDOF 20
ENDMDL
