MODEL 1
REMARK VINA RESULT:     -10.0      0.000      0.000
REMARK SMILES CN(C[C@H]1C[C@H](O)C1)C(=O)NCCOCC(=O)OCCOC(=O)c1ccc(-c2c3nc(c(-c4cccc(S(=O)(=O)[O-])c4F)c4ccc([nH]4)c(-c4cccc(S(=O)(=O)[O-])c4F)c4nc(c(-c5cccc(S(=O)(=O)[O-])c5F)c5ccc2[nH]5)C=C4)C=C3)cc1
REMARK SMILES IDX 16 1 17 2 15 3 14 4 13 5 12 6 11 7 9 8 10 9 2 11 1 12 3 13
REMARK SMILES IDX 4 14 8 15 5 16 6 17 7 18 18 20 19 21 20 22 21 23 22 24 23 25
REMARK SMILES IDX 24 26 25 27 86 28 26 29 85 30 27 31 28 32 29 33 79 34 30 35
REMARK SMILES IDX 84 36 78 37 80 38 31 39 83 40 77 41 76 42 32 44 64 45 44 46
REMARK SMILES IDX 63 47 45 48 48 49 62 50 81 51 46 52 47 53 61 55 82 56 49 57
REMARK SMILES IDX 33 58 34 59 42 60 35 61 37 62 43 63 36 64 38 65 39 66 40 67
REMARK SMILES IDX 41 68 65 69 66 70 74 71 67 72 69 73 75 74 68 75 70 76 71 77
REMARK SMILES IDX 72 78 73 79 50 80 51 81 59 82 52 83 54 84 60 85 53 86 55 87
REMARK SMILES IDX 56 88 57 89 58 90
REMARK H PARENT 11 10 7 19 80 43 48 54
REMARK Flexibility Score: inf
ROOT
ATOM      1  C   UNL A   1      31.385  27.826  26.554  1.00  0.00     0.332 C 
ATOM      2  O   UNL A   1      31.094  27.830  27.749  1.00  0.00    -0.250 OA
ENDROOT
BRANCH   1   3
ATOM      3  C   UNL A   1      30.744  26.821  25.552  1.00  0.00     0.282 C 
BRANCH   3   4
ATOM      4  O   UNL A   1      30.583  25.433  25.783  1.00  0.00    -0.368 OA
BRANCH   4   5
ATOM      5  C   UNL A   1      31.599  24.805  26.571  1.00  0.00     0.182 C 
BRANCH   5   6
ATOM      6  C   UNL A   1      32.643  23.989  25.773  1.00  0.00     0.146 C 
BRANCH   6   7
ATOM      7  N   UNL A   1      33.685  23.382  26.592  1.00  0.00    -0.336 N 
ATOM      8  C   UNL A   1      34.359  22.228  26.531  1.00  0.00     0.317 C 
ATOM      9  O   UNL A   1      34.353  21.564  27.553  1.00  0.00    -0.249 OA
ATOM     10  H   UNL A   1      33.950  23.944  27.356  1.00  0.00     0.165 HD
BRANCH   8  11
ATOM     11  N   UNL A   1      35.120  21.783  25.506  1.00  0.00    -0.328 N 
ATOM     12  C   UNL A   1      36.558  21.616  25.791  1.00  0.00     0.148 C 
BRANCH  11  13
ATOM     13  C   UNL A   1      34.645  21.179  24.294  1.00  0.00     0.124 C 
BRANCH  13  14
ATOM     14  C   UNL A   1      33.613  20.127  24.708  1.00  0.00     0.014 C 
ATOM     15  C   UNL A   1      34.081  18.677  24.489  1.00  0.00     0.037 C 
ATOM     16  C   UNL A   1      32.339  19.790  23.868  1.00  0.00     0.037 C 
ATOM     17  C   UNL A   1      32.685  18.302  23.958  1.00  0.00     0.115 C 
BRANCH  17  18
ATOM     18  O   UNL A   1      31.862  17.507  24.830  1.00  0.00    -0.393 OA
ATOM     19  H   UNL A   1      31.438  18.082  25.486  1.00  0.00     0.210 HD
ENDBRANCH  17  18
ENDBRANCH  13  14
ENDBRANCH  11  13
ENDBRANCH   8  11
ENDBRANCH   6   7
ENDBRANCH   5   6
ENDBRANCH   4   5
ENDBRANCH   3   4
ENDBRANCH   1   3
BRANCH   1  20
ATOM     20  O   UNL A   1      32.203  28.752  25.971  1.00  0.00    -0.460 OA
BRANCH  20  21
ATOM     21  C   UNL A   1      31.590  30.026  25.633  1.00  0.00     0.274 C 
BRANCH  21  22
ATOM     22  C   UNL A   1      31.679  31.057  26.791  1.00  0.00     0.275 C 
BRANCH  22  23
ATOM     23  O   UNL A   1      32.307  32.327  26.459  1.00  0.00    -0.458 OA
BRANCH  23  24
ATOM     24  C   UNL A   1      33.101  32.779  27.447  1.00  0.00     0.338 C 
ATOM     25  O   UNL A   1      32.757  33.645  28.245  1.00  0.00    -0.246 OA
BRANCH  24  26
ATOM     26  C   UNL A   1      34.469  32.264  27.600  1.00  0.00     0.060 A 
ATOM     27  C   UNL A   1      34.488  30.912  27.985  1.00  0.00     0.016 A 
ATOM     28  C   UNL A   1      35.510  33.123  27.983  1.00  0.00     0.016 A 
ATOM     29  C   UNL A   1      35.401  30.482  28.939  1.00  0.00     0.010 A 
ATOM     30  C   UNL A   1      36.503  32.646  28.864  1.00  0.00     0.010 A 
ATOM     31  C   UNL A   1      36.418  31.345  29.401  1.00  0.00    -0.014 A 
BRANCH  31  32
ATOM     32  C   UNL A   1      37.492  30.752  30.235  1.00  0.00     0.031 A 
ATOM     33  C   UNL A   1      37.748  31.032  31.690  1.00  0.00     0.074 A 
ATOM     34  C   UNL A   1      38.250  29.860  29.580  1.00  0.00     0.049 A 
ATOM     35  N   UNL A   1      38.799  30.741  32.418  1.00  0.00    -0.248 NA
ATOM     36  C   UNL A   1      36.700  31.718  32.443  1.00  0.00     0.031 C 
ATOM     37  C   UNL A   1      38.057  29.490  28.174  1.00  0.00     0.029 A 
ATOM     38  N   UNL A   1      39.323  29.122  29.984  1.00  0.00    -0.354 N 
ATOM     39  C   UNL A   1      38.581  31.305  33.676  1.00  0.00     0.074 A 
ATOM     40  C   UNL A   1      37.274  31.926  33.624  1.00  0.00     0.031 C 
ATOM     41  C   UNL A   1      38.981  28.599  27.826  1.00  0.00     0.029 A 
ATOM     42  C   UNL A   1      39.901  28.445  28.943  1.00  0.00     0.049 A 
ATOM     43  H   UNL A   1      39.645  29.081  30.914  1.00  0.00     0.167 HD
ATOM     44  C   UNL A   1      39.394  31.276  34.766  1.00  0.00     0.034 A 
ATOM     45  C   UNL A   1      41.095  27.847  28.847  1.00  0.00     0.034 A 
ATOM     46  C   UNL A   1      40.600  30.480  34.824  1.00  0.00     0.049 A 
ATOM     47  C   UNL A   1      41.946  27.774  30.061  1.00  0.00     0.074 A 
ATOM     48  C   UNL A   1      41.434  30.250  35.906  1.00  0.00     0.029 A 
ATOM     49  N   UNL A   1      41.124  29.754  33.762  1.00  0.00    -0.354 N 
ATOM     50  N   UNL A   1      41.738  28.315  31.237  1.00  0.00    -0.248 NA
ATOM     51  C   UNL A   1      43.164  26.974  29.956  1.00  0.00     0.031 C 
ATOM     52  C   UNL A   1      42.464  29.397  35.495  1.00  0.00     0.029 A 
ATOM     53  C   UNL A   1      42.265  29.075  34.161  1.00  0.00     0.049 A 
ATOM     54  H   UNL A   1      40.740  29.725  32.856  1.00  0.00     0.167 HD
ATOM     55  C   UNL A   1      42.798  27.908  32.029  1.00  0.00     0.074 A 
ATOM     56  C   UNL A   1      43.627  27.054  31.197  1.00  0.00     0.031 C 
ATOM     57  C   UNL A   1      43.064  28.220  33.321  1.00  0.00     0.034 A 
BRANCH  44  58
ATOM     58  C   UNL A   1      39.025  32.070  36.007  1.00  0.00     0.023 A 
ATOM     59  C   UNL A   1      39.390  33.425  36.134  1.00  0.00     0.012 A 
ATOM     60  C   UNL A   1      38.189  31.500  36.998  1.00  0.00     0.148 A 
ATOM     61  C   UNL A   1      38.963  34.185  37.228  1.00  0.00     0.002 A 
ATOM     62  C   UNL A   1      37.729  32.276  38.061  1.00  0.00     0.091 A 
ATOM     63  F   UNL A   1      37.849  30.208  36.884  1.00  0.00    -0.205 F 
ATOM     64  C   UNL A   1      38.125  33.616  38.183  1.00  0.00     0.022 A 
BRANCH  62  65
ATOM     65  S   UNL A   1      36.558  31.653  39.279  1.00  0.00     0.127 S 
ATOM     66  O   UNL A   1      35.459  32.609  39.151  1.00  0.00    -0.237 OA
ATOM     67  O   UNL A   1      36.257  30.314  38.770  1.00  0.00    -0.237 OA
ATOM     68  O   UNL A   1      37.265  31.668  40.552  1.00  0.00    -0.744 OA
ENDBRANCH  62  65
ENDBRANCH  44  58
BRANCH  45  69
ATOM     69  C   UNL A   1      41.473  27.316  27.515  1.00  0.00     0.023 A 
ATOM     70  C   UNL A   1      42.055  28.180  26.574  1.00  0.00     0.012 A 
ATOM     71  C   UNL A   1      41.526  25.918  27.313  1.00  0.00     0.148 A 
ATOM     72  C   UNL A   1      42.704  27.659  25.456  1.00  0.00     0.002 A 
ATOM     73  C   UNL A   1      42.239  25.407  26.239  1.00  0.00     0.091 A 
ATOM     74  F   UNL A   1      40.976  25.121  28.242  1.00  0.00    -0.205 F 
ATOM     75  C   UNL A   1      42.818  26.277  25.302  1.00  0.00     0.022 A 
BRANCH  73  76
ATOM     76  S   UNL A   1      42.631  23.658  26.102  1.00  0.00     0.127 S 
ATOM     77  O   UNL A   1      43.285  23.601  24.797  1.00  0.00    -0.237 OA
ATOM     78  O   UNL A   1      43.520  23.452  27.247  1.00  0.00    -0.237 OA
ATOM     79  O   UNL A   1      41.357  22.959  26.207  1.00  0.00    -0.744 OA
ENDBRANCH  73  76
ENDBRANCH  45  69
BRANCH  57  80
ATOM     80  C   UNL A   1      44.308  27.614  33.904  1.00  0.00     0.023 A 
ATOM     81  C   UNL A   1      45.520  28.330  33.849  1.00  0.00     0.012 A 
ATOM     82  C   UNL A   1      44.277  26.341  34.505  1.00  0.00     0.148 A 
ATOM     83  C   UNL A   1      46.695  27.769  34.344  1.00  0.00     0.002 A 
ATOM     84  C   UNL A   1      45.444  25.807  35.036  1.00  0.00     0.091 A 
ATOM     85  F   UNL A   1      43.117  25.669  34.524  1.00  0.00    -0.205 F 
ATOM     86  C   UNL A   1      46.655  26.512  34.943  1.00  0.00     0.022 A 
BRANCH  84  87
ATOM     87  S   UNL A   1      45.472  24.231  35.894  1.00  0.00     0.127 S 
ATOM     88  O   UNL A   1      44.593  24.494  37.032  1.00  0.00    -0.237 OA
ATOM     89  O   UNL A   1      44.917  23.321  34.891  1.00  0.00    -0.237 OA
ATOM     90  O   UNL A   1      46.868  23.982  36.227  1.00  0.00    -0.744 OA
ENDBRANCH  84  87
ENDBRANCH  57  80
ENDBRANCH  31  32
ENDBRANCH  24  26
ENDBRANCH  23  24
ENDBRANCH  22  23
ENDBRANCH  21  22
ENDBRANCH  20  21
ENDBRANCH   1  20
TORSDOF 22
ENDMDL
MODEL 2
REMARK VINA RESULT:      -9.7      2.583      8.243
REMARK SMILES CN(C[C@H]1C[C@H](O)C1)C(=O)NCCOCC(=O)OCCOC(=O)c1ccc(-c2c3nc(c(-c4cccc(S(=O)(=O)[O-])c4F)c4ccc([nH]4)c(-c4cccc(S(=O)(=O)[O-])c4F)c4nc(c(-c5cccc(S(=O)(=O)[O-])c5F)c5ccc2[nH]5)C=C4)C=C3)cc1
REMARK SMILES IDX 16 1 17 2 15 3 14 4 13 5 12 6 11 7 9 8 10 9 2 11 1 12 3 13
REMARK SMILES IDX 4 14 8 15 5 16 6 17 7 18 18 20 19 21 20 22 21 23 22 24 23 25
REMARK SMILES IDX 24 26 25 27 86 28 26 29 85 30 27 31 28 32 29 33 79 34 30 35
REMARK SMILES IDX 84 36 78 37 80 38 31 39 83 40 77 41 76 42 32 44 64 45 44 46
REMARK SMILES IDX 63 47 45 48 48 49 62 50 81 51 46 52 47 53 61 55 82 56 49 57
REMARK SMILES IDX 33 58 34 59 42 60 35 61 37 62 43 63 36 64 38 65 39 66 40 67
REMARK SMILES IDX 41 68 65 69 66 70 74 71 67 72 69 73 75 74 68 75 70 76 71 77
REMARK SMILES IDX 72 78 73 79 50 80 51 81 59 82 52 83 54 84 60 85 53 86 55 87
REMARK SMILES IDX 56 88 57 89 58 90
REMARK H PARENT 11 10 7 19 80 43 48 54
REMARK Flexibility Score: inf
ROOT
ATOM      1  C   UNL A   1      30.470  29.569  24.121  1.00  0.00     0.332 C 
ATOM      2  O   UNL A   1      29.624  30.436  23.905  1.00  0.00    -0.250 OA
ENDROOT
BRANCH   1   3
ATOM      3  C   UNL A   1      30.475  28.214  23.354  1.00  0.00     0.282 C 
BRANCH   3   4
ATOM      4  O   UNL A   1      31.299  27.911  22.242  1.00  0.00    -0.368 OA
BRANCH   4   5
ATOM      5  C   UNL A   1      31.406  26.526  21.900  1.00  0.00     0.182 C 
BRANCH   5   6
ATOM      6  C   UNL A   1      32.846  25.960  21.884  1.00  0.00     0.146 C 
BRANCH   6   7
ATOM      7  N   UNL A   1      33.560  26.100  23.146  1.00  0.00    -0.336 N 
ATOM      8  C   UNL A   1      33.408  25.564  24.363  1.00  0.00     0.317 C 
ATOM      9  O   UNL A   1      33.352  26.361  25.283  1.00  0.00    -0.249 OA
ATOM     10  H   UNL A   1      34.319  26.726  23.092  1.00  0.00     0.165 HD
BRANCH   8  11
ATOM     11  N   UNL A   1      33.418  24.250  24.680  1.00  0.00    -0.328 N 
ATOM     12  C   UNL A   1      32.930  23.328  23.636  1.00  0.00     0.148 C 
BRANCH  11  13
ATOM     13  C   UNL A   1      34.117  23.644  25.777  1.00  0.00     0.124 C 
BRANCH  13  14
ATOM     14  C   UNL A   1      35.545  23.383  25.290  1.00  0.00     0.014 C 
ATOM     15  C   UNL A   1      35.983  21.912  25.407  1.00  0.00     0.037 C 
ATOM     16  C   UNL A   1      36.820  23.776  26.104  1.00  0.00     0.037 C 
ATOM     17  C   UNL A   1      37.367  22.360  25.910  1.00  0.00     0.115 C 
BRANCH  17  18
ATOM     18  O   UNL A   1      38.459  22.220  24.985  1.00  0.00    -0.393 OA
ATOM     19  H   UNL A   1      38.481  21.311  24.645  1.00  0.00     0.210 HD
ENDBRANCH  17  18
ENDBRANCH  13  14
ENDBRANCH  11  13
ENDBRANCH   8  11
ENDBRANCH   6   7
ENDBRANCH   5   6
ENDBRANCH   4   5
ENDBRANCH   3   4
ENDBRANCH   1   3
BRANCH   1  20
ATOM     20  O   UNL A   1      31.533  29.742  24.959  1.00  0.00    -0.460 OA
BRANCH  20  21
ATOM     21  C   UNL A   1      31.419  30.822  25.925  1.00  0.00     0.274 C 
BRANCH  21  22
ATOM     22  C   UNL A   1      32.215  30.543  27.229  1.00  0.00     0.275 C 
BRANCH  22  23
ATOM     23  O   UNL A   1      33.556  31.109  27.283  1.00  0.00    -0.458 OA
BRANCH  23  24
ATOM     24  C   UNL A   1      34.511  30.162  27.264  1.00  0.00     0.338 C 
ATOM     25  O   UNL A   1      34.418  29.124  26.615  1.00  0.00    -0.246 OA
BRANCH  24  26
ATOM     26  C   UNL A   1      35.732  30.315  28.069  1.00  0.00     0.060 A 
ATOM     27  C   UNL A   1      36.877  30.479  27.271  1.00  0.00     0.016 A 
ATOM     28  C   UNL A   1      35.829  29.709  29.330  1.00  0.00     0.016 A 
ATOM     29  C   UNL A   1      38.054  29.831  27.618  1.00  0.00     0.010 A 
ATOM     30  C   UNL A   1      37.062  29.150  29.729  1.00  0.00     0.010 A 
ATOM     31  C   UNL A   1      38.163  29.147  28.849  1.00  0.00    -0.014 A 
BRANCH  31  32
ATOM     32  C   UNL A   1      39.512  28.683  29.257  1.00  0.00     0.031 A 
ATOM     33  C   UNL A   1      40.326  27.611  28.586  1.00  0.00     0.074 A 
ATOM     34  C   UNL A   1      40.013  29.347  30.309  1.00  0.00     0.049 A 
ATOM     35  N   UNL A   1      41.396  26.989  29.020  1.00  0.00    -0.248 NA
ATOM     36  C   UNL A   1      39.907  27.173  27.256  1.00  0.00     0.031 C 
ATOM     37  C   UNL A   1      39.315  30.432  31.006  1.00  0.00     0.029 A 
ATOM     38  N   UNL A   1      41.193  29.212  30.979  1.00  0.00    -0.354 N 
ATOM     39  C   UNL A   1      41.706  26.018  28.066  1.00  0.00     0.074 A 
ATOM     40  C   UNL A   1      40.729  26.158  27.007  1.00  0.00     0.031 C 
ATOM     41  C   UNL A   1      40.074  30.864  32.010  1.00  0.00     0.029 A 
ATOM     42  C   UNL A   1      41.238  29.997  32.100  1.00  0.00     0.049 A 
ATOM     43  H   UNL A   1      41.926  28.620  30.691  1.00  0.00     0.167 HD
ATOM     44  C   UNL A   1      42.726  25.120  28.078  1.00  0.00     0.034 A 
ATOM     45  C   UNL A   1      42.064  29.966  33.155  1.00  0.00     0.034 A 
ATOM     46  C   UNL A   1      43.785  25.148  29.063  1.00  0.00     0.049 A 
ATOM     47  C   UNL A   1      43.206  29.018  33.126  1.00  0.00     0.074 A 
ATOM     48  C   UNL A   1      44.946  24.393  29.109  1.00  0.00     0.029 A 
ATOM     49  N   UNL A   1      43.830  26.004  30.157  1.00  0.00    -0.354 N 
ATOM     50  N   UNL A   1      43.485  28.103  32.230  1.00  0.00    -0.248 NA
ATOM     51  C   UNL A   1      44.172  29.129  34.217  1.00  0.00     0.031 C 
ATOM     52  C   UNL A   1      45.682  24.784  30.234  1.00  0.00     0.029 A 
ATOM     53  C   UNL A   1      44.994  25.799  30.880  1.00  0.00     0.049 A 
ATOM     54  H   UNL A   1      43.134  26.662  30.385  1.00  0.00     0.167 HD
ATOM     55  C   UNL A   1      44.676  27.529  32.640  1.00  0.00     0.074 A 
ATOM     56  C   UNL A   1      45.072  28.226  33.852  1.00  0.00     0.031 C 
ATOM     57  C   UNL A   1      45.373  26.514  32.072  1.00  0.00     0.034 A 
BRANCH  44  58
ATOM     58  C   UNL A   1      42.810  24.054  26.999  1.00  0.00     0.023 A 
ATOM     59  C   UNL A   1      43.642  24.228  25.875  1.00  0.00     0.012 A 
ATOM     60  C   UNL A   1      42.161  22.808  27.172  1.00  0.00     0.148 A 
ATOM     61  C   UNL A   1      43.799  23.206  24.933  1.00  0.00     0.002 A 
ATOM     62  C   UNL A   1      42.360  21.778  26.254  1.00  0.00     0.091 A 
ATOM     63  F   UNL A   1      41.361  22.645  28.236  1.00  0.00    -0.205 F 
ATOM     64  C   UNL A   1      43.170  21.979  25.128  1.00  0.00     0.022 A 
BRANCH  62  65
ATOM     65  S   UNL A   1      41.673  20.129  26.485  1.00  0.00     0.127 S 
ATOM     66  O   UNL A   1      42.242  19.748  27.777  1.00  0.00    -0.237 OA
ATOM     67  O   UNL A   1      40.233  20.389  26.512  1.00  0.00    -0.237 OA
ATOM     68  O   UNL A   1      42.121  19.349  25.340  1.00  0.00    -0.744 OA
ENDBRANCH  62  65
ENDBRANCH  44  58
BRANCH  45  69
ATOM     69  C   UNL A   1      41.751  30.881  34.278  1.00  0.00     0.023 A 
ATOM     70  C   UNL A   1      42.381  32.135  34.334  1.00  0.00     0.012 A 
ATOM     71  C   UNL A   1      40.627  30.622  35.094  1.00  0.00     0.148 A 
ATOM     72  C   UNL A   1      41.883  33.128  35.176  1.00  0.00     0.002 A 
ATOM     73  C   UNL A   1      40.094  31.640  35.870  1.00  0.00     0.091 A 
ATOM     74  F   UNL A   1      40.038  29.420  35.000  1.00  0.00    -0.205 F 
ATOM     75  C   UNL A   1      40.729  32.890  35.922  1.00  0.00     0.022 A 
BRANCH  73  76
ATOM     76  S   UNL A   1      38.489  31.489  36.667  1.00  0.00     0.127 S 
ATOM     77  O   UNL A   1      38.277  30.044  36.638  1.00  0.00    -0.237 OA
ATOM     78  O   UNL A   1      38.752  32.047  37.994  1.00  0.00    -0.237 OA
ATOM     79  O   UNL A   1      37.572  32.283  35.860  1.00  0.00    -0.744 OA
ENDBRANCH  73  76
ENDBRANCH  45  69
BRANCH  57  80
ATOM     80  C   UNL A   1      46.643  26.114  32.766  1.00  0.00     0.023 A 
ATOM     81  C   UNL A   1      47.836  26.809  32.482  1.00  0.00     0.012 A 
ATOM     82  C   UNL A   1      46.656  25.058  33.697  1.00  0.00     0.148 A 
ATOM     83  C   UNL A   1      49.034  26.426  33.082  1.00  0.00     0.002 A 
ATOM     84  C   UNL A   1      47.845  24.712  34.324  1.00  0.00     0.091 A 
ATOM     85  F   UNL A   1      45.512  24.398  33.932  1.00  0.00    -0.205 F 
ATOM     86  C   UNL A   1      49.037  25.385  34.006  1.00  0.00     0.022 A 
BRANCH  84  87
ATOM     87  S   UNL A   1      47.930  23.437  35.583  1.00  0.00     0.127 S 
ATOM     88  O   UNL A   1      49.369  23.187  35.658  1.00  0.00    -0.237 OA
ATOM     89  O   UNL A   1      47.367  24.116  36.751  1.00  0.00    -0.237 OA
ATOM     90  O   UNL A   1      47.128  22.328  35.085  1.00  0.00    -0.744 OA
ENDBRANCH  84  87
ENDBRANCH  57  80
ENDBRANCH  31  32
ENDBRANCH  24  26
ENDBRANCH  23  24
ENDBRANCH  22  23
ENDBRANCH  21  22
ENDBRANCH  20  21
ENDBRANCH   1  20
TORSDOF 22
ENDMDL
MODEL 3
REMARK VINA RESULT:      -9.7      2.489      3.295
REMARK SMILES CN(C[C@H]1C[C@H](O)C1)C(=O)NCCOCC(=O)OCCOC(=O)c1ccc(-c2c3nc(c(-c4cccc(S(=O)(=O)[O-])c4F)c4ccc([nH]4)c(-c4cccc(S(=O)(=O)[O-])c4F)c4nc(c(-c5cccc(S(=O)(=O)[O-])c5F)c5ccc2[nH]5)C=C4)C=C3)cc1
REMARK SMILES IDX 16 1 17 2 15 3 14 4 13 5 12 6 11 7 9 8 10 9 2 11 1 12 3 13
REMARK SMILES IDX 4 14 8 15 5 16 6 17 7 18 18 20 19 21 20 22 21 23 22 24 23 25
REMARK SMILES IDX 24 26 25 27 86 28 26 29 85 30 27 31 28 32 29 33 79 34 30 35
REMARK SMILES IDX 84 36 78 37 80 38 31 39 83 40 77 41 76 42 32 44 64 45 44 46
REMARK SMILES IDX 63 47 45 48 48 49 62 50 81 51 46 52 47 53 61 55 82 56 49 57
REMARK SMILES IDX 33 58 34 59 42 60 35 61 37 62 43 63 36 64 38 65 39 66 40 67
REMARK SMILES IDX 41 68 65 69 66 70 74 71 67 72 69 73 75 74 68 75 70 76 71 77
REMARK SMILES IDX 72 78 73 79 50 80 51 81 59 82 52 83 54 84 60 85 53 86 55 87
REMARK SMILES IDX 56 88 57 89 58 90
REMARK H PARENT 11 10 7 19 80 43 48 54
REMARK Flexibility Score: inf
ROOT
ATOM      1  C   UNL A   1      31.396  27.917  26.946  1.00  0.00     0.332 C 
ATOM      2  O   UNL A   1      31.481  27.793  28.166  1.00  0.00    -0.250 OA
ENDROOT
BRANCH   1   3
ATOM      3  C   UNL A   1      31.179  26.694  26.006  1.00  0.00     0.282 C 
BRANCH   3   4
ATOM      4  O   UNL A   1      30.470  25.518  26.353  1.00  0.00    -0.368 OA
BRANCH   4   5
ATOM      5  C   UNL A   1      31.198  24.291  26.244  1.00  0.00     0.182 C 
BRANCH   5   6
ATOM      6  C   UNL A   1      32.732  24.442  26.119  1.00  0.00     0.146 C 
BRANCH   6   7
ATOM      7  N   UNL A   1      33.279  23.983  24.849  1.00  0.00    -0.336 N 
ATOM      8  C   UNL A   1      33.945  22.886  24.467  1.00  0.00     0.317 C 
ATOM      9  O   UNL A   1      34.989  23.089  23.872  1.00  0.00    -0.249 OA
ATOM     10  H   UNL A   1      33.125  24.617  24.111  1.00  0.00     0.165 HD
BRANCH   8  11
ATOM     11  N   UNL A   1      33.532  21.604  24.578  1.00  0.00    -0.328 N 
ATOM     12  C   UNL A   1      32.293  21.257  23.857  1.00  0.00     0.148 C 
BRANCH  11  13
ATOM     13  C   UNL A   1      34.311  20.498  25.058  1.00  0.00     0.124 C 
BRANCH  13  14
ATOM     14  C   UNL A   1      33.605  19.228  24.575  1.00  0.00     0.014 C 
ATOM     15  C   UNL A   1      32.830  18.489  25.681  1.00  0.00     0.037 C 
ATOM     16  C   UNL A   1      34.351  17.889  24.271  1.00  0.00     0.037 C 
ATOM     17  C   UNL A   1      33.338  17.139  25.141  1.00  0.00     0.115 C 
BRANCH  17  18
ATOM     18  O   UNL A   1      32.377  16.327  24.445  1.00  0.00    -0.393 OA
ATOM     19  H   UNL A   1      32.503  16.426  23.488  1.00  0.00     0.210 HD
ENDBRANCH  17  18
ENDBRANCH  13  14
ENDBRANCH  11  13
ENDBRANCH   8  11
ENDBRANCH   6   7
ENDBRANCH   5   6
ENDBRANCH   4   5
ENDBRANCH   3   4
ENDBRANCH   1   3
BRANCH   1  20
ATOM     20  O   UNL A   1      31.378  29.124  26.307  1.00  0.00    -0.460 OA
BRANCH  20  21
ATOM     21  C   UNL A   1      32.465  29.374  25.376  1.00  0.00     0.274 C 
BRANCH  21  22
ATOM     22  C   UNL A   1      33.751  29.882  26.083  1.00  0.00     0.275 C 
BRANCH  22  23
ATOM     23  O   UNL A   1      33.539  30.703  27.266  1.00  0.00    -0.458 OA
BRANCH  23  24
ATOM     24  C   UNL A   1      34.694  31.036  27.871  1.00  0.00     0.338 C 
ATOM     25  O   UNL A   1      34.913  32.151  28.336  1.00  0.00    -0.246 OA
BRANCH  24  26
ATOM     26  C   UNL A   1      35.791  30.063  27.975  1.00  0.00     0.060 A 
ATOM     27  C   UNL A   1      35.841  29.454  29.240  1.00  0.00     0.016 A 
ATOM     28  C   UNL A   1      36.964  30.236  27.225  1.00  0.00     0.016 A 
ATOM     29  C   UNL A   1      37.069  29.243  29.852  1.00  0.00     0.010 A 
ATOM     30  C   UNL A   1      38.205  29.911  27.811  1.00  0.00     0.010 A 
ATOM     31  C   UNL A   1      38.272  29.477  29.150  1.00  0.00    -0.014 A 
BRANCH  31  32
ATOM     32  C   UNL A   1      39.533  29.009  29.778  1.00  0.00     0.031 A 
ATOM     33  C   UNL A   1      40.238  29.647  30.943  1.00  0.00     0.074 A 
ATOM     34  C   UNL A   1      40.020  27.885  29.233  1.00  0.00     0.049 A 
ATOM     35  N   UNL A   1      41.454  29.442  31.389  1.00  0.00    -0.248 NA
ATOM     36  C   UNL A   1      39.501  30.640  31.722  1.00  0.00     0.031 C 
ATOM     37  C   UNL A   1      39.385  27.167  28.122  1.00  0.00     0.029 A 
ATOM     38  N   UNL A   1      41.140  27.161  29.513  1.00  0.00    -0.354 N 
ATOM     39  C   UNL A   1      41.657  30.354  32.426  1.00  0.00     0.074 A 
ATOM     40  C   UNL A   1      40.421  31.094  32.568  1.00  0.00     0.031 C 
ATOM     41  C   UNL A   1      40.126  26.107  27.808  1.00  0.00     0.029 A 
ATOM     42  C   UNL A   1      41.342  26.156  28.605  1.00  0.00     0.049 A 
ATOM     43  H   UNL A   1      41.734  27.339  30.278  1.00  0.00     0.167 HD
ATOM     44  C   UNL A   1      42.768  30.528  33.191  1.00  0.00     0.034 A 
ATOM     45  C   UNL A   1      42.427  25.412  28.354  1.00  0.00     0.034 A 
ATOM     46  C   UNL A   1      43.905  29.637  33.136  1.00  0.00     0.049 A 
ATOM     47  C   UNL A   1      43.611  25.574  29.234  1.00  0.00     0.074 A 
ATOM     48  C   UNL A   1      45.027  29.614  33.950  1.00  0.00     0.029 A 
ATOM     49  N   UNL A   1      44.049  28.586  32.239  1.00  0.00    -0.354 N 
ATOM     50  N   UNL A   1      43.797  26.440  30.201  1.00  0.00    -0.248 NA
ATOM     51  C   UNL A   1      44.709  24.631  29.030  1.00  0.00     0.031 C 
ATOM     52  C   UNL A   1      45.850  28.559  33.536  1.00  0.00     0.029 A 
ATOM     53  C   UNL A   1      45.234  27.908  32.478  1.00  0.00     0.049 A 
ATOM     54  H   UNL A   1      43.401  28.355  31.534  1.00  0.00     0.167 HD
ATOM     55  C   UNL A   1      45.037  26.141  30.738  1.00  0.00     0.074 A 
ATOM     56  C   UNL A   1      45.538  24.994  30.000  1.00  0.00     0.031 C 
ATOM     57  C   UNL A   1      45.704  26.762  31.742  1.00  0.00     0.034 A 
BRANCH  44  58
ATOM     58  C   UNL A   1      42.830  31.673  34.187  1.00  0.00     0.023 A 
ATOM     59  C   UNL A   1      43.336  32.933  33.809  1.00  0.00     0.012 A 
ATOM     60  C   UNL A   1      42.255  31.536  35.472  1.00  0.00     0.148 A 
ATOM     61  C   UNL A   1      43.299  34.017  34.692  1.00  0.00     0.002 A 
ATOM     62  C   UNL A   1      42.178  32.632  36.330  1.00  0.00     0.091 A 
ATOM     63  F   UNL A   1      41.782  30.334  35.837  1.00  0.00    -0.205 F 
ATOM     64  C   UNL A   1      42.711  33.871  35.946  1.00  0.00     0.022 A 
BRANCH  62  65
ATOM     65  S   UNL A   1      41.340  32.559  37.923  1.00  0.00     0.127 S 
ATOM     66  O   UNL A   1      40.022  32.053  37.542  1.00  0.00    -0.237 OA
ATOM     67  O   UNL A   1      42.162  31.605  38.668  1.00  0.00    -0.237 OA
ATOM     68  O   UNL A   1      41.369  33.917  38.448  1.00  0.00    -0.744 OA
ENDBRANCH  62  65
ENDBRANCH  44  58
BRANCH  45  69
ATOM     69  C   UNL A   1      42.353  24.490  27.194  1.00  0.00     0.023 A 
ATOM     70  C   UNL A   1      43.127  24.763  26.055  1.00  0.00     0.012 A 
ATOM     71  C   UNL A   1      41.759  23.219  27.353  1.00  0.00     0.148 A 
ATOM     72  C   UNL A   1      43.327  23.772  25.094  1.00  0.00     0.002 A 
ATOM     73  C   UNL A   1      42.026  22.217  26.433  1.00  0.00     0.091 A 
ATOM     74  F   UNL A   1      41.043  22.987  28.464  1.00  0.00    -0.205 F 
ATOM     75  C   UNL A   1      42.799  22.496  25.295  1.00  0.00     0.022 A 
BRANCH  73  76
ATOM     76  S   UNL A   1      41.587  20.500  26.738  1.00  0.00     0.127 S 
ATOM     77  O   UNL A   1      41.921  19.876  25.461  1.00  0.00    -0.237 OA
ATOM     78  O   UNL A   1      42.475  20.149  27.847  1.00  0.00    -0.237 OA
ATOM     79  O   UNL A   1      40.173  20.512  27.090  1.00  0.00    -0.744 OA
ENDBRANCH  73  76
ENDBRANCH  45  69
BRANCH  57  80
ATOM     80  C   UNL A   1      47.047  26.192  32.096  1.00  0.00     0.023 A 
ATOM     81  C   UNL A   1      48.171  26.534  31.320  1.00  0.00     0.012 A 
ATOM     82  C   UNL A   1      47.194  25.323  33.193  1.00  0.00     0.148 A 
ATOM     83  C   UNL A   1      49.419  25.982  31.604  1.00  0.00     0.002 A 
ATOM     84  C   UNL A   1      48.450  24.812  33.498  1.00  0.00     0.091 A 
ATOM     85  F   UNL A   1      46.104  24.994  33.902  1.00  0.00    -0.205 F 
ATOM     86  C   UNL A   1      49.559  25.129  32.695  1.00  0.00     0.022 A 
BRANCH  84  87
ATOM     87  S   UNL A   1      48.739  23.768  34.928  1.00  0.00     0.127 S 
ATOM     88  O   UNL A   1      48.021  22.549  34.558  1.00  0.00    -0.237 OA
ATOM     89  O   UNL A   1      50.197  23.641  34.929  1.00  0.00    -0.237 OA
ATOM     90  O   UNL A   1      48.196  24.492  36.069  1.00  0.00    -0.744 OA
ENDBRANCH  84  87
ENDBRANCH  57  80
ENDBRANCH  31  32
ENDBRANCH  24  26
ENDBRANCH  23  24
ENDBRANCH  22  23
ENDBRANCH  21  22
ENDBRANCH  20  21
ENDBRANCH   1  20
TORSDOF 22
ENDMDL
