MODEL 1
REMARK VINA RESULT:     -11.6      0.000      0.000
REMARK SMILES Cc1c(CC(=O)OCCOC(=O)c2ccc(-c3c4nc(c(-c5cccc(S(=O)(=O)[O-])c5F)c5ccc([nH]5)c(-c5cccc(S(=O)(=O)[O-])c5F)c5nc(c(-c6cccc(S(=O)(=O)[O-])c6F)c6ccc3[nH]6)C=C5)C=C4)cc2)cc(-c2ccc(S(C)(=O)=O)cc2)n1-c1cccc(F)c1
REMARK SMILES IDX 8 1 7 2 5 3 6 4 4 5 3 6 1 7 2 8 88 9 76 10 77 11 89 12 90 13
REMARK SMILES IDX 95 14 91 15 93 16 92 17 94 18 78 19 79 20 87 21 80 22 86 23
REMARK SMILES IDX 81 24 82 25 83 26 84 27 85 28 9 29 10 30 11 31 12 32 13 33
REMARK SMILES IDX 14 34 75 35 15 36 74 37 16 38 17 39 18 40 68 41 19 42 73 43
REMARK SMILES IDX 67 44 69 45 20 46 72 47 66 48 65 49 21 51 53 52 33 53 52 54
REMARK SMILES IDX 34 55 37 56 51 57 70 58 35 59 36 60 50 62 71 63 38 64 22 65
REMARK SMILES IDX 23 66 31 67 24 68 26 69 32 70 25 71 27 72 28 73 29 74 30 75
REMARK SMILES IDX 54 76 55 77 63 78 56 79 58 80 64 81 57 82 59 83 60 84 61 85
REMARK SMILES IDX 62 86 39 87 40 88 48 89 41 90 43 91 49 92 42 93 44 94 45 95
REMARK SMILES IDX 46 96 47 97
REMARK H PARENT 69 50 37 61
REMARK Flexibility Score: inf
ROOT
ATOM      1  C   UNL A   1      31.330  28.508  25.215  1.00  0.00     0.274 C 
ENDROOT
BRANCH   1   2
ATOM      2  O   UNL A   1      30.557  28.742  24.031  1.00  0.00    -0.462 OA
BRANCH   2   3
ATOM      3  C   UNL A   1      29.845  27.722  23.493  1.00  0.00     0.310 C 
ATOM      4  O   UNL A   1      28.667  27.481  23.741  1.00  0.00    -0.252 OA
BRANCH   3   5
ATOM      5  C   UNL A   1      30.638  26.975  22.435  1.00  0.00     0.160 C 
BRANCH   5   6
ATOM      6  C   UNL A   1      31.472  25.803  22.895  1.00  0.00    -0.015 A 
ATOM      7  C   UNL A   1      33.890  26.770  22.748  1.00  0.00     0.065 C 
ATOM      8  C   UNL A   1      32.853  25.739  23.043  1.00  0.00     0.024 A 
ATOM      9  N   UNL A   1      33.198  24.469  23.464  1.00  0.00    -0.313 N 
ATOM     10  C   UNL A   1      30.997  24.474  23.110  1.00  0.00     0.033 A 
ATOM     11  C   UNL A   1      32.078  23.650  23.386  1.00  0.00     0.053 A 
BRANCH   9  12
ATOM     12  C   UNL A   1      34.509  24.068  23.809  1.00  0.00     0.049 A 
ATOM     13  C   UNL A   1      35.291  23.377  22.878  1.00  0.00     0.027 A 
ATOM     14  C   UNL A   1      35.001  24.385  25.078  1.00  0.00     0.065 A 
ATOM     15  C   UNL A   1      36.587  22.994  23.225  1.00  0.00     0.005 A 
ATOM     16  C   UNL A   1      36.281  23.966  25.414  1.00  0.00     0.125 A 
ATOM     17  C   UNL A   1      37.077  23.280  24.500  1.00  0.00     0.039 A 
ATOM     18  F   UNL A   1      36.749  24.203  26.645  1.00  0.00    -0.207 F 
ENDBRANCH   9  12
BRANCH  11  19
ATOM     19  C   UNL A   1      32.118  22.198  23.563  1.00  0.00    -0.001 A 
ATOM     20  C   UNL A   1      32.328  21.627  24.827  1.00  0.00     0.011 A 
ATOM     21  C   UNL A   1      32.050  21.368  22.436  1.00  0.00     0.011 A 
ATOM     22  C   UNL A   1      32.532  20.254  24.957  1.00  0.00     0.021 A 
ATOM     23  C   UNL A   1      32.249  19.992  22.559  1.00  0.00     0.021 A 
ATOM     24  C   UNL A   1      32.512  19.447  23.819  1.00  0.00     0.067 A 
BRANCH  24  25
ATOM     25  S   UNL A   1      32.824  17.705  23.968  1.00  0.00     0.175 S 
ATOM     26  C   UNL A   1      34.520  17.612  24.486  1.00  0.00     0.163 C 
ATOM     27  O   UNL A   1      31.990  17.230  25.089  1.00  0.00    -0.224 OA
ATOM     28  O   UNL A   1      32.719  17.110  22.679  1.00  0.00    -0.224 OA
ENDBRANCH  24  25
ENDBRANCH  11  19
ENDBRANCH   5   6
ENDBRANCH   3   5
ENDBRANCH   2   3
ENDBRANCH   1   2
BRANCH   1  29
ATOM     29  C   UNL A   1      32.153  29.773  25.615  1.00  0.00     0.275 C 
BRANCH  29  30
ATOM     30  O   UNL A   1      33.289  29.865  26.624  1.00  0.00    -0.458 OA
BRANCH  30  31
ATOM     31  C   UNL A   1      34.307  29.007  26.992  1.00  0.00     0.338 C 
ATOM     32  O   UNL A   1      34.280  27.815  26.712  1.00  0.00    -0.246 OA
BRANCH  31  33
ATOM     33  C   UNL A   1      35.536  29.672  27.806  1.00  0.00     0.060 A 
ATOM     34  C   UNL A   1      35.606  30.070  29.180  1.00  0.00     0.016 A 
ATOM     35  C   UNL A   1      36.758  29.872  27.246  1.00  0.00     0.016 A 
ATOM     36  C   UNL A   1      36.897  30.531  29.994  1.00  0.00     0.010 A 
ATOM     37  C   UNL A   1      37.932  30.329  28.069  1.00  0.00     0.010 A 
ATOM     38  C   UNL A   1      38.222  30.670  29.488  1.00  0.00    -0.014 A 
BRANCH  38  39
ATOM     39  C   UNL A   1      39.771  30.132  30.373  1.00  0.00     0.031 A 
ATOM     40  C   UNL A   1      40.685  31.050  29.635  1.00  0.00     0.074 A 
ATOM     41  C   UNL A   1      40.515  29.519  31.567  1.00  0.00     0.049 A 
ATOM     42  N   UNL A   1      40.140  32.218  29.405  1.00  0.00    -0.248 NA
ATOM     43  C   UNL A   1      42.109  31.185  29.814  1.00  0.00     0.031 C 
ATOM     44  C   UNL A   1      40.033  28.705  32.728  1.00  0.00     0.029 A 
ATOM     45  N   UNL A   1      42.022  29.617  32.118  1.00  0.00    -0.354 N 
ATOM     46  C   UNL A   1      40.617  32.853  30.503  1.00  0.00     0.074 A 
ATOM     47  C   UNL A   1      42.051  32.432  30.320  1.00  0.00     0.031 C 
ATOM     48  C   UNL A   1      40.988  28.404  33.681  1.00  0.00     0.029 A 
ATOM     49  C   UNL A   1      42.368  28.932  33.419  1.00  0.00     0.049 A 
ATOM     50  H   UNL A   1      42.707  30.114  31.615  1.00  0.00     0.167 HD
ATOM     51  C   UNL A   1      39.933  33.122  31.700  1.00  0.00     0.034 A 
ATOM     52  C   UNL A   1      43.475  28.735  34.393  1.00  0.00     0.034 A 
ATOM     53  C   UNL A   1      40.740  33.890  32.564  1.00  0.00     0.049 A 
ATOM     54  C   UNL A   1      43.264  30.132  34.890  1.00  0.00     0.074 A 
ATOM     55  C   UNL A   1      41.962  34.487  32.427  1.00  0.00     0.029 A 
ATOM     56  N   UNL A   1      40.487  33.854  33.911  1.00  0.00    -0.354 N 
ATOM     57  N   UNL A   1      42.647  30.478  35.982  1.00  0.00    -0.248 NA
ATOM     58  C   UNL A   1      44.059  31.181  34.231  1.00  0.00     0.031 C 
ATOM     59  C   UNL A   1      42.605  33.774  33.452  1.00  0.00     0.029 A 
ATOM     60  C   UNL A   1      41.656  33.377  34.418  1.00  0.00     0.049 A 
ATOM     61  H   UNL A   1      39.665  34.110  34.391  1.00  0.00     0.167 HD
ATOM     62  C   UNL A   1      42.728  31.846  35.873  1.00  0.00     0.074 A 
ATOM     63  C   UNL A   1      43.959  32.111  35.180  1.00  0.00     0.031 C 
ATOM     64  C   UNL A   1      41.580  32.502  35.563  1.00  0.00     0.034 A 
BRANCH  51  65
ATOM     65  C   UNL A   1      38.458  32.784  32.325  1.00  0.00     0.023 A 
ATOM     66  C   UNL A   1      38.051  31.634  33.074  1.00  0.00     0.012 A 
ATOM     67  C   UNL A   1      37.397  33.669  32.044  1.00  0.00     0.148 A 
ATOM     68  C   UNL A   1      36.697  31.261  33.265  1.00  0.00     0.002 A 
ATOM     69  C   UNL A   1      36.063  33.368  32.368  1.00  0.00     0.091 A 
ATOM     70  F   UNL A   1      37.689  34.813  31.411  1.00  0.00    -0.205 F 
ATOM     71  C   UNL A   1      35.695  32.130  32.893  1.00  0.00     0.022 A 
BRANCH  69  72
ATOM     72  S   UNL A   1      34.795  34.617  32.178  1.00  0.00     0.127 S 
ATOM     73  O   UNL A   1      35.367  35.740  32.916  1.00  0.00    -0.237 OA
ATOM     74  O   UNL A   1      34.718  34.813  30.731  1.00  0.00    -0.237 OA
ATOM     75  O   UNL A   1      33.603  34.009  32.762  1.00  0.00    -0.744 OA
ENDBRANCH  69  72
ENDBRANCH  51  65
BRANCH  52  76
ATOM     76  C   UNL A   1      45.004  28.636  35.309  1.00  0.00     0.023 A 
ATOM     77  C   UNL A   1      46.212  28.539  34.552  1.00  0.00     0.012 A 
ATOM     78  C   UNL A   1      45.321  28.399  36.748  1.00  0.00     0.148 A 
ATOM     79  C   UNL A   1      47.528  28.302  35.126  1.00  0.00     0.002 A 
ATOM     80  C   UNL A   1      46.620  28.117  37.299  1.00  0.00     0.091 A 
ATOM     81  F   UNL A   1      44.384  28.489  37.695  1.00  0.00    -0.205 F 
ATOM     82  C   UNL A   1      47.736  28.089  36.486  1.00  0.00     0.022 A 
BRANCH  80  83
ATOM     83  S   UNL A   1      46.886  27.772  39.093  1.00  0.00     0.127 S 
ATOM     84  O   UNL A   1      48.335  27.577  39.203  1.00  0.00    -0.237 OA
ATOM     85  O   UNL A   1      46.406  29.004  39.716  1.00  0.00    -0.237 OA
ATOM     86  O   UNL A   1      46.108  26.571  39.374  1.00  0.00    -0.744 OA
ENDBRANCH  80  83
ENDBRANCH  52  76
BRANCH  64  87
ATOM     87  C   UNL A   1      40.384  31.965  36.324  1.00  0.00     0.023 A 
ATOM     88  C   UNL A   1      39.762  30.872  35.691  1.00  0.00     0.012 A 
ATOM     89  C   UNL A   1      39.703  32.569  37.414  1.00  0.00     0.148 A 
ATOM     90  C   UNL A   1      38.521  30.394  36.100  1.00  0.00     0.002 A 
ATOM     91  C   UNL A   1      38.440  32.099  37.813  1.00  0.00     0.091 A 
ATOM     92  F   UNL A   1      40.275  33.605  38.032  1.00  0.00    -0.205 F 
ATOM     93  C   UNL A   1      37.857  31.007  37.154  1.00  0.00     0.022 A 
BRANCH  91  94
ATOM     94  S   UNL A   1      37.379  32.906  39.042  1.00  0.00     0.127 S 
ATOM     95  O   UNL A   1      36.145  33.149  38.289  1.00  0.00    -0.237 OA
ATOM     96  O   UNL A   1      37.249  31.886  40.080  1.00  0.00    -0.237 OA
ATOM     97  O   UNL A   1      38.068  34.124  39.448  1.00  0.00    -0.744 OA
ENDBRANCH  91  94
ENDBRANCH  64  87
ENDBRANCH  38  39
ENDBRANCH  31  33
ENDBRANCH  30  31
ENDBRANCH  29  30
ENDBRANCH   1  29
TORSDOF 18
ENDMDL
MODEL 2
REMARK VINA RESULT:     -11.4      4.553      7.059
REMARK SMILES Cc1c(CC(=O)OCCOC(=O)c2ccc(-c3c4nc(c(-c5cccc(S(=O)(=O)[O-])c5F)c5ccc([nH]5)c(-c5cccc(S(=O)(=O)[O-])c5F)c5nc(c(-c6cccc(S(=O)(=O)[O-])c6F)c6ccc3[nH]6)C=C5)C=C4)cc2)cc(-c2ccc(S(C)(=O)=O)cc2)n1-c1cccc(F)c1
REMARK SMILES IDX 8 1 7 2 5 3 6 4 4 5 3 6 1 7 2 8 88 9 76 10 77 11 89 12 90 13
REMARK SMILES IDX 95 14 91 15 93 16 92 17 94 18 78 19 79 20 87 21 80 22 86 23
REMARK SMILES IDX 81 24 82 25 83 26 84 27 85 28 9 29 10 30 11 31 12 32 13 33
REMARK SMILES IDX 14 34 75 35 15 36 74 37 16 38 17 39 18 40 68 41 19 42 73 43
REMARK SMILES IDX 67 44 69 45 20 46 72 47 66 48 65 49 21 51 53 52 33 53 52 54
REMARK SMILES IDX 34 55 37 56 51 57 70 58 35 59 36 60 50 62 71 63 38 64 22 65
REMARK SMILES IDX 23 66 31 67 24 68 26 69 32 70 25 71 27 72 28 73 29 74 30 75
REMARK SMILES IDX 54 76 55 77 63 78 56 79 58 80 64 81 57 82 59 83 60 84 61 85
REMARK SMILES IDX 62 86 39 87 40 88 48 89 41 90 43 91 49 92 42 93 44 94 45 95
REMARK SMILES IDX 46 96 47 97
REMARK H PARENT 69 50 37 61
REMARK Flexibility Score: inf
ROOT
ATOM      1  C   UNL A   1      31.550  28.776  25.132  1.00  0.00     0.274 C 
ENDROOT
BRANCH   1   2
ATOM      2  O   UNL A   1      31.061  28.905  23.791  1.00  0.00    -0.462 OA
BRANCH   2   3
ATOM      3  C   UNL A   1      30.104  28.053  23.350  1.00  0.00     0.310 C 
ATOM      4  O   UNL A   1      28.915  28.116  23.652  1.00  0.00    -0.252 OA
BRANCH   3   5
ATOM      5  C   UNL A   1      30.647  27.073  22.325  1.00  0.00     0.160 C 
BRANCH   5   6
ATOM      6  C   UNL A   1      31.452  25.905  22.844  1.00  0.00    -0.015 A 
ATOM      7  C   UNL A   1      33.868  26.889  22.880  1.00  0.00     0.065 C 
ATOM      8  C   UNL A   1      32.819  25.850  23.094  1.00  0.00     0.024 A 
ATOM      9  N   UNL A   1      33.140  24.582  23.537  1.00  0.00    -0.313 N 
ATOM     10  C   UNL A   1      30.972  24.573  23.019  1.00  0.00     0.033 A 
ATOM     11  C   UNL A   1      32.035  23.756  23.374  1.00  0.00     0.053 A 
BRANCH   9  12
ATOM     12  C   UNL A   1      34.425  24.189  23.979  1.00  0.00     0.049 A 
ATOM     13  C   UNL A   1      34.865  24.563  25.253  1.00  0.00     0.027 A 
ATOM     14  C   UNL A   1      35.226  23.420  23.130  1.00  0.00     0.065 A 
ATOM     15  C   UNL A   1      36.130  24.162  25.682  1.00  0.00     0.005 A 
ATOM     16  C   UNL A   1      36.493  23.060  23.565  1.00  0.00     0.125 A 
ATOM     17  C   UNL A   1      36.949  23.418  24.831  1.00  0.00     0.039 A 
ATOM     18  F   UNL A   1      37.301  22.377  22.745  1.00  0.00    -0.207 F 
ENDBRANCH   9  12
BRANCH  11  19
ATOM     19  C   UNL A   1      32.072  22.303  23.550  1.00  0.00    -0.001 A 
ATOM     20  C   UNL A   1      32.270  21.731  24.814  1.00  0.00     0.011 A 
ATOM     21  C   UNL A   1      32.013  21.474  22.421  1.00  0.00     0.011 A 
ATOM     22  C   UNL A   1      32.472  20.357  24.945  1.00  0.00     0.021 A 
ATOM     23  C   UNL A   1      32.210  20.098  22.544  1.00  0.00     0.021 A 
ATOM     24  C   UNL A   1      32.461  19.551  23.806  1.00  0.00     0.067 A 
BRANCH  24  25
ATOM     25  S   UNL A   1      32.770  17.809  23.957  1.00  0.00     0.175 S 
ATOM     26  C   UNL A   1      34.458  17.714  24.497  1.00  0.00     0.163 C 
ATOM     27  O   UNL A   1      31.920  17.333  25.065  1.00  0.00    -0.224 OA
ATOM     28  O   UNL A   1      32.681  17.216  22.665  1.00  0.00    -0.224 OA
ENDBRANCH  24  25
ENDBRANCH  11  19
ENDBRANCH   5   6
ENDBRANCH   3   5
ENDBRANCH   2   3
ENDBRANCH   1   2
BRANCH   1  29
ATOM     29  C   UNL A   1      32.999  29.342  25.264  1.00  0.00     0.275 C 
BRANCH  29  30
ATOM     30  O   UNL A   1      33.895  29.329  26.494  1.00  0.00    -0.458 OA
BRANCH  30  31
ATOM     31  C   UNL A   1      34.249  30.287  27.425  1.00  0.00     0.338 C 
ATOM     32  O   UNL A   1      33.536  31.255  27.659  1.00  0.00    -0.246 OA
BRANCH  31  33
ATOM     33  C   UNL A   1      35.653  30.048  28.191  1.00  0.00     0.060 A 
ATOM     34  C   UNL A   1      36.986  30.050  27.667  1.00  0.00     0.016 A 
ATOM     35  C   UNL A   1      35.730  29.880  29.537  1.00  0.00     0.016 A 
ATOM     36  C   UNL A   1      38.353  30.015  28.486  1.00  0.00     0.010 A 
ATOM     37  C   UNL A   1      37.057  29.835  30.247  1.00  0.00     0.010 A 
ATOM     38  C   UNL A   1      38.500  29.934  29.901  1.00  0.00    -0.014 A 
BRANCH  38  39
ATOM     39  C   UNL A   1      39.728  30.906  30.910  1.00  0.00     0.031 A 
ATOM     40  C   UNL A   1      39.541  30.120  32.162  1.00  0.00     0.074 A 
ATOM     41  C   UNL A   1      40.956  31.816  31.055  1.00  0.00     0.049 A 
ATOM     42  N   UNL A   1      39.378  28.841  31.929  1.00  0.00    -0.248 NA
ATOM     43  C   UNL A   1      40.213  30.320  33.421  1.00  0.00     0.031 C 
ATOM     44  C   UNL A   1      41.699  32.650  30.058  1.00  0.00     0.029 A 
ATOM     45  N   UNL A   1      41.990  32.119  32.247  1.00  0.00    -0.354 N 
ATOM     46  C   UNL A   1      40.676  28.473  32.060  1.00  0.00     0.074 A 
ATOM     47  C   UNL A   1      40.907  29.167  33.376  1.00  0.00     0.031 C 
ATOM     48  C   UNL A   1      42.838  33.273  30.534  1.00  0.00     0.029 A 
ATOM     49  C   UNL A   1      43.168  33.027  31.978  1.00  0.00     0.049 A 
ATOM     50  H   UNL A   1      41.857  31.721  33.139  1.00  0.00     0.167 HD
ATOM     51  C   UNL A   1      41.601  28.221  31.032  1.00  0.00     0.034 A 
ATOM     52  C   UNL A   1      44.398  33.584  32.602  1.00  0.00     0.034 A 
ATOM     53  C   UNL A   1      42.821  27.766  31.573  1.00  0.00     0.049 A 
ATOM     54  C   UNL A   1      45.062  32.252  32.442  1.00  0.00     0.074 A 
ATOM     55  C   UNL A   1      43.225  27.435  32.835  1.00  0.00     0.029 A 
ATOM     56  N   UNL A   1      43.968  27.921  30.838  1.00  0.00    -0.354 N 
ATOM     57  N   UNL A   1      45.928  31.925  31.528  1.00  0.00    -0.248 NA
ATOM     58  C   UNL A   1      44.933  31.323  33.577  1.00  0.00     0.031 C 
ATOM     59  C   UNL A   1      44.243  28.398  32.936  1.00  0.00     0.029 A 
ATOM     60  C   UNL A   1      44.733  28.703  31.648  1.00  0.00     0.049 A 
ATOM     61  H   UNL A   1      44.184  27.558  29.947  1.00  0.00     0.167 HD
ATOM     62  C   UNL A   1      46.127  30.606  31.854  1.00  0.00     0.074 A 
ATOM     63  C   UNL A   1      45.958  30.526  33.279  1.00  0.00     0.031 C 
ATOM     64  C   UNL A   1      45.586  29.682  31.019  1.00  0.00     0.034 A 
BRANCH  51  65
ATOM     65  C   UNL A   1      41.612  28.310  29.398  1.00  0.00     0.023 A 
ATOM     66  C   UNL A   1      41.832  29.457  28.571  1.00  0.00     0.012 A 
ATOM     67  C   UNL A   1      41.283  27.150  28.666  1.00  0.00     0.148 A 
ATOM     68  C   UNL A   1      41.477  29.515  27.200  1.00  0.00     0.002 A 
ATOM     69  C   UNL A   1      41.075  27.174  27.276  1.00  0.00     0.091 A 
ATOM     70  F   UNL A   1      41.131  26.006  29.345  1.00  0.00    -0.205 F 
ATOM     71  C   UNL A   1      41.079  28.366  26.552  1.00  0.00     0.022 A 
BRANCH  69  72
ATOM     72  S   UNL A   1      40.870  25.640  26.378  1.00  0.00     0.127 S 
ATOM     73  O   UNL A   1      41.127  26.061  25.003  1.00  0.00    -0.237 OA
ATOM     74  O   UNL A   1      41.893  24.766  26.950  1.00  0.00    -0.237 OA
ATOM     75  O   UNL A   1      39.501  25.231  26.676  1.00  0.00    -0.744 OA
ENDBRANCH  69  72
ENDBRANCH  51  65
BRANCH  52  76
ATOM     76  C   UNL A   1      45.736  34.130  33.649  1.00  0.00     0.023 A 
ATOM     77  C   UNL A   1      45.425  34.396  35.018  1.00  0.00     0.012 A 
ATOM     78  C   UNL A   1      47.122  34.609  33.371  1.00  0.00     0.148 A 
ATOM     79  C   UNL A   1      46.349  34.987  35.974  1.00  0.00     0.002 A 
ATOM     80  C   UNL A   1      48.011  35.237  34.314  1.00  0.00     0.091 A 
ATOM     81  F   UNL A   1      47.697  34.434  32.180  1.00  0.00    -0.205 F 
ATOM     82  C   UNL A   1      47.632  35.408  35.630  1.00  0.00     0.022 A 
BRANCH  80  83
ATOM     83  S   UNL A   1      49.686  35.853  33.842  1.00  0.00     0.127 S 
ATOM     84  O   UNL A   1      50.375  34.657  33.347  1.00  0.00    -0.237 OA
ATOM     85  O   UNL A   1      49.371  36.828  32.799  1.00  0.00    -0.237 OA
ATOM     86  O   UNL A   1      50.257  36.395  35.069  1.00  0.00    -0.744 OA
ENDBRANCH  80  83
ENDBRANCH  52  76
BRANCH  64  87
ATOM     87  C   UNL A   1      45.777  30.041  29.559  1.00  0.00     0.023 A 
ATOM     88  C   UNL A   1      44.881  31.027  29.103  1.00  0.00     0.012 A 
ATOM     89  C   UNL A   1      46.545  29.350  28.585  1.00  0.00     0.148 A 
ATOM     90  C   UNL A   1      44.734  31.319  27.751  1.00  0.00     0.002 A 
ATOM     91  C   UNL A   1      46.381  29.631  27.217  1.00  0.00     0.091 A 
ATOM     92  F   UNL A   1      47.404  28.413  28.993  1.00  0.00    -0.205 F 
ATOM     93  C   UNL A   1      45.477  30.622  26.808  1.00  0.00     0.022 A 
BRANCH  91  94
ATOM     94  S   UNL A   1      47.140  28.684  25.871  1.00  0.00     0.127 S 
ATOM     95  O   UNL A   1      46.657  27.323  26.125  1.00  0.00    -0.237 OA
ATOM     96  O   UNL A   1      46.571  29.302  24.676  1.00  0.00    -0.237 OA
ATOM     97  O   UNL A   1      48.582  28.831  26.022  1.00  0.00    -0.744 OA
ENDBRANCH  91  94
ENDBRANCH  64  87
ENDBRANCH  38  39
ENDBRANCH  31  33
ENDBRANCH  30  31
ENDBRANCH  29  30
ENDBRANCH   1  29
TORSDOF 18
ENDMDL
MODEL 3
REMARK VINA RESULT:     -11.0      5.986     11.264
REMARK SMILES Cc1c(CC(=O)OCCOC(=O)c2ccc(-c3c4nc(c(-c5cccc(S(=O)(=O)[O-])c5F)c5ccc([nH]5)c(-c5cccc(S(=O)(=O)[O-])c5F)c5nc(c(-c6cccc(S(=O)(=O)[O-])c6F)c6ccc3[nH]6)C=C5)C=C4)cc2)cc(-c2ccc(S(C)(=O)=O)cc2)n1-c1cccc(F)c1
REMARK SMILES IDX 8 1 7 2 5 3 6 4 4 5 3 6 1 7 2 8 88 9 76 10 77 11 89 12 90 13
REMARK SMILES IDX 95 14 91 15 93 16 92 17 94 18 78 19 79 20 87 21 80 22 86 23
REMARK SMILES IDX 81 24 82 25 83 26 84 27 85 28 9 29 10 30 11 31 12 32 13 33
REMARK SMILES IDX 14 34 75 35 15 36 74 37 16 38 17 39 18 40 68 41 19 42 73 43
REMARK SMILES IDX 67 44 69 45 20 46 72 47 66 48 65 49 21 51 53 52 33 53 52 54
REMARK SMILES IDX 34 55 37 56 51 57 70 58 35 59 36 60 50 62 71 63 38 64 22 65
REMARK SMILES IDX 23 66 31 67 24 68 26 69 32 70 25 71 27 72 28 73 29 74 30 75
REMARK SMILES IDX 54 76 55 77 63 78 56 79 58 80 64 81 57 82 59 83 60 84 61 85
REMARK SMILES IDX 62 86 39 87 40 88 48 89 41 90 43 91 49 92 42 93 44 94 45 95
REMARK SMILES IDX 46 96 47 97
REMARK H PARENT 69 50 37 61
REMARK Flexibility Score: inf
ROOT
ATOM      1  C   UNL A   1      48.600  30.777  26.897  1.00  0.00     0.274 C 
ENDROOT
BRANCH   1   2
ATOM      2  O   UNL A   1      47.649  29.738  27.160  1.00  0.00    -0.462 OA
BRANCH   2   3
ATOM      3  C   UNL A   1      46.978  29.178  26.125  1.00  0.00     0.310 C 
ATOM      4  O   UNL A   1      46.411  29.805  25.234  1.00  0.00    -0.252 OA
BRANCH   3   5
ATOM      5  C   UNL A   1      47.113  27.665  26.115  1.00  0.00     0.160 C 
BRANCH   5   6
ATOM      6  C   UNL A   1      46.158  26.880  26.982  1.00  0.00    -0.015 A 
ATOM      7  C   UNL A   1      44.042  26.739  25.463  1.00  0.00     0.065 C 
ATOM      8  C   UNL A   1      44.862  26.476  26.682  1.00  0.00     0.024 A 
ATOM      9  N   UNL A   1      44.342  25.802  27.769  1.00  0.00    -0.313 N 
ATOM     10  C   UNL A   1      46.360  26.546  28.355  1.00  0.00     0.033 A 
ATOM     11  C   UNL A   1      45.208  25.950  28.846  1.00  0.00     0.053 A 
BRANCH   9  12
ATOM     12  C   UNL A   1      43.079  25.165  27.788  1.00  0.00     0.049 A 
ATOM     13  C   UNL A   1      42.966  23.837  27.364  1.00  0.00     0.027 A 
ATOM     14  C   UNL A   1      41.969  25.879  28.246  1.00  0.00     0.065 A 
ATOM     15  C   UNL A   1      41.718  23.215  27.395  1.00  0.00     0.005 A 
ATOM     16  C   UNL A   1      40.731  25.251  28.238  1.00  0.00     0.125 A 
ATOM     17  C   UNL A   1      40.597  23.928  27.823  1.00  0.00     0.039 A 
ATOM     18  F   UNL A   1      39.644  25.936  28.613  1.00  0.00    -0.207 F 
ENDBRANCH   9  12
BRANCH  11  19
ATOM     19  C   UNL A   1      44.885  25.540  30.213  1.00  0.00    -0.001 A 
ATOM     20  C   UNL A   1      45.072  26.411  31.296  1.00  0.00     0.011 A 
ATOM     21  C   UNL A   1      44.482  24.219  30.455  1.00  0.00     0.011 A 
ATOM     22  C   UNL A   1      44.923  25.954  32.605  1.00  0.00     0.021 A 
ATOM     23  C   UNL A   1      44.325  23.756  31.762  1.00  0.00     0.021 A 
ATOM     24  C   UNL A   1      44.570  24.624  32.831  1.00  0.00     0.067 A 
BRANCH  24  25
ATOM     25  S   UNL A   1      44.429  24.019  34.495  1.00  0.00     0.175 S 
ATOM     26  C   UNL A   1      44.391  22.254  34.312  1.00  0.00     0.163 C 
ATOM     27  O   UNL A   1      45.694  24.370  35.170  1.00  0.00    -0.224 OA
ATOM     28  O   UNL A   1      43.178  24.439  35.029  1.00  0.00    -0.224 OA
ENDBRANCH  24  25
ENDBRANCH  11  19
ENDBRANCH   5   6
ENDBRANCH   3   5
ENDBRANCH   2   3
ENDBRANCH   1   2
BRANCH   1  29
ATOM     29  C   UNL A   1      49.716  30.815  27.989  1.00  0.00     0.275 C 
BRANCH  29  30
ATOM     30  O   UNL A   1      49.578  31.221  29.449  1.00  0.00    -0.458 OA
BRANCH  30  31
ATOM     31  C   UNL A   1      49.238  30.537  30.600  1.00  0.00     0.338 C 
ATOM     32  O   UNL A   1      50.086  30.134  31.387  1.00  0.00    -0.246 OA
BRANCH  31  33
ATOM     33  C   UNL A   1      47.657  30.307  30.849  1.00  0.00     0.060 A 
ATOM     34  C   UNL A   1      46.821  30.805  31.901  1.00  0.00     0.016 A 
ATOM     35  C   UNL A   1      46.873  29.623  29.976  1.00  0.00     0.016 A 
ATOM     36  C   UNL A   1      45.232  30.727  31.999  1.00  0.00     0.010 A 
ATOM     37  C   UNL A   1      45.377  29.572  30.138  1.00  0.00     0.010 A 
ATOM     38  C   UNL A   1      44.347  30.106  31.070  1.00  0.00    -0.014 A 
BRANCH  38  39
ATOM     39  C   UNL A   1      42.722  30.815  30.498  1.00  0.00     0.031 A 
ATOM     40  C   UNL A   1      42.200  29.539  29.929  1.00  0.00     0.074 A 
ATOM     41  C   UNL A   1      41.590  31.850  30.559  1.00  0.00     0.049 A 
ATOM     42  N   UNL A   1      42.523  28.500  30.657  1.00  0.00    -0.248 NA
ATOM     43  C   UNL A   1      40.925  29.332  29.292  1.00  0.00     0.031 C 
ATOM     44  C   UNL A   1      41.507  33.196  31.207  1.00  0.00     0.029 A 
ATOM     45  N   UNL A   1      40.050  31.852  30.100  1.00  0.00    -0.354 N 
ATOM     46  C   UNL A   1      41.398  28.459  31.412  1.00  0.00     0.074 A 
ATOM     47  C   UNL A   1      40.431  28.537  30.261  1.00  0.00     0.031 C 
ATOM     48  C   UNL A   1      40.273  33.816  31.138  1.00  0.00     0.029 A 
ATOM     49  C   UNL A   1      39.194  33.054  30.425  1.00  0.00     0.049 A 
ATOM     50  H   UNL A   1      39.671  31.084  29.613  1.00  0.00     0.167 HD
ATOM     51  C   UNL A   1      41.231  28.931  32.725  1.00  0.00     0.034 A 
ATOM     52  C   UNL A   1      37.804  33.576  30.333  1.00  0.00     0.034 A 
ATOM     53  C   UNL A   1      39.942  28.615  33.199  1.00  0.00     0.049 A 
ATOM     54  C   UNL A   1      37.407  32.670  31.456  1.00  0.00     0.074 A 
ATOM     55  C   UNL A   1      38.908  27.879  32.693  1.00  0.00     0.029 A 
ATOM     56  N   UNL A   1      39.409  29.366  34.215  1.00  0.00    -0.354 N 
ATOM     57  N   UNL A   1      37.228  33.013  32.699  1.00  0.00    -0.248 NA
ATOM     58  C   UNL A   1      36.910  31.338  31.072  1.00  0.00     0.031 C 
ATOM     59  C   UNL A   1      37.971  28.925  32.652  1.00  0.00     0.029 A 
ATOM     60  C   UNL A   1      38.285  29.879  33.643  1.00  0.00     0.049 A 
ATOM     61  H   UNL A   1      39.752  29.501  35.129  1.00  0.00     0.167 HD
ATOM     62  C   UNL A   1      36.937  31.785  33.242  1.00  0.00     0.074 A 
ATOM     63  C   UNL A   1      36.272  31.046  32.205  1.00  0.00     0.031 C 
ATOM     64  C   UNL A   1      37.897  31.218  34.017  1.00  0.00     0.034 A 
BRANCH  51  65
ATOM     65  C   UNL A   1      42.146  29.729  33.824  1.00  0.00     0.023 A 
ATOM     66  C   UNL A   1      42.259  31.140  34.031  1.00  0.00     0.012 A 
ATOM     67  C   UNL A   1      43.017  28.975  34.638  1.00  0.00     0.148 A 
ATOM     68  C   UNL A   1      43.321  31.746  34.748  1.00  0.00     0.002 A 
ATOM     69  C   UNL A   1      43.977  29.578  35.469  1.00  0.00     0.091 A 
ATOM     70  F   UNL A   1      42.934  27.640  34.572  1.00  0.00    -0.205 F 
ATOM     71  C   UNL A   1      44.197  30.955  35.459  1.00  0.00     0.022 A 
BRANCH  69  72
ATOM     72  S   UNL A   1      44.904  28.582  36.630  1.00  0.00     0.127 S 
ATOM     73  O   UNL A   1      45.616  29.600  37.398  1.00  0.00    -0.237 OA
ATOM     74  O   UNL A   1      43.868  27.868  37.376  1.00  0.00    -0.237 OA
ATOM     75  O   UNL A   1      45.730  27.723  35.787  1.00  0.00    -0.744 OA
ENDBRANCH  69  72
ENDBRANCH  51  65
BRANCH  52  76
ATOM     76  C   UNL A   1      36.085  33.929  30.006  1.00  0.00     0.023 A 
ATOM     77  C   UNL A   1      35.606  33.670  28.685  1.00  0.00     0.012 A 
ATOM     78  C   UNL A   1      35.033  34.673  30.759  1.00  0.00     0.148 A 
ATOM     79  C   UNL A   1      34.283  34.034  28.200  1.00  0.00     0.002 A 
ATOM     80  C   UNL A   1      33.745  35.071  30.254  1.00  0.00     0.091 A 
ATOM     81  F   UNL A   1      35.189  34.996  32.044  1.00  0.00    -0.205 F 
ATOM     82  C   UNL A   1      33.357  34.731  28.973  1.00  0.00     0.022 A 
BRANCH  80  83
ATOM     83  S   UNL A   1      32.543  36.051  31.256  1.00  0.00     0.127 S 
ATOM     84  O   UNL A   1      33.318  37.213  31.699  1.00  0.00    -0.237 OA
ATOM     85  O   UNL A   1      31.510  36.368  30.272  1.00  0.00    -0.237 OA
ATOM     86  O   UNL A   1      32.137  35.167  32.343  1.00  0.00    -0.744 OA
ENDBRANCH  80  83
ENDBRANCH  52  76
BRANCH  64  87
ATOM     87  C   UNL A   1      38.553  32.217  34.949  1.00  0.00     0.023 A 
ATOM     88  C   UNL A   1      39.432  33.100  34.293  1.00  0.00     0.012 A 
ATOM     89  C   UNL A   1      38.574  32.201  36.368  1.00  0.00     0.148 A 
ATOM     90  C   UNL A   1      40.305  33.926  34.996  1.00  0.00     0.002 A 
ATOM     91  C   UNL A   1      39.471  33.020  37.077  1.00  0.00     0.091 A 
ATOM     92  F   UNL A   1      37.747  31.375  37.012  1.00  0.00    -0.205 F 
ATOM     93  C   UNL A   1      40.330  33.885  36.383  1.00  0.00     0.022 A 
BRANCH  91  94
ATOM     94  S   UNL A   1      39.744  32.944  38.868  1.00  0.00     0.127 S 
ATOM     95  O   UNL A   1      39.793  34.361  39.243  1.00  0.00    -0.237 OA
ATOM     96  O   UNL A   1      38.557  32.243  39.350  1.00  0.00    -0.237 OA
ATOM     97  O   UNL A   1      41.006  32.242  39.065  1.00  0.00    -0.744 OA
ENDBRANCH  91  94
ENDBRANCH  64  87
ENDBRANCH  38  39
ENDBRANCH  31  33
ENDBRANCH  30  31
ENDBRANCH  29  30
ENDBRANCH   1  29
TORSDOF 18
ENDMDL
