MODEL 1
REMARK VINA RESULT:     -11.1      0.000      0.000
REMARK SMILES O=C(COc1ncc(C(F)(F)F)cc1Cl)OCCOC(=O)c1ccc(-c2c3nc(c(-c4cccc(S(=O)(=O)[O-])c4F)c4ccc([nH]4)c(-c4cccc(S(=O)(=O)[O-])c4F)c4nc(c(-c5cccc(S(=O)(=O)[O-])c5F)c5ccc2[nH]5)C=C4)C=C3)cc1
REMARK SMILES IDX 17 1 16 2 2 3 1 4 3 5 4 6 5 7 6 8 14 9 7 10 13 11 15 12 8 13
REMARK SMILES IDX 9 14 10 15 11 16 12 17 18 18 19 19 20 20 21 21 22 22 23 23
REMARK SMILES IDX 84 24 24 25 83 26 25 27 26 28 27 29 77 30 28 31 82 32 76 33
REMARK SMILES IDX 78 34 29 35 81 36 75 37 74 38 30 40 62 41 42 42 61 43 43 44
REMARK SMILES IDX 46 45 60 46 79 47 44 48 45 49 59 51 80 52 47 53 31 54 32 55
REMARK SMILES IDX 40 56 33 57 35 58 41 59 34 60 36 61 37 62 38 63 39 64 63 65
REMARK SMILES IDX 64 66 72 67 65 68 67 69 73 70 66 71 68 72 69 73 70 74 71 75
REMARK SMILES IDX 48 76 49 77 57 78 50 79 52 80 58 81 51 82 53 83 54 84 55 85
REMARK SMILES IDX 56 86
REMARK H PARENT 78 39 46 50
REMARK Flexibility Score: inf
ROOT
ATOM      1  C   UNL A   1      31.950  30.079  25.824  1.00  0.00     0.274 C 
ENDROOT
BRANCH   1   2
ATOM      2  O   UNL A   1      33.271  29.696  25.384  1.00  0.00    -0.460 OA
BRANCH   2   3
ATOM      3  C   UNL A   1      33.590  28.443  24.971  1.00  0.00     0.344 C 
ATOM      4  O   UNL A   1      33.698  27.527  25.785  1.00  0.00    -0.248 OA
BRANCH   3   5
ATOM      5  C   UNL A   1      33.739  28.192  23.480  1.00  0.00     0.353 C 
BRANCH   5   6
ATOM      6  O   UNL A   1      32.822  27.184  23.063  1.00  0.00    -0.465 OA
BRANCH   6   7
ATOM      7  C   UNL A   1      31.561  27.725  23.042  1.00  0.00     0.233 A 
ATOM      8  N   UNL A   1      31.468  28.940  22.455  1.00  0.00    -0.220 NA
ATOM      9  C   UNL A   1      30.487  27.049  23.607  1.00  0.00     0.103 A 
ATOM     10  C   UNL A   1      30.237  29.497  22.393  1.00  0.00     0.128 A 
ATOM     11  C   UNL A   1      29.228  27.634  23.504  1.00  0.00     0.041 A 
ATOM     12  Cl  UNL A   1      30.653  25.540  24.413  1.00  0.00    -0.078 Cl
ATOM     13  C   UNL A   1      29.090  28.883  22.881  1.00  0.00     0.076 A 
BRANCH  13  14
ATOM     14  C   UNL A   1      27.766  29.573  22.783  1.00  0.00     0.417 C 
ATOM     15  F   UNL A   1      27.650  30.589  23.680  1.00  0.00    -0.166 F 
ATOM     16  F   UNL A   1      27.526  30.113  21.560  1.00  0.00    -0.166 F 
ATOM     17  F   UNL A   1      26.717  28.740  23.034  1.00  0.00    -0.166 F 
ENDBRANCH  13  14
ENDBRANCH   6   7
ENDBRANCH   5   6
ENDBRANCH   3   5
ENDBRANCH   2   3
ENDBRANCH   1   2
BRANCH   1  18
ATOM     18  C   UNL A   1      31.985  31.444  26.515  1.00  0.00     0.275 C 
BRANCH  18  19
ATOM     19  O   UNL A   1      32.847  31.397  27.665  1.00  0.00    -0.458 OA
BRANCH  19  20
ATOM     20  C   UNL A   1      33.789  32.373  27.729  1.00  0.00     0.338 C 
ATOM     21  O   UNL A   1      33.604  33.573  27.620  1.00  0.00    -0.246 OA
BRANCH  20  22
ATOM     22  C   UNL A   1      35.074  31.771  28.140  1.00  0.00     0.060 A 
ATOM     23  C   UNL A   1      35.116  30.392  28.380  1.00  0.00     0.016 A 
ATOM     24  C   UNL A   1      36.223  32.551  28.298  1.00  0.00     0.016 A 
ATOM     25  C   UNL A   1      36.300  29.795  28.815  1.00  0.00     0.010 A 
ATOM     26  C   UNL A   1      37.406  31.952  28.740  1.00  0.00     0.010 A 
ATOM     27  C   UNL A   1      37.442  30.578  29.032  1.00  0.00    -0.014 A 
BRANCH  27  28
ATOM     28  C   UNL A   1      38.624  29.999  29.713  1.00  0.00     0.031 A 
ATOM     29  C   UNL A   1      38.991  30.506  31.081  1.00  0.00     0.074 A 
ATOM     30  C   UNL A   1      39.375  29.054  29.120  1.00  0.00     0.049 A 
ATOM     31  N   UNL A   1      39.983  30.154  31.857  1.00  0.00    -0.248 NA
ATOM     32  C   UNL A   1      38.129  31.557  31.646  1.00  0.00     0.031 C 
ATOM     33  C   UNL A   1      39.136  28.491  27.793  1.00  0.00     0.029 A 
ATOM     34  N   UNL A   1      40.514  28.422  29.555  1.00  0.00    -0.354 N 
ATOM     35  C   UNL A   1      39.875  30.948  32.991  1.00  0.00     0.074 A 
ATOM     36  C   UNL A   1      38.734  31.816  32.795  1.00  0.00     0.031 C 
ATOM     37  C   UNL A   1      40.115  27.613  27.510  1.00  0.00     0.029 A 
ATOM     38  C   UNL A   1      41.056  27.564  28.628  1.00  0.00     0.049 A 
ATOM     39  H   UNL A   1      40.906  28.570  30.446  1.00  0.00     0.167 HD
ATOM     40  C   UNL A   1      40.641  30.941  34.107  1.00  0.00     0.034 A 
ATOM     41  C   UNL A   1      42.187  26.831  28.675  1.00  0.00     0.034 A 
ATOM     42  C   UNL A   1      41.768  30.072  34.312  1.00  0.00     0.049 A 
ATOM     43  C   UNL A   1      43.035  26.858  29.922  1.00  0.00     0.074 A 
ATOM     44  C   UNL A   1      42.575  29.959  35.428  1.00  0.00     0.029 A 
ATOM     45  N   UNL A   1      42.256  29.179  33.372  1.00  0.00    -0.354 N 
ATOM     46  N   UNL A   1      42.837  27.505  31.045  1.00  0.00    -0.248 NA
ATOM     47  C   UNL A   1      44.247  26.022  29.921  1.00  0.00     0.031 C 
ATOM     48  C   UNL A   1      43.569  29.012  35.155  1.00  0.00     0.029 A 
ATOM     49  C   UNL A   1      43.363  28.518  33.878  1.00  0.00     0.049 A 
ATOM     50  H   UNL A   1      41.873  29.034  32.477  1.00  0.00     0.167 HD
ATOM     51  C   UNL A   1      43.870  27.122  31.896  1.00  0.00     0.074 A 
ATOM     52  C   UNL A   1      44.683  26.173  31.164  1.00  0.00     0.031 C 
ATOM     53  C   UNL A   1      44.129  27.529  33.164  1.00  0.00     0.034 A 
BRANCH  40  54
ATOM     54  C   UNL A   1      40.260  31.888  35.214  1.00  0.00     0.023 A 
ATOM     55  C   UNL A   1      40.927  33.126  35.328  1.00  0.00     0.012 A 
ATOM     56  C   UNL A   1      39.219  31.578  36.109  1.00  0.00     0.148 A 
ATOM     57  C   UNL A   1      40.585  34.025  36.336  1.00  0.00     0.002 A 
ATOM     58  C   UNL A   1      38.856  32.498  37.085  1.00  0.00     0.091 A 
ATOM     59  F   UNL A   1      38.616  30.385  36.000  1.00  0.00    -0.205 F 
ATOM     60  C   UNL A   1      39.545  33.716  37.207  1.00  0.00     0.022 A 
BRANCH  58  61
ATOM     61  S   UNL A   1      37.482  32.221  38.208  1.00  0.00     0.127 S 
ATOM     62  O   UNL A   1      37.997  32.792  39.452  1.00  0.00    -0.237 OA
ATOM     63  O   UNL A   1      36.410  32.995  37.581  1.00  0.00    -0.237 OA
ATOM     64  O   UNL A   1      37.261  30.782  38.223  1.00  0.00    -0.744 OA
ENDBRANCH  58  61
ENDBRANCH  40  54
BRANCH  41  65
ATOM     65  C   UNL A   1      42.565  25.963  27.523  1.00  0.00     0.023 A 
ATOM     66  C   UNL A   1      43.383  26.485  26.503  1.00  0.00     0.012 A 
ATOM     67  C   UNL A   1      42.122  24.630  27.433  1.00  0.00     0.148 A 
ATOM     68  C   UNL A   1      43.724  25.707  25.395  1.00  0.00     0.002 A 
ATOM     69  C   UNL A   1      42.509  23.843  26.355  1.00  0.00     0.091 A 
ATOM     70  F   UNL A   1      41.331  24.156  28.407  1.00  0.00    -0.205 F 
ATOM     71  C   UNL A   1      43.294  24.385  25.326  1.00  0.00     0.022 A 
BRANCH  69  72
ATOM     72  S   UNL A   1      42.107  22.096  26.241  1.00  0.00     0.127 S 
ATOM     73  O   UNL A   1      40.670  22.135  25.986  1.00  0.00    -0.237 OA
ATOM     74  O   UNL A   1      42.926  21.672  25.104  1.00  0.00    -0.237 OA
ATOM     75  O   UNL A   1      42.508  21.516  27.516  1.00  0.00    -0.744 OA
ENDBRANCH  69  72
ENDBRANCH  41  65
BRANCH  53  76
ATOM     76  C   UNL A   1      45.317  26.927  33.870  1.00  0.00     0.023 A 
ATOM     77  C   UNL A   1      46.569  27.569  33.811  1.00  0.00     0.012 A 
ATOM     78  C   UNL A   1      45.173  25.767  34.659  1.00  0.00     0.148 A 
ATOM     79  C   UNL A   1      47.666  27.051  34.499  1.00  0.00     0.002 A 
ATOM     80  C   UNL A   1      46.259  25.283  35.381  1.00  0.00     0.091 A 
ATOM     81  F   UNL A   1      43.979  25.157  34.689  1.00  0.00    -0.205 F 
ATOM     82  C   UNL A   1      47.509  25.917  35.293  1.00  0.00     0.022 A 
BRANCH  80  83
ATOM     83  S   UNL A   1      46.121  23.887  36.503  1.00  0.00     0.127 S 
ATOM     84  O   UNL A   1      47.480  23.794  37.033  1.00  0.00    -0.237 OA
ATOM     85  O   UNL A   1      45.123  24.358  37.465  1.00  0.00    -0.237 OA
ATOM     86  O   UNL A   1      45.686  22.761  35.688  1.00  0.00    -0.744 OA
ENDBRANCH  80  83
ENDBRANCH  53  76
ENDBRANCH  27  28
ENDBRANCH  20  22
ENDBRANCH  19  20
ENDBRANCH  18  19
ENDBRANCH   1  18
TORSDOF 17
ENDMDL
MODEL 2
REMARK VINA RESULT:     -10.8      5.551     10.526
REMARK SMILES O=C(COc1ncc(C(F)(F)F)cc1Cl)OCCOC(=O)c1ccc(-c2c3nc(c(-c4cccc(S(=O)(=O)[O-])c4F)c4ccc([nH]4)c(-c4cccc(S(=O)(=O)[O-])c4F)c4nc(c(-c5cccc(S(=O)(=O)[O-])c5F)c5ccc2[nH]5)C=C4)C=C3)cc1
REMARK SMILES IDX 17 1 16 2 2 3 1 4 3 5 4 6 5 7 6 8 14 9 7 10 13 11 15 12 8 13
REMARK SMILES IDX 9 14 10 15 11 16 12 17 18 18 19 19 20 20 21 21 22 22 23 23
REMARK SMILES IDX 84 24 24 25 83 26 25 27 26 28 27 29 77 30 28 31 82 32 76 33
REMARK SMILES IDX 78 34 29 35 81 36 75 37 74 38 30 40 62 41 42 42 61 43 43 44
REMARK SMILES IDX 46 45 60 46 79 47 44 48 45 49 59 51 80 52 47 53 31 54 32 55
REMARK SMILES IDX 40 56 33 57 35 58 41 59 34 60 36 61 37 62 38 63 39 64 63 65
REMARK SMILES IDX 64 66 72 67 65 68 67 69 73 70 66 71 68 72 69 73 70 74 71 75
REMARK SMILES IDX 48 76 49 77 57 78 50 79 52 80 58 81 51 82 53 83 54 84 55 85
REMARK SMILES IDX 56 86
REMARK H PARENT 78 39 46 50
REMARK Flexibility Score: inf
ROOT
ATOM      1  C   UNL A   1      35.711  21.172  25.564  1.00  0.00     0.274 C 
ENDROOT
BRANCH   1   2
ATOM      2  O   UNL A   1      34.504  20.427  25.296  1.00  0.00    -0.460 OA
BRANCH   2   3
ATOM      3  C   UNL A   1      33.370  20.987  24.802  1.00  0.00     0.344 C 
ATOM      4  O   UNL A   1      32.719  20.410  23.931  1.00  0.00    -0.248 OA
BRANCH   3   5
ATOM      5  C   UNL A   1      32.895  22.300  25.400  1.00  0.00     0.353 C 
BRANCH   5   6
ATOM      6  O   UNL A   1      32.808  23.294  24.383  1.00  0.00    -0.465 OA
BRANCH   6   7
ATOM      7  C   UNL A   1      32.684  24.521  24.983  1.00  0.00     0.233 A 
ATOM      8  N   UNL A   1      31.425  25.010  25.035  1.00  0.00    -0.220 NA
ATOM      9  C   UNL A   1      33.799  25.188  25.477  1.00  0.00     0.103 A 
ATOM     10  C   UNL A   1      31.257  26.208  25.641  1.00  0.00     0.128 A 
ATOM     11  C   UNL A   1      33.593  26.406  26.119  1.00  0.00     0.041 A 
ATOM     12  Cl  UNL A   1      35.398  24.573  25.327  1.00  0.00    -0.078 Cl
ATOM     13  C   UNL A   1      32.296  26.932  26.213  1.00  0.00     0.076 A 
BRANCH  13  14
ATOM     14  C   UNL A   1      32.027  28.257  26.855  1.00  0.00     0.417 C 
ATOM     15  F   UNL A   1      31.399  29.118  26.010  1.00  0.00    -0.166 F 
ATOM     16  F   UNL A   1      31.248  28.171  27.964  1.00  0.00    -0.166 F 
ATOM     17  F   UNL A   1      33.166  28.893  27.248  1.00  0.00    -0.166 F 
ENDBRANCH  13  14
ENDBRANCH   6   7
ENDBRANCH   5   6
ENDBRANCH   3   5
ENDBRANCH   2   3
ENDBRANCH   1   2
BRANCH   1  18
ATOM     18  C   UNL A   1      36.941  20.405  25.073  1.00  0.00     0.275 C 
BRANCH  18  19
ATOM     19  O   UNL A   1      38.077  21.284  24.999  1.00  0.00    -0.458 OA
BRANCH  19  20
ATOM     20  C   UNL A   1      39.061  21.042  25.903  1.00  0.00     0.338 C 
ATOM     21  O   UNL A   1      39.596  19.970  26.130  1.00  0.00    -0.246 OA
BRANCH  20  22
ATOM     22  C   UNL A   1      39.528  22.330  26.457  1.00  0.00     0.060 A 
ATOM     23  C   UNL A   1      38.858  23.500  26.077  1.00  0.00     0.016 A 
ATOM     24  C   UNL A   1      40.617  22.391  27.330  1.00  0.00     0.016 A 
ATOM     25  C   UNL A   1      39.300  24.739  26.542  1.00  0.00     0.010 A 
ATOM     26  C   UNL A   1      41.062  23.634  27.789  1.00  0.00     0.010 A 
ATOM     27  C   UNL A   1      40.426  24.816  27.372  1.00  0.00    -0.014 A 
BRANCH  27  28
ATOM     28  C   UNL A   1      41.038  26.131  27.676  1.00  0.00     0.031 A 
ATOM     29  C   UNL A   1      42.457  26.385  27.246  1.00  0.00     0.074 A 
ATOM     30  C   UNL A   1      40.357  27.078  28.345  1.00  0.00     0.049 A 
ATOM     31  N   UNL A   1      43.195  27.451  27.411  1.00  0.00    -0.248 NA
ATOM     32  C   UNL A   1      43.137  25.286  26.540  1.00  0.00     0.031 C 
ATOM     33  C   UNL A   1      38.984  26.951  28.830  1.00  0.00     0.029 A 
ATOM     34  N   UNL A   1      40.745  28.330  28.753  1.00  0.00    -0.354 N 
ATOM     35  C   UNL A   1      44.429  27.148  26.848  1.00  0.00     0.074 A 
ATOM     36  C   UNL A   1      44.348  25.790  26.355  1.00  0.00     0.031 C 
ATOM     37  C   UNL A   1      38.653  28.072  29.495  1.00  0.00     0.029 A 
ATOM     38  C   UNL A   1      39.792  28.988  29.494  1.00  0.00     0.049 A 
ATOM     39  H   UNL A   1      41.623  28.720  28.537  1.00  0.00     0.167 HD
ATOM     40  C   UNL A   1      45.524  27.934  26.730  1.00  0.00     0.034 A 
ATOM     41  C   UNL A   1      39.840  30.188  30.109  1.00  0.00     0.034 A 
ATOM     42  C   UNL A   1      45.605  29.288  27.208  1.00  0.00     0.049 A 
ATOM     43  C   UNL A   1      41.081  31.036  29.980  1.00  0.00     0.074 A 
ATOM     44  C   UNL A   1      46.655  30.179  27.091  1.00  0.00     0.029 A 
ATOM     45  N   UNL A   1      44.602  29.939  27.907  1.00  0.00    -0.354 N 
ATOM     46  N   UNL A   1      42.185  30.793  29.317  1.00  0.00    -0.248 NA
ATOM     47  C   UNL A   1      41.066  32.344  30.655  1.00  0.00     0.031 C 
ATOM     48  C   UNL A   1      46.296  31.365  27.742  1.00  0.00     0.029 A 
ATOM     49  C   UNL A   1      45.012  31.219  28.241  1.00  0.00     0.049 A 
ATOM     50  H   UNL A   1      43.726  29.550  28.133  1.00  0.00     0.167 HD
ATOM     51  C   UNL A   1      42.976  31.929  29.459  1.00  0.00     0.074 A 
ATOM     52  C   UNL A   1      42.216  32.869  30.257  1.00  0.00     0.031 C 
ATOM     53  C   UNL A   1      44.223  32.169  28.983  1.00  0.00     0.034 A 
BRANCH  40  54
ATOM     54  C   UNL A   1      46.720  27.355  26.022  1.00  0.00     0.023 A 
ATOM     55  C   UNL A   1      47.521  26.400  26.682  1.00  0.00     0.012 A 
ATOM     56  C   UNL A   1      47.024  27.717  24.697  1.00  0.00     0.148 A 
ATOM     57  C   UNL A   1      48.626  25.839  26.045  1.00  0.00     0.002 A 
ATOM     58  C   UNL A   1      48.103  27.122  24.053  1.00  0.00     0.091 A 
ATOM     59  F   UNL A   1      46.265  28.646  24.097  1.00  0.00    -0.205 F 
ATOM     60  C   UNL A   1      48.911  26.192  24.729  1.00  0.00     0.022 A 
BRANCH  58  61
ATOM     61  S   UNL A   1      48.507  27.458  22.336  1.00  0.00     0.127 S 
ATOM     62  O   UNL A   1      49.768  28.187  22.466  1.00  0.00    -0.237 OA
ATOM     63  O   UNL A   1      48.638  26.110  21.781  1.00  0.00    -0.237 OA
ATOM     64  O   UNL A   1      47.391  28.226  21.805  1.00  0.00    -0.744 OA
ENDBRANCH  58  61
ENDBRANCH  40  54
BRANCH  41  65
ATOM     65  C   UNL A   1      38.657  30.690  30.863  1.00  0.00     0.023 A 
ATOM     66  C   UNL A   1      38.582  30.479  32.253  1.00  0.00     0.012 A 
ATOM     67  C   UNL A   1      37.610  31.374  30.215  1.00  0.00     0.148 A 
ATOM     68  C   UNL A   1      37.469  30.907  32.980  1.00  0.00     0.002 A 
ATOM     69  C   UNL A   1      36.530  31.845  30.953  1.00  0.00     0.091 A 
ATOM     70  F   UNL A   1      37.692  31.551  28.888  1.00  0.00    -0.205 F 
ATOM     71  C   UNL A   1      36.449  31.597  32.331  1.00  0.00     0.022 A 
BRANCH  69  72
ATOM     72  S   UNL A   1      35.230  32.849  30.226  1.00  0.00     0.127 S 
ATOM     73  O   UNL A   1      35.977  34.015  29.760  1.00  0.00    -0.237 OA
ATOM     74  O   UNL A   1      34.729  31.972  29.167  1.00  0.00    -0.237 OA
ATOM     75  O   UNL A   1      34.277  33.097  31.299  1.00  0.00    -0.744 OA
ENDBRANCH  69  72
ENDBRANCH  41  65
BRANCH  53  76
ATOM     76  C   UNL A   1      44.843  33.514  29.269  1.00  0.00     0.023 A 
ATOM     77  C   UNL A   1      45.590  33.705  30.448  1.00  0.00     0.012 A 
ATOM     78  C   UNL A   1      44.753  34.563  28.331  1.00  0.00     0.148 A 
ATOM     79  C   UNL A   1      46.210  34.928  30.705  1.00  0.00     0.002 A 
ATOM     80  C   UNL A   1      45.414  35.763  28.571  1.00  0.00     0.091 A 
ATOM     81  F   UNL A   1      44.022  34.370  27.223  1.00  0.00    -0.205 F 
ATOM     82  C   UNL A   1      46.133  35.951  29.762  1.00  0.00     0.022 A 
BRANCH  80  83
ATOM     83  S   UNL A   1      45.448  37.097  27.368  1.00  0.00     0.127 S 
ATOM     84  O   UNL A   1      46.054  36.441  26.211  1.00  0.00    -0.237 OA
ATOM     85  O   UNL A   1      44.027  37.414  27.214  1.00  0.00    -0.237 OA
ATOM     86  O   UNL A   1      46.239  38.160  27.973  1.00  0.00    -0.744 OA
ENDBRANCH  80  83
ENDBRANCH  53  76
ENDBRANCH  27  28
ENDBRANCH  20  22
ENDBRANCH  19  20
ENDBRANCH  18  19
ENDBRANCH   1  18
TORSDOF 17
ENDMDL
MODEL 3
REMARK VINA RESULT:     -10.7      3.896      9.712
REMARK SMILES O=C(COc1ncc(C(F)(F)F)cc1Cl)OCCOC(=O)c1ccc(-c2c3nc(c(-c4cccc(S(=O)(=O)[O-])c4F)c4ccc([nH]4)c(-c4cccc(S(=O)(=O)[O-])c4F)c4nc(c(-c5cccc(S(=O)(=O)[O-])c5F)c5ccc2[nH]5)C=C4)C=C3)cc1
REMARK SMILES IDX 17 1 16 2 2 3 1 4 3 5 4 6 5 7 6 8 14 9 7 10 13 11 15 12 8 13
REMARK SMILES IDX 9 14 10 15 11 16 12 17 18 18 19 19 20 20 21 21 22 22 23 23
REMARK SMILES IDX 84 24 24 25 83 26 25 27 26 28 27 29 77 30 28 31 82 32 76 33
REMARK SMILES IDX 78 34 29 35 81 36 75 37 74 38 30 40 62 41 42 42 61 43 43 44
REMARK SMILES IDX 46 45 60 46 79 47 44 48 45 49 59 51 80 52 47 53 31 54 32 55
REMARK SMILES IDX 40 56 33 57 35 58 41 59 34 60 36 61 37 62 38 63 39 64 63 65
REMARK SMILES IDX 64 66 72 67 65 68 67 69 73 70 66 71 68 72 69 73 70 74 71 75
REMARK SMILES IDX 48 76 49 77 57 78 50 79 52 80 58 81 51 82 53 83 54 84 55 85
REMARK SMILES IDX 56 86
REMARK H PARENT 78 39 46 50
REMARK Flexibility Score: inf
ROOT
ATOM      1  C   UNL A   1      43.637  21.479  25.796  1.00  0.00     0.274 C 
ENDROOT
BRANCH   1   2
ATOM      2  O   UNL A   1      42.477  20.620  25.773  1.00  0.00    -0.460 OA
BRANCH   2   3
ATOM      3  C   UNL A   1      41.667  20.424  26.845  1.00  0.00     0.344 C 
ATOM      4  O   UNL A   1      41.913  19.533  27.657  1.00  0.00    -0.248 OA
BRANCH   3   5
ATOM      5  C   UNL A   1      40.499  21.374  27.049  1.00  0.00     0.353 C 
BRANCH   5   6
ATOM      6  O   UNL A   1      40.121  21.953  25.803  1.00  0.00    -0.465 OA
BRANCH   6   7
ATOM      7  C   UNL A   1      38.765  21.812  25.650  1.00  0.00     0.233 A 
ATOM      8  N   UNL A   1      38.364  20.618  25.161  1.00  0.00    -0.220 NA
ATOM      9  C   UNL A   1      37.900  22.851  25.973  1.00  0.00     0.103 A 
ATOM     10  C   UNL A   1      37.032  20.430  25.019  1.00  0.00     0.128 A 
ATOM     11  C   UNL A   1      36.534  22.620  25.842  1.00  0.00     0.041 A 
ATOM     12  Cl  UNL A   1      38.448  24.386  26.522  1.00  0.00    -0.078 Cl
ATOM     13  C   UNL A   1      36.080  21.384  25.360  1.00  0.00     0.076 A 
BRANCH  13  14
ATOM     14  C   UNL A   1      34.625  21.101  25.161  1.00  0.00     0.417 C 
ATOM     15  F   UNL A   1      33.998  20.796  26.329  1.00  0.00    -0.166 F 
ATOM     16  F   UNL A   1      33.941  22.142  24.619  1.00  0.00    -0.166 F 
ATOM     17  F   UNL A   1      34.401  20.039  24.336  1.00  0.00    -0.166 F 
ENDBRANCH  13  14
ENDBRANCH   6   7
ENDBRANCH   5   6
ENDBRANCH   3   5
ENDBRANCH   2   3
ENDBRANCH   1   2
BRANCH   1  18
ATOM     18  C   UNL A   1      43.828  22.167  24.443  1.00  0.00     0.275 C 
BRANCH  18  19
ATOM     19  O   UNL A   1      43.245  23.482  24.469  1.00  0.00    -0.458 OA
BRANCH  19  20
ATOM     20  C   UNL A   1      44.034  24.460  24.983  1.00  0.00     0.338 C 
ATOM     21  O   UNL A   1      45.158  24.760  24.614  1.00  0.00    -0.246 OA
BRANCH  20  22
ATOM     22  C   UNL A   1      43.249  25.247  25.956  1.00  0.00     0.060 A 
ATOM     23  C   UNL A   1      43.397  26.640  25.959  1.00  0.00     0.016 A 
ATOM     24  C   UNL A   1      42.385  24.626  26.863  1.00  0.00     0.016 A 
ATOM     25  C   UNL A   1      42.708  27.413  26.895  1.00  0.00     0.010 A 
ATOM     26  C   UNL A   1      41.702  25.402  27.804  1.00  0.00     0.010 A 
ATOM     27  C   UNL A   1      41.884  26.794  27.845  1.00  0.00    -0.014 A 
BRANCH  27  28
ATOM     28  C   UNL A   1      41.340  27.576  28.980  1.00  0.00     0.031 A 
ATOM     29  C   UNL A   1      42.077  27.557  30.292  1.00  0.00     0.074 A 
ATOM     30  C   UNL A   1      40.198  28.276  28.860  1.00  0.00     0.049 A 
ATOM     31  N   UNL A   1      41.784  28.155  31.417  1.00  0.00    -0.248 NA
ATOM     32  C   UNL A   1      43.306  26.747  30.343  1.00  0.00     0.031 C 
ATOM     33  C   UNL A   1      39.382  28.364  27.650  1.00  0.00     0.029 A 
ATOM     34  N   UNL A   1      39.514  29.026  29.784  1.00  0.00    -0.354 N 
ATOM     35  C   UNL A   1      42.778  27.782  32.313  1.00  0.00     0.074 A 
ATOM     36  C   UNL A   1      43.672  26.889  31.608  1.00  0.00     0.031 C 
ATOM     37  C   UNL A   1      38.291  29.105  27.915  1.00  0.00     0.029 A 
ATOM     38  C   UNL A   1      38.325  29.531  29.313  1.00  0.00     0.049 A 
ATOM     39  H   UNL A   1      39.842  29.186  30.698  1.00  0.00     0.167 HD
ATOM     40  C   UNL A   1      42.946  28.166  33.600  1.00  0.00     0.034 A 
ATOM     41  C   UNL A   1      37.371  30.247  29.942  1.00  0.00     0.034 A 
ATOM     42  C   UNL A   1      42.068  29.062  34.300  1.00  0.00     0.049 A 
ATOM     43  C   UNL A   1      37.573  30.643  31.384  1.00  0.00     0.074 A 
ATOM     44  C   UNL A   1      42.183  29.547  35.590  1.00  0.00     0.029 A 
ATOM     45  N   UNL A   1      40.902  29.596  33.775  1.00  0.00    -0.354 N 
ATOM     46  N   UNL A   1      38.593  30.405  32.173  1.00  0.00    -0.248 NA
ATOM     47  C   UNL A   1      36.507  31.441  32.011  1.00  0.00     0.031 C 
ATOM     48  C   UNL A   1      41.073  30.357  35.854  1.00  0.00     0.029 A 
ATOM     49  C   UNL A   1      40.281  30.396  34.718  1.00  0.00     0.049 A 
ATOM     50  H   UNL A   1      40.566  29.432  32.864  1.00  0.00     0.167 HD
ATOM     51  C   UNL A   1      38.312  31.057  33.370  1.00  0.00     0.074 A 
ATOM     52  C   UNL A   1      37.033  31.715  33.196  1.00  0.00     0.031 C 
ATOM     53  C   UNL A   1      39.039  31.097  34.514  1.00  0.00     0.034 A 
BRANCH  40  54
ATOM     54  C   UNL A   1      44.155  27.638  34.327  1.00  0.00     0.023 A 
ATOM     55  C   UNL A   1      45.348  28.390  34.327  1.00  0.00     0.012 A 
ATOM     56  C   UNL A   1      44.099  26.428  35.044  1.00  0.00     0.148 A 
ATOM     57  C   UNL A   1      46.476  27.930  35.003  1.00  0.00     0.002 A 
ATOM     58  C   UNL A   1      45.216  25.997  35.750  1.00  0.00     0.091 A 
ATOM     59  F   UNL A   1      42.964  25.715  35.010  1.00  0.00    -0.205 F 
ATOM     60  C   UNL A   1      46.408  26.741  35.722  1.00  0.00     0.022 A 
BRANCH  58  61
ATOM     61  S   UNL A   1      45.204  24.514  36.763  1.00  0.00     0.127 S 
ATOM     62  O   UNL A   1      46.596  24.447  37.205  1.00  0.00    -0.237 OA
ATOM     63  O   UNL A   1      44.248  24.867  37.814  1.00  0.00    -0.237 OA
ATOM     64  O   UNL A   1      44.771  23.434  35.888  1.00  0.00    -0.744 OA
ENDBRANCH  58  61
ENDBRANCH  40  54
BRANCH  41  65
ATOM     65  C   UNL A   1      36.153  30.685  29.202  1.00  0.00     0.023 A 
ATOM     66  C   UNL A   1      35.317  29.718  28.612  1.00  0.00     0.012 A 
ATOM     67  C   UNL A   1      35.819  32.047  29.082  1.00  0.00     0.148 A 
ATOM     68  C   UNL A   1      34.190  30.101  27.883  1.00  0.00     0.002 A 
ATOM     69  C   UNL A   1      34.666  32.419  28.400  1.00  0.00     0.091 A 
ATOM     70  F   UNL A   1      36.637  32.954  29.637  1.00  0.00    -0.205 F 
ATOM     71  C   UNL A   1      33.860  31.450  27.785  1.00  0.00     0.022 A 
BRANCH  69  72
ATOM     72  S   UNL A   1      34.096  34.121  28.327  1.00  0.00     0.127 S 
ATOM     73  O   UNL A   1      34.924  34.669  27.256  1.00  0.00    -0.237 OA
ATOM     74  O   UNL A   1      32.682  33.950  27.988  1.00  0.00    -0.237 OA
ATOM     75  O   UNL A   1      34.331  34.674  29.654  1.00  0.00    -0.744 OA
ENDBRANCH  69  72
ENDBRANCH  41  65
BRANCH  53  76
ATOM     76  C   UNL A   1      38.502  31.910  35.665  1.00  0.00     0.023 A 
ATOM     77  C   UNL A   1      38.424  33.313  35.558  1.00  0.00     0.012 A 
ATOM     78  C   UNL A   1      38.000  31.277  36.821  1.00  0.00     0.148 A 
ATOM     79  C   UNL A   1      37.884  34.074  36.594  1.00  0.00     0.002 A 
ATOM     80  C   UNL A   1      37.420  32.039  37.829  1.00  0.00     0.091 A 
ATOM     81  F   UNL A   1      38.100  29.943  36.915  1.00  0.00    -0.205 F 
ATOM     82  C   UNL A   1      37.371  33.438  37.723  1.00  0.00     0.022 A 
BRANCH  80  83
ATOM     83  S   UNL A   1      36.648  31.295  39.272  1.00  0.00     0.127 S 
ATOM     84  O   UNL A   1      36.059  30.084  38.704  1.00  0.00    -0.237 OA
ATOM     85  O   UNL A   1      37.795  31.060  40.152  1.00  0.00    -0.237 OA
ATOM     86  O   UNL A   1      35.700  32.282  39.771  1.00  0.00    -0.744 OA
ENDBRANCH  80  83
ENDBRANCH  53  76
ENDBRANCH  27  28
ENDBRANCH  20  22
ENDBRANCH  19  20
ENDBRANCH  18  19
ENDBRANCH   1  18
TORSDOF 17
ENDMDL
