MODEL 1
REMARK VINA RESULT:     -11.0      0.000      0.000
REMARK SMILES CC1=C[C@@H](CNS(=O)(=O)c2cccs2)[C@H](C(C)C)C[C@H]1CC(=O)OCCOC(=O)c1ccc(-c2c3nc(c(-c4cccc(S(=O)(=O)[O-])c4F)c4ccc([nH]4)c(-c4cccc(S(=O)(=O)[O-])c4F)c4nc(c(-c5cccc(S(=O)(=O)[O-])c5F)c5ccc2[nH]5)C=C4)C=C3)cc1
REMARK SMILES IDX 25 1 24 2 22 3 23 4 21 5 20 6 1 7 2 8 3 9 4 10 19 11 15 12
REMARK SMILES IDX 5 13 6 14 7 16 8 17 9 18 10 19 11 20 14 21 12 22 13 23 16 24
REMARK SMILES IDX 17 25 18 26 26 27 27 28 28 29 29 30 30 31 31 32 92 33 32 34
REMARK SMILES IDX 91 35 33 36 34 37 35 38 85 39 36 40 90 41 84 42 86 43 37 44
REMARK SMILES IDX 89 45 83 46 82 47 38 49 70 50 50 51 69 52 51 53 54 54 68 55
REMARK SMILES IDX 87 56 52 57 53 58 67 60 88 61 55 62 39 63 40 64 48 65 41 66
REMARK SMILES IDX 43 67 49 68 42 69 44 70 45 71 46 72 47 73 71 74 72 75 80 76
REMARK SMILES IDX 73 77 75 78 81 79 74 80 76 81 77 82 78 83 79 84 56 85 57 86
REMARK SMILES IDX 65 87 58 88 60 89 66 90 59 91 61 92 62 93 63 94 64 95
REMARK H PARENT 6 15 86 48 54 59
REMARK Flexibility Score: inf
ROOT
ATOM      1  C   UNL A   1      37.457  22.392  24.645  1.00  0.00     0.274 C 
ENDROOT
BRANCH   1   2
ATOM      2  O   UNL A   1      36.470  23.313  25.148  1.00  0.00    -0.462 OA
BRANCH   2   3
ATOM      3  C   UNL A   1      35.578  23.828  24.272  1.00  0.00     0.306 C 
ATOM      4  O   UNL A   1      35.804  24.029  23.085  1.00  0.00    -0.252 OA
BRANCH   3   5
ATOM      5  C   UNL A   1      34.279  24.232  24.937  1.00  0.00     0.130 C 
BRANCH   5   6
ATOM      6  C   UNL A   1      33.667  25.589  24.511  1.00  0.00     0.026 C 
ATOM      7  C   UNL A   1      32.973  24.962  22.079  1.00  0.00     0.039 C 
ATOM      8  C   UNL A   1      32.579  25.448  23.447  1.00  0.00    -0.073 C 
ATOM      9  C   UNL A   1      31.304  25.819  23.656  1.00  0.00    -0.023 C 
ATOM     10  C   UNL A   1      30.811  26.470  24.916  1.00  0.00     0.030 C 
ATOM     11  C   UNL A   1      33.173  26.328  25.793  1.00  0.00     0.013 C 
ATOM     12  C   UNL A   1      31.966  27.278  25.585  1.00  0.00     0.000 C 
BRANCH  10  13
ATOM     13  C   UNL A   1      30.175  25.454  25.897  1.00  0.00     0.107 C 
BRANCH  13  14
ATOM     14  N   UNL A   1      30.233  24.072  25.376  1.00  0.00    -0.210 NA
ATOM     15  H   UNL A   1      30.882  24.068  24.588  1.00  0.00     0.141 HD
BRANCH  14  16
ATOM     16  S   UNL A   1      30.727  22.864  26.447  1.00  0.00     0.250 S 
ATOM     17  O   UNL A   1      31.416  23.518  27.538  1.00  0.00    -0.206 OA
ATOM     18  O   UNL A   1      29.557  22.045  26.679  1.00  0.00    -0.206 OA
BRANCH  16  19
ATOM     19  C   UNL A   1      31.968  21.849  25.661  1.00  0.00     0.134 A 
ATOM     20  C   UNL A   1      32.125  21.417  24.355  1.00  0.00     0.033 A 
ATOM     21  S   UNL A   1      33.282  21.331  26.634  1.00  0.00    -0.131 S 
ATOM     22  C   UNL A   1      33.304  20.639  24.164  1.00  0.00     0.013 A 
ATOM     23  C   UNL A   1      34.034  20.528  25.325  1.00  0.00     0.066 A 
ENDBRANCH  16  19
ENDBRANCH  14  16
ENDBRANCH  13  14
ENDBRANCH  10  13
BRANCH  12  24
ATOM     24  C   UNL A   1      32.376  28.581  24.817  1.00  0.00    -0.014 C 
ATOM     25  C   UNL A   1      31.169  29.355  24.269  1.00  0.00     0.007 C 
ATOM     26  C   UNL A   1      33.181  29.532  25.716  1.00  0.00     0.007 C 
ENDBRANCH  12  24
ENDBRANCH   5   6
ENDBRANCH   3   5
ENDBRANCH   2   3
ENDBRANCH   1   2
BRANCH   1  27
ATOM     27  C   UNL A   1      37.913  21.433  25.745  1.00  0.00     0.275 C 
BRANCH  27  28
ATOM     28  O   UNL A   1      39.284  21.056  25.542  1.00  0.00    -0.458 OA
BRANCH  28  29
ATOM     29  C   UNL A   1      40.029  20.925  26.664  1.00  0.00     0.338 C 
ATOM     30  O   UNL A   1      40.340  19.893  27.230  1.00  0.00    -0.246 OA
BRANCH  29  31
ATOM     31  C   UNL A   1      40.543  22.250  27.037  1.00  0.00     0.060 A 
ATOM     32  C   UNL A   1      40.274  23.334  26.194  1.00  0.00     0.016 A 
ATOM     33  C   UNL A   1      41.293  22.415  28.202  1.00  0.00     0.016 A 
ATOM     34  C   UNL A   1      40.750  24.600  26.523  1.00  0.00     0.010 A 
ATOM     35  C   UNL A   1      41.770  23.684  28.528  1.00  0.00     0.010 A 
ATOM     36  C   UNL A   1      41.507  24.780  27.688  1.00  0.00    -0.014 A 
BRANCH  36  37
ATOM     37  C   UNL A   1      42.059  26.112  28.024  1.00  0.00     0.031 A 
ATOM     38  C   UNL A   1      41.178  27.135  28.676  1.00  0.00     0.074 A 
ATOM     39  C   UNL A   1      43.331  26.409  27.699  1.00  0.00     0.049 A 
ATOM     40  N   UNL A   1      41.442  28.379  28.980  1.00  0.00    -0.248 NA
ATOM     41  C   UNL A   1      39.814  26.704  29.027  1.00  0.00     0.031 C 
ATOM     42  C   UNL A   1      44.270  25.493  27.052  1.00  0.00     0.029 A 
ATOM     43  N   UNL A   1      44.040  27.574  27.840  1.00  0.00    -0.354 N 
ATOM     44  C   UNL A   1      40.272  28.890  29.524  1.00  0.00     0.074 A 
ATOM     45  C   UNL A   1      39.292  27.825  29.504  1.00  0.00     0.031 C 
ATOM     46  C   UNL A   1      45.427  26.140  26.829  1.00  0.00     0.029 A 
ATOM     47  C   UNL A   1      45.298  27.519  27.290  1.00  0.00     0.049 A 
ATOM     48  H   UNL A   1      43.681  28.372  28.292  1.00  0.00     0.167 HD
ATOM     49  C   UNL A   1      40.040  30.133  30.010  1.00  0.00     0.034 A 
ATOM     50  C   UNL A   1      46.232  28.482  27.155  1.00  0.00     0.034 A 
ATOM     51  C   UNL A   1      41.026  31.179  30.046  1.00  0.00     0.049 A 
ATOM     52  C   UNL A   1      45.945  29.857  27.696  1.00  0.00     0.074 A 
ATOM     53  C   UNL A   1      40.908  32.456  30.565  1.00  0.00     0.029 A 
ATOM     54  N   UNL A   1      42.310  31.073  29.534  1.00  0.00    -0.354 N 
ATOM     55  N   UNL A   1      44.876  30.292  28.321  1.00  0.00    -0.248 NA
ATOM     56  C   UNL A   1      47.003  30.866  27.541  1.00  0.00     0.031 C 
ATOM     57  C   UNL A   1      42.116  33.129  30.350  1.00  0.00     0.029 A 
ATOM     58  C   UNL A   1      42.993  32.264  29.714  1.00  0.00     0.049 A 
ATOM     59  H   UNL A   1      42.682  30.269  29.105  1.00  0.00     0.167 HD
ATOM     60  C   UNL A   1      45.143  31.614  28.658  1.00  0.00     0.074 A 
ATOM     61  C   UNL A   1      46.483  31.902  28.188  1.00  0.00     0.031 C 
ATOM     62  C   UNL A   1      44.346  32.515  29.284  1.00  0.00     0.034 A 
BRANCH  49  63
ATOM     63  C   UNL A   1      38.672  30.416  30.570  1.00  0.00     0.023 A 
ATOM     64  C   UNL A   1      38.382  30.065  31.905  1.00  0.00     0.012 A 
ATOM     65  C   UNL A   1      37.689  31.063  29.796  1.00  0.00     0.148 A 
ATOM     66  C   UNL A   1      37.125  30.326  32.450  1.00  0.00     0.002 A 
ATOM     67  C   UNL A   1      36.451  31.353  30.358  1.00  0.00     0.091 A 
ATOM     68  F   UNL A   1      37.975  31.364  28.521  1.00  0.00    -0.205 F 
ATOM     69  C   UNL A   1      36.165  30.977  31.681  1.00  0.00     0.022 A 
BRANCH  67  70
ATOM     70  S   UNL A   1      35.174  32.250  29.470  1.00  0.00     0.127 S 
ATOM     71  O   UNL A   1      34.274  32.634  30.555  1.00  0.00    -0.237 OA
ATOM     72  O   UNL A   1      35.925  33.358  28.879  1.00  0.00    -0.237 OA
ATOM     73  O   UNL A   1      34.625  31.309  28.503  1.00  0.00    -0.744 OA
ENDBRANCH  67  70
ENDBRANCH  49  63
BRANCH  50  74
ATOM     74  C   UNL A   1      47.540  28.161  26.518  1.00  0.00     0.023 A 
ATOM     75  C   UNL A   1      48.681  28.006  27.328  1.00  0.00     0.012 A 
ATOM     76  C   UNL A   1      47.653  27.974  25.126  1.00  0.00     0.148 A 
ATOM     77  C   UNL A   1      49.917  27.692  26.761  1.00  0.00     0.002 A 
ATOM     78  C   UNL A   1      48.876  27.610  24.574  1.00  0.00     0.091 A 
ATOM     79  F   UNL A   1      46.559  28.146  24.370  1.00  0.00    -0.205 F 
ATOM     80  C   UNL A   1      50.013  27.482  25.388  1.00  0.00     0.022 A 
BRANCH  78  81
ATOM     81  S   UNL A   1      49.061  27.195  22.836  1.00  0.00     0.127 S 
ATOM     82  O   UNL A   1      48.308  25.947  22.744  1.00  0.00    -0.237 OA
ATOM     83  O   UNL A   1      48.433  28.343  22.181  1.00  0.00    -0.237 OA
ATOM     84  O   UNL A   1      50.496  27.088  22.610  1.00  0.00    -0.744 OA
ENDBRANCH  78  81
ENDBRANCH  50  74
BRANCH  62  85
ATOM     85  C   UNL A   1      44.904  33.894  29.521  1.00  0.00     0.023 A 
ATOM     86  C   UNL A   1      45.571  34.178  30.728  1.00  0.00     0.012 A 
ATOM     87  C   UNL A   1      44.834  34.881  28.519  1.00  0.00     0.148 A 
ATOM     88  C   UNL A   1      46.138  35.432  30.946  1.00  0.00     0.002 A 
ATOM     89  C   UNL A   1      45.442  36.115  28.725  1.00  0.00     0.091 A 
ATOM     90  F   UNL A   1      44.177  34.600  27.385  1.00  0.00    -0.205 F 
ATOM     91  C   UNL A   1      46.084  36.396  29.941  1.00  0.00     0.022 A 
BRANCH  89  92
ATOM     92  S   UNL A   1      45.501  37.380  27.450  1.00  0.00     0.127 S 
ATOM     93  O   UNL A   1      46.183  38.470  28.143  1.00  0.00    -0.237 OA
ATOM     94  O   UNL A   1      46.293  36.731  26.404  1.00  0.00    -0.237 OA
ATOM     95  O   UNL A   1      44.116  37.639  27.081  1.00  0.00    -0.744 OA
ENDBRANCH  89  92
ENDBRANCH  62  85
ENDBRANCH  36  37
ENDBRANCH  29  31
ENDBRANCH  28  29
ENDBRANCH  27  28
ENDBRANCH   1  27
TORSDOF 20
ENDMDL
MODEL 2
REMARK VINA RESULT:     -10.9      1.645      3.328
REMARK SMILES CC1=C[C@@H](CNS(=O)(=O)c2cccs2)[C@H](C(C)C)C[C@H]1CC(=O)OCCOC(=O)c1ccc(-c2c3nc(c(-c4cccc(S(=O)(=O)[O-])c4F)c4ccc([nH]4)c(-c4cccc(S(=O)(=O)[O-])c4F)c4nc(c(-c5cccc(S(=O)(=O)[O-])c5F)c5ccc2[nH]5)C=C4)C=C3)cc1
REMARK SMILES IDX 25 1 24 2 22 3 23 4 21 5 20 6 1 7 2 8 3 9 4 10 19 11 15 12
REMARK SMILES IDX 5 13 6 14 7 16 8 17 9 18 10 19 11 20 14 21 12 22 13 23 16 24
REMARK SMILES IDX 17 25 18 26 26 27 27 28 28 29 29 30 30 31 31 32 92 33 32 34
REMARK SMILES IDX 91 35 33 36 34 37 35 38 85 39 36 40 90 41 84 42 86 43 37 44
REMARK SMILES IDX 89 45 83 46 82 47 38 49 70 50 50 51 69 52 51 53 54 54 68 55
REMARK SMILES IDX 87 56 52 57 53 58 67 60 88 61 55 62 39 63 40 64 48 65 41 66
REMARK SMILES IDX 43 67 49 68 42 69 44 70 45 71 46 72 47 73 71 74 72 75 80 76
REMARK SMILES IDX 73 77 75 78 81 79 74 80 76 81 77 82 78 83 79 84 56 85 57 86
REMARK SMILES IDX 65 87 58 88 60 89 66 90 59 91 61 92 62 93 63 94 64 95
REMARK H PARENT 6 15 86 48 54 59
REMARK Flexibility Score: inf
ROOT
ATOM      1  C   UNL A   1      37.934  21.102  24.888  1.00  0.00     0.274 C 
ENDROOT
BRANCH   1   2
ATOM      2  O   UNL A   1      37.240  21.741  25.976  1.00  0.00    -0.462 OA
BRANCH   2   3
ATOM      3  C   UNL A   1      36.939  23.054  25.854  1.00  0.00     0.306 C 
ATOM      4  O   UNL A   1      37.766  23.955  25.795  1.00  0.00    -0.252 OA
BRANCH   3   5
ATOM      5  C   UNL A   1      35.448  23.314  25.896  1.00  0.00     0.130 C 
BRANCH   5   6
ATOM      6  C   UNL A   1      34.519  22.086  25.733  1.00  0.00     0.026 C 
ATOM      7  C   UNL A   1      33.302  22.206  28.034  1.00  0.00     0.039 C 
ATOM      8  C   UNL A   1      33.221  22.208  26.532  1.00  0.00    -0.073 C 
ATOM      9  C   UNL A   1      32.009  22.229  25.953  1.00  0.00    -0.023 C 
ATOM     10  C   UNL A   1      31.776  22.073  24.478  1.00  0.00     0.030 C 
ATOM     11  C   UNL A   1      34.275  21.854  24.210  1.00  0.00     0.013 C 
ATOM     12  C   UNL A   1      32.912  21.210  23.848  1.00  0.00     0.000 C 
BRANCH  10  13
ATOM     13  C   UNL A   1      31.619  23.435  23.756  1.00  0.00     0.107 C 
BRANCH  13  14
ATOM     14  N   UNL A   1      31.698  24.571  24.698  1.00  0.00    -0.210 NA
ATOM     15  H   UNL A   1      32.405  24.342  25.396  1.00  0.00     0.141 HD
BRANCH  14  16
ATOM     16  S   UNL A   1      32.092  26.081  24.052  1.00  0.00     0.250 S 
ATOM     17  O   UNL A   1      33.460  26.003  23.588  1.00  0.00    -0.206 OA
ATOM     18  O   UNL A   1      31.009  26.417  23.152  1.00  0.00    -0.206 OA
BRANCH  16  19
ATOM     19  C   UNL A   1      32.119  27.294  25.363  1.00  0.00     0.134 A 
ATOM     20  C   UNL A   1      31.279  27.519  26.440  1.00  0.00     0.033 A 
ATOM     21  S   UNL A   1      33.449  28.377  25.394  1.00  0.00    -0.131 S 
ATOM     22  C   UNL A   1      31.711  28.595  27.268  1.00  0.00     0.013 A 
ATOM     23  C   UNL A   1      32.891  29.141  26.819  1.00  0.00     0.066 A 
ENDBRANCH  16  19
ENDBRANCH  14  16
ENDBRANCH  13  14
ENDBRANCH  10  13
BRANCH  12  24
ATOM     24  C   UNL A   1      32.864  19.693  24.235  1.00  0.00    -0.014 C 
ATOM     25  C   UNL A   1      32.217  18.821  23.150  1.00  0.00     0.007 C 
ATOM     26  C   UNL A   1      34.272  19.140  24.511  1.00  0.00     0.007 C 
ENDBRANCH  12  24
ENDBRANCH   5   6
ENDBRANCH   3   5
ENDBRANCH   2   3
ENDBRANCH   1   2
BRANCH   1  27
ATOM     27  C   UNL A   1      38.534  19.769  25.337  1.00  0.00     0.275 C 
BRANCH  27  28
ATOM     28  O   UNL A   1      39.341  19.954  26.510  1.00  0.00    -0.458 OA
BRANCH  28  29
ATOM     29  C   UNL A   1      40.678  19.980  26.304  1.00  0.00     0.338 C 
ATOM     30  O   UNL A   1      41.368  19.109  25.805  1.00  0.00    -0.246 OA
BRANCH  29  31
ATOM     31  C   UNL A   1      41.176  21.316  26.656  1.00  0.00     0.060 A 
ATOM     32  C   UNL A   1      41.060  22.344  25.714  1.00  0.00     0.016 A 
ATOM     33  C   UNL A   1      41.761  21.547  27.902  1.00  0.00     0.016 A 
ATOM     34  C   UNL A   1      41.524  23.620  26.022  1.00  0.00     0.010 A 
ATOM     35  C   UNL A   1      42.227  22.826  28.207  1.00  0.00     0.010 A 
ATOM     36  C   UNL A   1      42.117  23.865  27.267  1.00  0.00    -0.014 A 
BRANCH  36  37
ATOM     37  C   UNL A   1      42.657  25.205  27.588  1.00  0.00     0.031 A 
ATOM     38  C   UNL A   1      41.784  26.210  28.280  1.00  0.00     0.074 A 
ATOM     39  C   UNL A   1      43.910  25.527  27.214  1.00  0.00     0.049 A 
ATOM     40  N   UNL A   1      42.037  27.456  28.579  1.00  0.00    -0.248 NA
ATOM     41  C   UNL A   1      40.443  25.752  28.681  1.00  0.00     0.031 C 
ATOM     42  C   UNL A   1      44.839  24.632  26.526  1.00  0.00     0.029 A 
ATOM     43  N   UNL A   1      44.602  26.705  27.334  1.00  0.00    -0.354 N 
ATOM     44  C   UNL A   1      40.880  27.944  29.172  1.00  0.00     0.074 A 
ATOM     45  C   UNL A   1      39.920  26.860  29.185  1.00  0.00     0.031 C 
ATOM     46  C   UNL A   1      45.974  25.301  26.261  1.00  0.00     0.029 A 
ATOM     47  C   UNL A   1      45.839  26.676  26.734  1.00  0.00     0.049 A 
ATOM     48  H   UNL A   1      44.247  27.494  27.804  1.00  0.00     0.167 HD
ATOM     49  C   UNL A   1      40.645  29.180  29.672  1.00  0.00     0.034 A 
ATOM     50  C   UNL A   1      46.748  27.656  26.568  1.00  0.00     0.034 A 
ATOM     51  C   UNL A   1      41.612  30.243  29.675  1.00  0.00     0.049 A 
ATOM     52  C   UNL A   1      46.459  29.023  27.127  1.00  0.00     0.074 A 
ATOM     53  C   UNL A   1      41.491  31.516  30.205  1.00  0.00     0.029 A 
ATOM     54  N   UNL A   1      42.877  30.164  29.112  1.00  0.00    -0.354 N 
ATOM     55  N   UNL A   1      45.407  29.436  27.795  1.00  0.00    -0.248 NA
ATOM     56  C   UNL A   1      47.490  30.053  26.935  1.00  0.00     0.031 C 
ATOM     57  C   UNL A   1      42.677  32.212  29.946  1.00  0.00     0.029 A 
ATOM     58  C   UNL A   1      43.545  31.366  29.271  1.00  0.00     0.049 A 
ATOM     59  H   UNL A   1      43.247  29.368  28.665  1.00  0.00     0.167 HD
ATOM     60  C   UNL A   1      45.663  30.761  28.129  1.00  0.00     0.074 A 
ATOM     61  C   UNL A   1      46.978  31.076  27.608  1.00  0.00     0.031 C 
ATOM     62  C   UNL A   1      44.874  31.644  28.790  1.00  0.00     0.034 A 
BRANCH  49  63
ATOM     63  C   UNL A   1      39.295  29.435  30.288  1.00  0.00     0.023 A 
ATOM     64  C   UNL A   1      38.986  28.871  31.542  1.00  0.00     0.012 A 
ATOM     65  C   UNL A   1      38.350  30.262  29.649  1.00  0.00     0.148 A 
ATOM     66  C   UNL A   1      37.746  29.100  32.138  1.00  0.00     0.002 A 
ATOM     67  C   UNL A   1      37.131  30.517  30.267  1.00  0.00     0.091 A 
ATOM     68  F   UNL A   1      38.652  30.767  28.445  1.00  0.00    -0.205 F 
ATOM     69  C   UNL A   1      36.824  29.930  31.506  1.00  0.00     0.022 A 
BRANCH  67  70
ATOM     70  S   UNL A   1      35.906  31.625  29.563  1.00  0.00     0.127 S 
ATOM     71  O   UNL A   1      36.742  32.726  29.089  1.00  0.00    -0.237 OA
ATOM     72  O   UNL A   1      35.318  30.806  28.502  1.00  0.00    -0.237 OA
ATOM     73  O   UNL A   1      34.993  31.953  30.649  1.00  0.00    -0.744 OA
ENDBRANCH  67  70
ENDBRANCH  49  63
BRANCH  50  74
ATOM     74  C   UNL A   1      48.036  27.363  25.878  1.00  0.00     0.023 A 
ATOM     75  C   UNL A   1      49.111  26.838  26.620  1.00  0.00     0.012 A 
ATOM     76  C   UNL A   1      48.189  27.564  24.492  1.00  0.00     0.148 A 
ATOM     77  C   UNL A   1      50.325  26.541  25.999  1.00  0.00     0.002 A 
ATOM     78  C   UNL A   1      49.383  27.216  23.870  1.00  0.00     0.091 A 
ATOM     79  F   UNL A   1      47.161  28.082  23.806  1.00  0.00    -0.205 F 
ATOM     80  C   UNL A   1      50.458  26.717  24.624  1.00  0.00     0.022 A 
BRANCH  78  81
ATOM     81  S   UNL A   1      49.597  27.289  22.088  1.00  0.00     0.127 S 
ATOM     82  O   UNL A   1      51.038  27.093  21.952  1.00  0.00    -0.237 OA
ATOM     83  O   UNL A   1      48.777  26.164  21.637  1.00  0.00    -0.237 OA
ATOM     84  O   UNL A   1      49.094  28.595  21.686  1.00  0.00    -0.744 OA
ENDBRANCH  78  81
ENDBRANCH  50  74
BRANCH  62  85
ATOM     85  C   UNL A   1      45.416  33.032  29.012  1.00  0.00     0.023 A 
ATOM     86  C   UNL A   1      46.184  33.305  30.160  1.00  0.00     0.012 A 
ATOM     87  C   UNL A   1      45.229  34.041  28.047  1.00  0.00     0.148 A 
ATOM     88  C   UNL A   1      46.736  34.569  30.360  1.00  0.00     0.002 A 
ATOM     89  C   UNL A   1      45.821  35.286  28.230  1.00  0.00     0.091 A 
ATOM     90  F   UNL A   1      44.479  33.769  26.970  1.00  0.00    -0.205 F 
ATOM     91  C   UNL A   1      46.564  35.555  29.390  1.00  0.00     0.022 A 
BRANCH  89  92
ATOM     92  S   UNL A   1      45.730  36.583  26.989  1.00  0.00     0.127 S 
ATOM     93  O   UNL A   1      44.289  36.804  26.894  1.00  0.00    -0.237 OA
ATOM     94  O   UNL A   1      46.474  37.673  27.622  1.00  0.00    -0.237 OA
ATOM     95  O   UNL A   1      46.362  36.037  25.796  1.00  0.00    -0.744 OA
ENDBRANCH  89  92
ENDBRANCH  62  85
ENDBRANCH  36  37
ENDBRANCH  29  31
ENDBRANCH  28  29
ENDBRANCH  27  28
ENDBRANCH   1  27
TORSDOF 20
ENDMDL
MODEL 3
REMARK VINA RESULT:     -10.7      5.724     10.463
REMARK SMILES CC1=C[C@@H](CNS(=O)(=O)c2cccs2)[C@H](C(C)C)C[C@H]1CC(=O)OCCOC(=O)c1ccc(-c2c3nc(c(-c4cccc(S(=O)(=O)[O-])c4F)c4ccc([nH]4)c(-c4cccc(S(=O)(=O)[O-])c4F)c4nc(c(-c5cccc(S(=O)(=O)[O-])c5F)c5ccc2[nH]5)C=C4)C=C3)cc1
REMARK SMILES IDX 25 1 24 2 22 3 23 4 21 5 20 6 1 7 2 8 3 9 4 10 19 11 15 12
REMARK SMILES IDX 5 13 6 14 7 16 8 17 9 18 10 19 11 20 14 21 12 22 13 23 16 24
REMARK SMILES IDX 17 25 18 26 26 27 27 28 28 29 29 30 30 31 31 32 92 33 32 34
REMARK SMILES IDX 91 35 33 36 34 37 35 38 85 39 36 40 90 41 84 42 86 43 37 44
REMARK SMILES IDX 89 45 83 46 82 47 38 49 70 50 50 51 69 52 51 53 54 54 68 55
REMARK SMILES IDX 87 56 52 57 53 58 67 60 88 61 55 62 39 63 40 64 48 65 41 66
REMARK SMILES IDX 43 67 49 68 42 69 44 70 45 71 46 72 47 73 71 74 72 75 80 76
REMARK SMILES IDX 73 77 75 78 81 79 74 80 76 81 77 82 78 83 79 84 56 85 57 86
REMARK SMILES IDX 65 87 58 88 60 89 66 90 59 91 61 92 62 93 63 94 64 95
REMARK H PARENT 6 15 86 48 54 59
REMARK Flexibility Score: inf
ROOT
ATOM      1  C   UNL A   1      33.724  31.564  27.569  1.00  0.00     0.274 C 
ENDROOT
BRANCH   1   2
ATOM      2  O   UNL A   1      33.168  30.262  27.306  1.00  0.00    -0.462 OA
BRANCH   2   3
ATOM      3  C   UNL A   1      33.972  29.330  26.746  1.00  0.00     0.306 C 
ATOM      4  O   UNL A   1      35.187  29.281  26.891  1.00  0.00    -0.252 OA
BRANCH   3   5
ATOM      5  C   UNL A   1      33.220  28.394  25.823  1.00  0.00     0.130 C 
BRANCH   5   6
ATOM      6  C   UNL A   1      32.441  29.041  24.652  1.00  0.00     0.026 C 
ATOM      7  C   UNL A   1      34.274  28.853  22.810  1.00  0.00     0.039 C 
ATOM      8  C   UNL A   1      32.884  28.527  23.282  1.00  0.00    -0.073 C 
ATOM      9  C   UNL A   1      32.058  27.871  22.449  1.00  0.00    -0.023 C 
ATOM     10  C   UNL A   1      30.603  27.623  22.727  1.00  0.00     0.030 C 
ATOM     11  C   UNL A   1      30.915  28.846  24.911  1.00  0.00     0.013 C 
ATOM     12  C   UNL A   1      30.035  28.754  23.639  1.00  0.00     0.000 C 
BRANCH  10  13
ATOM     13  C   UNL A   1      30.345  26.217  23.323  1.00  0.00     0.107 C 
BRANCH  13  14
ATOM     14  N   UNL A   1      31.512  25.324  23.156  1.00  0.00    -0.210 NA
ATOM     15  H   UNL A   1      32.349  25.907  23.172  1.00  0.00     0.141 HD
BRANCH  14  16
ATOM     16  S   UNL A   1      31.719  24.104  24.305  1.00  0.00     0.250 S 
ATOM     17  O   UNL A   1      31.476  24.695  25.603  1.00  0.00    -0.206 OA
ATOM     18  O   UNL A   1      30.937  22.982  23.830  1.00  0.00    -0.206 OA
BRANCH  16  19
ATOM     19  C   UNL A   1      33.435  23.610  24.338  1.00  0.00     0.134 A 
ATOM     20  C   UNL A   1      34.072  22.436  23.974  1.00  0.00     0.033 A 
ATOM     21  S   UNL A   1      34.575  24.788  24.843  1.00  0.00    -0.131 S 
ATOM     22  C   UNL A   1      35.486  22.495  24.138  1.00  0.00     0.013 A 
ATOM     23  C   UNL A   1      35.894  23.729  24.591  1.00  0.00     0.066 A 
ENDBRANCH  16  19
ENDBRANCH  14  16
ENDBRANCH  13  14
ENDBRANCH  10  13
BRANCH  12  24
ATOM     24  C   UNL A   1      29.885  30.144  22.932  1.00  0.00    -0.014 C 
ATOM     25  C   UNL A   1      29.129  30.057  21.599  1.00  0.00     0.007 C 
ATOM     26  C   UNL A   1      29.151  31.153  23.829  1.00  0.00     0.007 C 
ENDBRANCH  12  24
ENDBRANCH   5   6
ENDBRANCH   3   5
ENDBRANCH   2   3
ENDBRANCH   1   2
BRANCH   1  27
ATOM     27  C   UNL A   1      32.639  32.640  27.501  1.00  0.00     0.275 C 
BRANCH  27  28
ATOM     28  O   UNL A   1      33.218  33.944  27.660  1.00  0.00    -0.458 OA
BRANCH  28  29
ATOM     29  C   UNL A   1      33.298  34.399  28.932  1.00  0.00     0.338 C 
ATOM     30  O   UNL A   1      32.479  35.072  29.531  1.00  0.00    -0.246 OA
BRANCH  29  31
ATOM     31  C   UNL A   1      34.499  33.826  29.554  1.00  0.00     0.060 A 
ATOM     32  C   UNL A   1      34.340  32.939  30.623  1.00  0.00     0.016 A 
ATOM     33  C   UNL A   1      35.769  34.173  29.091  1.00  0.00     0.016 A 
ATOM     34  C   UNL A   1      35.462  32.381  31.232  1.00  0.00     0.010 A 
ATOM     35  C   UNL A   1      36.891  33.614  29.703  1.00  0.00     0.010 A 
ATOM     36  C   UNL A   1      36.743  32.722  30.780  1.00  0.00    -0.014 A 
BRANCH  36  37
ATOM     37  C   UNL A   1      37.944  32.174  31.449  1.00  0.00     0.031 A 
ATOM     38  C   UNL A   1      38.694  31.041  30.813  1.00  0.00     0.074 A 
ATOM     39  C   UNL A   1      38.324  32.663  32.644  1.00  0.00     0.049 A 
ATOM     40  N   UNL A   1      39.717  30.370  31.269  1.00  0.00    -0.248 NA
ATOM     41  C   UNL A   1      38.223  30.600  29.489  1.00  0.00     0.031 C 
ATOM     42  C   UNL A   1      37.660  33.754  33.357  1.00  0.00     0.029 A 
ATOM     43  N   UNL A   1      39.342  32.284  33.481  1.00  0.00    -0.354 N 
ATOM     44  C   UNL A   1      39.994  29.405  30.309  1.00  0.00     0.074 A 
ATOM     45  C   UNL A   1      39.026  29.574  29.247  1.00  0.00     0.031 C 
ATOM     46  C   UNL A   1      38.274  33.940  34.538  1.00  0.00     0.029 A 
ATOM     47  C   UNL A   1      39.352  32.965  34.675  1.00  0.00     0.049 A 
ATOM     48  H   UNL A   1      40.002  31.591  33.248  1.00  0.00     0.167 HD
ATOM     49  C   UNL A   1      40.976  28.473  30.309  1.00  0.00     0.034 A 
ATOM     50  C   UNL A   1      40.130  32.803  35.763  1.00  0.00     0.034 A 
ATOM     51  C   UNL A   1      41.947  28.327  31.359  1.00  0.00     0.049 A 
ATOM     52  C   UNL A   1      41.208  31.754  35.739  1.00  0.00     0.074 A 
ATOM     53  C   UNL A   1      43.014  27.448  31.430  1.00  0.00     0.029 A 
ATOM     54  N   UNL A   1      41.965  29.072  32.528  1.00  0.00    -0.354 N 
ATOM     55  N   UNL A   1      41.537  30.930  34.772  1.00  0.00    -0.248 NA
ATOM     56  C   UNL A   1      42.042  31.628  36.943  1.00  0.00     0.031 C 
ATOM     57  C   UNL A   1      43.666  27.650  32.651  1.00  0.00     0.029 A 
ATOM     58  C   UNL A   1      43.016  28.668  33.333  1.00  0.00     0.049 A 
ATOM     59  H   UNL A   1      41.324  29.784  32.754  1.00  0.00     0.167 HD
ATOM     60  C   UNL A   1      42.631  30.211  35.238  1.00  0.00     0.074 A 
ATOM     61  C   UNL A   1      42.924  30.711  36.567  1.00  0.00     0.031 C 
ATOM     62  C   UNL A   1      43.322  29.214  34.631  1.00  0.00     0.034 A 
BRANCH  49  63
ATOM     63  C   UNL A   1      41.064  27.558  29.117  1.00  0.00     0.023 A 
ATOM     64  C   UNL A   1      40.291  26.380  29.086  1.00  0.00     0.012 A 
ATOM     65  C   UNL A   1      41.877  27.881  28.012  1.00  0.00     0.148 A 
ATOM     66  C   UNL A   1      40.348  25.522  27.988  1.00  0.00     0.002 A 
ATOM     67  C   UNL A   1      41.900  27.040  26.906  1.00  0.00     0.091 A 
ATOM     68  F   UNL A   1      42.626  28.991  28.072  1.00  0.00    -0.205 F 
ATOM     69  C   UNL A   1      41.144  25.856  26.896  1.00  0.00     0.022 A 
BRANCH  67  70
ATOM     70  S   UNL A   1      42.842  27.419  25.425  1.00  0.00     0.127 S 
ATOM     71  O   UNL A   1      42.689  26.187  24.654  1.00  0.00    -0.237 OA
ATOM     72  O   UNL A   1      42.118  28.570  24.883  1.00  0.00    -0.237 OA
ATOM     73  O   UNL A   1      44.194  27.714  25.876  1.00  0.00    -0.744 OA
ENDBRANCH  67  70
ENDBRANCH  49  63
BRANCH  50  74
ATOM     74  C   UNL A   1      39.942  33.688  36.947  1.00  0.00     0.023 A 
ATOM     75  C   UNL A   1      40.449  35.001  36.913  1.00  0.00     0.012 A 
ATOM     76  C   UNL A   1      39.235  33.252  38.085  1.00  0.00     0.148 A 
ATOM     77  C   UNL A   1      40.277  35.857  38.001  1.00  0.00     0.002 A 
ATOM     78  C   UNL A   1      39.021  34.128  39.144  1.00  0.00     0.091 A 
ATOM     79  F   UNL A   1      38.776  31.993  38.106  1.00  0.00    -0.205 F 
ATOM     80  C   UNL A   1      39.553  35.426  39.110  1.00  0.00     0.022 A 
BRANCH  78  81
ATOM     81  S   UNL A   1      37.993  33.700  40.553  1.00  0.00     0.127 S 
ATOM     82  O   UNL A   1      38.840  32.744  41.262  1.00  0.00    -0.237 OA
ATOM     83  O   UNL A   1      37.834  34.994  41.218  1.00  0.00    -0.237 OA
ATOM     84  O   UNL A   1      36.762  33.161  39.991  1.00  0.00    -0.744 OA
ENDBRANCH  78  81
ENDBRANCH  50  74
BRANCH  62  85
ATOM     85  C   UNL A   1      44.478  28.608  35.383  1.00  0.00     0.023 A 
ATOM     86  C   UNL A   1      45.784  29.081  35.152  1.00  0.00     0.012 A 
ATOM     87  C   UNL A   1      44.261  27.629  36.373  1.00  0.00     0.148 A 
ATOM     88  C   UNL A   1      46.862  28.569  35.873  1.00  0.00     0.002 A 
ATOM     89  C   UNL A   1      45.333  27.155  37.120  1.00  0.00     0.091 A 
ATOM     90  F   UNL A   1      43.014  27.177  36.565  1.00  0.00    -0.205 F 
ATOM     91  C   UNL A   1      46.635  27.615  36.864  1.00  0.00     0.022 A 
BRANCH  89  92
ATOM     92  S   UNL A   1      45.120  25.998  38.478  1.00  0.00     0.127 S 
ATOM     93  O   UNL A   1      44.636  24.808  37.782  1.00  0.00    -0.237 OA
ATOM     94  O   UNL A   1      46.480  25.884  39.007  1.00  0.00    -0.237 OA
ATOM     95  O   UNL A   1      44.171  26.623  39.388  1.00  0.00    -0.744 OA
ENDBRANCH  89  92
ENDBRANCH  62  85
ENDBRANCH  36  37
ENDBRANCH  29  31
ENDBRANCH  28  29
ENDBRANCH  27  28
ENDBRANCH   1  27
TORSDOF 20
ENDMDL
