MODEL 1
REMARK VINA RESULT:     -12.5      0.000      0.000
REMARK SMILES O=C(CN1C(=O)S/C(=C\c2cccn2-c2cccc(C(=O)OCCOC(=O)c3ccc(-c4c5nc(c(-c6cccc(S(=O)(=O)[O-])c6F)c6ccc([nH]6)c(-c6cccc(S(=O)(=O)[O-])c6F)c6nc(c(-c7cccc(S(=O)(=O)[O-])c7F)c7ccc4[nH]7)C=C6)C=C5)cc3)c2)C1=O)Nc1ccc(Cl)cc1
REMARK SMILES IDX 23 1 22 2 20 3 21 4 19 5 15 6 16 7 91 8 17 9 18 10 14 11
REMARK SMILES IDX 10 12 11 13 12 14 13 15 9 16 4 17 5 18 92 19 6 20 7 21 8 22
REMARK SMILES IDX 93 23 3 24 2 25 1 26 94 27 95 29 96 30 101 31 97 32 100 33
REMARK SMILES IDX 98 34 99 35 24 36 25 37 26 38 27 39 28 40 29 41 90 42 30 43
REMARK SMILES IDX 89 44 31 45 32 46 33 47 83 48 34 49 88 50 82 51 84 52 35 53
REMARK SMILES IDX 87 54 81 55 80 56 36 58 68 59 48 60 67 61 49 62 52 63 66 64
REMARK SMILES IDX 85 65 50 66 51 67 65 69 86 70 53 71 37 72 38 73 46 74 39 75
REMARK SMILES IDX 41 76 47 77 40 78 42 79 43 80 44 81 45 82 69 83 70 84 78 85
REMARK SMILES IDX 71 86 73 87 79 88 72 89 74 90 75 91 76 92 77 93 54 94 55 95
REMARK SMILES IDX 63 96 56 97 58 98 64 99 57 100 59 101 60 102 61 103 62 104
REMARK H PARENT 94 28 84 57 52 68
REMARK Flexibility Score: inf
ROOT
ATOM      1  C   UNL A   1      32.981  31.902  27.613  1.00  0.00     0.275 C 
ENDROOT
BRANCH   1   2
ATOM      2  O   UNL A   1      33.938  31.094  26.903  1.00  0.00    -0.458 OA
BRANCH   2   3
ATOM      3  C   UNL A   1      33.689  29.753  26.922  1.00  0.00     0.338 C 
ATOM      4  O   UNL A   1      33.738  29.030  27.888  1.00  0.00    -0.246 OA
BRANCH   3   5
ATOM      5  C   UNL A   1      33.218  29.289  25.584  1.00  0.00     0.062 A 
ATOM      6  C   UNL A   1      31.493  28.572  24.035  1.00  0.00     0.046 A 
ATOM      7  C   UNL A   1      32.476  28.242  23.092  1.00  0.00     0.026 A 
ATOM      8  C   UNL A   1      31.866  29.072  25.291  1.00  0.00     0.042 A 
ATOM      9  C   UNL A   1      33.822  28.471  23.380  1.00  0.00     0.003 A 
ATOM     10  C   UNL A   1      34.190  29.005  24.616  1.00  0.00     0.016 A 
BRANCH   6  11
ATOM     11  N   UNL A   1      30.117  28.390  23.706  1.00  0.00    -0.317 N 
ATOM     12  C   UNL A   1      29.288  27.311  24.029  1.00  0.00     0.047 A 
ATOM     13  C   UNL A   1      28.051  27.543  23.446  1.00  0.00     0.028 A 
ATOM     14  C   UNL A   1      28.098  28.790  22.792  1.00  0.00     0.020 A 
ATOM     15  C   UNL A   1      29.356  29.305  22.999  1.00  0.00     0.092 A 
BRANCH  12  16
ATOM     16  C   UNL A   1      29.729  26.288  24.916  1.00  0.00     0.048 C 
ATOM     17  N   UNL A   1      31.502  23.146  24.857  1.00  0.00    -0.259 N 
ATOM     18  C   UNL A   1      31.628  23.275  23.505  1.00  0.00     0.294 C 
ATOM     19  C   UNL A   1      30.848  24.166  25.509  1.00  0.00     0.268 C 
ATOM     20  O   UNL A   1      32.195  22.484  22.764  1.00  0.00    -0.261 OA
ATOM     21  S   UNL A   1      30.941  24.775  22.952  1.00  0.00    -0.022 SA
ATOM     22  C   UNL A   1      30.418  25.207  24.531  1.00  0.00     0.085 C 
ATOM     23  O   UNL A   1      30.591  24.206  26.704  1.00  0.00    -0.268 OA
BRANCH  17  24
ATOM     24  C   UNL A   1      31.910  21.931  25.550  1.00  0.00     0.230 C 
BRANCH  24  25
ATOM     25  C   UNL A   1      33.329  21.920  26.139  1.00  0.00     0.244 C 
ATOM     26  O   UNL A   1      33.528  21.424  27.247  1.00  0.00    -0.273 OA
ATOM     27  N   UNL A   1      34.321  22.320  25.259  1.00  0.00    -0.325 N 
ATOM     28  H   UNL A   1      34.012  22.668  24.391  1.00  0.00     0.169 HD
BRANCH  27  29
ATOM     29  C   UNL A   1      35.715  22.291  25.451  1.00  0.00     0.041 A 
ATOM     30  C   UNL A   1      36.375  21.101  25.112  1.00  0.00     0.027 A 
ATOM     31  C   UNL A   1      36.456  23.352  25.972  1.00  0.00     0.027 A 
ATOM     32  C   UNL A   1      37.760  20.985  25.262  1.00  0.00     0.022 A 
ATOM     33  C   UNL A   1      37.839  23.229  26.149  1.00  0.00     0.022 A 
ATOM     34  C   UNL A   1      38.486  22.051  25.784  1.00  0.00     0.041 A 
ATOM     35  Cl  UNL A   1      40.189  21.909  25.988  1.00  0.00    -0.084 Cl
ENDBRANCH  27  29
ENDBRANCH  24  25
ENDBRANCH  17  24
ENDBRANCH  12  16
ENDBRANCH   6  11
ENDBRANCH   3   5
ENDBRANCH   2   3
ENDBRANCH   1   2
BRANCH   1  36
ATOM     36  C   UNL A   1      33.125  33.390  27.286  1.00  0.00     0.275 C 
BRANCH  36  37
ATOM     37  O   UNL A   1      32.279  34.243  28.065  1.00  0.00    -0.458 OA
BRANCH  37  38
ATOM     38  C   UNL A   1      32.954  35.197  28.746  1.00  0.00     0.338 C 
ATOM     39  O   UNL A   1      32.795  36.407  28.678  1.00  0.00    -0.246 OA
BRANCH  38  40
ATOM     40  C   UNL A   1      34.061  34.622  29.505  1.00  0.00     0.060 A 
ATOM     41  C   UNL A   1      35.324  34.579  28.905  1.00  0.00     0.016 A 
ATOM     42  C   UNL A   1      33.771  33.904  30.667  1.00  0.00     0.016 A 
ATOM     43  C   UNL A   1      36.304  33.768  29.455  1.00  0.00     0.010 A 
ATOM     44  C   UNL A   1      34.735  33.057  31.186  1.00  0.00     0.010 A 
ATOM     45  C   UNL A   1      35.997  32.991  30.580  1.00  0.00    -0.014 A 
BRANCH  45  46
ATOM     46  C   UNL A   1      37.075  32.220  31.226  1.00  0.00     0.031 A 
ATOM     47  C   UNL A   1      37.428  30.964  30.402  1.00  0.00     0.074 A 
ATOM     48  C   UNL A   1      37.554  32.720  32.408  1.00  0.00     0.049 A 
ATOM     49  N   UNL A   1      37.987  29.852  30.775  1.00  0.00    -0.248 NA
ATOM     50  C   UNL A   1      37.011  30.890  28.971  1.00  0.00     0.031 C 
ATOM     51  C   UNL A   1      37.091  33.979  33.038  1.00  0.00     0.029 A 
ATOM     52  N   UNL A   1      38.509  32.303  33.315  1.00  0.00    -0.354 N 
ATOM     53  C   UNL A   1      38.228  29.102  29.596  1.00  0.00     0.074 A 
ATOM     54  C   UNL A   1      37.466  29.708  28.555  1.00  0.00     0.031 C 
ATOM     55  C   UNL A   1      37.696  34.178  34.231  1.00  0.00     0.029 A 
ATOM     56  C   UNL A   1      38.644  33.107  34.478  1.00  0.00     0.049 A 
ATOM     57  H   UNL A   1      39.061  31.502  33.165  1.00  0.00     0.167 HD
ATOM     58  C   UNL A   1      39.185  28.132  29.512  1.00  0.00     0.034 A 
ATOM     59  C   UNL A   1      39.452  32.923  35.572  1.00  0.00     0.034 A 
ATOM     60  C   UNL A   1      39.841  28.013  30.770  1.00  0.00     0.049 A 
ATOM     61  C   UNL A   1      40.381  31.854  35.194  1.00  0.00     0.074 A 
ATOM     62  C   UNL A   1      39.467  27.460  31.963  1.00  0.00     0.029 A 
ATOM     63  N   UNL A   1      40.917  28.850  30.954  1.00  0.00    -0.354 N 
ATOM     64  N   UNL A   1      41.366  32.011  34.362  1.00  0.00    -0.248 NA
ATOM     65  C   UNL A   1      40.170  30.497  35.712  1.00  0.00     0.031 C 
ATOM     66  C   UNL A   1      40.085  28.290  32.915  1.00  0.00     0.029 A 
ATOM     67  C   UNL A   1      40.944  29.197  32.277  1.00  0.00     0.049 A 
ATOM     68  H   UNL A   1      41.551  29.145  30.261  1.00  0.00     0.167 HD
ATOM     69  C   UNL A   1      41.610  30.718  33.974  1.00  0.00     0.074 A 
ATOM     70  C   UNL A   1      41.146  29.877  35.054  1.00  0.00     0.031 C 
ATOM     71  C   UNL A   1      41.617  30.419  32.649  1.00  0.00     0.034 A 
BRANCH  58  72
ATOM     72  C   UNL A   1      39.825  27.389  28.365  1.00  0.00     0.023 A 
ATOM     73  C   UNL A   1      39.611  25.980  28.363  1.00  0.00     0.012 A 
ATOM     74  C   UNL A   1      40.828  27.890  27.519  1.00  0.00     0.148 A 
ATOM     75  C   UNL A   1      40.435  25.100  27.669  1.00  0.00     0.002 A 
ATOM     76  C   UNL A   1      41.619  27.003  26.780  1.00  0.00     0.091 A 
ATOM     77  F   UNL A   1      41.079  29.203  27.494  1.00  0.00    -0.205 F 
ATOM     78  C   UNL A   1      41.453  25.613  26.887  1.00  0.00     0.022 A 
BRANCH  76  79
ATOM     79  S   UNL A   1      42.906  27.557  25.656  1.00  0.00     0.127 S 
ATOM     80  O   UNL A   1      43.387  26.298  25.097  1.00  0.00    -0.237 OA
ATOM     81  O   UNL A   1      42.150  28.388  24.714  1.00  0.00    -0.237 OA
ATOM     82  O   UNL A   1      43.845  28.308  26.479  1.00  0.00    -0.744 OA
ENDBRANCH  76  79
ENDBRANCH  58  72
BRANCH  59  83
ATOM     83  C   UNL A   1      39.607  33.477  36.974  1.00  0.00     0.023 A 
ATOM     84  C   UNL A   1      40.387  34.592  37.307  1.00  0.00     0.012 A 
ATOM     85  C   UNL A   1      38.845  32.916  38.047  1.00  0.00     0.148 A 
ATOM     86  C   UNL A   1      40.334  35.164  38.598  1.00  0.00     0.002 A 
ATOM     87  C   UNL A   1      38.690  33.553  39.272  1.00  0.00     0.091 A 
ATOM     88  F   UNL A   1      38.280  31.713  37.907  1.00  0.00    -0.205 F 
ATOM     89  C   UNL A   1      39.450  34.678  39.562  1.00  0.00     0.022 A 
BRANCH  87  90
ATOM     90  S   UNL A   1      37.405  33.060  40.439  1.00  0.00     0.127 S 
ATOM     91  O   UNL A   1      37.358  34.198  41.354  1.00  0.00    -0.237 OA
ATOM     92  O   UNL A   1      36.244  32.931  39.557  1.00  0.00    -0.237 OA
ATOM     93  O   UNL A   1      37.846  31.805  41.037  1.00  0.00    -0.744 OA
ENDBRANCH  87  90
ENDBRANCH  59  83
BRANCH  71  94
ATOM     94  C   UNL A   1      42.012  31.590  31.741  1.00  0.00     0.023 A 
ATOM     95  C   UNL A   1      40.961  32.280  31.096  1.00  0.00     0.012 A 
ATOM     96  C   UNL A   1      43.331  31.961  31.388  1.00  0.00     0.148 A 
ATOM     97  C   UNL A   1      41.200  33.255  30.124  1.00  0.00     0.002 A 
ATOM     98  C   UNL A   1      43.572  32.936  30.408  1.00  0.00     0.091 A 
ATOM     99  F   UNL A   1      44.351  31.350  31.989  1.00  0.00    -0.205 F 
ATOM    100  C   UNL A   1      42.504  33.581  29.777  1.00  0.00     0.022 A 
BRANCH  98 101
ATOM    101  S   UNL A   1      45.221  33.425  29.860  1.00  0.00     0.127 S 
ATOM    102  O   UNL A   1      45.755  32.181  29.303  1.00  0.00    -0.237 OA
ATOM    103  O   UNL A   1      44.929  34.450  28.857  1.00  0.00    -0.237 OA
ATOM    104  O   UNL A   1      45.918  33.909  31.043  1.00  0.00    -0.744 OA
ENDBRANCH  98 101
ENDBRANCH  71  94
ENDBRANCH  45  46
ENDBRANCH  38  40
ENDBRANCH  37  38
ENDBRANCH  36  37
ENDBRANCH   1  36
TORSDOF 19
ENDMDL
MODEL 2
REMARK VINA RESULT:     -12.4      5.022     10.697
REMARK SMILES O=C(CN1C(=O)S/C(=C\c2cccn2-c2cccc(C(=O)OCCOC(=O)c3ccc(-c4c5nc(c(-c6cccc(S(=O)(=O)[O-])c6F)c6ccc([nH]6)c(-c6cccc(S(=O)(=O)[O-])c6F)c6nc(c(-c7cccc(S(=O)(=O)[O-])c7F)c7ccc4[nH]7)C=C6)C=C5)cc3)c2)C1=O)Nc1ccc(Cl)cc1
REMARK SMILES IDX 23 1 22 2 20 3 21 4 19 5 15 6 16 7 91 8 17 9 18 10 14 11
REMARK SMILES IDX 10 12 11 13 12 14 13 15 9 16 4 17 5 18 92 19 6 20 7 21 8 22
REMARK SMILES IDX 93 23 3 24 2 25 1 26 94 27 95 29 96 30 101 31 97 32 100 33
REMARK SMILES IDX 98 34 99 35 24 36 25 37 26 38 27 39 28 40 29 41 90 42 30 43
REMARK SMILES IDX 89 44 31 45 32 46 33 47 83 48 34 49 88 50 82 51 84 52 35 53
REMARK SMILES IDX 87 54 81 55 80 56 36 58 68 59 48 60 67 61 49 62 52 63 66 64
REMARK SMILES IDX 85 65 50 66 51 67 65 69 86 70 53 71 37 72 38 73 46 74 39 75
REMARK SMILES IDX 41 76 47 77 40 78 42 79 43 80 44 81 45 82 69 83 70 84 78 85
REMARK SMILES IDX 71 86 73 87 79 88 72 89 74 90 75 91 76 92 77 93 54 94 55 95
REMARK SMILES IDX 63 96 56 97 58 98 64 99 57 100 59 101 60 102 61 103 62 104
REMARK H PARENT 94 28 84 57 52 68
REMARK Flexibility Score: inf
ROOT
ATOM      1  C   UNL A   1      39.221  21.205  26.053  1.00  0.00     0.275 C 
ENDROOT
BRANCH   1   2
ATOM      2  O   UNL A   1      38.146  21.690  25.228  1.00  0.00    -0.458 OA
BRANCH   2   3
ATOM      3  C   UNL A   1      37.458  22.751  25.740  1.00  0.00     0.338 C 
ATOM      4  O   UNL A   1      37.906  23.848  25.974  1.00  0.00    -0.246 OA
BRANCH   3   5
ATOM      5  C   UNL A   1      36.008  22.422  25.871  1.00  0.00     0.062 A 
ATOM      6  C   UNL A   1      33.914  21.532  25.026  1.00  0.00     0.046 A 
ATOM      7  C   UNL A   1      33.249  22.023  26.158  1.00  0.00     0.026 A 
ATOM      8  C   UNL A   1      35.291  21.755  24.871  1.00  0.00     0.042 A 
ATOM      9  C   UNL A   1      33.967  22.676  27.160  1.00  0.00     0.003 A 
ATOM     10  C   UNL A   1      35.344  22.863  27.023  1.00  0.00     0.016 A 
BRANCH   6  11
ATOM     11  N   UNL A   1      33.180  20.813  24.037  1.00  0.00    -0.317 N 
ATOM     12  C   UNL A   1      32.601  21.307  22.864  1.00  0.00     0.047 A 
ATOM     13  C   UNL A   1      31.938  20.255  22.249  1.00  0.00     0.028 A 
ATOM     14  C   UNL A   1      32.138  19.094  23.022  1.00  0.00     0.020 A 
ATOM     15  C   UNL A   1      32.932  19.452  24.086  1.00  0.00     0.092 A 
BRANCH  12  16
ATOM     16  C   UNL A   1      32.841  22.643  22.434  1.00  0.00     0.048 C 
ATOM     17  N   UNL A   1      31.522  25.972  22.871  1.00  0.00    -0.259 N 
ATOM     18  C   UNL A   1      30.574  25.457  23.705  1.00  0.00     0.294 C 
ATOM     19  C   UNL A   1      32.422  25.076  22.342  1.00  0.00     0.268 C 
ATOM     20  O   UNL A   1      29.708  26.099  24.283  1.00  0.00    -0.261 OA
ATOM     21  S   UNL A   1      30.794  23.744  23.921  1.00  0.00    -0.022 SA
ATOM     22  C   UNL A   1      32.124  23.700  22.834  1.00  0.00     0.085 C 
ATOM     23  O   UNL A   1      33.307  25.337  21.540  1.00  0.00    -0.268 OA
BRANCH  17  24
ATOM     24  C   UNL A   1      31.494  27.367  22.453  1.00  0.00     0.230 C 
BRANCH  24  25
ATOM     25  C   UNL A   1      32.376  28.342  23.250  1.00  0.00     0.244 C 
ATOM     26  O   UNL A   1      32.973  29.245  22.666  1.00  0.00    -0.273 OA
ATOM     27  N   UNL A   1      32.270  28.220  24.625  1.00  0.00    -0.325 N 
ATOM     28  H   UNL A   1      31.730  27.464  24.951  1.00  0.00     0.169 HD
BRANCH  27  29
ATOM     29  C   UNL A   1      32.837  29.045  25.616  1.00  0.00     0.041 A 
ATOM     30  C   UNL A   1      32.107  30.184  25.985  1.00  0.00     0.027 A 
ATOM     31  C   UNL A   1      34.073  28.806  26.219  1.00  0.00     0.027 A 
ATOM     32  C   UNL A   1      32.590  31.053  26.966  1.00  0.00     0.022 A 
ATOM     33  C   UNL A   1      34.571  29.691  27.182  1.00  0.00     0.022 A 
ATOM     34  C   UNL A   1      33.824  30.805  27.558  1.00  0.00     0.041 A 
ATOM     35  Cl  UNL A   1      34.433  31.881  28.755  1.00  0.00    -0.084 Cl
ENDBRANCH  27  29
ENDBRANCH  24  25
ENDBRANCH  17  24
ENDBRANCH  12  16
ENDBRANCH   6  11
ENDBRANCH   3   5
ENDBRANCH   2   3
ENDBRANCH   1   2
BRANCH   1  36
ATOM     36  C   UNL A   1      39.728  19.835  25.596  1.00  0.00     0.275 C 
BRANCH  36  37
ATOM     37  O   UNL A   1      40.638  19.214  26.511  1.00  0.00    -0.458 OA
BRANCH  37  38
ATOM     38  C   UNL A   1      41.925  19.245  26.096  1.00  0.00     0.338 C 
ATOM     39  O   UNL A   1      42.572  18.321  25.626  1.00  0.00    -0.246 OA
BRANCH  38  40
ATOM     40  C   UNL A   1      42.556  20.520  26.419  1.00  0.00     0.060 A 
ATOM     41  C   UNL A   1      42.464  20.992  27.734  1.00  0.00     0.016 A 
ATOM     42  C   UNL A   1      42.981  21.339  25.370  1.00  0.00     0.016 A 
ATOM     43  C   UNL A   1      42.764  22.318  27.996  1.00  0.00     0.010 A 
ATOM     44  C   UNL A   1      43.233  22.675  25.627  1.00  0.00     0.010 A 
ATOM     45  C   UNL A   1      43.124  23.161  26.936  1.00  0.00    -0.014 A 
BRANCH  45  46
ATOM     46  C   UNL A   1      43.552  24.539  27.240  1.00  0.00     0.031 A 
ATOM     47  C   UNL A   1      42.335  25.459  27.471  1.00  0.00     0.074 A 
ATOM     48  C   UNL A   1      44.903  24.766  27.252  1.00  0.00     0.049 A 
ATOM     49  N   UNL A   1      42.232  26.750  27.360  1.00  0.00    -0.248 NA
ATOM     50  C   UNL A   1      41.007  24.849  27.774  1.00  0.00     0.031 C 
ATOM     51  C   UNL A   1      45.933  23.726  27.023  1.00  0.00     0.029 A 
ATOM     52  N   UNL A   1      45.691  25.882  27.457  1.00  0.00    -0.354 N 
ATOM     53  C   UNL A   1      40.945  27.099  27.843  1.00  0.00     0.074 A 
ATOM     54  C   UNL A   1      40.190  25.892  27.923  1.00  0.00     0.031 C 
ATOM     55  C   UNL A   1      47.175  24.261  27.027  1.00  0.00     0.029 A 
ATOM     56  C   UNL A   1      47.090  25.683  27.306  1.00  0.00     0.049 A 
ATOM     57  H   UNL A   1      45.310  26.757  27.694  1.00  0.00     0.167 HD
ATOM     58  C   UNL A   1      40.639  28.341  28.318  1.00  0.00     0.034 A 
ATOM     59  C   UNL A   1      48.111  26.595  27.386  1.00  0.00     0.034 A 
ATOM     60  C   UNL A   1      41.789  29.175  28.222  1.00  0.00     0.049 A 
ATOM     61  C   UNL A   1      47.505  27.809  27.941  1.00  0.00     0.074 A 
ATOM     62  C   UNL A   1      42.401  29.793  27.167  1.00  0.00     0.029 A 
ATOM     63  N   UNL A   1      42.638  29.133  29.302  1.00  0.00    -0.354 N 
ATOM     64  N   UNL A   1      47.151  27.939  29.184  1.00  0.00    -0.248 NA
ATOM     65  C   UNL A   1      47.199  28.936  27.052  1.00  0.00     0.031 C 
ATOM     66  C   UNL A   1      43.763  29.758  27.515  1.00  0.00     0.029 A 
ATOM     67  C   UNL A   1      43.912  29.289  28.829  1.00  0.00     0.049 A 
ATOM     68  H   UNL A   1      42.378  29.013  30.245  1.00  0.00     0.167 HD
ATOM     69  C   UNL A   1      46.248  28.968  29.111  1.00  0.00     0.074 A 
ATOM     70  C   UNL A   1      46.599  29.731  27.934  1.00  0.00     0.031 C 
ATOM     71  C   UNL A   1      45.005  28.790  29.630  1.00  0.00     0.034 A 
BRANCH  58  72
ATOM     72  C   UNL A   1      39.485  28.903  29.113  1.00  0.00     0.023 A 
ATOM     73  C   UNL A   1      38.740  29.924  28.456  1.00  0.00     0.012 A 
ATOM     74  C   UNL A   1      39.285  28.745  30.494  1.00  0.00     0.148 A 
ATOM     75  C   UNL A   1      37.944  30.832  29.148  1.00  0.00     0.002 A 
ATOM     76  C   UNL A   1      38.441  29.628  31.177  1.00  0.00     0.091 A 
ATOM     77  F   UNL A   1      39.971  27.812  31.161  1.00  0.00    -0.205 F 
ATOM     78  C   UNL A   1      37.807  30.692  30.516  1.00  0.00     0.022 A 
BRANCH  76  79
ATOM     79  S   UNL A   1      38.108  29.485  32.937  1.00  0.00     0.127 S 
ATOM     80  O   UNL A   1      37.390  28.217  33.011  1.00  0.00    -0.237 OA
ATOM     81  O   UNL A   1      39.461  29.447  33.500  1.00  0.00    -0.237 OA
ATOM     82  O   UNL A   1      37.359  30.683  33.290  1.00  0.00    -0.744 OA
ENDBRANCH  76  79
ENDBRANCH  58  72
BRANCH  59  83
ATOM     83  C   UNL A   1      49.587  26.679  27.052  1.00  0.00     0.023 A 
ATOM     84  C   UNL A   1      50.103  26.806  25.755  1.00  0.00     0.012 A 
ATOM     85  C   UNL A   1      50.551  26.736  28.107  1.00  0.00     0.148 A 
ATOM     86  C   UNL A   1      51.473  27.069  25.535  1.00  0.00     0.002 A 
ATOM     87  C   UNL A   1      51.869  27.126  27.899  1.00  0.00     0.091 A 
ATOM     88  F   UNL A   1      50.209  26.370  29.346  1.00  0.00    -0.205 F 
ATOM     89  C   UNL A   1      52.344  27.280  26.604  1.00  0.00     0.022 A 
BRANCH  87  90
ATOM     90  S   UNL A   1      52.941  27.603  29.271  1.00  0.00     0.127 S 
ATOM     91  O   UNL A   1      54.132  28.094  28.582  1.00  0.00    -0.237 OA
ATOM     92  O   UNL A   1      52.136  28.636  29.924  1.00  0.00    -0.237 OA
ATOM     93  O   UNL A   1      53.145  26.404  30.075  1.00  0.00    -0.744 OA
ENDBRANCH  87  90
ENDBRANCH  59  83
BRANCH  71  94
ATOM     94  C   UNL A   1      44.942  27.784  30.785  1.00  0.00     0.023 A 
ATOM     95  C   UNL A   1      44.385  26.519  30.499  1.00  0.00     0.012 A 
ATOM     96  C   UNL A   1      45.270  28.048  32.137  1.00  0.00     0.148 A 
ATOM     97  C   UNL A   1      44.126  25.578  31.500  1.00  0.00     0.002 A 
ATOM     98  C   UNL A   1      45.006  27.107  33.143  1.00  0.00     0.091 A 
ATOM     99  F   UNL A   1      45.818  29.222  32.446  1.00  0.00    -0.205 F 
ATOM    100  C   UNL A   1      44.432  25.872  32.821  1.00  0.00     0.022 A 
BRANCH  98 101
ATOM    101  S   UNL A   1      45.340  27.386  34.895  1.00  0.00     0.127 S 
ATOM    102  O   UNL A   1      44.976  26.103  35.498  1.00  0.00    -0.237 OA
ATOM    103  O   UNL A   1      46.777  27.663  34.902  1.00  0.00    -0.237 OA
ATOM    104  O   UNL A   1      44.499  28.506  35.297  1.00  0.00    -0.744 OA
ENDBRANCH  98 101
ENDBRANCH  71  94
ENDBRANCH  45  46
ENDBRANCH  38  40
ENDBRANCH  37  38
ENDBRANCH  36  37
ENDBRANCH   1  36
TORSDOF 19
ENDMDL
MODEL 3
REMARK VINA RESULT:     -12.3      1.761      2.017
REMARK SMILES O=C(CN1C(=O)S/C(=C\c2cccn2-c2cccc(C(=O)OCCOC(=O)c3ccc(-c4c5nc(c(-c6cccc(S(=O)(=O)[O-])c6F)c6ccc([nH]6)c(-c6cccc(S(=O)(=O)[O-])c6F)c6nc(c(-c7cccc(S(=O)(=O)[O-])c7F)c7ccc4[nH]7)C=C6)C=C5)cc3)c2)C1=O)Nc1ccc(Cl)cc1
REMARK SMILES IDX 23 1 22 2 20 3 21 4 19 5 15 6 16 7 91 8 17 9 18 10 14 11
REMARK SMILES IDX 10 12 11 13 12 14 13 15 9 16 4 17 5 18 92 19 6 20 7 21 8 22
REMARK SMILES IDX 93 23 3 24 2 25 1 26 94 27 95 29 96 30 101 31 97 32 100 33
REMARK SMILES IDX 98 34 99 35 24 36 25 37 26 38 27 39 28 40 29 41 90 42 30 43
REMARK SMILES IDX 89 44 31 45 32 46 33 47 83 48 34 49 88 50 82 51 84 52 35 53
REMARK SMILES IDX 87 54 81 55 80 56 36 58 68 59 48 60 67 61 49 62 52 63 66 64
REMARK SMILES IDX 85 65 50 66 51 67 65 69 86 70 53 71 37 72 38 73 46 74 39 75
REMARK SMILES IDX 41 76 47 77 40 78 42 79 43 80 44 81 45 82 69 83 70 84 78 85
REMARK SMILES IDX 71 86 73 87 79 88 72 89 74 90 75 91 76 92 77 93 54 94 55 95
REMARK SMILES IDX 63 96 56 97 58 98 64 99 57 100 59 101 60 102 61 103 62 104
REMARK H PARENT 94 28 84 57 52 68
REMARK Flexibility Score: inf
ROOT
ATOM      1  C   UNL A   1      33.519  31.900  27.622  1.00  0.00     0.275 C 
ENDROOT
BRANCH   1   2
ATOM      2  O   UNL A   1      32.885  30.669  27.231  1.00  0.00    -0.458 OA
BRANCH   2   3
ATOM      3  C   UNL A   1      33.728  29.716  26.738  1.00  0.00     0.338 C 
ATOM      4  O   UNL A   1      34.712  29.280  27.284  1.00  0.00    -0.246 OA
BRANCH   3   5
ATOM      5  C   UNL A   1      33.205  29.170  25.450  1.00  0.00     0.062 A 
ATOM      6  C   UNL A   1      31.435  28.292  24.040  1.00  0.00     0.046 A 
ATOM      7  C   UNL A   1      32.377  27.981  23.051  1.00  0.00     0.026 A 
ATOM      8  C   UNL A   1      31.854  28.864  25.251  1.00  0.00     0.042 A 
ATOM      9  C   UNL A   1      33.722  28.298  23.245  1.00  0.00     0.003 A 
ATOM     10  C   UNL A   1      34.132  28.903  24.435  1.00  0.00     0.016 A 
BRANCH   6  11
ATOM     11  N   UNL A   1      30.055  28.019  23.806  1.00  0.00    -0.317 N 
ATOM     12  C   UNL A   1      29.307  26.922  24.244  1.00  0.00     0.047 A 
ATOM     13  C   UNL A   1      28.028  27.051  23.722  1.00  0.00     0.028 A 
ATOM     14  C   UNL A   1      27.970  28.253  22.989  1.00  0.00     0.020 A 
ATOM     15  C   UNL A   1      29.207  28.845  23.089  1.00  0.00     0.092 A 
BRANCH  12  16
ATOM     16  C   UNL A   1      29.852  25.984  25.167  1.00  0.00     0.048 C 
ATOM     17  N   UNL A   1      31.731  22.904  25.199  1.00  0.00    -0.259 N 
ATOM     18  C   UNL A   1      31.750  22.934  23.835  1.00  0.00     0.294 C 
ATOM     19  C   UNL A   1      31.091  23.950  25.824  1.00  0.00     0.268 C 
ATOM     20  O   UNL A   1      32.288  22.108  23.112  1.00  0.00    -0.261 OA
ATOM     21  S   UNL A   1      30.967  24.366  23.229  1.00  0.00    -0.022 SA
ATOM     22  C   UNL A   1      30.550  24.899  24.809  1.00  0.00     0.085 C 
ATOM     23  O   UNL A   1      30.926  24.072  27.029  1.00  0.00    -0.268 OA
BRANCH  17  24
ATOM     24  C   UNL A   1      32.236  21.760  25.944  1.00  0.00     0.230 C 
BRANCH  24  25
ATOM     25  C   UNL A   1      33.688  21.850  26.444  1.00  0.00     0.244 C 
ATOM     26  O   UNL A   1      33.944  21.623  27.625  1.00  0.00    -0.273 OA
ATOM     27  N   UNL A   1      34.632  22.007  25.443  1.00  0.00    -0.325 N 
ATOM     28  H   UNL A   1      34.278  22.150  24.535  1.00  0.00     0.169 HD
BRANCH  27  29
ATOM     29  C   UNL A   1      36.034  21.987  25.562  1.00  0.00     0.041 A 
ATOM     30  C   UNL A   1      36.651  23.177  25.973  1.00  0.00     0.027 A 
ATOM     31  C   UNL A   1      36.829  20.875  25.276  1.00  0.00     0.027 A 
ATOM     32  C   UNL A   1      38.038  23.246  26.126  1.00  0.00     0.022 A 
ATOM     33  C   UNL A   1      38.220  20.950  25.404  1.00  0.00     0.022 A 
ATOM     34  C   UNL A   1      38.818  22.131  25.837  1.00  0.00     0.041 A 
ATOM     35  Cl  UNL A   1      40.528  22.213  26.007  1.00  0.00    -0.084 Cl
ENDBRANCH  27  29
ENDBRANCH  24  25
ENDBRANCH  17  24
ENDBRANCH  12  16
ENDBRANCH   6  11
ENDBRANCH   3   5
ENDBRANCH   2   3
ENDBRANCH   1   2
BRANCH   1  36
ATOM     36  C   UNL A   1      32.539  33.075  27.640  1.00  0.00     0.275 C 
BRANCH  36  37
ATOM     37  O   UNL A   1      33.168  34.361  27.584  1.00  0.00    -0.458 OA
BRANCH  37  38
ATOM     38  C   UNL A   1      33.247  34.975  28.787  1.00  0.00     0.338 C 
ATOM     39  O   UNL A   1      32.554  35.895  29.195  1.00  0.00    -0.246 OA
BRANCH  38  40
ATOM     40  C   UNL A   1      34.407  34.511  29.543  1.00  0.00     0.060 A 
ATOM     41  C   UNL A   1      35.670  34.612  28.949  1.00  0.00     0.016 A 
ATOM     42  C   UNL A   1      34.191  33.747  30.693  1.00  0.00     0.016 A 
ATOM     43  C   UNL A   1      36.729  33.902  29.492  1.00  0.00     0.010 A 
ATOM     44  C   UNL A   1      35.239  33.002  31.204  1.00  0.00     0.010 A 
ATOM     45  C   UNL A   1      36.502  33.080  30.604  1.00  0.00    -0.014 A 
BRANCH  45  46
ATOM     46  C   UNL A   1      37.655  32.419  31.244  1.00  0.00     0.031 A 
ATOM     47  C   UNL A   1      38.024  31.114  30.509  1.00  0.00     0.074 A 
ATOM     48  C   UNL A   1      38.174  33.042  32.348  1.00  0.00     0.049 A 
ATOM     49  N   UNL A   1      38.660  30.066  30.939  1.00  0.00    -0.248 NA
ATOM     50  C   UNL A   1      37.529  30.896  29.118  1.00  0.00     0.031 C 
ATOM     51  C   UNL A   1      37.685  34.328  32.898  1.00  0.00     0.029 A 
ATOM     52  N   UNL A   1      39.201  32.751  33.226  1.00  0.00    -0.354 N 
ATOM     53  C   UNL A   1      38.871  29.228  29.814  1.00  0.00     0.074 A 
ATOM     54  C   UNL A   1      38.019  29.705  28.776  1.00  0.00     0.031 C 
ATOM     55  C   UNL A   1      38.347  34.658  34.029  1.00  0.00     0.029 A 
ATOM     56  C   UNL A   1      39.362  33.659  34.307  1.00  0.00     0.049 A 
ATOM     57  H   UNL A   1      39.784  31.967  33.109  1.00  0.00     0.167 HD
ATOM     58  C   UNL A   1      39.870  28.300  29.753  1.00  0.00     0.034 A 
ATOM     59  C   UNL A   1      40.240  33.609  35.360  1.00  0.00     0.034 A 
ATOM     60  C   UNL A   1      40.603  28.322  30.974  1.00  0.00     0.049 A 
ATOM     61  C   UNL A   1      41.199  32.555  35.016  1.00  0.00     0.074 A 
ATOM     62  C   UNL A   1      40.328  27.858  32.230  1.00  0.00     0.029 A 
ATOM     63  N   UNL A   1      41.643  29.220  31.019  1.00  0.00    -0.354 N 
ATOM     64  N   UNL A   1      42.125  32.684  34.114  1.00  0.00    -0.248 NA
ATOM     65  C   UNL A   1      41.089  31.240  35.658  1.00  0.00     0.031 C 
ATOM     66  C   UNL A   1      40.957  28.796  33.068  1.00  0.00     0.029 A 
ATOM     67  C   UNL A   1      41.729  29.683  32.304  1.00  0.00     0.049 A 
ATOM     68  H   UNL A   1      42.220  29.483  30.266  1.00  0.00     0.167 HD
ATOM     69  C   UNL A   1      42.413  31.375  33.822  1.00  0.00     0.074 A 
ATOM     70  C   UNL A   1      42.056  30.611  34.996  1.00  0.00     0.031 C 
ATOM     71  C   UNL A   1      42.358  30.963  32.529  1.00  0.00     0.034 A 
BRANCH  58  72
ATOM     72  C   UNL A   1      40.480  27.491  28.635  1.00  0.00     0.023 A 
ATOM     73  C   UNL A   1      40.421  26.078  28.810  1.00  0.00     0.012 A 
ATOM     74  C   UNL A   1      41.342  27.982  27.640  1.00  0.00     0.148 A 
ATOM     75  C   UNL A   1      41.270  25.204  28.136  1.00  0.00     0.002 A 
ATOM     76  C   UNL A   1      42.154  27.093  26.927  1.00  0.00     0.091 A 
ATOM     77  F   UNL A   1      41.446  29.300  27.446  1.00  0.00    -0.205 F 
ATOM     78  C   UNL A   1      42.150  25.717  27.203  1.00  0.00     0.022 A 
BRANCH  76  79
ATOM     79  S   UNL A   1      43.266  27.631  25.622  1.00  0.00     0.127 S 
ATOM     80  O   UNL A   1      43.902  26.378  25.226  1.00  0.00    -0.237 OA
ATOM     81  O   UNL A   1      42.333  28.175  24.631  1.00  0.00    -0.237 OA
ATOM     82  O   UNL A   1      44.125  28.636  26.233  1.00  0.00    -0.744 OA
ENDBRANCH  76  79
ENDBRANCH  58  72
BRANCH  59  83
ATOM     83  C   UNL A   1      40.447  34.289  36.697  1.00  0.00     0.023 A 
ATOM     84  C   UNL A   1      39.697  34.023  37.851  1.00  0.00     0.012 A 
ATOM     85  C   UNL A   1      41.536  35.202  36.868  1.00  0.00     0.148 A 
ATOM     86  C   UNL A   1      40.069  34.555  39.105  1.00  0.00     0.002 A 
ATOM     87  C   UNL A   1      41.979  35.616  38.118  1.00  0.00     0.091 A 
ATOM     88  F   UNL A   1      42.145  35.722  35.799  1.00  0.00    -0.205 F 
ATOM     89  C   UNL A   1      41.236  35.307  39.249  1.00  0.00     0.022 A 
BRANCH  87  90
ATOM     90  S   UNL A   1      43.588  36.406  38.337  1.00  0.00     0.127 S 
ATOM     91  O   UNL A   1      43.696  36.500  39.791  1.00  0.00    -0.237 OA
ATOM     92  O   UNL A   1      44.480  35.426  37.715  1.00  0.00    -0.237 OA
ATOM     93  O   UNL A   1      43.521  37.685  37.640  1.00  0.00    -0.744 OA
ENDBRANCH  87  90
ENDBRANCH  59  83
BRANCH  71  94
ATOM     94  C   UNL A   1      42.639  32.067  31.503  1.00  0.00     0.023 A 
ATOM     95  C   UNL A   1      41.524  32.599  30.817  1.00  0.00     0.012 A 
ATOM     96  C   UNL A   1      43.917  32.511  31.086  1.00  0.00     0.148 A 
ATOM     97  C   UNL A   1      41.665  33.489  29.749  1.00  0.00     0.002 A 
ATOM     98  C   UNL A   1      44.060  33.401  30.011  1.00  0.00     0.091 A 
ATOM     99  F   UNL A   1      44.993  32.050  31.721  1.00  0.00    -0.205 F 
ATOM    100  C   UNL A   1      42.931  33.888  29.344  1.00  0.00     0.022 A 
BRANCH  98 101
ATOM    101  S   UNL A   1      45.653  33.970  29.381  1.00  0.00     0.127 S 
ATOM    102  O   UNL A   1      45.276  34.691  28.165  1.00  0.00    -0.237 OA
ATOM    103  O   UNL A   1      46.130  34.832  30.463  1.00  0.00    -0.237 OA
ATOM    104  O   UNL A   1      46.453  32.774  29.154  1.00  0.00    -0.744 OA
ENDBRANCH  98 101
ENDBRANCH  71  94
ENDBRANCH  45  46
ENDBRANCH  38  40
ENDBRANCH  37  38
ENDBRANCH  36  37
ENDBRANCH   1  36
TORSDOF 19
ENDMDL
