MODEL 1
REMARK VINA RESULT:     -11.4      0.000      0.000
REMARK SMILES CC(C)[C@H](NC(=O)CCNC(=O)c1ccoc1)C(=O)OCCOC(=O)c1ccc(-c2c3nc(c(-c4cccc(S(=O)(=O)[O-])c4F)c4ccc([nH]4)c(-c4cccc(S(=O)(=O)[O-])c4F)c4nc(c(-c5cccc(S(=O)(=O)[O-])c5F)c5ccc2[nH]5)C=C4)C=C3)cc1
REMARK SMILES IDX 21 1 20 2 18 3 19 4 4 5 2 6 1 7 3 8 5 9 6 10 7 12 8 13 9 14
REMARK SMILES IDX 10 15 11 16 12 18 13 19 14 20 17 21 15 22 16 23 22 24 23 25
REMARK SMILES IDX 24 26 25 27 26 28 27 29 88 30 28 31 87 32 29 33 30 34 31 35
REMARK SMILES IDX 81 36 32 37 86 38 80 39 82 40 33 41 85 42 79 43 78 44 34 46
REMARK SMILES IDX 66 47 46 48 65 49 47 50 50 51 64 52 83 53 48 54 49 55 63 57
REMARK SMILES IDX 84 58 51 59 35 60 36 61 44 62 37 63 39 64 45 65 38 66 40 67
REMARK SMILES IDX 41 68 42 69 43 70 67 71 68 72 76 73 69 74 71 75 77 76 70 77
REMARK SMILES IDX 72 78 73 79 74 80 75 81 52 82 53 83 61 84 54 85 56 86 62 87
REMARK SMILES IDX 55 88 57 89 58 90 59 91 60 92
REMARK H PARENT 5 11 10 17 82 45 50 56
REMARK Flexibility Score: inf
ROOT
ATOM      1  C   UNL A   1      35.219  21.179  25.395  1.00  0.00     0.274 C 
ENDROOT
BRANCH   1   2
ATOM      2  O   UNL A   1      34.149  20.498  24.707  1.00  0.00    -0.461 OA
BRANCH   2   3
ATOM      3  C   UNL A   1      33.118  21.308  24.328  1.00  0.00     0.329 C 
ATOM      4  O   UNL A   1      32.024  20.883  23.976  1.00  0.00    -0.250 OA
BRANCH   3   5
ATOM      5  C   UNL A   1      33.432  22.821  24.495  1.00  0.00     0.194 C 
BRANCH   5   6
ATOM      6  C   UNL A   1      32.637  23.524  25.628  1.00  0.00     0.017 C 
ATOM      7  C   UNL A   1      32.334  22.650  26.854  1.00  0.00     0.010 C 
ATOM      8  C   UNL A   1      33.377  24.773  26.125  1.00  0.00     0.010 C 
ENDBRANCH   5   6
BRANCH   5   9
ATOM      9  N   UNL A   1      33.595  23.512  23.198  1.00  0.00    -0.342 N 
ATOM     10  C   UNL A   1      32.829  24.274  22.390  1.00  0.00     0.222 C 
ATOM     11  H   UNL A   1      34.497  23.381  22.826  1.00  0.00     0.164 HD
ATOM     12  O   UNL A   1      33.210  24.465  21.231  1.00  0.00    -0.275 OA
BRANCH  10  13
ATOM     13  C   UNL A   1      31.553  24.906  22.866  1.00  0.00     0.121 C 
BRANCH  13  14
ATOM     14  C   UNL A   1      31.476  26.385  22.520  1.00  0.00     0.126 C 
BRANCH  14  15
ATOM     15  N   UNL A   1      31.560  27.293  23.653  1.00  0.00    -0.351 N 
ATOM     16  C   UNL A   1      30.905  28.464  23.931  1.00  0.00     0.254 C 
ATOM     17  H   UNL A   1      32.204  27.017  24.345  1.00  0.00     0.163 HD
ATOM     18  O   UNL A   1      31.230  29.083  24.946  1.00  0.00    -0.269 OA
BRANCH  16  19
ATOM     19  C   UNL A   1      29.903  28.970  23.020  1.00  0.00     0.077 A 
ATOM     20  C   UNL A   1      28.494  28.774  22.985  1.00  0.00     0.056 A 
ATOM     21  C   UNL A   1      30.165  29.866  22.001  1.00  0.00     0.208 A 
ATOM     22  C   UNL A   1      28.021  29.502  21.920  1.00  0.00     0.195 A 
ATOM     23  O   UNL A   1      29.035  30.165  21.312  1.00  0.00    -0.472 OA
ENDBRANCH  16  19
ENDBRANCH  14  15
ENDBRANCH  13  14
ENDBRANCH  10  13
ENDBRANCH   5   9
ENDBRANCH   3   5
ENDBRANCH   2   3
ENDBRANCH   1   2
BRANCH   1  24
ATOM     24  C   UNL A   1      36.611  20.676  24.976  1.00  0.00     0.275 C 
BRANCH  24  25
ATOM     25  O   UNL A   1      37.646  21.671  25.102  1.00  0.00    -0.458 OA
BRANCH  25  26
ATOM     26  C   UNL A   1      38.737  21.274  25.799  1.00  0.00     0.338 C 
ATOM     27  O   UNL A   1      39.260  20.171  25.773  1.00  0.00    -0.246 OA
BRANCH  26  28
ATOM     28  C   UNL A   1      39.359  22.413  26.492  1.00  0.00     0.060 A 
ATOM     29  C   UNL A   1      38.891  23.687  26.170  1.00  0.00     0.016 A 
ATOM     30  C   UNL A   1      40.472  22.270  27.314  1.00  0.00     0.016 A 
ATOM     31  C   UNL A   1      39.566  24.823  26.570  1.00  0.00     0.010 A 
ATOM     32  C   UNL A   1      41.113  23.421  27.790  1.00  0.00     0.010 A 
ATOM     33  C   UNL A   1      40.679  24.702  27.396  1.00  0.00    -0.014 A 
BRANCH  33  34
ATOM     34  C   UNL A   1      41.392  25.931  27.804  1.00  0.00     0.031 A 
ATOM     35  C   UNL A   1      40.667  26.974  28.599  1.00  0.00     0.074 A 
ATOM     36  C   UNL A   1      42.691  26.084  27.481  1.00  0.00     0.049 A 
ATOM     37  N   UNL A   1      41.059  28.174  28.930  1.00  0.00    -0.248 NA
ATOM     38  C   UNL A   1      39.321  26.622  29.081  1.00  0.00     0.031 C 
ATOM     39  C   UNL A   1      43.507  25.099  26.764  1.00  0.00     0.029 A 
ATOM     40  N   UNL A   1      43.547  27.132  27.694  1.00  0.00    -0.354 N 
ATOM     41  C   UNL A   1      39.985  28.749  29.597  1.00  0.00     0.074 A 
ATOM     42  C   UNL A   1      38.929  27.761  29.636  1.00  0.00     0.031 C 
ATOM     43  C   UNL A   1      44.738  25.598  26.580  1.00  0.00     0.029 A 
ATOM     44  C   UNL A   1      44.775  26.960  27.098  1.00  0.00     0.049 A 
ATOM     45  H   UNL A   1      43.308  27.928  28.221  1.00  0.00     0.167 HD
ATOM     46  C   UNL A   1      39.894  29.991  30.124  1.00  0.00     0.034 A 
ATOM     47  C   UNL A   1      45.792  27.825  26.934  1.00  0.00     0.034 A 
ATOM     48  C   UNL A   1      40.971  30.945  30.104  1.00  0.00     0.049 A 
ATOM     49  C   UNL A   1      45.649  29.213  27.496  1.00  0.00     0.074 A 
ATOM     50  C   UNL A   1      40.999  32.222  30.635  1.00  0.00     0.029 A 
ATOM     51  N   UNL A   1      42.208  30.726  29.516  1.00  0.00    -0.354 N 
ATOM     52  N   UNL A   1      44.648  29.731  28.166  1.00  0.00    -0.248 NA
ATOM     53  C   UNL A   1      46.779  30.128  27.296  1.00  0.00     0.031 C 
ATOM     54  C   UNL A   1      42.243  32.787  30.336  1.00  0.00     0.029 A 
ATOM     55  C   UNL A   1      43.004  31.849  29.658  1.00  0.00     0.049 A 
ATOM     56  H   UNL A   1      42.479  29.895  29.064  1.00  0.00     0.167 HD
ATOM     57  C   UNL A   1      45.040  31.021  28.499  1.00  0.00     0.074 A 
ATOM     58  C   UNL A   1      46.379  31.197  27.971  1.00  0.00     0.031 C 
ATOM     59  C   UNL A   1      44.353  31.978  29.169  1.00  0.00     0.034 A 
BRANCH  46  60
ATOM     60  C   UNL A   1      38.586  30.394  30.752  1.00  0.00     0.023 A 
ATOM     61  C   UNL A   1      38.342  30.131  32.115  1.00  0.00     0.012 A 
ATOM     62  C   UNL A   1      37.610  31.073  29.994  1.00  0.00     0.148 A 
ATOM     63  C   UNL A   1      37.135  30.507  32.705  1.00  0.00     0.002 A 
ATOM     64  C   UNL A   1      36.431  31.486  30.599  1.00  0.00     0.091 A 
ATOM     65  F   UNL A   1      37.851  31.290  28.693  1.00  0.00    -0.205 F 
ATOM     66  C   UNL A   1      36.186  31.192  31.951  1.00  0.00     0.022 A 
BRANCH  64  67
ATOM     67  S   UNL A   1      35.181  32.442  29.735  1.00  0.00     0.127 S 
ATOM     68  O   UNL A   1      34.232  32.728  30.810  1.00  0.00    -0.237 OA
ATOM     69  O   UNL A   1      35.947  33.600  29.274  1.00  0.00    -0.237 OA
ATOM     70  O   UNL A   1      34.678  31.582  28.673  1.00  0.00    -0.744 OA
ENDBRANCH  64  67
ENDBRANCH  46  60
BRANCH  47  71
ATOM     71  C   UNL A   1      47.021  27.407  26.204  1.00  0.00     0.023 A 
ATOM     72  C   UNL A   1      48.011  26.667  26.876  1.00  0.00     0.012 A 
ATOM     73  C   UNL A   1      47.202  27.717  24.840  1.00  0.00     0.148 A 
ATOM     74  C   UNL A   1      49.174  26.270  26.213  1.00  0.00     0.002 A 
ATOM     75  C   UNL A   1      48.334  27.269  24.171  1.00  0.00     0.091 A 
ATOM     76  F   UNL A   1      46.253  28.434  24.221  1.00  0.00    -0.205 F 
ATOM     77  C   UNL A   1      49.330  26.561  24.861  1.00  0.00     0.022 A 
BRANCH  75  78
ATOM     78  S   UNL A   1      48.559  27.486  22.402  1.00  0.00     0.127 S 
ATOM     79  O   UNL A   1      47.384  28.277  22.047  1.00  0.00    -0.237 OA
ATOM     80  O   UNL A   1      49.829  28.211  22.348  1.00  0.00    -0.237 OA
ATOM     81  O   UNL A   1      48.610  26.142  21.843  1.00  0.00    -0.744 OA
ENDBRANCH  75  78
ENDBRANCH  47  71
BRANCH  59  82
ATOM     82  C   UNL A   1      45.054  33.287  29.420  1.00  0.00     0.023 A 
ATOM     83  C   UNL A   1      45.869  33.445  30.557  1.00  0.00     0.012 A 
ATOM     84  C   UNL A   1      44.962  34.332  28.480  1.00  0.00     0.148 A 
ATOM     85  C   UNL A   1      46.560  34.637  30.770  1.00  0.00     0.002 A 
ATOM     86  C   UNL A   1      45.696  35.495  28.671  1.00  0.00     0.091 A 
ATOM     87  F   UNL A   1      44.164  34.166  27.415  1.00  0.00    -0.205 F 
ATOM     88  C   UNL A   1      46.484  35.655  29.822  1.00  0.00     0.022 A 
BRANCH  86  89
ATOM     89  S   UNL A   1      45.740  36.815  27.454  1.00  0.00     0.127 S 
ATOM     90  O   UNL A   1      46.333  36.137  26.302  1.00  0.00    -0.237 OA
ATOM     91  O   UNL A   1      44.323  37.144  27.305  1.00  0.00    -0.237 OA
ATOM     92  O   UNL A   1      46.550  37.875  28.037  1.00  0.00    -0.744 OA
ENDBRANCH  86  89
ENDBRANCH  59  82
ENDBRANCH  33  34
ENDBRANCH  26  28
ENDBRANCH  25  26
ENDBRANCH  24  25
ENDBRANCH   1  24
TORSDOF 20
ENDMDL
MODEL 2
REMARK VINA RESULT:     -11.3      5.217     10.385
REMARK SMILES CC(C)[C@H](NC(=O)CCNC(=O)c1ccoc1)C(=O)OCCOC(=O)c1ccc(-c2c3nc(c(-c4cccc(S(=O)(=O)[O-])c4F)c4ccc([nH]4)c(-c4cccc(S(=O)(=O)[O-])c4F)c4nc(c(-c5cccc(S(=O)(=O)[O-])c5F)c5ccc2[nH]5)C=C4)C=C3)cc1
REMARK SMILES IDX 21 1 20 2 18 3 19 4 4 5 2 6 1 7 3 8 5 9 6 10 7 12 8 13 9 14
REMARK SMILES IDX 10 15 11 16 12 18 13 19 14 20 17 21 15 22 16 23 22 24 23 25
REMARK SMILES IDX 24 26 25 27 26 28 27 29 88 30 28 31 87 32 29 33 30 34 31 35
REMARK SMILES IDX 81 36 32 37 86 38 80 39 82 40 33 41 85 42 79 43 78 44 34 46
REMARK SMILES IDX 66 47 46 48 65 49 47 50 50 51 64 52 83 53 48 54 49 55 63 57
REMARK SMILES IDX 84 58 51 59 35 60 36 61 44 62 37 63 39 64 45 65 38 66 40 67
REMARK SMILES IDX 41 68 42 69 43 70 67 71 68 72 76 73 69 74 71 75 77 76 70 77
REMARK SMILES IDX 72 78 73 79 74 80 75 81 52 82 53 83 61 84 54 85 56 86 62 87
REMARK SMILES IDX 55 88 57 89 58 90 59 91 60 92
REMARK H PARENT 5 11 10 17 82 45 50 56
REMARK Flexibility Score: inf
ROOT
ATOM      1  C   UNL A   1      32.917  28.434  25.150  1.00  0.00     0.274 C 
ENDROOT
BRANCH   1   2
ATOM      2  O   UNL A   1      31.906  27.438  24.888  1.00  0.00    -0.461 OA
BRANCH   2   3
ATOM      3  C   UNL A   1      32.195  26.602  23.849  1.00  0.00     0.329 C 
ATOM      4  O   UNL A   1      32.338  26.989  22.695  1.00  0.00    -0.250 OA
BRANCH   3   5
ATOM      5  C   UNL A   1      32.437  25.132  24.293  1.00  0.00     0.194 C 
BRANCH   5   6
ATOM      6  C   UNL A   1      32.533  24.113  23.126  1.00  0.00     0.017 C 
ATOM      7  C   UNL A   1      33.879  23.382  23.007  1.00  0.00     0.010 C 
ATOM      8  C   UNL A   1      31.438  23.044  23.238  1.00  0.00     0.010 C 
ENDBRANCH   5   6
BRANCH   5   9
ATOM      9  N   UNL A   1      31.660  24.771  25.499  1.00  0.00    -0.342 N 
ATOM     10  C   UNL A   1      31.842  23.988  26.583  1.00  0.00     0.222 C 
ATOM     11  H   UNL A   1      30.783  25.216  25.515  1.00  0.00     0.164 HD
ATOM     12  O   UNL A   1      30.857  23.706  27.272  1.00  0.00    -0.275 OA
BRANCH  10  13
ATOM     13  C   UNL A   1      33.196  23.477  26.979  1.00  0.00     0.121 C 
BRANCH  13  14
ATOM     14  C   UNL A   1      33.311  21.967  26.832  1.00  0.00     0.126 C 
BRANCH  14  15
ATOM     15  N   UNL A   1      34.519  21.496  26.174  1.00  0.00    -0.351 N 
ATOM     16  C   UNL A   1      34.728  20.492  25.267  1.00  0.00     0.254 C 
ATOM     17  H   UNL A   1      35.334  21.989  26.426  1.00  0.00     0.163 HD
ATOM     18  O   UNL A   1      35.888  20.251  24.925  1.00  0.00    -0.269 OA
BRANCH  16  19
ATOM     19  C   UNL A   1      33.615  19.709  24.778  1.00  0.00     0.077 A 
ATOM     20  C   UNL A   1      32.948  19.726  23.520  1.00  0.00     0.056 A 
ATOM     21  C   UNL A   1      33.023  18.679  25.484  1.00  0.00     0.208 A 
ATOM     22  C   UNL A   1      31.969  18.762  23.581  1.00  0.00     0.195 A 
ATOM     23  O   UNL A   1      32.005  18.125  24.777  1.00  0.00    -0.472 OA
ENDBRANCH  16  19
ENDBRANCH  14  15
ENDBRANCH  13  14
ENDBRANCH  10  13
ENDBRANCH   5   9
ENDBRANCH   3   5
ENDBRANCH   2   3
ENDBRANCH   1   2
BRANCH   1  24
ATOM     24  C   UNL A   1      32.322  29.799  25.536  1.00  0.00     0.275 C 
BRANCH  24  25
ATOM     25  O   UNL A   1      32.475  30.121  26.932  1.00  0.00    -0.458 OA
BRANCH  25  26
ATOM     26  C   UNL A   1      33.067  31.313  27.181  1.00  0.00     0.338 C 
ATOM     27  O   UNL A   1      32.532  32.410  27.177  1.00  0.00    -0.246 OA
BRANCH  26  28
ATOM     28  C   UNL A   1      34.448  31.124  27.651  1.00  0.00     0.060 A 
ATOM     29  C   UNL A   1      34.822  29.836  28.031  1.00  0.00     0.016 A 
ATOM     30  C   UNL A   1      35.315  32.190  27.869  1.00  0.00     0.016 A 
ATOM     31  C   UNL A   1      35.999  29.599  28.712  1.00  0.00     0.010 A 
ATOM     32  C   UNL A   1      36.549  31.943  28.487  1.00  0.00     0.010 A 
ATOM     33  C   UNL A   1      36.882  30.651  28.936  1.00  0.00    -0.014 A 
BRANCH  33  34
ATOM     34  C   UNL A   1      38.133  30.376  29.675  1.00  0.00     0.031 A 
ATOM     35  C   UNL A   1      39.172  29.488  29.063  1.00  0.00     0.074 A 
ATOM     36  C   UNL A   1      38.333  30.951  30.877  1.00  0.00     0.049 A 
ATOM     37  N   UNL A   1      40.262  29.008  29.597  1.00  0.00    -0.248 NA
ATOM     38  C   UNL A   1      38.953  29.080  27.665  1.00  0.00     0.031 C 
ATOM     39  C   UNL A   1      37.413  31.884  31.535  1.00  0.00     0.029 A 
ATOM     40  N   UNL A   1      39.366  30.822  31.768  1.00  0.00    -0.354 N 
ATOM     41  C   UNL A   1      40.824  28.186  28.629  1.00  0.00     0.074 A 
ATOM     42  C   UNL A   1      39.962  28.243  27.469  1.00  0.00     0.031 C 
ATOM     43  C   UNL A   1      37.912  32.226  32.731  1.00  0.00     0.029 A 
ATOM     44  C   UNL A   1      39.146  31.482  32.954  1.00  0.00     0.049 A 
ATOM     45  H   UNL A   1      40.184  30.309  31.579  1.00  0.00     0.167 HD
ATOM     46  C   UNL A   1      41.956  27.450  28.710  1.00  0.00     0.034 A 
ATOM     47  C   UNL A   1      39.829  31.444  34.113  1.00  0.00     0.034 A 
ATOM     48  C   UNL A   1      42.817  27.439  29.862  1.00  0.00     0.049 A 
ATOM     49  C   UNL A   1      41.063  30.587  34.187  1.00  0.00     0.074 A 
ATOM     50  C   UNL A   1      44.005  26.754  30.042  1.00  0.00     0.029 A 
ATOM     51  N   UNL A   1      42.576  28.141  31.035  1.00  0.00    -0.354 N 
ATOM     52  N   UNL A   1      41.612  29.850  33.252  1.00  0.00    -0.248 NA
ATOM     53  C   UNL A   1      41.780  30.569  35.468  1.00  0.00     0.031 C 
ATOM     54  C   UNL A   1      44.464  27.016  31.337  1.00  0.00     0.029 A 
ATOM     55  C   UNL A   1      43.586  27.896  31.949  1.00  0.00     0.049 A 
ATOM     56  H   UNL A   1      41.801  28.726  31.194  1.00  0.00     0.167 HD
ATOM     57  C   UNL A   1      42.759  29.309  33.817  1.00  0.00     0.074 A 
ATOM     58  C   UNL A   1      42.834  29.819  35.173  1.00  0.00     0.031 C 
ATOM     59  C   UNL A   1      43.663  28.459  33.273  1.00  0.00     0.034 A 
BRANCH  46  60
ATOM     60  C   UNL A   1      42.321  26.591  27.529  1.00  0.00     0.023 A 
ATOM     61  C   UNL A   1      43.076  27.128  26.467  1.00  0.00     0.012 A 
ATOM     62  C   UNL A   1      41.947  25.232  27.494  1.00  0.00     0.148 A 
ATOM     63  C   UNL A   1      43.423  26.336  25.372  1.00  0.00     0.002 A 
ATOM     64  C   UNL A   1      42.337  24.438  26.424  1.00  0.00     0.091 A 
ATOM     65  F   UNL A   1      41.208  24.748  28.502  1.00  0.00    -0.205 F 
ATOM     66  C   UNL A   1      43.063  24.990  25.356  1.00  0.00     0.022 A 
BRANCH  64  67
ATOM     67  S   UNL A   1      41.990  22.678  26.347  1.00  0.00     0.127 S 
ATOM     68  O   UNL A   1      42.636  22.304  25.090  1.00  0.00    -0.237 OA
ATOM     69  O   UNL A   1      42.661  22.181  27.549  1.00  0.00    -0.237 OA
ATOM     70  O   UNL A   1      40.540  22.551  26.363  1.00  0.00    -0.744 OA
ENDBRANCH  64  67
ENDBRANCH  46  60
BRANCH  47  71
ATOM     71  C   UNL A   1      39.358  32.229  35.288  1.00  0.00     0.023 A 
ATOM     72  C   UNL A   1      39.563  33.620  35.322  1.00  0.00     0.012 A 
ATOM     73  C   UNL A   1      38.684  31.607  36.360  1.00  0.00     0.148 A 
ATOM     74  C   UNL A   1      39.135  34.375  36.415  1.00  0.00     0.002 A 
ATOM     75  C   UNL A   1      38.210  32.372  37.417  1.00  0.00     0.091 A 
ATOM     76  F   UNL A   1      38.511  30.279  36.315  1.00  0.00    -0.205 F 
ATOM     77  C   UNL A   1      38.451  33.754  37.456  1.00  0.00     0.022 A 
BRANCH  75  78
ATOM     78  S   UNL A   1      37.208  31.678  38.737  1.00  0.00     0.127 S 
ATOM     79  O   UNL A   1      36.025  32.533  38.694  1.00  0.00    -0.237 OA
ATOM     80  O   UNL A   1      36.997  30.309  38.266  1.00  0.00    -0.237 OA
ATOM     81  O   UNL A   1      38.019  31.780  39.943  1.00  0.00    -0.744 OA
ENDBRANCH  75  78
ENDBRANCH  47  71
BRANCH  59  82
ATOM     82  C   UNL A   1      44.843  28.065  34.121  1.00  0.00     0.023 A 
ATOM     83  C   UNL A   1      46.013  28.849  34.112  1.00  0.00     0.012 A 
ATOM     84  C   UNL A   1      44.755  26.957  34.986  1.00  0.00     0.148 A 
ATOM     85  C   UNL A   1      47.090  28.518  34.932  1.00  0.00     0.002 A 
ATOM     86  C   UNL A   1      45.812  26.665  35.839  1.00  0.00     0.091 A 
ATOM     87  F   UNL A   1      43.639  26.213  34.963  1.00  0.00    -0.205 F 
ATOM     88  C   UNL A   1      46.985  27.436  35.803  1.00  0.00     0.022 A 
BRANCH  86  89
ATOM     89  S   UNL A   1      45.724  25.357  37.065  1.00  0.00     0.127 S 
ATOM     90  O   UNL A   1      46.928  25.609  37.856  1.00  0.00    -0.237 OA
ATOM     91  O   UNL A   1      44.469  25.661  37.752  1.00  0.00    -0.237 OA
ATOM     92  O   UNL A   1      45.720  24.104  36.322  1.00  0.00    -0.744 OA
ENDBRANCH  86  89
ENDBRANCH  59  82
ENDBRANCH  33  34
ENDBRANCH  26  28
ENDBRANCH  25  26
ENDBRANCH  24  25
ENDBRANCH   1  24
TORSDOF 20
ENDMDL
MODEL 3
REMARK VINA RESULT:     -11.1      1.724      2.278
REMARK SMILES CC(C)[C@H](NC(=O)CCNC(=O)c1ccoc1)C(=O)OCCOC(=O)c1ccc(-c2c3nc(c(-c4cccc(S(=O)(=O)[O-])c4F)c4ccc([nH]4)c(-c4cccc(S(=O)(=O)[O-])c4F)c4nc(c(-c5cccc(S(=O)(=O)[O-])c5F)c5ccc2[nH]5)C=C4)C=C3)cc1
REMARK SMILES IDX 21 1 20 2 18 3 19 4 4 5 2 6 1 7 3 8 5 9 6 10 7 12 8 13 9 14
REMARK SMILES IDX 10 15 11 16 12 18 13 19 14 20 17 21 15 22 16 23 22 24 23 25
REMARK SMILES IDX 24 26 25 27 26 28 27 29 88 30 28 31 87 32 29 33 30 34 31 35
REMARK SMILES IDX 81 36 32 37 86 38 80 39 82 40 33 41 85 42 79 43 78 44 34 46
REMARK SMILES IDX 66 47 46 48 65 49 47 50 50 51 64 52 83 53 48 54 49 55 63 57
REMARK SMILES IDX 84 58 51 59 35 60 36 61 44 62 37 63 39 64 45 65 38 66 40 67
REMARK SMILES IDX 41 68 42 69 43 70 67 71 68 72 76 73 69 74 71 75 77 76 70 77
REMARK SMILES IDX 72 78 73 79 74 80 75 81 52 82 53 83 61 84 54 85 56 86 62 87
REMARK SMILES IDX 55 88 57 89 58 90 59 91 60 92
REMARK H PARENT 5 11 10 17 82 45 50 56
REMARK Flexibility Score: inf
ROOT
ATOM      1  C   UNL A   1      35.740  20.711  24.662  1.00  0.00     0.274 C 
ENDROOT
BRANCH   1   2
ATOM      2  O   UNL A   1      34.496  21.408  24.440  1.00  0.00    -0.461 OA
BRANCH   2   3
ATOM      3  C   UNL A   1      34.634  22.639  23.866  1.00  0.00     0.329 C 
ATOM      4  O   UNL A   1      35.339  22.847  22.885  1.00  0.00    -0.250 OA
BRANCH   3   5
ATOM      5  C   UNL A   1      33.723  23.722  24.510  1.00  0.00     0.194 C 
BRANCH   5   6
ATOM      6  C   UNL A   1      34.217  25.180  24.313  1.00  0.00     0.017 C 
ATOM      7  C   UNL A   1      33.562  25.940  23.150  1.00  0.00     0.010 C 
ATOM      8  C   UNL A   1      34.001  26.010  25.585  1.00  0.00     0.010 C 
ENDBRANCH   5   6
BRANCH   5   9
ATOM      9  N   UNL A   1      33.206  23.312  25.833  1.00  0.00    -0.342 N 
ATOM     10  C   UNL A   1      32.035  23.401  26.498  1.00  0.00     0.222 C 
ATOM     11  H   UNL A   1      33.895  22.857  26.369  1.00  0.00     0.164 HD
ATOM     12  O   UNL A   1      32.035  23.184  27.714  1.00  0.00    -0.275 OA
BRANCH  10  13
ATOM     13  C   UNL A   1      30.747  23.729  25.802  1.00  0.00     0.121 C 
BRANCH  13  14
ATOM     14  C   UNL A   1      30.491  25.227  25.734  1.00  0.00     0.126 C 
BRANCH  14  15
ATOM     15  N   UNL A   1      29.304  25.622  24.994  1.00  0.00    -0.351 N 
ATOM     16  C   UNL A   1      29.069  26.669  24.143  1.00  0.00     0.254 C 
ATOM     17  H   UNL A   1      28.528  25.029  25.128  1.00  0.00     0.163 HD
ATOM     18  O   UNL A   1      27.926  26.816  23.704  1.00  0.00    -0.269 OA
BRANCH  16  19
ATOM     19  C   UNL A   1      30.130  27.599  23.824  1.00  0.00     0.077 A 
ATOM     20  C   UNL A   1      31.045  28.290  24.667  1.00  0.00     0.056 A 
ATOM     21  C   UNL A   1      30.509  27.929  22.537  1.00  0.00     0.208 A 
ATOM     22  C   UNL A   1      31.857  29.032  23.842  1.00  0.00     0.195 A 
ATOM     23  O   UNL A   1      31.532  28.821  22.543  1.00  0.00    -0.472 OA
ENDBRANCH  16  19
ENDBRANCH  14  15
ENDBRANCH  13  14
ENDBRANCH  10  13
ENDBRANCH   5   9
ENDBRANCH   3   5
ENDBRANCH   2   3
ENDBRANCH   1   2
BRANCH   1  24
ATOM     24  C   UNL A   1      36.638  21.412  25.695  1.00  0.00     0.275 C 
BRANCH  24  25
ATOM     25  O   UNL A   1      37.936  21.770  25.182  1.00  0.00    -0.458 OA
BRANCH  25  26
ATOM     26  C   UNL A   1      38.980  21.403  25.962  1.00  0.00     0.338 C 
ATOM     27  O   UNL A   1      39.500  20.300  26.017  1.00  0.00    -0.246 OA
BRANCH  26  28
ATOM     28  C   UNL A   1      39.562  22.571  26.643  1.00  0.00     0.060 A 
ATOM     29  C   UNL A   1      39.173  23.831  26.191  1.00  0.00     0.016 A 
ATOM     30  C   UNL A   1      40.577  22.455  27.588  1.00  0.00     0.016 A 
ATOM     31  C   UNL A   1      39.838  24.974  26.587  1.00  0.00     0.010 A 
ATOM     32  C   UNL A   1      41.201  23.619  28.055  1.00  0.00     0.010 A 
ATOM     33  C   UNL A   1      40.853  24.881  27.534  1.00  0.00    -0.014 A 
BRANCH  33  34
ATOM     34  C   UNL A   1      41.558  26.116  27.936  1.00  0.00     0.031 A 
ATOM     35  C   UNL A   1      40.833  27.150  28.743  1.00  0.00     0.074 A 
ATOM     36  C   UNL A   1      42.851  26.284  27.596  1.00  0.00     0.049 A 
ATOM     37  N   UNL A   1      41.216  28.353  29.072  1.00  0.00    -0.248 NA
ATOM     38  C   UNL A   1      39.497  26.783  29.241  1.00  0.00     0.031 C 
ATOM     39  C   UNL A   1      43.668  25.309  26.867  1.00  0.00     0.029 A 
ATOM     40  N   UNL A   1      43.699  27.340  27.802  1.00  0.00    -0.354 N 
ATOM     41  C   UNL A   1      40.145  28.915  29.754  1.00  0.00     0.074 A 
ATOM     42  C   UNL A   1      39.100  27.916  29.804  1.00  0.00     0.031 C 
ATOM     43  C   UNL A   1      44.892  25.821  26.669  1.00  0.00     0.029 A 
ATOM     44  C   UNL A   1      44.921  27.182  27.190  1.00  0.00     0.049 A 
ATOM     45  H   UNL A   1      43.459  28.132  28.334  1.00  0.00     0.167 HD
ATOM     46  C   UNL A   1      40.047  30.156  30.285  1.00  0.00     0.034 A 
ATOM     47  C   UNL A   1      45.927  28.058  27.015  1.00  0.00     0.034 A 
ATOM     48  C   UNL A   1      41.114  31.120  30.254  1.00  0.00     0.049 A 
ATOM     49  C   UNL A   1      45.776  29.443  27.582  1.00  0.00     0.074 A 
ATOM     50  C   UNL A   1      41.136  32.396  30.787  1.00  0.00     0.029 A 
ATOM     51  N   UNL A   1      42.346  30.916  29.650  1.00  0.00    -0.354 N 
ATOM     52  N   UNL A   1      44.779  29.949  28.265  1.00  0.00    -0.248 NA
ATOM     53  C   UNL A   1      46.894  30.370  27.369  1.00  0.00     0.031 C 
ATOM     54  C   UNL A   1      42.370  32.975  30.474  1.00  0.00     0.029 A 
ATOM     55  C   UNL A   1      43.132  32.046  29.784  1.00  0.00     0.049 A 
ATOM     56  H   UNL A   1      42.620  30.088  29.192  1.00  0.00     0.167 HD
ATOM     57  C   UNL A   1      45.162  31.243  28.597  1.00  0.00     0.074 A 
ATOM     58  C   UNL A   1      46.492  31.433  28.053  1.00  0.00     0.031 C 
ATOM     59  C   UNL A   1      44.474  32.191  29.278  1.00  0.00     0.034 A 
BRANCH  46  60
ATOM     60  C   UNL A   1      38.744  30.543  30.930  1.00  0.00     0.023 A 
ATOM     61  C   UNL A   1      38.536  30.312  32.305  1.00  0.00     0.012 A 
ATOM     62  C   UNL A   1      37.735  31.176  30.176  1.00  0.00     0.148 A 
ATOM     63  C   UNL A   1      37.333  30.674  32.911  1.00  0.00     0.002 A 
ATOM     64  C   UNL A   1      36.560  31.577  30.796  1.00  0.00     0.091 A 
ATOM     65  F   UNL A   1      37.942  31.364  28.865  1.00  0.00    -0.205 F 
ATOM     66  C   UNL A   1      36.350  31.315  32.160  1.00  0.00     0.022 A 
BRANCH  64  67
ATOM     67  S   UNL A   1      35.268  32.478  29.934  1.00  0.00     0.127 S 
ATOM     68  O   UNL A   1      35.984  33.673  29.492  1.00  0.00    -0.237 OA
ATOM     69  O   UNL A   1      34.912  31.549  28.860  1.00  0.00    -0.237 OA
ATOM     70  O   UNL A   1      34.215  32.709  30.912  1.00  0.00    -0.744 OA
ENDBRANCH  64  67
ENDBRANCH  46  60
BRANCH  47  71
ATOM     71  C   UNL A   1      47.151  27.654  26.268  1.00  0.00     0.023 A 
ATOM     72  C   UNL A   1      48.194  26.996  26.946  1.00  0.00     0.012 A 
ATOM     73  C   UNL A   1      47.276  27.896  24.884  1.00  0.00     0.148 A 
ATOM     74  C   UNL A   1      49.352  26.614  26.267  1.00  0.00     0.002 A 
ATOM     75  C   UNL A   1      48.406  27.462  24.204  1.00  0.00     0.091 A 
ATOM     76  F   UNL A   1      46.277  28.537  24.259  1.00  0.00    -0.205 F 
ATOM     77  C   UNL A   1      49.454  26.837  24.897  1.00  0.00     0.022 A 
BRANCH  75  78
ATOM     78  S   UNL A   1      48.567  27.592  22.419  1.00  0.00     0.127 S 
ATOM     79  O   UNL A   1      47.324  28.266  22.056  1.00  0.00    -0.237 OA
ATOM     80  O   UNL A   1      49.773  28.410  22.285  1.00  0.00    -0.237 OA
ATOM     81  O   UNL A   1      48.711  26.225  21.936  1.00  0.00    -0.744 OA
ENDBRANCH  75  78
ENDBRANCH  47  71
BRANCH  59  82
ATOM     82  C   UNL A   1      45.164  33.506  29.524  1.00  0.00     0.023 A 
ATOM     83  C   UNL A   1      44.995  34.572  28.619  1.00  0.00     0.012 A 
ATOM     84  C   UNL A   1      45.917  33.703  30.697  1.00  0.00     0.148 A 
ATOM     85  C   UNL A   1      45.591  35.808  28.865  1.00  0.00     0.002 A 
ATOM     86  C   UNL A   1      46.462  34.952  30.963  1.00  0.00     0.091 A 
ATOM     87  F   UNL A   1      46.080  32.668  31.535  1.00  0.00    -0.205 F 
ATOM     88  C   UNL A   1      46.312  36.001  30.041  1.00  0.00     0.022 A 
BRANCH  86  89
ATOM     89  S   UNL A   1      47.316  35.322  32.498  1.00  0.00     0.127 S 
ATOM     90  O   UNL A   1      46.281  35.037  33.491  1.00  0.00    -0.237 OA
ATOM     91  O   UNL A   1      48.420  34.363  32.476  1.00  0.00    -0.237 OA
ATOM     92  O   UNL A   1      47.725  36.718  32.408  1.00  0.00    -0.744 OA
ENDBRANCH  86  89
ENDBRANCH  59  82
ENDBRANCH  33  34
ENDBRANCH  26  28
ENDBRANCH  25  26
ENDBRANCH  24  25
ENDBRANCH   1  24
TORSDOF 20
ENDMDL
