MODEL 1
REMARK VINA RESULT:     -12.9      0.000      0.000
REMARK SMILES Cc1cccc(NS(=O)(=O)c2ccc(Br)c(C(=O)OCCOC(=O)c3ccc(-c4c5nc(c(-c6cccc(S(=O)(=O)[O-])c6F)c6ccc([nH]6)c(-c6cccc(S(=O)(=O)[O-])c6F)c6nc(c(-c7cccc(S(=O)(=O)[O-])c7F)c7ccc4[nH]7)C=C6)C=C5)cc3)c2)c1
REMARK SMILES IDX 20 1 19 2 17 3 18 4 16 5 11 6 12 7 88 8 13 9 14 10 15 11
REMARK SMILES IDX 8 12 9 13 10 14 7 15 6 17 1 18 2 19 3 20 89 21 4 22 5 23
REMARK SMILES IDX 21 24 22 25 23 26 24 27 25 28 26 29 87 30 27 31 86 32 28 33
REMARK SMILES IDX 29 34 30 35 80 36 31 37 85 38 79 39 81 40 32 41 84 42 78 43
REMARK SMILES IDX 77 44 33 46 65 47 45 48 64 49 46 50 49 51 63 52 82 53 47 54
REMARK SMILES IDX 48 55 62 57 83 58 50 59 34 60 35 61 43 62 36 63 38 64 44 65
REMARK SMILES IDX 37 66 39 67 40 68 41 69 42 70 66 71 67 72 75 73 68 74 70 75
REMARK SMILES IDX 76 76 69 77 71 78 72 79 73 80 74 81 51 82 52 83 60 84 53 85
REMARK SMILES IDX 55 86 61 87 54 88 56 89 57 90 58 91 59 92
REMARK H PARENT 7 16 81 45 49 56
REMARK Flexibility Score: inf
ROOT
ATOM      1  C   UNL A   1      33.229  30.077  26.560  1.00  0.00     0.275 C 
ENDROOT
BRANCH   1   2
ATOM      2  O   UNL A   1      32.579  28.841  26.282  1.00  0.00    -0.458 OA
BRANCH   2   3
ATOM      3  C   UNL A   1      32.986  28.099  25.231  1.00  0.00     0.339 C 
ATOM      4  O   UNL A   1      33.976  28.263  24.545  1.00  0.00    -0.246 OA
BRANCH   3   5
ATOM      5  C   UNL A   1      31.993  27.010  25.115  1.00  0.00     0.075 A 
ATOM      6  C   UNL A   1      31.359  24.700  25.534  1.00  0.00     0.088 A 
ATOM      7  C   UNL A   1      30.423  24.828  24.504  1.00  0.00     0.023 A 
ATOM      8  C   UNL A   1      32.167  25.807  25.839  1.00  0.00     0.039 A 
ATOM      9  C   UNL A   1      30.189  26.036  23.854  1.00  0.00     0.018 A 
ATOM     10  C   UNL A   1      30.967  27.137  24.164  1.00  0.00     0.032 A 
ATOM     11  Br  UNL A   1      30.575  28.745  23.227  1.00  0.00    -0.050 Br
BRANCH   6  12
ATOM     12  S   UNL A   1      31.677  23.077  26.259  1.00  0.00     0.261 S 
ATOM     13  O   UNL A   1      30.530  22.255  25.929  1.00  0.00    -0.201 OA
ATOM     14  O   UNL A   1      32.134  23.284  27.609  1.00  0.00    -0.201 OA
BRANCH  12  15
ATOM     15  N   UNL A   1      32.923  22.346  25.386  1.00  0.00    -0.280 N 
ATOM     16  H   UNL A   1      32.651  21.751  24.650  1.00  0.00     0.180 HD
BRANCH  15  17
ATOM     17  C   UNL A   1      34.326  22.493  25.596  1.00  0.00     0.049 A 
ATOM     18  C   UNL A   1      37.462  20.444  24.861  1.00  0.00     0.044 C 
ATOM     19  C   UNL A   1      36.541  21.595  25.120  1.00  0.00    -0.049 A 
ATOM     20  C   UNL A   1      37.060  22.890  25.171  1.00  0.00     0.003 A 
ATOM     21  C   UNL A   1      35.156  21.411  25.276  1.00  0.00     0.030 A 
ATOM     22  C   UNL A   1      36.265  23.928  25.634  1.00  0.00     0.002 A 
ATOM     23  C   UNL A   1      34.930  23.688  25.956  1.00  0.00     0.027 A 
ENDBRANCH  15  17
ENDBRANCH  12  15
ENDBRANCH   6  12
ENDBRANCH   3   5
ENDBRANCH   2   3
ENDBRANCH   1   2
BRANCH   1  24
ATOM     24  C   UNL A   1      34.452  30.031  27.485  1.00  0.00     0.275 C 
BRANCH  24  25
ATOM     25  O   UNL A   1      35.422  31.117  27.515  1.00  0.00    -0.458 OA
BRANCH  25  26
ATOM     26  C   UNL A   1      36.537  31.335  28.259  1.00  0.00     0.338 C 
ATOM     27  O   UNL A   1      36.734  32.419  28.791  1.00  0.00    -0.246 OA
BRANCH  26  28
ATOM     28  C   UNL A   1      37.485  30.227  28.429  1.00  0.00     0.060 A 
ATOM     29  C   UNL A   1      37.341  29.304  29.480  1.00  0.00     0.016 A 
ATOM     30  C   UNL A   1      38.478  30.065  27.476  1.00  0.00     0.016 A 
ATOM     31  C   UNL A   1      38.165  28.181  29.538  1.00  0.00     0.010 A 
ATOM     32  C   UNL A   1      39.133  28.868  27.406  1.00  0.00     0.010 A 
ATOM     33  C   UNL A   1      39.063  27.980  28.493  1.00  0.00    -0.014 A 
BRANCH  33  34
ATOM     34  C   UNL A   1      40.263  27.165  28.592  1.00  0.00     0.031 A 
ATOM     35  C   UNL A   1      40.306  25.729  28.342  1.00  0.00     0.074 A 
ATOM     36  C   UNL A   1      41.378  27.923  28.728  1.00  0.00     0.049 A 
ATOM     37  N   UNL A   1      41.282  25.001  28.750  1.00  0.00    -0.248 NA
ATOM     38  C   UNL A   1      39.279  24.981  27.628  1.00  0.00     0.031 C 
ATOM     39  C   UNL A   1      42.764  27.640  28.423  1.00  0.00     0.029 A 
ATOM     40  N   UNL A   1      41.406  29.223  29.249  1.00  0.00    -0.354 N 
ATOM     41  C   UNL A   1      41.174  23.777  28.133  1.00  0.00     0.074 A 
ATOM     42  C   UNL A   1      39.856  23.772  27.538  1.00  0.00     0.031 C 
ATOM     43  C   UNL A   1      43.523  28.617  28.960  1.00  0.00     0.029 A 
ATOM     44  C   UNL A   1      42.663  29.447  29.795  1.00  0.00     0.049 A 
ATOM     45  H   UNL A   1      40.662  29.866  29.232  1.00  0.00     0.167 HD
ATOM     46  C   UNL A   1      42.288  22.994  28.065  1.00  0.00     0.034 A 
ATOM     47  C   UNL A   1      42.790  29.720  31.128  1.00  0.00     0.034 A 
ATOM     48  C   UNL A   1      43.437  23.693  28.673  1.00  0.00     0.049 A 
ATOM     49  C   UNL A   1      43.472  28.550  31.834  1.00  0.00     0.074 A 
ATOM     50  C   UNL A   1      44.477  24.456  28.166  1.00  0.00     0.029 A 
ATOM     51  N   UNL A   1      43.417  23.949  30.031  1.00  0.00    -0.354 N 
ATOM     52  N   UNL A   1      43.959  27.497  31.231  1.00  0.00    -0.248 NA
ATOM     53  C   UNL A   1      43.528  28.429  33.288  1.00  0.00     0.031 C 
ATOM     54  C   UNL A   1      45.063  25.186  29.247  1.00  0.00     0.029 A 
ATOM     55  C   UNL A   1      44.405  24.840  30.415  1.00  0.00     0.049 A 
ATOM     56  H   UNL A   1      42.773  23.543  30.655  1.00  0.00     0.167 HD
ATOM     57  C   UNL A   1      44.173  26.507  32.152  1.00  0.00     0.074 A 
ATOM     58  C   UNL A   1      43.905  27.150  33.429  1.00  0.00     0.031 C 
ATOM     59  C   UNL A   1      44.476  25.212  31.825  1.00  0.00     0.034 A 
BRANCH  46  60
ATOM     60  C   UNL A   1      42.450  21.734  27.232  1.00  0.00     0.023 A 
ATOM     61  C   UNL A   1      41.525  20.690  27.473  1.00  0.00     0.012 A 
ATOM     62  C   UNL A   1      43.426  21.483  26.238  1.00  0.00     0.148 A 
ATOM     63  C   UNL A   1      41.604  19.446  26.843  1.00  0.00     0.002 A 
ATOM     64  C   UNL A   1      43.534  20.220  25.637  1.00  0.00     0.091 A 
ATOM     65  F   UNL A   1      44.218  22.477  25.821  1.00  0.00    -0.205 F 
ATOM     66  C   UNL A   1      42.626  19.201  25.942  1.00  0.00     0.022 A 
BRANCH  64  67
ATOM     67  S   UNL A   1      44.857  19.779  24.494  1.00  0.00     0.127 S 
ATOM     68  O   UNL A   1      44.536  20.599  23.324  1.00  0.00    -0.237 OA
ATOM     69  O   UNL A   1      46.055  20.200  25.216  1.00  0.00    -0.237 OA
ATOM     70  O   UNL A   1      44.735  18.343  24.265  1.00  0.00    -0.744 OA
ENDBRANCH  64  67
ENDBRANCH  46  60
BRANCH  47  71
ATOM     71  C   UNL A   1      41.610  30.496  31.684  1.00  0.00     0.023 A 
ATOM     72  C   UNL A   1      41.295  31.746  31.087  1.00  0.00     0.012 A 
ATOM     73  C   UNL A   1      40.608  29.869  32.443  1.00  0.00     0.148 A 
ATOM     74  C   UNL A   1      39.992  32.264  31.124  1.00  0.00     0.002 A 
ATOM     75  C   UNL A   1      39.315  30.390  32.475  1.00  0.00     0.091 A 
ATOM     76  F   UNL A   1      40.875  28.716  33.064  1.00  0.00    -0.205 F 
ATOM     77  C   UNL A   1      38.990  31.566  31.791  1.00  0.00     0.022 A 
BRANCH  75  78
ATOM     78  S   UNL A   1      38.019  29.413  33.247  1.00  0.00     0.127 S 
ATOM     79  O   UNL A   1      36.801  29.952  32.646  1.00  0.00    -0.237 OA
ATOM     80  O   UNL A   1      38.348  28.056  32.830  1.00  0.00    -0.237 OA
ATOM     81  O   UNL A   1      38.210  29.737  34.658  1.00  0.00    -0.744 OA
ENDBRANCH  75  78
ENDBRANCH  47  71
BRANCH  59  82
ATOM     82  C   UNL A   1      44.847  24.172  32.869  1.00  0.00     0.023 A 
ATOM     83  C   UNL A   1      43.865  23.294  33.370  1.00  0.00     0.012 A 
ATOM     84  C   UNL A   1      46.120  24.114  33.490  1.00  0.00     0.148 A 
ATOM     85  C   UNL A   1      44.154  22.334  34.344  1.00  0.00     0.002 A 
ATOM     86  C   UNL A   1      46.379  23.226  34.526  1.00  0.00     0.091 A 
ATOM     87  F   UNL A   1      47.111  24.906  33.077  1.00  0.00    -0.205 F 
ATOM     88  C   UNL A   1      45.410  22.305  34.928  1.00  0.00     0.022 A 
BRANCH  86  89
ATOM     89  S   UNL A   1      47.908  23.272  35.473  1.00  0.00     0.127 S 
ATOM     90  O   UNL A   1      47.997  24.694  35.812  1.00  0.00    -0.237 OA
ATOM     91  O   UNL A   1      47.588  22.396  36.598  1.00  0.00    -0.237 OA
ATOM     92  O   UNL A   1      48.958  22.795  34.586  1.00  0.00    -0.744 OA
ENDBRANCH  86  89
ENDBRANCH  59  82
ENDBRANCH  33  34
ENDBRANCH  26  28
ENDBRANCH  25  26
ENDBRANCH  24  25
ENDBRANCH   1  24
TORSDOF 17
ENDMDL
MODEL 2
REMARK VINA RESULT:     -12.7      4.518     10.075
REMARK SMILES Cc1cccc(NS(=O)(=O)c2ccc(Br)c(C(=O)OCCOC(=O)c3ccc(-c4c5nc(c(-c6cccc(S(=O)(=O)[O-])c6F)c6ccc([nH]6)c(-c6cccc(S(=O)(=O)[O-])c6F)c6nc(c(-c7cccc(S(=O)(=O)[O-])c7F)c7ccc4[nH]7)C=C6)C=C5)cc3)c2)c1
REMARK SMILES IDX 20 1 19 2 17 3 18 4 16 5 11 6 12 7 88 8 13 9 14 10 15 11
REMARK SMILES IDX 8 12 9 13 10 14 7 15 6 17 1 18 2 19 3 20 89 21 4 22 5 23
REMARK SMILES IDX 21 24 22 25 23 26 24 27 25 28 26 29 87 30 27 31 86 32 28 33
REMARK SMILES IDX 29 34 30 35 80 36 31 37 85 38 79 39 81 40 32 41 84 42 78 43
REMARK SMILES IDX 77 44 33 46 65 47 45 48 64 49 46 50 49 51 63 52 82 53 47 54
REMARK SMILES IDX 48 55 62 57 83 58 50 59 34 60 35 61 43 62 36 63 38 64 44 65
REMARK SMILES IDX 37 66 39 67 40 68 41 69 42 70 66 71 67 72 75 73 68 74 70 75
REMARK SMILES IDX 76 76 69 77 71 78 72 79 73 80 74 81 51 82 52 83 60 84 53 85
REMARK SMILES IDX 55 86 61 87 54 88 56 89 57 90 58 91 59 92
REMARK H PARENT 7 16 81 45 49 56
REMARK Flexibility Score: inf
ROOT
ATOM      1  C   UNL A   1      37.347  21.201  25.184  1.00  0.00     0.275 C 
ENDROOT
BRANCH   1   2
ATOM      2  O   UNL A   1      36.639  22.255  24.539  1.00  0.00    -0.458 OA
BRANCH   2   3
ATOM      3  C   UNL A   1      35.537  22.769  25.124  1.00  0.00     0.339 C 
ATOM      4  O   UNL A   1      35.416  23.154  26.271  1.00  0.00    -0.246 OA
BRANCH   3   5
ATOM      5  C   UNL A   1      34.513  22.809  24.059  1.00  0.00     0.075 A 
ATOM      6  C   UNL A   1      33.308  24.059  22.357  1.00  0.00     0.088 A 
ATOM      7  C   UNL A   1      32.306  23.087  22.430  1.00  0.00     0.023 A 
ATOM      8  C   UNL A   1      34.427  23.925  23.194  1.00  0.00     0.039 A 
ATOM      9  C   UNL A   1      32.432  21.944  23.213  1.00  0.00     0.018 A 
ATOM     10  C   UNL A   1      33.543  21.794  24.024  1.00  0.00     0.032 A 
ATOM     11  Br  UNL A   1      33.630  20.199  25.057  1.00  0.00    -0.050 Br
BRANCH   6  12
ATOM     12  S   UNL A   1      33.028  25.564  21.399  1.00  0.00     0.261 S 
ATOM     13  O   UNL A   1      32.941  25.150  20.013  1.00  0.00    -0.201 OA
ATOM     14  O   UNL A   1      33.958  26.559  21.866  1.00  0.00    -0.201 OA
BRANCH  12  15
ATOM     15  N   UNL A   1      31.464  26.111  21.723  1.00  0.00    -0.280 N 
ATOM     16  H   UNL A   1      30.750  25.770  21.135  1.00  0.00     0.180 HD
BRANCH  15  17
ATOM     17  C   UNL A   1      31.060  27.012  22.752  1.00  0.00     0.049 A 
ATOM     18  C   UNL A   1      31.430  27.223  26.545  1.00  0.00     0.044 C 
ATOM     19  C   UNL A   1      31.260  27.603  25.107  1.00  0.00    -0.049 A 
ATOM     20  C   UNL A   1      31.095  28.947  24.768  1.00  0.00     0.003 A 
ATOM     21  C   UNL A   1      31.300  26.643  24.081  1.00  0.00     0.030 A 
ATOM     22  C   UNL A   1      30.710  29.285  23.479  1.00  0.00     0.002 A 
ATOM     23  C   UNL A   1      30.581  28.290  22.511  1.00  0.00     0.027 A 
ENDBRANCH  15  17
ENDBRANCH  12  15
ENDBRANCH   6  12
ENDBRANCH   3   5
ENDBRANCH   2   3
ENDBRANCH   1   2
BRANCH   1  24
ATOM     24  C   UNL A   1      38.748  21.524  25.719  1.00  0.00     0.275 C 
BRANCH  24  25
ATOM     25  O   UNL A   1      39.030  22.784  26.393  1.00  0.00    -0.458 OA
BRANCH  25  26
ATOM     26  C   UNL A   1      40.183  23.459  26.636  1.00  0.00     0.338 C 
ATOM     27  O   UNL A   1      41.269  22.964  26.368  1.00  0.00    -0.246 OA
BRANCH  26  28
ATOM     28  C   UNL A   1      40.089  24.810  27.205  1.00  0.00     0.060 A 
ATOM     29  C   UNL A   1      40.526  25.933  26.481  1.00  0.00     0.016 A 
ATOM     30  C   UNL A   1      39.480  24.956  28.441  1.00  0.00     0.016 A 
ATOM     31  C   UNL A   1      40.295  27.215  26.980  1.00  0.00     0.010 A 
ATOM     32  C   UNL A   1      39.061  26.200  28.824  1.00  0.00     0.010 A 
ATOM     33  C   UNL A   1      39.565  27.331  28.159  1.00  0.00    -0.014 A 
BRANCH  33  34
ATOM     34  C   UNL A   1      39.612  28.487  29.040  1.00  0.00     0.031 A 
ATOM     35  C   UNL A   1      38.709  29.629  28.948  1.00  0.00     0.074 A 
ATOM     36  C   UNL A   1      40.444  28.288  30.090  1.00  0.00     0.049 A 
ATOM     37  N   UNL A   1      38.981  30.752  29.510  1.00  0.00    -0.248 NA
ATOM     38  C   UNL A   1      37.441  29.627  28.231  1.00  0.00     0.031 C 
ATOM     39  C   UNL A   1      40.485  28.901  31.401  1.00  0.00     0.029 A 
ATOM     40  N   UNL A   1      41.520  27.392  30.104  1.00  0.00    -0.354 N 
ATOM     41  C   UNL A   1      37.840  31.518  29.481  1.00  0.00     0.074 A 
ATOM     42  C   UNL A   1      36.947  30.826  28.577  1.00  0.00     0.031 C 
ATOM     43  C   UNL A   1      41.640  28.545  31.998  1.00  0.00     0.029 A 
ATOM     44  C   UNL A   1      42.463  27.856  31.011  1.00  0.00     0.049 A 
ATOM     45  H   UNL A   1      41.596  26.575  29.561  1.00  0.00     0.167 HD
ATOM     46  C   UNL A   1      37.740  32.552  30.363  1.00  0.00     0.034 A 
ATOM     47  C   UNL A   1      43.720  28.185  30.583  1.00  0.00     0.034 A 
ATOM     48  C   UNL A   1      38.936  32.598  31.228  1.00  0.00     0.049 A 
ATOM     49  C   UNL A   1      43.922  29.695  30.680  1.00  0.00     0.074 A 
ATOM     50  C   UNL A   1      39.226  32.118  32.495  1.00  0.00     0.029 A 
ATOM     51  N   UNL A   1      40.158  32.898  30.656  1.00  0.00    -0.354 N 
ATOM     52  N   UNL A   1      43.061  30.531  31.199  1.00  0.00    -0.248 NA
ATOM     53  C   UNL A   1      45.059  30.380  30.071  1.00  0.00     0.031 C 
ATOM     54  C   UNL A   1      40.646  32.122  32.660  1.00  0.00     0.029 A 
ATOM     55  C   UNL A   1      41.218  32.636  31.509  1.00  0.00     0.049 A 
ATOM     56  H   UNL A   1      40.263  33.257  29.745  1.00  0.00     0.167 HD
ATOM     57  C   UNL A   1      43.383  31.806  30.819  1.00  0.00     0.074 A 
ATOM     58  C   UNL A   1      44.654  31.658  30.129  1.00  0.00     0.031 C 
ATOM     59  C   UNL A   1      42.568  32.890  31.014  1.00  0.00     0.034 A 
BRANCH  46  60
ATOM     60  C   UNL A   1      36.489  33.360  30.662  1.00  0.00     0.023 A 
ATOM     61  C   UNL A   1      36.079  33.416  32.016  1.00  0.00     0.012 A 
ATOM     62  C   UNL A   1      35.681  34.063  29.738  1.00  0.00     0.148 A 
ATOM     63  C   UNL A   1      34.904  34.051  32.426  1.00  0.00     0.002 A 
ATOM     64  C   UNL A   1      34.478  34.662  30.141  1.00  0.00     0.091 A 
ATOM     65  F   UNL A   1      36.095  34.212  28.475  1.00  0.00    -0.205 F 
ATOM     66  C   UNL A   1      34.088  34.652  31.485  1.00  0.00     0.022 A 
BRANCH  64  67
ATOM     67  S   UNL A   1      33.317  35.423  28.991  1.00  0.00     0.127 S 
ATOM     68  O   UNL A   1      32.398  36.115  29.897  1.00  0.00    -0.237 OA
ATOM     69  O   UNL A   1      34.177  36.310  28.210  1.00  0.00    -0.237 OA
ATOM     70  O   UNL A   1      32.706  34.328  28.246  1.00  0.00    -0.744 OA
ENDBRANCH  64  67
ENDBRANCH  46  60
BRANCH  47  71
ATOM     71  C   UNL A   1      44.190  27.322  29.427  1.00  0.00     0.023 A 
ATOM     72  C   UNL A   1      44.251  25.916  29.627  1.00  0.00     0.012 A 
ATOM     73  C   UNL A   1      44.164  27.788  28.102  1.00  0.00     0.148 A 
ATOM     74  C   UNL A   1      44.136  25.022  28.552  1.00  0.00     0.002 A 
ATOM     75  C   UNL A   1      44.050  26.892  27.039  1.00  0.00     0.091 A 
ATOM     76  F   UNL A   1      44.158  29.103  27.865  1.00  0.00    -0.205 F 
ATOM     77  C   UNL A   1      44.000  25.511  27.257  1.00  0.00     0.022 A 
BRANCH  75  78
ATOM     78  S   UNL A   1      43.764  27.552  25.392  1.00  0.00     0.127 S 
ATOM     79  O   UNL A   1      43.134  26.432  24.696  1.00  0.00    -0.237 OA
ATOM     80  O   UNL A   1      42.877  28.679  25.647  1.00  0.00    -0.237 OA
ATOM     81  O   UNL A   1      45.124  27.864  24.962  1.00  0.00    -0.744 OA
ENDBRANCH  75  78
ENDBRANCH  47  71
BRANCH  59  82
ATOM     82  C   UNL A   1      43.013  34.311  30.710  1.00  0.00     0.023 A 
ATOM     83  C   UNL A   1      43.250  35.216  31.763  1.00  0.00     0.012 A 
ATOM     84  C   UNL A   1      43.076  34.841  29.396  1.00  0.00     0.148 A 
ATOM     85  C   UNL A   1      43.642  36.537  31.532  1.00  0.00     0.002 A 
ATOM     86  C   UNL A   1      43.370  36.179  29.170  1.00  0.00     0.091 A 
ATOM     87  F   UNL A   1      42.869  34.054  28.338  1.00  0.00    -0.205 F 
ATOM     88  C   UNL A   1      43.695  37.021  30.235  1.00  0.00     0.022 A 
BRANCH  86  89
ATOM     89  S   UNL A   1      43.250  36.929  27.540  1.00  0.00     0.127 S 
ATOM     90  O   UNL A   1      41.855  36.649  27.194  1.00  0.00    -0.237 OA
ATOM     91  O   UNL A   1      43.537  38.331  27.835  1.00  0.00    -0.237 OA
ATOM     92  O   UNL A   1      44.229  36.253  26.702  1.00  0.00    -0.744 OA
ENDBRANCH  86  89
ENDBRANCH  59  82
ENDBRANCH  33  34
ENDBRANCH  26  28
ENDBRANCH  25  26
ENDBRANCH  24  25
ENDBRANCH   1  24
TORSDOF 17
ENDMDL
MODEL 3
REMARK VINA RESULT:     -12.5      4.579     10.548
REMARK SMILES Cc1cccc(NS(=O)(=O)c2ccc(Br)c(C(=O)OCCOC(=O)c3ccc(-c4c5nc(c(-c6cccc(S(=O)(=O)[O-])c6F)c6ccc([nH]6)c(-c6cccc(S(=O)(=O)[O-])c6F)c6nc(c(-c7cccc(S(=O)(=O)[O-])c7F)c7ccc4[nH]7)C=C6)C=C5)cc3)c2)c1
REMARK SMILES IDX 20 1 19 2 17 3 18 4 16 5 11 6 12 7 88 8 13 9 14 10 15 11
REMARK SMILES IDX 8 12 9 13 10 14 7 15 6 17 1 18 2 19 3 20 89 21 4 22 5 23
REMARK SMILES IDX 21 24 22 25 23 26 24 27 25 28 26 29 87 30 27 31 86 32 28 33
REMARK SMILES IDX 29 34 30 35 80 36 31 37 85 38 79 39 81 40 32 41 84 42 78 43
REMARK SMILES IDX 77 44 33 46 65 47 45 48 64 49 46 50 49 51 63 52 82 53 47 54
REMARK SMILES IDX 48 55 62 57 83 58 50 59 34 60 35 61 43 62 36 63 38 64 44 65
REMARK SMILES IDX 37 66 39 67 40 68 41 69 42 70 66 71 67 72 75 73 68 74 70 75
REMARK SMILES IDX 76 76 69 77 71 78 72 79 73 80 74 81 51 82 52 83 60 84 53 85
REMARK SMILES IDX 55 86 61 87 54 88 56 89 57 90 58 91 59 92
REMARK H PARENT 7 16 81 45 49 56
REMARK Flexibility Score: inf
ROOT
ATOM      1  C   UNL A   1      36.674  22.085  25.576  1.00  0.00     0.275 C 
ENDROOT
BRANCH   1   2
ATOM      2  O   UNL A   1      35.663  22.996  25.997  1.00  0.00    -0.458 OA
BRANCH   2   3
ATOM      3  C   UNL A   1      34.563  22.525  26.622  1.00  0.00     0.339 C 
ATOM      4  O   UNL A   1      34.510  21.916  27.672  1.00  0.00    -0.246 OA
BRANCH   3   5
ATOM      5  C   UNL A   1      33.426  22.947  25.778  1.00  0.00     0.075 A 
ATOM      6  C   UNL A   1      31.675  24.558  25.275  1.00  0.00     0.088 A 
ATOM      7  C   UNL A   1      31.016  23.542  24.577  1.00  0.00     0.023 A 
ATOM      8  C   UNL A   1      32.897  24.254  25.896  1.00  0.00     0.039 A 
ATOM      9  C   UNL A   1      31.579  22.284  24.384  1.00  0.00     0.018 A 
ATOM     10  C   UNL A   1      32.793  21.984  24.975  1.00  0.00     0.032 A 
ATOM     11  Br  UNL A   1      33.485  20.241  24.655  1.00  0.00    -0.050 Br
BRANCH   6  12
ATOM     12  S   UNL A   1      30.837  26.130  25.571  1.00  0.00     0.261 S 
ATOM     13  O   UNL A   1      31.022  26.429  26.977  1.00  0.00    -0.201 OA
ATOM     14  O   UNL A   1      29.542  26.060  24.945  1.00  0.00    -0.201 OA
BRANCH  12  15
ATOM     15  N   UNL A   1      31.724  27.350  24.812  1.00  0.00    -0.280 N 
ATOM     16  H   UNL A   1      31.796  27.293  23.831  1.00  0.00     0.180 HD
BRANCH  15  17
ATOM     17  C   UNL A   1      32.382  28.453  25.432  1.00  0.00     0.049 A 
ATOM     18  C   UNL A   1      31.408  31.957  26.592  1.00  0.00     0.044 C 
ATOM     19  C   UNL A   1      32.106  30.638  26.475  1.00  0.00    -0.049 A 
ATOM     20  C   UNL A   1      33.198  30.364  27.300  1.00  0.00     0.003 A 
ATOM     21  C   UNL A   1      31.666  29.647  25.580  1.00  0.00     0.030 A 
ATOM     22  C   UNL A   1      33.988  29.252  27.045  1.00  0.00     0.002 A 
ATOM     23  C   UNL A   1      33.631  28.368  26.028  1.00  0.00     0.027 A 
ENDBRANCH  15  17
ENDBRANCH  12  15
ENDBRANCH   6  12
ENDBRANCH   3   5
ENDBRANCH   2   3
ENDBRANCH   1   2
BRANCH   1  24
ATOM     24  C   UNL A   1      38.131  22.493  25.826  1.00  0.00     0.275 C 
BRANCH  24  25
ATOM     25  O   UNL A   1      38.466  23.760  26.461  1.00  0.00    -0.458 OA
BRANCH  25  26
ATOM     26  C   UNL A   1      39.649  24.363  26.745  1.00  0.00     0.338 C 
ATOM     27  O   UNL A   1      40.706  23.889  26.349  1.00  0.00    -0.246 OA
BRANCH  26  28
ATOM     28  C   UNL A   1      39.624  25.612  27.516  1.00  0.00     0.060 A 
ATOM     29  C   UNL A   1      39.089  25.652  28.816  1.00  0.00     0.016 A 
ATOM     30  C   UNL A   1      40.218  26.734  26.960  1.00  0.00     0.016 A 
ATOM     31  C   UNL A   1      39.206  26.811  29.581  1.00  0.00     0.010 A 
ATOM     32  C   UNL A   1      40.526  27.787  27.776  1.00  0.00     0.010 A 
ATOM     33  C   UNL A   1      39.924  27.875  29.043  1.00  0.00    -0.014 A 
BRANCH  33  34
ATOM     34  C   UNL A   1      39.775  29.259  29.465  1.00  0.00     0.031 A 
ATOM     35  C   UNL A   1      38.699  30.142  29.027  1.00  0.00     0.074 A 
ATOM     36  C   UNL A   1      40.619  29.571  30.477  1.00  0.00     0.049 A 
ATOM     37  N   UNL A   1      38.780  31.417  29.151  1.00  0.00    -0.248 NA
ATOM     38  C   UNL A   1      37.454  29.692  28.418  1.00  0.00     0.031 C 
ATOM     39  C   UNL A   1      40.549  30.602  31.490  1.00  0.00     0.029 A 
ATOM     40  N   UNL A   1      41.826  28.915  30.747  1.00  0.00    -0.354 N 
ATOM     41  C   UNL A   1      37.530  31.938  28.915  1.00  0.00     0.074 A 
ATOM     42  C   UNL A   1      36.769  30.844  28.352  1.00  0.00     0.031 C 
ATOM     43  C   UNL A   1      41.742  30.661  32.117  1.00  0.00     0.029 A 
ATOM     44  C   UNL A   1      42.674  29.807  31.390  1.00  0.00     0.049 A 
ATOM     45  H   UNL A   1      42.038  27.982  30.518  1.00  0.00     0.167 HD
ATOM     46  C   UNL A   1      37.256  33.187  29.388  1.00  0.00     0.034 A 
ATOM     47  C   UNL A   1      43.864  30.156  30.814  1.00  0.00     0.034 A 
ATOM     48  C   UNL A   1      38.422  33.717  30.124  1.00  0.00     0.049 A 
ATOM     49  C   UNL A   1      43.817  31.617  30.372  1.00  0.00     0.074 A 
ATOM     50  C   UNL A   1      38.774  33.762  31.463  1.00  0.00     0.029 A 
ATOM     51  N   UNL A   1      39.583  33.984  29.425  1.00  0.00    -0.354 N 
ATOM     52  N   UNL A   1      42.828  32.437  30.611  1.00  0.00    -0.248 NA
ATOM     53  C   UNL A   1      44.833  32.213  29.509  1.00  0.00     0.031 C 
ATOM     54  C   UNL A   1      40.174  34.043  31.546  1.00  0.00     0.029 A 
ATOM     55  C   UNL A   1      40.665  34.205  30.262  1.00  0.00     0.049 A 
ATOM     56  H   UNL A   1      39.636  34.014  28.442  1.00  0.00     0.167 HD
ATOM     57  C   UNL A   1      42.941  33.532  29.797  1.00  0.00     0.074 A 
ATOM     58  C   UNL A   1      44.226  33.351  29.139  1.00  0.00     0.031 C 
ATOM     59  C   UNL A   1      41.960  34.475  29.644  1.00  0.00     0.034 A 
BRANCH  46  60
ATOM     60  C   UNL A   1      35.888  33.843  29.450  1.00  0.00     0.023 A 
ATOM     61  C   UNL A   1      35.210  34.013  28.219  1.00  0.00     0.012 A 
ATOM     62  C   UNL A   1      35.211  34.310  30.602  1.00  0.00     0.148 A 
ATOM     63  C   UNL A   1      33.984  34.676  28.114  1.00  0.00     0.002 A 
ATOM     64  C   UNL A   1      34.003  35.014  30.494  1.00  0.00     0.091 A 
ATOM     65  F   UNL A   1      35.697  34.025  31.816  1.00  0.00    -0.205 F 
ATOM     66  C   UNL A   1      33.392  35.200  29.249  1.00  0.00     0.022 A 
BRANCH  64  67
ATOM     67  S   UNL A   1      33.178  35.784  31.899  1.00  0.00     0.127 S 
ATOM     68  O   UNL A   1      34.309  36.315  32.664  1.00  0.00    -0.237 OA
ATOM     69  O   UNL A   1      32.348  36.804  31.262  1.00  0.00    -0.237 OA
ATOM     70  O   UNL A   1      32.449  34.718  32.577  1.00  0.00    -0.744 OA
ENDBRANCH  64  67
ENDBRANCH  46  60
BRANCH  47  71
ATOM     71  C   UNL A   1      44.478  29.028  30.007  1.00  0.00     0.023 A 
ATOM     72  C   UNL A   1      44.692  27.783  30.658  1.00  0.00     0.012 A 
ATOM     73  C   UNL A   1      44.454  29.028  28.602  1.00  0.00     0.148 A 
ATOM     74  C   UNL A   1      44.725  26.579  29.937  1.00  0.00     0.002 A 
ATOM     75  C   UNL A   1      44.487  27.828  27.893  1.00  0.00     0.091 A 
ATOM     76  F   UNL A   1      44.305  30.184  27.945  1.00  0.00    -0.205 F 
ATOM     77  C   UNL A   1      44.587  26.599  28.553  1.00  0.00     0.022 A 
BRANCH  75  78
ATOM     78  S   UNL A   1      44.196  27.874  26.120  1.00  0.00     0.127 S 
ATOM     79  O   UNL A   1      45.458  28.392  25.595  1.00  0.00    -0.237 OA
ATOM     80  O   UNL A   1      43.939  26.476  25.800  1.00  0.00    -0.237 OA
ATOM     81  O   UNL A   1      43.064  28.793  26.033  1.00  0.00    -0.744 OA
ENDBRANCH  75  78
ENDBRANCH  47  71
BRANCH  59  82
ATOM     82  C   UNL A   1      42.170  35.750  28.845  1.00  0.00     0.023 A 
ATOM     83  C   UNL A   1      41.782  35.807  27.491  1.00  0.00     0.012 A 
ATOM     84  C   UNL A   1      42.875  36.874  29.346  1.00  0.00     0.148 A 
ATOM     85  C   UNL A   1      41.973  36.951  26.712  1.00  0.00     0.002 A 
ATOM     86  C   UNL A   1      43.151  37.972  28.542  1.00  0.00     0.091 A 
ATOM     87  F   UNL A   1      43.277  36.908  30.618  1.00  0.00    -0.205 F 
ATOM     88  C   UNL A   1      42.665  38.031  27.235  1.00  0.00     0.022 A 
BRANCH  86  89
ATOM     89  S   UNL A   1      44.221  39.314  29.080  1.00  0.00     0.127 S 
ATOM     90  O   UNL A   1      43.533  39.766  30.291  1.00  0.00    -0.237 OA
ATOM     91  O   UNL A   1      45.481  38.613  29.319  1.00  0.00    -0.237 OA
ATOM     92  O   UNL A   1      44.240  40.286  27.996  1.00  0.00    -0.744 OA
ENDBRANCH  86  89
ENDBRANCH  59  82
ENDBRANCH  33  34
ENDBRANCH  26  28
ENDBRANCH  25  26
ENDBRANCH  24  25
ENDBRANCH   1  24
TORSDOF 17
ENDMDL
