MODEL 1
REMARK VINA RESULT:     -12.2      0.000      0.000
REMARK SMILES C[C@@H](Sc1nc(-c2ccc3c(c2)OCO3)ccc1C#N)C(=O)OCCOC(=O)c1ccc(-c2c3nc(c(-c4cccc(S(=O)(=O)[O-])c4F)c4ccc([nH]4)c(-c4cccc(S(=O)(=O)[O-])c4F)c4nc(c(-c5cccc(S(=O)(=O)[O-])c5F)c5ccc2[nH]5)C=C4)C=C3)cc1
REMARK SMILES IDX 24 1 23 2 21 3 22 4 2 5 1 6 3 7 4 8 5 9 18 10 6 11 17 12
REMARK SMILES IDX 16 13 19 14 20 15 7 16 8 17 12 18 9 19 11 20 10 21 13 22
REMARK SMILES IDX 15 23 14 24 25 25 26 26 27 27 28 28 29 29 30 30 91 31 31 32
REMARK SMILES IDX 90 33 32 34 33 35 34 36 84 37 35 38 89 39 83 40 85 41 36 42
REMARK SMILES IDX 88 43 82 44 81 45 37 47 69 48 49 49 68 50 50 51 53 52 67 53
REMARK SMILES IDX 86 54 51 55 52 56 66 58 87 59 54 60 38 61 39 62 47 63 40 64
REMARK SMILES IDX 42 65 48 66 41 67 43 68 44 69 45 70 46 71 70 72 71 73 79 74
REMARK SMILES IDX 72 75 74 76 80 77 73 78 75 79 76 80 77 81 78 82 55 83 56 84
REMARK SMILES IDX 64 85 57 86 59 87 65 88 58 89 60 90 61 91 62 92 63 93
REMARK H PARENT 85 46 53 57
REMARK Flexibility Score: inf
ROOT
ATOM      1  C   UNL A   1      32.195  27.588  26.144  1.00  0.00     0.274 C 
ENDROOT
BRANCH   1   2
ATOM      2  O   UNL A   1      31.531  26.600  26.957  1.00  0.00    -0.461 OA
BRANCH   2   3
ATOM      3  C   UNL A   1      31.042  25.512  26.296  1.00  0.00     0.319 C 
ATOM      4  O   UNL A   1      30.137  25.561  25.470  1.00  0.00    -0.251 OA
BRANCH   3   5
ATOM      5  C   UNL A   1      31.709  24.201  26.720  1.00  0.00     0.160 C 
ATOM      6  C   UNL A   1      30.799  22.982  26.611  1.00  0.00     0.032 C 
BRANCH   5   7
ATOM      7  S   UNL A   1      33.223  24.043  25.707  1.00  0.00    -0.090 SA
BRANCH   7   8
ATOM      8  C   UNL A   1      32.800  22.685  24.621  1.00  0.00     0.115 A 
ATOM      9  N   UNL A   1      33.103  21.420  25.034  1.00  0.00    -0.240 NA
ATOM     10  C   UNL A   1      32.231  22.958  23.376  1.00  0.00     0.084 A 
ATOM     11  C   UNL A   1      32.856  20.394  24.177  1.00  0.00     0.072 A 
ATOM     12  C   UNL A   1      31.952  21.891  22.527  1.00  0.00     0.024 A 
ATOM     13  C   UNL A   1      32.270  20.600  22.928  1.00  0.00     0.030 A 
BRANCH  10  14
ATOM     14  C   UNL A   1      31.918  24.291  22.943  1.00  0.00     0.102 C 
ATOM     15  N   UNL A   1      31.629  25.364  22.622  1.00  0.00    -0.192 NA
ENDBRANCH  10  14
BRANCH  11  16
ATOM     16  C   UNL A   1      33.260  19.035  24.577  1.00  0.00     0.004 A 
ATOM     17  C   UNL A   1      34.625  18.651  24.482  1.00  0.00     0.014 A 
ATOM     18  C   UNL A   1      32.315  18.066  24.958  1.00  0.00     0.061 A 
ATOM     19  C   UNL A   1      35.041  17.336  24.719  1.00  0.00     0.051 A 
ATOM     20  C   UNL A   1      32.753  16.770  25.175  1.00  0.00     0.166 A 
ATOM     21  C   UNL A   1      34.076  16.416  25.052  1.00  0.00     0.165 A 
ATOM     22  O   UNL A   1      31.967  15.704  25.492  1.00  0.00    -0.454 OA
ATOM     23  O   UNL A   1      34.290  15.093  25.273  1.00  0.00    -0.454 OA
ATOM     24  C   UNL A   1      32.953  14.649  25.581  1.00  0.00     0.468 C 
ENDBRANCH  11  16
ENDBRANCH   7   8
ENDBRANCH   5   7
ENDBRANCH   3   5
ENDBRANCH   2   3
ENDBRANCH   1   2
BRANCH   1  25
ATOM     25  C   UNL A   1      31.936  29.010  26.652  1.00  0.00     0.275 C 
BRANCH  25  26
ATOM     26  O   UNL A   1      32.902  29.947  26.145  1.00  0.00    -0.458 OA
BRANCH  26  27
ATOM     27  C   UNL A   1      33.209  30.959  26.988  1.00  0.00     0.338 C 
ATOM     28  O   UNL A   1      32.472  31.851  27.372  1.00  0.00    -0.246 OA
BRANCH  27  29
ATOM     29  C   UNL A   1      34.576  30.789  27.492  1.00  0.00     0.060 A 
ATOM     30  C   UNL A   1      35.025  29.503  27.806  1.00  0.00     0.016 A 
ATOM     31  C   UNL A   1      35.362  31.905  27.763  1.00  0.00     0.016 A 
ATOM     32  C   UNL A   1      36.256  29.321  28.422  1.00  0.00     0.010 A 
ATOM     33  C   UNL A   1      36.608  31.722  28.360  1.00  0.00     0.010 A 
ATOM     34  C   UNL A   1      37.051  30.432  28.713  1.00  0.00    -0.014 A 
BRANCH  34  35
ATOM     35  C   UNL A   1      38.329  30.276  29.438  1.00  0.00     0.031 A 
ATOM     36  C   UNL A   1      39.384  29.373  28.873  1.00  0.00     0.074 A 
ATOM     37  C   UNL A   1      38.502  30.880  30.627  1.00  0.00     0.049 A 
ATOM     38  N   UNL A   1      40.476  28.927  29.432  1.00  0.00    -0.248 NA
ATOM     39  C   UNL A   1      39.165  28.891  27.499  1.00  0.00     0.031 C 
ATOM     40  C   UNL A   1      37.551  31.796  31.255  1.00  0.00     0.029 A 
ATOM     41  N   UNL A   1      39.520  30.770  31.540  1.00  0.00    -0.354 N 
ATOM     42  C   UNL A   1      41.044  28.060  28.507  1.00  0.00     0.074 A 
ATOM     43  C   UNL A   1      40.177  28.048  27.348  1.00  0.00     0.031 C 
ATOM     44  C   UNL A   1      38.008  32.133  32.472  1.00  0.00     0.029 A 
ATOM     45  C   UNL A   1      39.251  31.411  32.725  1.00  0.00     0.049 A 
ATOM     46  H   UNL A   1      40.357  30.283  31.363  1.00  0.00     0.167 HD
ATOM     47  C   UNL A   1      42.184  27.340  28.621  1.00  0.00     0.034 A 
ATOM     48  C   UNL A   1      39.904  31.375  33.902  1.00  0.00     0.034 A 
ATOM     49  C   UNL A   1      43.040  27.380  29.776  1.00  0.00     0.049 A 
ATOM     50  C   UNL A   1      41.157  30.552  34.014  1.00  0.00     0.074 A 
ATOM     51  C   UNL A   1      44.247  26.734  29.976  1.00  0.00     0.029 A 
ATOM     52  N   UNL A   1      42.770  28.093  30.935  1.00  0.00    -0.354 N 
ATOM     53  N   UNL A   1      41.731  29.797  33.109  1.00  0.00    -0.248 NA
ATOM     54  C   UNL A   1      41.867  30.594  35.299  1.00  0.00     0.031 C 
ATOM     55  C   UNL A   1      44.683  27.022  31.273  1.00  0.00     0.029 A 
ATOM     56  C   UNL A   1      43.779  27.893  31.861  1.00  0.00     0.049 A 
ATOM     57  H   UNL A   1      41.977  28.660  31.078  1.00  0.00     0.167 HD
ATOM     58  C   UNL A   1      42.893  29.313  33.696  1.00  0.00     0.074 A 
ATOM     59  C   UNL A   1      42.941  29.860  35.037  1.00  0.00     0.031 C 
ATOM     60  C   UNL A   1      43.835  28.488  33.173  1.00  0.00     0.034 A 
BRANCH  47  61
ATOM     61  C   UNL A   1      42.558  26.440  27.472  1.00  0.00     0.023 A 
ATOM     62  C   UNL A   1      43.356  26.928  26.417  1.00  0.00     0.012 A 
ATOM     63  C   UNL A   1      42.134  25.096  27.449  1.00  0.00     0.148 A 
ATOM     64  C   UNL A   1      43.683  26.110  25.336  1.00  0.00     0.002 A 
ATOM     65  C   UNL A   1      42.508  24.273  26.394  1.00  0.00     0.091 A 
ATOM     66  F   UNL A   1      41.358  24.652  28.448  1.00  0.00    -0.205 F 
ATOM     67  C   UNL A   1      43.268  24.782  25.328  1.00  0.00     0.022 A 
BRANCH  65  68
ATOM     68  S   UNL A   1      42.094  22.526  26.337  1.00  0.00     0.127 S 
ATOM     69  O   UNL A   1      42.768  22.102  25.111  1.00  0.00    -0.237 OA
ATOM     70  O   UNL A   1      42.702  22.026  27.571  1.00  0.00    -0.237 OA
ATOM     71  O   UNL A   1      40.640  22.458  26.308  1.00  0.00    -0.744 OA
ENDBRANCH  65  68
ENDBRANCH  47  61
BRANCH  48  72
ATOM     72  C   UNL A   1      39.382  32.160  35.055  1.00  0.00     0.023 A 
ATOM     73  C   UNL A   1      38.453  31.568  35.931  1.00  0.00     0.012 A 
ATOM     74  C   UNL A   1      39.847  33.464  35.319  1.00  0.00     0.148 A 
ATOM     75  C   UNL A   1      37.978  32.270  37.039  1.00  0.00     0.002 A 
ATOM     76  C   UNL A   1      39.411  34.136  36.455  1.00  0.00     0.091 A 
ATOM     77  F   UNL A   1      40.728  34.007  34.469  1.00  0.00    -0.205 F 
ATOM     78  C   UNL A   1      38.465  33.547  37.307  1.00  0.00     0.022 A 
BRANCH  76  79
ATOM     79  S   UNL A   1      40.072  35.731  36.951  1.00  0.00     0.127 S 
ATOM     80  O   UNL A   1      39.659  36.583  35.839  1.00  0.00    -0.237 OA
ATOM     81  O   UNL A   1      39.360  35.969  38.208  1.00  0.00    -0.237 OA
ATOM     82  O   UNL A   1      41.508  35.540  37.094  1.00  0.00    -0.744 OA
ENDBRANCH  76  79
ENDBRANCH  48  72
BRANCH  60  83
ATOM     83  C   UNL A   1      45.045  28.178  34.014  1.00  0.00     0.023 A 
ATOM     84  C   UNL A   1      46.161  29.036  34.001  1.00  0.00     0.012 A 
ATOM     85  C   UNL A   1      45.022  27.081  34.898  1.00  0.00     0.148 A 
ATOM     86  C   UNL A   1      47.249  28.791  34.841  1.00  0.00     0.002 A 
ATOM     87  C   UNL A   1      46.083  26.876  35.770  1.00  0.00     0.091 A 
ATOM     88  F   UNL A   1      43.956  26.268  34.880  1.00  0.00    -0.205 F 
ATOM     89  C   UNL A   1      47.203  27.722  35.733  1.00  0.00     0.022 A 
BRANCH  87  90
ATOM     90  S   UNL A   1      46.064  25.592  37.025  1.00  0.00     0.127 S 
ATOM     91  O   UNL A   1      44.815  25.880  37.728  1.00  0.00    -0.237 OA
ATOM     92  O   UNL A   1      46.043  24.372  36.218  1.00  0.00    -0.237 OA
ATOM     93  O   UNL A   1      47.276  25.777  37.813  1.00  0.00    -0.744 OA
ENDBRANCH  87  90
ENDBRANCH  60  83
ENDBRANCH  34  35
ENDBRANCH  27  29
ENDBRANCH  26  27
ENDBRANCH  25  26
ENDBRANCH   1  25
TORSDOF 18
ENDMDL
MODEL 2
REMARK VINA RESULT:     -12.1      3.810      6.136
REMARK SMILES C[C@@H](Sc1nc(-c2ccc3c(c2)OCO3)ccc1C#N)C(=O)OCCOC(=O)c1ccc(-c2c3nc(c(-c4cccc(S(=O)(=O)[O-])c4F)c4ccc([nH]4)c(-c4cccc(S(=O)(=O)[O-])c4F)c4nc(c(-c5cccc(S(=O)(=O)[O-])c5F)c5ccc2[nH]5)C=C4)C=C3)cc1
REMARK SMILES IDX 24 1 23 2 21 3 22 4 2 5 1 6 3 7 4 8 5 9 18 10 6 11 17 12
REMARK SMILES IDX 16 13 19 14 20 15 7 16 8 17 12 18 9 19 11 20 10 21 13 22
REMARK SMILES IDX 15 23 14 24 25 25 26 26 27 27 28 28 29 29 30 30 91 31 31 32
REMARK SMILES IDX 90 33 32 34 33 35 34 36 84 37 35 38 89 39 83 40 85 41 36 42
REMARK SMILES IDX 88 43 82 44 81 45 37 47 69 48 49 49 68 50 50 51 53 52 67 53
REMARK SMILES IDX 86 54 51 55 52 56 66 58 87 59 54 60 38 61 39 62 47 63 40 64
REMARK SMILES IDX 42 65 48 66 41 67 43 68 44 69 45 70 46 71 70 72 71 73 79 74
REMARK SMILES IDX 72 75 74 76 80 77 73 78 75 79 76 80 77 81 78 82 55 83 56 84
REMARK SMILES IDX 64 85 57 86 59 87 65 88 58 89 60 90 61 91 62 92 63 93
REMARK H PARENT 85 46 53 57
REMARK Flexibility Score: inf
ROOT
ATOM      1  C   UNL A   1      33.641  31.298  27.591  1.00  0.00     0.274 C 
ENDROOT
BRANCH   1   2
ATOM      2  O   UNL A   1      33.127  30.197  26.817  1.00  0.00    -0.461 OA
BRANCH   2   3
ATOM      3  C   UNL A   1      33.821  29.026  26.905  1.00  0.00     0.319 C 
ATOM      4  O   UNL A   1      35.045  28.956  26.929  1.00  0.00    -0.251 OA
BRANCH   3   5
ATOM      5  C   UNL A   1      32.918  27.791  26.929  1.00  0.00     0.160 C 
ATOM      6  C   UNL A   1      31.458  28.099  27.242  1.00  0.00     0.032 C 
BRANCH   5   7
ATOM      7  S   UNL A   1      33.133  26.965  25.313  1.00  0.00    -0.090 SA
BRANCH   7   8
ATOM      8  C   UNL A   1      31.501  27.128  24.595  1.00  0.00     0.115 A 
ATOM      9  N   UNL A   1      31.161  28.334  24.055  1.00  0.00    -0.240 NA
ATOM     10  C   UNL A   1      30.618  26.050  24.657  1.00  0.00     0.084 A 
ATOM     11  C   UNL A   1      29.896  28.484  23.581  1.00  0.00     0.072 A 
ATOM     12  C   UNL A   1      29.338  26.211  24.134  1.00  0.00     0.024 A 
ATOM     13  C   UNL A   1      28.972  27.438  23.596  1.00  0.00     0.030 A 
BRANCH  10  14
ATOM     14  C   UNL A   1      30.978  24.784  25.230  1.00  0.00     0.102 C 
ATOM     15  N   UNL A   1      31.227  23.761  25.710  1.00  0.00    -0.192 NA
ENDBRANCH  10  14
BRANCH  11  16
ATOM     16  C   UNL A   1      29.489  29.807  23.076  1.00  0.00     0.004 A 
ATOM     17  C   UNL A   1      29.478  30.923  23.957  1.00  0.00     0.014 A 
ATOM     18  C   UNL A   1      29.013  29.983  21.765  1.00  0.00     0.061 A 
ATOM     19  C   UNL A   1      28.974  32.168  23.566  1.00  0.00     0.051 A 
ATOM     20  C   UNL A   1      28.510  31.223  21.408  1.00  0.00     0.166 A 
ATOM     21  C   UNL A   1      28.485  32.281  22.286  1.00  0.00     0.165 A 
ATOM     22  O   UNL A   1      27.961  31.547  20.205  1.00  0.00    -0.454 OA
ATOM     23  O   UNL A   1      27.921  33.395  21.753  1.00  0.00    -0.454 OA
ATOM     24  C   UNL A   1      27.615  32.934  20.421  1.00  0.00     0.468 C 
ENDBRANCH  11  16
ENDBRANCH   7   8
ENDBRANCH   5   7
ENDBRANCH   3   5
ENDBRANCH   2   3
ENDBRANCH   1   2
BRANCH   1  25
ATOM     25  C   UNL A   1      32.705  32.509  27.548  1.00  0.00     0.275 C 
BRANCH  25  26
ATOM     26  O   UNL A   1      33.421  33.748  27.682  1.00  0.00    -0.458 OA
BRANCH  26  27
ATOM     27  C   UNL A   1      33.378  34.300  28.916  1.00  0.00     0.338 C 
ATOM     28  O   UNL A   1      32.457  34.926  29.414  1.00  0.00    -0.246 OA
BRANCH  27  29
ATOM     29  C   UNL A   1      34.593  33.953  29.660  1.00  0.00     0.060 A 
ATOM     30  C   UNL A   1      35.831  34.377  29.166  1.00  0.00     0.016 A 
ATOM     31  C   UNL A   1      34.516  33.118  30.770  1.00  0.00     0.016 A 
ATOM     32  C   UNL A   1      37.008  33.944  29.761  1.00  0.00     0.010 A 
ATOM     33  C   UNL A   1      35.697  32.701  31.382  1.00  0.00     0.010 A 
ATOM     34  C   UNL A   1      36.948  33.093  30.867  1.00  0.00    -0.014 A 
BRANCH  34  35
ATOM     35  C   UNL A   1      38.184  32.554  31.473  1.00  0.00     0.031 A 
ATOM     36  C   UNL A   1      38.884  31.409  30.807  1.00  0.00     0.074 A 
ATOM     37  C   UNL A   1      38.622  33.043  32.646  1.00  0.00     0.049 A 
ATOM     38  N   UNL A   1      39.847  30.652  31.261  1.00  0.00    -0.248 NA
ATOM     39  C   UNL A   1      38.423  31.057  29.454  1.00  0.00     0.031 C 
ATOM     40  C   UNL A   1      38.029  34.170  33.366  1.00  0.00     0.029 A 
ATOM     41  N   UNL A   1      39.639  32.617  33.463  1.00  0.00    -0.354 N 
ATOM     42  C   UNL A   1      40.062  29.692  30.280  1.00  0.00     0.074 A 
ATOM     43  C   UNL A   1      39.135  29.967  29.205  1.00  0.00     0.031 C 
ATOM     44  C   UNL A   1      38.664  34.320  34.539  1.00  0.00     0.029 A 
ATOM     45  C   UNL A   1      39.665  33.266  34.674  1.00  0.00     0.049 A 
ATOM     46  H   UNL A   1      40.283  31.918  33.207  1.00  0.00     0.167 HD
ATOM     47  C   UNL A   1      40.954  28.673  30.284  1.00  0.00     0.034 A 
ATOM     48  C   UNL A   1      40.376  33.006  35.786  1.00  0.00     0.034 A 
ATOM     49  C   UNL A   1      41.879  28.428  31.357  1.00  0.00     0.049 A 
ATOM     50  C   UNL A   1      41.346  31.856  35.777  1.00  0.00     0.074 A 
ATOM     51  C   UNL A   1      42.863  27.459  31.442  1.00  0.00     0.029 A 
ATOM     52  N   UNL A   1      41.923  29.149  32.542  1.00  0.00    -0.354 N 
ATOM     53  N   UNL A   1      41.601  31.001  34.817  1.00  0.00    -0.248 NA
ATOM     54  C   UNL A   1      42.144  31.651  36.993  1.00  0.00     0.031 C 
ATOM     55  C   UNL A   1      43.470  27.566  32.697  1.00  0.00     0.029 A 
ATOM     56  C   UNL A   1      42.906  28.637  33.372  1.00  0.00     0.049 A 
ATOM     57  H   UNL A   1      41.340  29.912  32.762  1.00  0.00     0.167 HD
ATOM     58  C   UNL A   1      42.621  30.186  35.293  1.00  0.00     0.074 A 
ATOM     59  C   UNL A   1      42.936  30.651  36.629  1.00  0.00     0.031 C 
ATOM     60  C   UNL A   1      43.240  29.147  34.679  1.00  0.00     0.034 A 
BRANCH  47  61
ATOM     61  C   UNL A   1      40.957  27.744  29.098  1.00  0.00     0.023 A 
ATOM     62  C   UNL A   1      40.077  26.642  29.056  1.00  0.00     0.012 A 
ATOM     63  C   UNL A   1      41.819  27.978  28.009  1.00  0.00     0.148 A 
ATOM     64  C   UNL A   1      40.093  25.762  27.975  1.00  0.00     0.002 A 
ATOM     65  C   UNL A   1      41.792  27.126  26.911  1.00  0.00     0.091 A 
ATOM     66  F   UNL A   1      42.665  29.017  28.072  1.00  0.00    -0.205 F 
ATOM     67  C   UNL A   1      40.942  26.008  26.900  1.00  0.00     0.022 A 
BRANCH  65  68
ATOM     68  S   UNL A   1      42.786  27.408  25.443  1.00  0.00     0.127 S 
ATOM     69  O   UNL A   1      42.628  26.141  24.731  1.00  0.00    -0.237 OA
ATOM     70  O   UNL A   1      42.104  28.545  24.824  1.00  0.00    -0.237 OA
ATOM     71  O   UNL A   1      44.132  27.696  25.918  1.00  0.00    -0.744 OA
ENDBRANCH  65  68
ENDBRANCH  47  61
BRANCH  48  72
ATOM     72  C   UNL A   1      40.200  33.867  36.988  1.00  0.00     0.023 A 
ATOM     73  C   UNL A   1      39.168  33.577  37.901  1.00  0.00     0.012 A 
ATOM     74  C   UNL A   1      41.084  34.929  37.261  1.00  0.00     0.148 A 
ATOM     75  C   UNL A   1      39.006  34.346  39.054  1.00  0.00     0.002 A 
ATOM     76  C   UNL A   1      40.950  35.656  38.437  1.00  0.00     0.091 A 
ATOM     77  F   UNL A   1      42.056  35.188  36.375  1.00  0.00    -0.205 F 
ATOM     78  C   UNL A   1      39.902  35.376  39.327  1.00  0.00     0.022 A 
BRANCH  76  79
ATOM     79  S   UNL A   1      42.127  36.917  38.937  1.00  0.00     0.127 S 
ATOM     80  O   UNL A   1      42.864  37.145  37.697  1.00  0.00    -0.237 OA
ATOM     81  O   UNL A   1      41.239  38.011  39.336  1.00  0.00    -0.237 OA
ATOM     82  O   UNL A   1      42.898  36.335  40.026  1.00  0.00    -0.744 OA
ENDBRANCH  76  79
ENDBRANCH  48  72
BRANCH  60  83
ATOM     83  C   UNL A   1      44.377  28.477  35.405  1.00  0.00     0.023 A 
ATOM     84  C   UNL A   1      45.707  28.865  35.160  1.00  0.00     0.012 A 
ATOM     85  C   UNL A   1      44.105  27.527  36.411  1.00  0.00     0.148 A 
ATOM     86  C   UNL A   1      46.754  28.299  35.890  1.00  0.00     0.002 A 
ATOM     87  C   UNL A   1      45.145  27.012  37.172  1.00  0.00     0.091 A 
ATOM     88  F   UNL A   1      42.831  27.160  36.614  1.00  0.00    -0.205 F 
ATOM     89  C   UNL A   1      46.471  27.386  36.904  1.00  0.00     0.022 A 
BRANCH  87  90
ATOM     90  S   UNL A   1      44.867  25.914  38.565  1.00  0.00     0.127 S 
ATOM     91  O   UNL A   1      44.443  24.684  37.896  1.00  0.00    -0.237 OA
ATOM     92  O   UNL A   1      46.194  25.850  39.177  1.00  0.00    -0.237 OA
ATOM     93  O   UNL A   1      43.849  26.554  39.389  1.00  0.00    -0.744 OA
ENDBRANCH  87  90
ENDBRANCH  60  83
ENDBRANCH  34  35
ENDBRANCH  27  29
ENDBRANCH  26  27
ENDBRANCH  25  26
ENDBRANCH   1  25
TORSDOF 18
ENDMDL
MODEL 3
REMARK VINA RESULT:     -12.1      3.613      9.493
REMARK SMILES C[C@@H](Sc1nc(-c2ccc3c(c2)OCO3)ccc1C#N)C(=O)OCCOC(=O)c1ccc(-c2c3nc(c(-c4cccc(S(=O)(=O)[O-])c4F)c4ccc([nH]4)c(-c4cccc(S(=O)(=O)[O-])c4F)c4nc(c(-c5cccc(S(=O)(=O)[O-])c5F)c5ccc2[nH]5)C=C4)C=C3)cc1
REMARK SMILES IDX 24 1 23 2 21 3 22 4 2 5 1 6 3 7 4 8 5 9 18 10 6 11 17 12
REMARK SMILES IDX 16 13 19 14 20 15 7 16 8 17 12 18 9 19 11 20 10 21 13 22
REMARK SMILES IDX 15 23 14 24 25 25 26 26 27 27 28 28 29 29 30 30 91 31 31 32
REMARK SMILES IDX 90 33 32 34 33 35 34 36 84 37 35 38 89 39 83 40 85 41 36 42
REMARK SMILES IDX 88 43 82 44 81 45 37 47 69 48 49 49 68 50 50 51 53 52 67 53
REMARK SMILES IDX 86 54 51 55 52 56 66 58 87 59 54 60 38 61 39 62 47 63 40 64
REMARK SMILES IDX 42 65 48 66 41 67 43 68 44 69 45 70 46 71 70 72 71 73 79 74
REMARK SMILES IDX 72 75 74 76 80 77 73 78 75 79 76 80 77 81 78 82 55 83 56 84
REMARK SMILES IDX 64 85 57 86 59 87 65 88 58 89 60 90 61 91 62 92 63 93
REMARK H PARENT 85 46 53 57
REMARK Flexibility Score: inf
ROOT
ATOM      1  C   UNL A   1      31.756  31.546  26.346  1.00  0.00     0.274 C 
ENDROOT
BRANCH   1   2
ATOM      2  O   UNL A   1      31.905  30.425  27.240  1.00  0.00    -0.461 OA
BRANCH   2   3
ATOM      3  C   UNL A   1      33.045  29.690  27.095  1.00  0.00     0.319 C 
ATOM      4  O   UNL A   1      34.149  30.177  26.874  1.00  0.00    -0.251 OA
BRANCH   3   5
ATOM      5  C   UNL A   1      32.806  28.182  27.194  1.00  0.00     0.160 C 
ATOM      6  C   UNL A   1      31.393  27.808  27.626  1.00  0.00     0.032 C 
BRANCH   5   7
ATOM      7  S   UNL A   1      33.253  27.483  25.565  1.00  0.00    -0.090 SA
BRANCH   7   8
ATOM      8  C   UNL A   1      31.680  27.496  24.712  1.00  0.00     0.115 A 
ATOM      9  N   UNL A   1      31.272  28.669  24.147  1.00  0.00    -0.240 NA
ATOM     10  C   UNL A   1      30.901  26.338  24.699  1.00  0.00     0.084 A 
ATOM     11  C   UNL A   1      30.042  28.703  23.569  1.00  0.00     0.072 A 
ATOM     12  C   UNL A   1      29.660  26.382  24.070  1.00  0.00     0.024 A 
ATOM     13  C   UNL A   1      29.225  27.573  23.504  1.00  0.00     0.030 A 
BRANCH  10  14
ATOM     14  C   UNL A   1      31.332  25.107  25.299  1.00  0.00     0.102 C 
ATOM     15  N   UNL A   1      31.637  24.109  25.797  1.00  0.00    -0.192 NA
ENDBRANCH  10  14
BRANCH  11  16
ATOM     16  C   UNL A   1      29.555  29.985  23.033  1.00  0.00     0.004 A 
ATOM     17  C   UNL A   1      29.341  31.080  23.915  1.00  0.00     0.014 A 
ATOM     18  C   UNL A   1      29.197  30.134  21.681  1.00  0.00     0.061 A 
ATOM     19  C   UNL A   1      28.753  32.274  23.482  1.00  0.00     0.051 A 
ATOM     20  C   UNL A   1      28.606  31.322  21.283  1.00  0.00     0.166 A 
ATOM     21  C   UNL A   1      28.386  32.357  22.160  1.00  0.00     0.165 A 
ATOM     22  O   UNL A   1      28.150  31.607  20.032  1.00  0.00    -0.454 OA
ATOM     23  O   UNL A   1      27.766  33.417  21.579  1.00  0.00    -0.454 OA
ATOM     24  C   UNL A   1      27.644  32.949  20.220  1.00  0.00     0.468 C 
ENDBRANCH  11  16
ENDBRANCH   7   8
ENDBRANCH   5   7
ENDBRANCH   3   5
ENDBRANCH   2   3
ENDBRANCH   1   2
BRANCH   1  25
ATOM     25  C   UNL A   1      31.777  32.880  27.099  1.00  0.00     0.275 C 
BRANCH  25  26
ATOM     26  O   UNL A   1      33.094  33.455  27.137  1.00  0.00    -0.458 OA
BRANCH  26  27
ATOM     27  C   UNL A   1      33.357  34.203  28.233  1.00  0.00     0.338 C 
ATOM     28  O   UNL A   1      32.772  35.208  28.600  1.00  0.00    -0.246 OA
BRANCH  27  29
ATOM     29  C   UNL A   1      34.418  33.572  29.024  1.00  0.00     0.060 A 
ATOM     30  C   UNL A   1      35.745  33.712  28.606  1.00  0.00     0.016 A 
ATOM     31  C   UNL A   1      34.092  32.752  30.100  1.00  0.00     0.016 A 
ATOM     32  C   UNL A   1      36.759  33.009  29.244  1.00  0.00     0.010 A 
ATOM     33  C   UNL A   1      35.112  32.063  30.754  1.00  0.00     0.010 A 
ATOM     34  C   UNL A   1      36.446  32.171  30.316  1.00  0.00    -0.014 A 
BRANCH  34  35
ATOM     35  C   UNL A   1      37.492  31.351  30.963  1.00  0.00     0.031 A 
ATOM     36  C   UNL A   1      37.835  31.605  32.399  1.00  0.00     0.074 A 
ATOM     37  C   UNL A   1      38.174  30.445  30.239  1.00  0.00     0.049 A 
ATOM     38  N   UNL A   1      38.844  31.161  33.099  1.00  0.00    -0.248 NA
ATOM     39  C   UNL A   1      36.928  32.496  33.142  1.00  0.00     0.031 C 
ATOM     40  C   UNL A   1      37.906  30.104  28.843  1.00  0.00     0.029 A 
ATOM     41  N   UNL A   1      39.266  29.685  30.571  1.00  0.00    -0.354 N 
ATOM     42  C   UNL A   1      38.734  31.770  34.343  1.00  0.00     0.074 A 
ATOM     43  C   UNL A   1      37.556  32.608  34.303  1.00  0.00     0.031 C 
ATOM     44  C   UNL A   1      38.836  29.234  28.420  1.00  0.00     0.029 A 
ATOM     45  C   UNL A   1      39.793  29.004  29.498  1.00  0.00     0.049 A 
ATOM     46  H   UNL A   1      39.635  29.632  31.482  1.00  0.00     0.167 HD
ATOM     47  C   UNL A   1      39.548  31.638  35.417  1.00  0.00     0.034 A 
ATOM     48  C   UNL A   1      40.946  28.319  29.383  1.00  0.00     0.034 A 
ATOM     49  C   UNL A   1      40.705  30.785  35.440  1.00  0.00     0.049 A 
ATOM     50  C   UNL A   1      41.846  28.203  30.581  1.00  0.00     0.074 A 
ATOM     51  C   UNL A   1      41.569  30.534  36.491  1.00  0.00     0.029 A 
ATOM     52  N   UNL A   1      41.172  30.057  34.355  1.00  0.00    -0.354 N 
ATOM     53  N   UNL A   1      41.695  28.716  31.779  1.00  0.00    -0.248 NA
ATOM     54  C   UNL A   1      43.062  27.394  30.424  1.00  0.00     0.031 C 
ATOM     55  C   UNL A   1      42.582  29.689  36.028  1.00  0.00     0.029 A 
ATOM     56  C   UNL A   1      42.320  29.368  34.705  1.00  0.00     0.049 A 
ATOM     57  H   UNL A   1      40.749  30.034  33.466  1.00  0.00     0.167 HD
ATOM     58  C   UNL A   1      42.768  28.254  32.531  1.00  0.00     0.074 A 
ATOM     59  C   UNL A   1      43.563  27.420  31.652  1.00  0.00     0.031 C 
ATOM     60  C   UNL A   1      43.069  28.500  33.830  1.00  0.00     0.034 A 
BRANCH  47  61
ATOM     61  C   UNL A   1      39.218  32.447  36.645  1.00  0.00     0.023 A 
ATOM     62  C   UNL A   1      39.798  33.719  36.835  1.00  0.00     0.012 A 
ATOM     63  C   UNL A   1      38.312  31.954  37.603  1.00  0.00     0.148 A 
ATOM     64  C   UNL A   1      39.520  34.462  37.981  1.00  0.00     0.002 A 
ATOM     65  C   UNL A   1      37.999  32.723  38.718  1.00  0.00     0.091 A 
ATOM     66  F   UNL A   1      37.785  30.734  37.420  1.00  0.00    -0.205 F 
ATOM     67  C   UNL A   1      38.614  33.969  38.917  1.00  0.00     0.022 A 
BRANCH  65  68
ATOM     68  S   UNL A   1      36.781  32.212  39.935  1.00  0.00     0.127 S 
ATOM     69  O   UNL A   1      37.369  30.972  40.439  1.00  0.00    -0.237 OA
ATOM     70  O   UNL A   1      36.806  33.327  40.881  1.00  0.00    -0.237 OA
ATOM     71  O   UNL A   1      35.527  32.061  39.210  1.00  0.00    -0.744 OA
ENDBRANCH  65  68
ENDBRANCH  47  61
BRANCH  48  72
ATOM     72  C   UNL A   1      41.294  27.682  28.083  1.00  0.00     0.023 A 
ATOM     73  C   UNL A   1      41.711  28.489  27.007  1.00  0.00     0.012 A 
ATOM     74  C   UNL A   1      41.271  26.282  27.928  1.00  0.00     0.148 A 
ATOM     75  C   UNL A   1      42.078  27.913  25.791  1.00  0.00     0.002 A 
ATOM     76  C   UNL A   1      41.690  25.712  26.732  1.00  0.00     0.091 A 
ATOM     77  F   UNL A   1      40.867  25.536  28.965  1.00  0.00    -0.205 F 
ATOM     78  C   UNL A   1      42.079  26.526  25.657  1.00  0.00     0.022 A 
BRANCH  76  79
ATOM     79  S   UNL A   1      41.845  23.937  26.505  1.00  0.00     0.127 S 
ATOM     80  O   UNL A   1      40.446  23.519  26.468  1.00  0.00    -0.237 OA
ATOM     81  O   UNL A   1      42.545  23.861  25.222  1.00  0.00    -0.237 OA
ATOM     82  O   UNL A   1      42.612  23.455  27.645  1.00  0.00    -0.744 OA
ENDBRANCH  76  79
ENDBRANCH  48  72
BRANCH  60  83
ATOM     83  C   UNL A   1      44.267  27.804  34.419  1.00  0.00     0.023 A 
ATOM     84  C   UNL A   1      45.546  28.384  34.327  1.00  0.00     0.012 A 
ATOM     85  C   UNL A   1      44.096  26.614  35.156  1.00  0.00     0.148 A 
ATOM     86  C   UNL A   1      46.643  27.778  34.941  1.00  0.00     0.002 A 
ATOM     87  C   UNL A   1      45.181  26.048  35.812  1.00  0.00     0.091 A 
ATOM     88  F   UNL A   1      42.872  26.070  35.215  1.00  0.00    -0.205 F 
ATOM     89  C   UNL A   1      46.457  26.620  35.694  1.00  0.00     0.022 A 
BRANCH  87  90
ATOM     90  S   UNL A   1      45.017  24.621  36.890  1.00  0.00     0.127 S 
ATOM     91  O   UNL A   1      43.895  25.017  37.740  1.00  0.00    -0.237 OA
ATOM     92  O   UNL A   1      44.714  23.550  35.939  1.00  0.00    -0.237 OA
ATOM     93  O   UNL A   1      46.295  24.480  37.574  1.00  0.00    -0.744 OA
ENDBRANCH  87  90
ENDBRANCH  60  83
ENDBRANCH  34  35
ENDBRANCH  27  29
ENDBRANCH  26  27
ENDBRANCH  25  26
ENDBRANCH   1  25
TORSDOF 18
ENDMDL
