MODEL 1
REMARK VINA RESULT:     -13.1      0.000      0.000
REMARK SMILES Cc1cccc(CNC(=O)N[C@@H](CC2=c3ccccc3=NC2)C(=O)OCCOC(=O)c2ccc(-c3c4nc(c(-c5cccc(S(=O)(=O)[O-])c5F)c5ccc([nH]5)c(-c5cccc(S(=O)(=O)[O-])c5F)c5nc(c(-c6cccc(S(=O)(=O)[O-])c6F)c6ccc3[nH]6)C=C5)C=C4)cc2)c1
REMARK SMILES IDX 26 1 25 2 23 3 24 4 12 5 11 6 8 7 9 8 10 10 7 12 6 13 1 14
REMARK SMILES IDX 2 15 3 16 94 17 4 18 5 19 13 20 14 21 15 22 22 23 16 24
REMARK SMILES IDX 20 25 21 26 17 27 19 28 18 29 27 30 28 31 29 32 30 33 31 34
REMARK SMILES IDX 32 35 93 36 33 37 92 38 34 39 35 40 36 41 86 42 37 43 91 44
REMARK SMILES IDX 85 45 87 46 38 47 90 48 84 49 83 50 39 52 71 53 51 54 70 55
REMARK SMILES IDX 52 56 55 57 69 58 88 59 53 60 54 61 68 63 89 64 56 65 40 66
REMARK SMILES IDX 41 67 49 68 42 69 44 70 50 71 43 72 45 73 46 74 47 75 48 76
REMARK SMILES IDX 72 77 73 78 81 79 74 80 76 81 82 82 75 83 77 84 78 85 79 86
REMARK SMILES IDX 80 87 57 88 58 89 66 90 59 91 61 92 67 93 60 94 62 95 63 96
REMARK SMILES IDX 64 97 65 98
REMARK H PARENT 8 9 11 11 87 51 55 62
REMARK Flexibility Score: inf
ROOT
ATOM      1  C   UNL A   1      37.007  23.544  24.810  1.00  0.00     0.274 C 
ENDROOT
BRANCH   1   2
ATOM      2  O   UNL A   1      35.790  24.133  25.303  1.00  0.00    -0.461 OA
BRANCH   2   3
ATOM      3  C   UNL A   1      34.875  24.694  24.308  1.00  0.00     0.329 C 
ATOM      4  O   UNL A   1      34.971  23.892  23.332  1.00  0.00    -0.250 OA
BRANCH   3   5
ATOM      5  C   UNL A   1      33.489  26.354  24.713  1.00  0.00     0.198 C 
BRANCH   5   6
ATOM      6  N   UNL A   1      32.155  26.408  25.744  1.00  0.00    -0.324 N 
ATOM      7  N   UNL A   1      30.600  24.588  25.610  1.00  0.00    -0.334 N 
ATOM      8  C   UNL A   1      31.002  25.791  25.998  1.00  0.00     0.315 C 
ATOM      9  H   UNL A   1      29.669  24.432  25.888  1.00  0.00     0.165 HD
ATOM     10  O   UNL A   1      30.206  26.424  26.704  1.00  0.00    -0.249 OA
ATOM     11  H   UNL A   1      32.266  27.154  26.377  1.00  0.00     0.166 HD
BRANCH   7  12
ATOM     12  C   UNL A   1      31.118  23.429  24.900  1.00  0.00     0.153 C 
BRANCH  12  13
ATOM     13  C   UNL A   1      32.091  22.588  25.719  1.00  0.00    -0.028 A 
ATOM     14  C   UNL A   1      34.909  20.141  24.875  1.00  0.00     0.044 C 
ATOM     15  C   UNL A   1      33.995  21.035  25.664  1.00  0.00    -0.051 A 
ATOM     16  C   UNL A   1      34.305  21.375  26.982  1.00  0.00     0.003 A 
ATOM     17  C   UNL A   1      32.880  21.631  25.054  1.00  0.00     0.009 A 
ATOM     18  C   UNL A   1      33.488  22.258  27.686  1.00  0.00     0.001 A 
ATOM     19  C   UNL A   1      32.378  22.843  27.067  1.00  0.00     0.005 A 
ENDBRANCH  12  13
ENDBRANCH   7  12
ENDBRANCH   5   6
BRANCH   5  20
ATOM     20  C   UNL A   1      33.733  28.153  24.916  1.00  0.00     0.070 C 
BRANCH  20  21
ATOM     21  C   UNL A   1      33.701  29.018  26.187  1.00  0.00    -0.037 C 
ATOM     22  C   UNL A   1      34.618  29.449  27.060  1.00  0.00     0.001 A 
ATOM     23  C   UNL A   1      32.396  29.738  26.485  1.00  0.00     0.174 C 
ATOM     24  C   UNL A   1      35.959  29.139  27.435  1.00  0.00     0.010 A 
ATOM     25  C   UNL A   1      34.035  30.752  27.456  1.00  0.00     0.065 A 
ATOM     26  N   UNL A   1      32.780  30.946  27.231  1.00  0.00    -0.280 NA
ATOM     27  C   UNL A   1      36.756  30.112  27.912  1.00  0.00     0.001 A 
ATOM     28  C   UNL A   1      34.979  31.794  27.922  1.00  0.00     0.028 A 
ATOM     29  C   UNL A   1      36.277  31.475  28.056  1.00  0.00     0.002 A 
ENDBRANCH  20  21
ENDBRANCH   5  20
ENDBRANCH   3   5
ENDBRANCH   2   3
ENDBRANCH   1   2
BRANCH   1  30
ATOM     30  C   UNL A   1      37.566  22.593  25.876  1.00  0.00     0.275 C 
BRANCH  30  31
ATOM     31  O   UNL A   1      38.945  22.845  26.272  1.00  0.00    -0.458 OA
BRANCH  31  32
ATOM     32  C   UNL A   1      39.928  21.907  26.154  1.00  0.00     0.338 C 
ATOM     33  O   UNL A   1      39.724  20.737  25.878  1.00  0.00    -0.246 OA
BRANCH  32  34
ATOM     34  C   UNL A   1      41.248  22.378  26.611  1.00  0.00     0.060 A 
ATOM     35  C   UNL A   1      41.638  22.309  28.371  1.00  0.00     0.016 A 
ATOM     36  C   UNL A   1      42.049  23.603  25.588  1.00  0.00     0.016 A 
ATOM     37  C   UNL A   1      42.643  23.611  29.148  1.00  0.00     0.010 A 
ATOM     38  C   UNL A   1      43.053  24.900  26.361  1.00  0.00     0.010 A 
ATOM     39  C   UNL A   1      43.306  24.922  28.141  1.00  0.00    -0.014 A 
BRANCH  39  40
ATOM     40  C   UNL A   1      43.448  26.322  28.578  1.00  0.00     0.031 A 
ATOM     41  C   UNL A   1      42.221  27.106  28.800  1.00  0.00     0.074 A 
ATOM     42  C   UNL A   1      44.582  26.639  29.242  1.00  0.00     0.049 A 
ATOM     43  N   UNL A   1      41.863  27.619  29.931  1.00  0.00    -0.248 NA
ATOM     44  C   UNL A   1      41.287  27.328  27.696  1.00  0.00     0.031 C 
ATOM     45  C   UNL A   1      44.758  27.609  30.315  1.00  0.00     0.029 A 
ATOM     46  N   UNL A   1      45.876  26.194  29.011  1.00  0.00    -0.354 N 
ATOM     47  C   UNL A   1      40.733  28.365  29.683  1.00  0.00     0.074 A 
ATOM     48  C   UNL A   1      40.352  28.061  28.306  1.00  0.00     0.031 C 
ATOM     49  C   UNL A   1      46.069  27.860  30.471  1.00  0.00     0.029 A 
ATOM     50  C   UNL A   1      46.767  27.198  29.385  1.00  0.00     0.049 A 
ATOM     51  H   UNL A   1      46.124  25.314  28.644  1.00  0.00     0.167 HD
ATOM     52  C   UNL A   1      40.631  29.651  30.107  1.00  0.00     0.034 A 
ATOM     53  C   UNL A   1      47.624  27.782  28.496  1.00  0.00     0.034 A 
ATOM     54  C   UNL A   1      41.911  30.329  30.224  1.00  0.00     0.049 A 
ATOM     55  C   UNL A   1      47.230  29.235  28.253  1.00  0.00     0.074 A 
ATOM     56  C   UNL A   1      42.803  30.545  31.256  1.00  0.00     0.029 A 
ATOM     57  N   UNL A   1      42.542  30.761  29.061  1.00  0.00    -0.354 N 
ATOM     58  N   UNL A   1      46.198  29.821  28.796  1.00  0.00    -0.248 NA
ATOM     59  C   UNL A   1      47.915  30.108  27.303  1.00  0.00     0.031 C 
ATOM     60  C   UNL A   1      44.012  31.035  30.690  1.00  0.00     0.029 A 
ATOM     61  C   UNL A   1      43.846  31.160  29.319  1.00  0.00     0.049 A 
ATOM     62  H   UNL A   1      42.119  30.781  28.172  1.00  0.00     0.167 HD
ATOM     63  C   UNL A   1      45.927  30.981  28.125  1.00  0.00     0.074 A 
ATOM     64  C   UNL A   1      47.094  31.171  27.279  1.00  0.00     0.031 C 
ATOM     65  C   UNL A   1      44.723  31.624  28.239  1.00  0.00     0.034 A 
BRANCH  52  66
ATOM     66  C   UNL A   1      39.330  30.058  30.756  1.00  0.00     0.023 A 
ATOM     67  C   UNL A   1      38.404  29.044  31.075  1.00  0.00     0.012 A 
ATOM     68  C   UNL A   1      38.931  31.401  31.003  1.00  0.00     0.148 A 
ATOM     69  C   UNL A   1      37.132  29.340  31.576  1.00  0.00     0.002 A 
ATOM     70  C   UNL A   1      37.663  31.692  31.512  1.00  0.00     0.091 A 
ATOM     71  F   UNL A   1      39.775  32.403  30.720  1.00  0.00    -0.205 F 
ATOM     72  C   UNL A   1      36.760  30.661  31.791  1.00  0.00     0.022 A 
BRANCH  70  73
ATOM     73  S   UNL A   1      37.101  33.373  31.846  1.00  0.00     0.127 S 
ATOM     74  O   UNL A   1      36.606  33.797  30.536  1.00  0.00    -0.237 OA
ATOM     75  O   UNL A   1      36.050  33.161  32.845  1.00  0.00    -0.237 OA
ATOM     76  O   UNL A   1      38.258  34.101  32.348  1.00  0.00    -0.744 OA
ENDBRANCH  70  73
ENDBRANCH  52  66
BRANCH  53  77
ATOM     77  C   UNL A   1      48.078  26.844  27.414  1.00  0.00     0.023 A 
ATOM     78  C   UNL A   1      47.226  26.661  26.297  1.00  0.00     0.012 A 
ATOM     79  C   UNL A   1      49.431  26.502  27.283  1.00  0.00     0.148 A 
ATOM     80  C   UNL A   1      47.746  26.305  25.049  1.00  0.00     0.002 A 
ATOM     81  C   UNL A   1      49.946  26.170  26.035  1.00  0.00     0.091 A 
ATOM     82  F   UNL A   1      50.237  26.589  28.348  1.00  0.00    -0.205 F 
ATOM     83  C   UNL A   1      49.116  26.101  24.908  1.00  0.00     0.022 A 
BRANCH  81  84
ATOM     84  S   UNL A   1      51.731  26.088  25.844  1.00  0.00     0.127 S 
ATOM     85  O   UNL A   1      51.908  26.142  24.397  1.00  0.00    -0.237 OA
ATOM     86  O   UNL A   1      52.216  27.283  26.520  1.00  0.00    -0.237 OA
ATOM     87  O   UNL A   1      52.045  24.803  26.458  1.00  0.00    -0.744 OA
ENDBRANCH  81  84
ENDBRANCH  53  77
BRANCH  65  88
ATOM     88  C   UNL A   1      44.288  32.754  27.326  1.00  0.00     0.023 A 
ATOM     89  C   UNL A   1      44.154  32.580  25.932  1.00  0.00     0.012 A 
ATOM     90  C   UNL A   1      43.892  34.009  27.846  1.00  0.00     0.148 A 
ATOM     91  C   UNL A   1      43.775  33.625  25.083  1.00  0.00     0.002 A 
ATOM     92  C   UNL A   1      43.405  35.012  27.009  1.00  0.00     0.091 A 
ATOM     93  F   UNL A   1      44.001  34.248  29.161  1.00  0.00    -0.205 F 
ATOM     94  C   UNL A   1      43.389  34.841  25.623  1.00  0.00     0.022 A 
BRANCH  92  95
ATOM     95  S   UNL A   1      42.648  36.493  27.691  1.00  0.00     0.127 S 
ATOM     96  O   UNL A   1      43.719  37.028  28.529  1.00  0.00    -0.237 OA
ATOM     97  O   UNL A   1      42.361  37.286  26.494  1.00  0.00    -0.237 OA
ATOM     98  O   UNL A   1      41.460  36.012  28.383  1.00  0.00    -0.744 OA
ENDBRANCH  92  95
ENDBRANCH  65  88
ENDBRANCH  39  40
ENDBRANCH  32  34
ENDBRANCH  31  32
ENDBRANCH  30  31
ENDBRANCH   1  30
TORSDOF 19
ENDMDL
MODEL 2
REMARK VINA RESULT:     -12.1      1.485      2.248
REMARK SMILES Cc1cccc(CNC(=O)N[C@@H](CC2=c3ccccc3=NC2)C(=O)OCCOC(=O)c2ccc(-c3c4nc(c(-c5cccc(S(=O)(=O)[O-])c5F)c5ccc([nH]5)c(-c5cccc(S(=O)(=O)[O-])c5F)c5nc(c(-c6cccc(S(=O)(=O)[O-])c6F)c6ccc3[nH]6)C=C5)C=C4)cc2)c1
REMARK SMILES IDX 26 1 25 2 23 3 24 4 12 5 11 6 8 7 9 8 10 10 7 12 6 13 1 14
REMARK SMILES IDX 2 15 3 16 94 17 4 18 5 19 13 20 14 21 15 22 22 23 16 24
REMARK SMILES IDX 20 25 21 26 17 27 19 28 18 29 27 30 28 31 29 32 30 33 31 34
REMARK SMILES IDX 32 35 93 36 33 37 92 38 34 39 35 40 36 41 86 42 37 43 91 44
REMARK SMILES IDX 85 45 87 46 38 47 90 48 84 49 83 50 39 52 71 53 51 54 70 55
REMARK SMILES IDX 52 56 55 57 69 58 88 59 53 60 54 61 68 63 89 64 56 65 40 66
REMARK SMILES IDX 41 67 49 68 42 69 44 70 50 71 43 72 45 73 46 74 47 75 48 76
REMARK SMILES IDX 72 77 73 78 81 79 74 80 76 81 82 82 75 83 77 84 78 85 79 86
REMARK SMILES IDX 80 87 57 88 58 89 66 90 59 91 61 92 67 93 60 94 62 95 63 96
REMARK SMILES IDX 64 97 65 98
REMARK H PARENT 8 9 11 11 87 51 55 62
REMARK Flexibility Score: inf
ROOT
ATOM      1  C   UNL A   1      37.263  22.769  24.638  1.00  0.00     0.274 C 
ENDROOT
BRANCH   1   2
ATOM      2  O   UNL A   1      36.226  23.744  24.850  1.00  0.00    -0.461 OA
BRANCH   2   3
ATOM      3  C   UNL A   1      35.168  23.815  23.841  1.00  0.00     0.329 C 
ATOM      4  O   UNL A   1      35.634  23.139  22.875  1.00  0.00    -0.250 OA
BRANCH   3   5
ATOM      5  C   UNL A   1      33.169  24.655  24.215  1.00  0.00     0.198 C 
BRANCH   5   6
ATOM      6  N   UNL A   1      32.630  25.606  25.500  1.00  0.00    -0.324 N 
ATOM      7  N   UNL A   1      30.834  24.730  26.825  1.00  0.00    -0.334 N 
ATOM      8  C   UNL A   1      31.666  25.679  26.416  1.00  0.00     0.315 C 
ATOM      9  H   UNL A   1      30.179  25.099  27.460  1.00  0.00     0.165 HD
ATOM     10  O   UNL A   1      31.542  26.780  26.969  1.00  0.00    -0.249 OA
ATOM     11  H   UNL A   1      33.236  26.373  25.610  1.00  0.00     0.166 HD
BRANCH   7  12
ATOM     12  C   UNL A   1      30.597  23.309  26.620  1.00  0.00     0.153 C 
BRANCH  12  13
ATOM     13  C   UNL A   1      31.854  22.453  26.724  1.00  0.00    -0.028 A 
ATOM     14  C   UNL A   1      33.727  20.116  24.342  1.00  0.00     0.044 C 
ATOM     15  C   UNL A   1      33.403  20.950  25.549  1.00  0.00    -0.051 A 
ATOM     16  C   UNL A   1      34.389  21.233  26.496  1.00  0.00     0.003 A 
ATOM     17  C   UNL A   1      32.140  21.548  25.685  1.00  0.00     0.009 A 
ATOM     18  C   UNL A   1      34.100  22.062  27.579  1.00  0.00     0.001 A 
ATOM     19  C   UNL A   1      32.837  22.649  27.704  1.00  0.00     0.005 A 
ENDBRANCH  12  13
ENDBRANCH   7  12
ENDBRANCH   5   6
BRANCH   5  20
ATOM     20  C   UNL A   1      31.912  25.401  23.120  1.00  0.00     0.070 C 
BRANCH  20  21
ATOM     21  C   UNL A   1      31.742  26.859  22.659  1.00  0.00    -0.037 C 
ATOM     22  C   UNL A   1      30.719  27.717  22.596  1.00  0.00     0.001 A 
ATOM     23  C   UNL A   1      33.019  27.630  22.366  1.00  0.00     0.174 C 
ATOM     24  C   UNL A   1      29.293  27.679  22.639  1.00  0.00     0.010 A 
ATOM     25  C   UNL A   1      31.418  29.003  22.826  1.00  0.00     0.065 A 
ATOM     26  N   UNL A   1      32.694  29.038  22.640  1.00  0.00    -0.280 NA
ATOM     27  C   UNL A   1      28.616  28.732  23.130  1.00  0.00     0.001 A 
ATOM     28  C   UNL A   1      30.622  30.101  23.420  1.00  0.00     0.028 A 
ATOM     29  C   UNL A   1      29.308  29.912  23.618  1.00  0.00     0.002 A 
ENDBRANCH  20  21
ENDBRANCH   5  20
ENDBRANCH   3   5
ENDBRANCH   2   3
ENDBRANCH   1   2
BRANCH   1  30
ATOM     30  C   UNL A   1      37.859  22.375  25.996  1.00  0.00     0.275 C 
BRANCH  30  31
ATOM     31  O   UNL A   1      39.272  22.687  26.169  1.00  0.00    -0.458 OA
BRANCH  31  32
ATOM     32  C   UNL A   1      40.241  21.728  26.180  1.00  0.00     0.338 C 
ATOM     33  O   UNL A   1      40.026  20.539  26.015  1.00  0.00    -0.246 OA
BRANCH  32  34
ATOM     34  C   UNL A   1      41.553  22.224  26.633  1.00  0.00     0.060 A 
ATOM     35  C   UNL A   1      41.948  22.167  28.392  1.00  0.00     0.016 A 
ATOM     36  C   UNL A   1      42.330  23.461  25.605  1.00  0.00     0.016 A 
ATOM     37  C   UNL A   1      42.930  23.488  29.164  1.00  0.00     0.010 A 
ATOM     38  C   UNL A   1      43.313  24.777  26.373  1.00  0.00     0.010 A 
ATOM     39  C   UNL A   1      43.568  24.808  28.152  1.00  0.00    -0.014 A 
BRANCH  39  40
ATOM     40  C   UNL A   1      43.685  26.212  28.585  1.00  0.00     0.031 A 
ATOM     41  C   UNL A   1      42.446  26.967  28.832  1.00  0.00     0.074 A 
ATOM     42  C   UNL A   1      44.826  26.557  29.225  1.00  0.00     0.049 A 
ATOM     43  N   UNL A   1      42.100  27.472  29.971  1.00  0.00    -0.248 NA
ATOM     44  C   UNL A   1      41.483  27.166  27.749  1.00  0.00     0.031 C 
ATOM     45  C   UNL A   1      45.001  27.532  30.294  1.00  0.00     0.029 A 
ATOM     46  N   UNL A   1      46.125  26.142  28.967  1.00  0.00    -0.354 N 
ATOM     47  C   UNL A   1      40.947  28.191  29.747  1.00  0.00     0.074 A 
ATOM     48  C   UNL A   1      40.544  27.877  28.379  1.00  0.00     0.031 C 
ATOM     49  C   UNL A   1      46.309  27.815  30.422  1.00  0.00     0.029 A 
ATOM     50  C   UNL A   1      47.000  27.168  29.321  1.00  0.00     0.049 A 
ATOM     51  H   UNL A   1      46.386  25.268  28.595  1.00  0.00     0.167 HD
ATOM     52  C   UNL A   1      40.823  29.474  30.172  1.00  0.00     0.034 A 
ATOM     53  C   UNL A   1      47.823  27.771  28.414  1.00  0.00     0.034 A 
ATOM     54  C   UNL A   1      42.089  30.183  30.261  1.00  0.00     0.049 A 
ATOM     55  C   UNL A   1      47.389  29.214  28.178  1.00  0.00     0.074 A 
ATOM     56  C   UNL A   1      42.997  30.421  31.274  1.00  0.00     0.029 A 
ATOM     57  N   UNL A   1      42.685  30.629  29.085  1.00  0.00    -0.354 N 
ATOM     58  N   UNL A   1      46.355  29.776  28.743  1.00  0.00    -0.248 NA
ATOM     59  C   UNL A   1      48.032  30.102  27.213  1.00  0.00     0.031 C 
ATOM     60  C   UNL A   1      44.182  30.940  30.682  1.00  0.00     0.029 A 
ATOM     61  C   UNL A   1      43.983  31.059  29.314  1.00  0.00     0.049 A 
ATOM     62  H   UNL A   1      42.242  30.638  28.205  1.00  0.00     0.167 HD
ATOM     63  C   UNL A   1      46.043  30.929  28.077  1.00  0.00     0.074 A 
ATOM     64  C   UNL A   1      47.186  31.145  27.206  1.00  0.00     0.031 C 
ATOM     65  C   UNL A   1      44.826  31.542  28.217  1.00  0.00     0.034 A 
BRANCH  52  66
ATOM     66  C   UNL A   1      39.526  29.851  30.848  1.00  0.00     0.023 A 
ATOM     67  C   UNL A   1      38.926  28.904  31.702  1.00  0.00     0.012 A 
ATOM     68  C   UNL A   1      38.820  31.067  30.630  1.00  0.00     0.148 A 
ATOM     69  C   UNL A   1      37.673  29.126  32.281  1.00  0.00     0.002 A 
ATOM     70  C   UNL A   1      37.573  31.289  31.219  1.00  0.00     0.091 A 
ATOM     71  F   UNL A   1      39.349  32.002  29.830  1.00  0.00    -0.205 F 
ATOM     72  C   UNL A   1      36.995  30.313  32.039  1.00  0.00     0.022 A 
BRANCH  70  73
ATOM     73  S   UNL A   1      36.631  32.808  30.981  1.00  0.00     0.127 S 
ATOM     74  O   UNL A   1      36.333  32.763  29.549  1.00  0.00    -0.237 OA
ATOM     75  O   UNL A   1      35.466  32.595  31.844  1.00  0.00    -0.237 OA
ATOM     76  O   UNL A   1      37.495  33.899  31.410  1.00  0.00    -0.744 OA
ENDBRANCH  70  73
ENDBRANCH  52  66
BRANCH  53  77
ATOM     77  C   UNL A   1      48.276  26.844  27.323  1.00  0.00     0.023 A 
ATOM     78  C   UNL A   1      47.431  26.683  26.197  1.00  0.00     0.012 A 
ATOM     79  C   UNL A   1      49.627  26.491  27.197  1.00  0.00     0.148 A 
ATOM     80  C   UNL A   1      47.956  26.338  24.948  1.00  0.00     0.002 A 
ATOM     81  C   UNL A   1      50.148  26.170  25.949  1.00  0.00     0.091 A 
ATOM     82  F   UNL A   1      50.426  26.556  28.268  1.00  0.00    -0.205 F 
ATOM     83  C   UNL A   1      49.325  26.123  24.814  1.00  0.00     0.022 A 
BRANCH  81  84
ATOM     84  S   UNL A   1      51.934  26.074  25.768  1.00  0.00     0.127 S 
ATOM     85  O   UNL A   1      52.123  26.176  24.326  1.00  0.00    -0.237 OA
ATOM     86  O   UNL A   1      52.426  27.240  26.489  1.00  0.00    -0.237 OA
ATOM     87  O   UNL A   1      52.228  24.766  26.341  1.00  0.00    -0.744 OA
ENDBRANCH  81  84
ENDBRANCH  53  77
BRANCH  65  88
ATOM     88  C   UNL A   1      44.345  32.661  27.312  1.00  0.00     0.023 A 
ATOM     89  C   UNL A   1      44.140  32.469  25.929  1.00  0.00     0.012 A 
ATOM     90  C   UNL A   1      43.975  33.923  27.835  1.00  0.00     0.148 A 
ATOM     91  C   UNL A   1      43.718  33.503  25.088  1.00  0.00     0.002 A 
ATOM     92  C   UNL A   1      43.446  34.916  27.012  1.00  0.00     0.091 A 
ATOM     93  F   UNL A   1      44.151  34.179  29.140  1.00  0.00    -0.205 F 
ATOM     94  C   UNL A   1      43.360  34.727  25.630  1.00  0.00     0.022 A 
BRANCH  92  95
ATOM     95  S   UNL A   1      42.725  36.405  27.712  1.00  0.00     0.127 S 
ATOM     96  O   UNL A   1      41.689  35.863  28.587  1.00  0.00    -0.237 OA
ATOM     97  O   UNL A   1      43.859  37.010  28.415  1.00  0.00    -0.237 OA
ATOM     98  O   UNL A   1      42.267  37.168  26.559  1.00  0.00    -0.744 OA
ENDBRANCH  92  95
ENDBRANCH  65  88
ENDBRANCH  39  40
ENDBRANCH  32  34
ENDBRANCH  31  32
ENDBRANCH  30  31
ENDBRANCH   1  30
TORSDOF 19
ENDMDL
MODEL 3
REMARK VINA RESULT:     -12.1      4.833      9.440
REMARK SMILES Cc1cccc(CNC(=O)N[C@@H](CC2=c3ccccc3=NC2)C(=O)OCCOC(=O)c2ccc(-c3c4nc(c(-c5cccc(S(=O)(=O)[O-])c5F)c5ccc([nH]5)c(-c5cccc(S(=O)(=O)[O-])c5F)c5nc(c(-c6cccc(S(=O)(=O)[O-])c6F)c6ccc3[nH]6)C=C5)C=C4)cc2)c1
REMARK SMILES IDX 26 1 25 2 23 3 24 4 12 5 11 6 8 7 9 8 10 10 7 12 6 13 1 14
REMARK SMILES IDX 2 15 3 16 94 17 4 18 5 19 13 20 14 21 15 22 22 23 16 24
REMARK SMILES IDX 20 25 21 26 17 27 19 28 18 29 27 30 28 31 29 32 30 33 31 34
REMARK SMILES IDX 32 35 93 36 33 37 92 38 34 39 35 40 36 41 86 42 37 43 91 44
REMARK SMILES IDX 85 45 87 46 38 47 90 48 84 49 83 50 39 52 71 53 51 54 70 55
REMARK SMILES IDX 52 56 55 57 69 58 88 59 53 60 54 61 68 63 89 64 56 65 40 66
REMARK SMILES IDX 41 67 49 68 42 69 44 70 50 71 43 72 45 73 46 74 47 75 48 76
REMARK SMILES IDX 72 77 73 78 81 79 74 80 76 81 82 82 75 83 77 84 78 85 79 86
REMARK SMILES IDX 80 87 57 88 58 89 66 90 59 91 61 92 67 93 60 94 62 95 63 96
REMARK SMILES IDX 64 97 65 98
REMARK H PARENT 8 9 11 11 87 51 55 62
REMARK Flexibility Score: inf
ROOT
ATOM      1  C   UNL A   1      47.852  27.400  26.527  1.00  0.00     0.274 C 
ENDROOT
BRANCH   1   2
ATOM      2  O   UNL A   1      46.480  27.594  26.142  1.00  0.00    -0.461 OA
BRANCH   2   3
ATOM      3  C   UNL A   1      45.971  26.752  25.058  1.00  0.00     0.329 C 
ATOM      4  O   UNL A   1      46.832  26.900  24.139  1.00  0.00    -0.250 OA
BRANCH   3   5
ATOM      5  C   UNL A   1      44.277  25.364  25.272  1.00  0.00     0.198 C 
BRANCH   5   6
ATOM      6  N   UNL A   1      42.621  25.678  25.211  1.00  0.00    -0.324 N 
ATOM      7  N   UNL A   1      41.678  26.916  27.036  1.00  0.00    -0.334 N 
ATOM      8  C   UNL A   1      41.621  26.168  25.941  1.00  0.00     0.315 C 
ATOM      9  H   UNL A   1      40.775  27.064  27.397  1.00  0.00     0.165 HD
ATOM     10  O   UNL A   1      40.483  25.901  25.530  1.00  0.00    -0.249 OA
ATOM     11  H   UNL A   1      42.273  25.403  24.333  1.00  0.00     0.166 HD
BRANCH   7  12
ATOM     12  C   UNL A   1      42.672  27.583  27.863  1.00  0.00     0.153 C 
BRANCH  12  13
ATOM     13  C   UNL A   1      43.528  26.630  28.688  1.00  0.00    -0.028 A 
ATOM     14  C   UNL A   1      43.318  22.920  29.600  1.00  0.00     0.044 C 
ATOM     15  C   UNL A   1      43.849  24.319  29.458  1.00  0.00    -0.051 A 
ATOM     16  C   UNL A   1      45.197  24.589  29.698  1.00  0.00     0.003 A 
ATOM     17  C   UNL A   1      43.025  25.347  28.974  1.00  0.00     0.009 A 
ATOM     18  C   UNL A   1      45.697  25.875  29.499  1.00  0.00     0.001 A 
ATOM     19  C   UNL A   1      44.865  26.893  29.020  1.00  0.00     0.005 A 
ENDBRANCH  12  13
ENDBRANCH   7  12
ENDBRANCH   5   6
BRANCH   5  20
ATOM     20  C   UNL A   1      43.988  23.659  24.683  1.00  0.00     0.070 C 
BRANCH  20  21
ATOM     21  C   UNL A   1      43.671  22.380  25.476  1.00  0.00    -0.037 C 
ATOM     22  C   UNL A   1      42.619  21.934  26.170  1.00  0.00     0.001 A 
ATOM     23  C   UNL A   1      44.660  21.233  25.337  1.00  0.00     0.174 C 
ATOM     24  C   UNL A   1      41.428  22.461  26.753  1.00  0.00     0.010 A 
ATOM     25  C   UNL A   1      42.732  20.474  25.941  1.00  0.00     0.065 A 
ATOM     26  N   UNL A   1      43.870  20.012  25.548  1.00  0.00    -0.280 NA
ATOM     27  C   UNL A   1      40.337  21.679  26.853  1.00  0.00     0.001 A 
ATOM     28  C   UNL A   1      41.480  19.686  26.014  1.00  0.00     0.028 A 
ATOM     29  C   UNL A   1      40.347  20.306  26.380  1.00  0.00     0.002 A 
ENDBRANCH  20  21
ENDBRANCH   5  20
ENDBRANCH   3   5
ENDBRANCH   2   3
ENDBRANCH   1   2
BRANCH   1  30
ATOM     30  C   UNL A   1      48.142  28.245  27.775  1.00  0.00     0.275 C 
BRANCH  30  31
ATOM     31  O   UNL A   1      47.247  29.376  27.981  1.00  0.00    -0.458 OA
BRANCH  31  32
ATOM     32  C   UNL A   1      47.366  30.545  27.290  1.00  0.00     0.338 C 
ATOM     33  O   UNL A   1      48.378  30.890  26.704  1.00  0.00    -0.246 OA
BRANCH  32  34
ATOM     34  C   UNL A   1      46.236  31.468  27.497  1.00  0.00     0.060 A 
ATOM     35  C   UNL A   1      46.282  32.602  28.900  1.00  0.00     0.016 A 
ATOM     36  C   UNL A   1      44.656  30.944  26.852  1.00  0.00     0.016 A 
ATOM     37  C   UNL A   1      44.759  33.020  29.802  1.00  0.00     0.010 A 
ATOM     38  C   UNL A   1      43.137  31.363  27.748  1.00  0.00     0.010 A 
ATOM     39  C   UNL A   1      43.202  32.359  29.243  1.00  0.00    -0.014 A 
BRANCH  39  40
ATOM     40  C   UNL A   1      42.102  31.947  30.131  1.00  0.00     0.031 A 
ATOM     41  C   UNL A   1      40.849  32.720  30.088  1.00  0.00     0.074 A 
ATOM     42  C   UNL A   1      42.082  30.649  30.512  1.00  0.00     0.049 A 
ATOM     43  N   UNL A   1      39.696  32.246  29.747  1.00  0.00    -0.248 NA
ATOM     44  C   UNL A   1      40.859  34.145  30.420  1.00  0.00     0.031 C 
ATOM     45  C   UNL A   1      40.924  29.802  30.768  1.00  0.00     0.029 A 
ATOM     46  N   UNL A   1      43.149  29.825  30.842  1.00  0.00    -0.354 N 
ATOM     47  C   UNL A   1      38.781  33.254  29.954  1.00  0.00     0.074 A 
ATOM     48  C   UNL A   1      39.567  34.445  30.265  1.00  0.00     0.031 C 
ATOM     49  C   UNL A   1      41.322  28.703  31.432  1.00  0.00     0.029 A 
ATOM     50  C   UNL A   1      42.717  28.892  31.782  1.00  0.00     0.049 A 
ATOM     51  H   UNL A   1      44.060  29.890  30.474  1.00  0.00     0.167 HD
ATOM     52  C   UNL A   1      37.642  33.036  30.660  1.00  0.00     0.034 A 
ATOM     53  C   UNL A   1      43.257  28.814  33.035  1.00  0.00     0.034 A 
ATOM     54  C   UNL A   1      37.764  31.980  31.651  1.00  0.00     0.049 A 
ATOM     55  C   UNL A   1      42.237  29.250  34.082  1.00  0.00     0.074 A 
ATOM     56  C   UNL A   1      37.483  30.628  31.665  1.00  0.00     0.029 A 
ATOM     57  N   UNL A   1      38.446  32.254  32.833  1.00  0.00    -0.354 N 
ATOM     58  N   UNL A   1      41.031  29.670  33.809  1.00  0.00    -0.248 NA
ATOM     59  C   UNL A   1      42.535  29.338  35.509  1.00  0.00     0.031 C 
ATOM     60  C   UNL A   1      38.079  30.073  32.833  1.00  0.00     0.029 A 
ATOM     61  C   UNL A   1      38.685  31.092  33.552  1.00  0.00     0.049 A 
ATOM     62  H   UNL A   1      38.722  33.154  33.121  1.00  0.00     0.167 HD
ATOM     63  C   UNL A   1      40.508  30.296  34.906  1.00  0.00     0.074 A 
ATOM     64  C   UNL A   1      41.438  29.961  35.971  1.00  0.00     0.031 C 
ATOM     65  C   UNL A   1      39.421  31.125  34.820  1.00  0.00     0.034 A 
BRANCH  52  66
ATOM     66  C   UNL A   1      36.362  33.593  30.085  1.00  0.00     0.023 A 
ATOM     67  C   UNL A   1      36.144  33.458  28.699  1.00  0.00     0.012 A 
ATOM     68  C   UNL A   1      35.385  34.316  30.827  1.00  0.00     0.148 A 
ATOM     69  C   UNL A   1      35.041  34.039  28.067  1.00  0.00     0.002 A 
ATOM     70  C   UNL A   1      34.279  34.887  30.192  1.00  0.00     0.091 A 
ATOM     71  F   UNL A   1      35.543  34.470  32.148  1.00  0.00    -0.205 F 
ATOM     72  C   UNL A   1      34.112  34.756  28.810  1.00  0.00     0.022 A 
BRANCH  70  73
ATOM     73  S   UNL A   1      33.010  35.812  31.078  1.00  0.00     0.127 S 
ATOM     74  O   UNL A   1      33.756  36.977  31.555  1.00  0.00    -0.237 OA
ATOM     75  O   UNL A   1      32.042  36.111  30.019  1.00  0.00    -0.237 OA
ATOM     76  O   UNL A   1      32.500  34.924  32.114  1.00  0.00    -0.744 OA
ENDBRANCH  70  73
ENDBRANCH  52  66
BRANCH  53  77
ATOM     77  C   UNL A   1      44.710  29.189  33.073  1.00  0.00     0.023 A 
ATOM     78  C   UNL A   1      45.050  30.470  33.574  1.00  0.00     0.012 A 
ATOM     79  C   UNL A   1      45.706  28.204  33.035  1.00  0.00     0.148 A 
ATOM     80  C   UNL A   1      46.295  30.702  34.166  1.00  0.00     0.002 A 
ATOM     81  C   UNL A   1      46.935  28.433  33.644  1.00  0.00     0.091 A 
ATOM     82  F   UNL A   1      45.432  27.012  32.491  1.00  0.00    -0.205 F 
ATOM     83  C   UNL A   1      47.225  29.668  34.240  1.00  0.00     0.022 A 
BRANCH  81  84
ATOM     84  S   UNL A   1      48.042  27.037  33.884  1.00  0.00     0.127 S 
ATOM     85  O   UNL A   1      49.251  27.664  34.406  1.00  0.00    -0.237 OA
ATOM     86  O   UNL A   1      47.361  26.211  34.871  1.00  0.00    -0.237 OA
ATOM     87  O   UNL A   1      48.155  26.501  32.533  1.00  0.00    -0.744 OA
ENDBRANCH  81  84
ENDBRANCH  53  77
BRANCH  65  88
ATOM     88  C   UNL A   1      38.971  32.033  35.948  1.00  0.00     0.023 A 
ATOM     89  C   UNL A   1      38.121  31.581  36.979  1.00  0.00     0.012 A 
ATOM     90  C   UNL A   1      39.474  33.350  36.077  1.00  0.00     0.148 A 
ATOM     91  C   UNL A   1      37.687  32.421  38.010  1.00  0.00     0.002 A 
ATOM     92  C   UNL A   1      39.130  34.147  37.168  1.00  0.00     0.091 A 
ATOM     93  F   UNL A   1      40.281  33.849  35.129  1.00  0.00    -0.205 F 
ATOM     94  C   UNL A   1      38.200  33.704  38.111  1.00  0.00     0.022 A 
BRANCH  92  95
ATOM     95  S   UNL A   1      39.977  35.703  37.475  1.00  0.00     0.127 S 
ATOM     96  O   UNL A   1      39.645  36.474  36.281  1.00  0.00    -0.237 OA
ATOM     97  O   UNL A   1      39.336  36.179  38.704  1.00  0.00    -0.237 OA
ATOM     98  O   UNL A   1      41.376  35.332  37.642  1.00  0.00    -0.744 OA
ENDBRANCH  92  95
ENDBRANCH  65  88
ENDBRANCH  39  40
ENDBRANCH  32  34
ENDBRANCH  31  32
ENDBRANCH  30  31
ENDBRANCH   1  30
TORSDOF 19
ENDMDL
