MODEL 1
REMARK VINA RESULT:     -12.1      0.000      0.000
REMARK SMILES COc1ccc(C(=O)/C=C(\Nc2cccc(C(F)(F)F)c2)C(=O)OCCOC(=O)c2ccc(-c3c4nc(c(-c5cccc(S(=O)(=O)[O-])c5F)c5ccc([nH]5)c(-c5cccc(S(=O)(=O)[O-])c5F)c5nc(c(-c6cccc(S(=O)(=O)[O-])c6F)c6ccc3[nH]6)C=C5)C=C4)cc2)cc1
REMARK SMILES IDX 25 1 24 2 22 3 23 4 10 5 9 6 7 7 8 8 6 9 3 10 4 11 94 12
REMARK SMILES IDX 5 13 93 14 2 15 1 16 11 17 12 19 13 20 21 21 14 22 16 23
REMARK SMILES IDX 15 24 17 25 18 26 19 27 20 28 26 29 27 30 28 31 29 32 30 33
REMARK SMILES IDX 31 34 92 35 32 36 91 37 33 38 34 39 35 40 85 41 36 42 90 43
REMARK SMILES IDX 84 44 86 45 37 46 89 47 83 48 82 49 38 51 70 52 50 53 69 54
REMARK SMILES IDX 51 55 54 56 68 57 87 58 52 59 53 60 67 62 88 63 55 64 39 65
REMARK SMILES IDX 40 66 48 67 41 68 43 69 49 70 42 71 44 72 45 73 46 74 47 75
REMARK SMILES IDX 71 76 72 77 80 78 73 79 75 80 81 81 74 82 76 83 77 84 78 85
REMARK SMILES IDX 79 86 56 87 57 88 65 89 58 90 60 91 66 92 59 93 61 94 62 95
REMARK SMILES IDX 63 96 64 97
REMARK H PARENT 11 18 86 50 54 61
REMARK Flexibility Score: inf
ROOT
ATOM      1  C   UNL A   1      34.877  21.802  24.093  1.00  0.00     0.275 C 
ENDROOT
BRANCH   1   2
ATOM      2  O   UNL A   1      33.624  21.207  24.490  1.00  0.00    -0.457 OA
BRANCH   2   3
ATOM      3  C   UNL A   1      32.547  21.486  23.709  1.00  0.00     0.355 C 
ATOM      4  O   UNL A   1      32.154  20.826  22.759  1.00  0.00    -0.244 OA
BRANCH   3   5
ATOM      5  C   UNL A   1      31.881  22.766  24.148  1.00  0.00     0.129 C 
ATOM      6  C   UNL A   1      31.888  22.908  25.487  1.00  0.00     0.086 C 
BRANCH   6   7
ATOM      7  C   UNL A   1      31.392  23.960  26.418  1.00  0.00     0.188 C 
ATOM      8  O   UNL A   1      30.467  23.701  27.182  1.00  0.00    -0.289 OA
BRANCH   7   9
ATOM      9  C   UNL A   1      31.941  25.322  26.407  1.00  0.00     0.022 A 
ATOM     10  C   UNL A   1      32.792  27.930  26.045  1.00  0.00     0.118 A 
ATOM     11  C   UNL A   1      31.498  27.692  26.502  1.00  0.00     0.047 A 
ATOM     12  C   UNL A   1      33.703  26.883  25.901  1.00  0.00     0.047 A 
ATOM     13  C   UNL A   1      31.067  26.380  26.678  1.00  0.00     0.016 A 
ATOM     14  C   UNL A   1      33.283  25.570  26.106  1.00  0.00     0.016 A 
BRANCH  10  15
ATOM     15  O   UNL A   1      33.154  29.219  25.765  1.00  0.00    -0.497 OA
ATOM     16  C   UNL A   1      32.446  30.124  26.617  1.00  0.00     0.278 C 
ENDBRANCH  10  15
ENDBRANCH   7   9
ENDBRANCH   6   7
BRANCH   5  17
ATOM     17  N   UNL A   1      31.310  23.597  23.197  1.00  0.00    -0.349 N 
ATOM     18  H   UNL A   1      30.629  23.193  22.612  1.00  0.00     0.167 HD
BRANCH  17  19
ATOM     19  C   UNL A   1      31.596  24.952  22.980  1.00  0.00     0.039 A 
ATOM     20  C   UNL A   1      32.864  25.305  22.500  1.00  0.00     0.026 A 
ATOM     21  C   UNL A   1      30.643  25.955  23.172  1.00  0.00     0.039 A 
ATOM     22  C   UNL A   1      33.174  26.630  22.203  1.00  0.00     0.003 A 
ATOM     23  C   UNL A   1      30.937  27.295  22.867  1.00  0.00     0.058 A 
ATOM     24  C   UNL A   1      32.215  27.622  22.387  1.00  0.00     0.013 A 
BRANCH  23  25
ATOM     25  C   UNL A   1      29.905  28.374  23.059  1.00  0.00     0.416 C 
ATOM     26  F   UNL A   1      30.315  29.332  23.936  1.00  0.00    -0.166 F 
ATOM     27  F   UNL A   1      29.615  29.032  21.899  1.00  0.00    -0.166 F 
ATOM     28  F   UNL A   1      28.713  27.915  23.530  1.00  0.00    -0.166 F 
ENDBRANCH  23  25
ENDBRANCH  17  19
ENDBRANCH   5  17
ENDBRANCH   3   5
ENDBRANCH   2   3
ENDBRANCH   1   2
BRANCH   1  29
ATOM     29  C   UNL A   1      36.064  21.075  24.719  1.00  0.00     0.275 C 
BRANCH  29  30
ATOM     30  O   UNL A   1      36.840  22.000  25.495  1.00  0.00    -0.458 OA
BRANCH  30  31
ATOM     31  C   UNL A   1      38.107  21.606  25.750  1.00  0.00     0.338 C 
ATOM     32  O   UNL A   1      38.663  20.588  25.376  1.00  0.00    -0.246 OA
BRANCH  31  33
ATOM     33  C   UNL A   1      38.808  22.694  26.438  1.00  0.00     0.060 A 
ATOM     34  C   UNL A   1      38.262  23.969  26.331  1.00  0.00     0.016 A 
ATOM     35  C   UNL A   1      40.043  22.503  27.045  1.00  0.00     0.016 A 
ATOM     36  C   UNL A   1      39.001  25.082  26.703  1.00  0.00     0.010 A 
ATOM     37  C   UNL A   1      40.736  23.618  27.530  1.00  0.00     0.010 A 
ATOM     38  C   UNL A   1      40.246  24.922  27.321  1.00  0.00    -0.014 A 
BRANCH  38  39
ATOM     39  C   UNL A   1      41.047  26.114  27.712  1.00  0.00     0.031 A 
ATOM     40  C   UNL A   1      40.423  27.188  28.564  1.00  0.00     0.074 A 
ATOM     41  C   UNL A   1      42.326  26.239  27.304  1.00  0.00     0.049 A 
ATOM     42  N   UNL A   1      40.871  28.383  28.848  1.00  0.00    -0.248 NA
ATOM     43  C   UNL A   1      39.110  26.885  29.160  1.00  0.00     0.031 C 
ATOM     44  C   UNL A   1      43.063  25.258  26.504  1.00  0.00     0.029 A 
ATOM     45  N   UNL A   1      43.234  27.251  27.499  1.00  0.00    -0.354 N 
ATOM     46  C   UNL A   1      39.867  29.001  29.584  1.00  0.00     0.074 A 
ATOM     47  C   UNL A   1      38.787  28.046  29.710  1.00  0.00     0.031 C 
ATOM     48  C   UNL A   1      44.310  25.702  26.296  1.00  0.00     0.029 A 
ATOM     49  C   UNL A   1      44.439  27.035  26.871  1.00  0.00     0.049 A 
ATOM     50  H   UNL A   1      43.041  28.053  28.036  1.00  0.00     0.167 HD
ATOM     51  C   UNL A   1      39.851  30.247  30.113  1.00  0.00     0.034 A 
ATOM     52  C   UNL A   1      45.513  27.836  26.733  1.00  0.00     0.034 A 
ATOM     53  C   UNL A   1      40.964  31.158  30.055  1.00  0.00     0.049 A 
ATOM     54  C   UNL A   1      45.475  29.210  27.341  1.00  0.00     0.074 A 
ATOM     55  C   UNL A   1      41.062  32.433  30.582  1.00  0.00     0.029 A 
ATOM     56  N   UNL A   1      42.180  30.881  29.449  1.00  0.00    -0.354 N 
ATOM     57  N   UNL A   1      44.524  29.773  28.047  1.00  0.00    -0.248 NA
ATOM     58  C   UNL A   1      46.660  30.056  27.144  1.00  0.00     0.031 C 
ATOM     59  C   UNL A   1      42.336  32.930  30.289  1.00  0.00     0.029 A 
ATOM     60  C   UNL A   1      43.038  31.958  29.594  1.00  0.00     0.049 A 
ATOM     61  H   UNL A   1      42.401  30.041  28.984  1.00  0.00     0.167 HD
ATOM     62  C   UNL A   1      45.003  31.029  28.396  1.00  0.00     0.074 A 
ATOM     63  C   UNL A   1      46.341  31.133  27.848  1.00  0.00     0.031 C 
ATOM     64  C   UNL A   1      44.385  32.018  29.088  1.00  0.00     0.034 A 
BRANCH  51  65
ATOM     65  C   UNL A   1      38.600  30.693  30.825  1.00  0.00     0.023 A 
ATOM     66  C   UNL A   1      38.478  30.507  32.216  1.00  0.00     0.012 A 
ATOM     67  C   UNL A   1      37.565  31.344  30.123  1.00  0.00     0.148 A 
ATOM     68  C   UNL A   1      37.334  30.931  32.892  1.00  0.00     0.002 A 
ATOM     69  C   UNL A   1      36.445  31.801  30.810  1.00  0.00     0.091 A 
ATOM     70  F   UNL A   1      37.687  31.494  28.796  1.00  0.00    -0.205 F 
ATOM     71  C   UNL A   1      36.324  31.586  32.193  1.00  0.00     0.022 A 
BRANCH  69  72
ATOM     72  S   UNL A   1      35.126  32.721  30.010  1.00  0.00     0.127 S 
ATOM     73  O   UNL A   1      35.851  33.871  29.472  1.00  0.00    -0.237 OA
ATOM     74  O   UNL A   1      34.655  31.773  29.001  1.00  0.00    -0.237 OA
ATOM     75  O   UNL A   1      34.159  33.026  31.055  1.00  0.00    -0.744 OA
ENDBRANCH  69  72
ENDBRANCH  51  65
BRANCH  52  76
ATOM     76  C   UNL A   1      46.717  27.346  26.003  1.00  0.00     0.023 A 
ATOM     77  C   UNL A   1      46.823  27.570  24.617  1.00  0.00     0.012 A 
ATOM     78  C   UNL A   1      47.777  26.704  26.675  1.00  0.00     0.148 A 
ATOM     79  C   UNL A   1      47.950  27.149  23.910  1.00  0.00     0.002 A 
ATOM     80  C   UNL A   1      48.923  26.341  25.976  1.00  0.00     0.091 A 
ATOM     81  F   UNL A   1      47.651  26.475  27.990  1.00  0.00    -0.205 F 
ATOM     82  C   UNL A   1      49.005  26.548  24.591  1.00  0.00     0.022 A 
BRANCH  80  83
ATOM     83  S   UNL A   1      50.383  25.695  26.801  1.00  0.00     0.127 S 
ATOM     84  O   UNL A   1      49.877  24.452  27.377  1.00  0.00    -0.237 OA
ATOM     85  O   UNL A   1      51.314  25.522  25.685  1.00  0.00    -0.237 OA
ATOM     86  O   UNL A   1      50.779  26.722  27.755  1.00  0.00    -0.744 OA
ENDBRANCH  80  83
ENDBRANCH  52  76
BRANCH  64  87
ATOM     87  C   UNL A   1      45.158  33.287  29.319  1.00  0.00     0.023 A 
ATOM     88  C   UNL A   1      45.986  33.401  30.454  1.00  0.00     0.012 A 
ATOM     89  C   UNL A   1      45.118  34.336  28.381  1.00  0.00     0.148 A 
ATOM     90  C   UNL A   1      46.742  34.553  30.665  1.00  0.00     0.002 A 
ATOM     91  C   UNL A   1      45.908  35.463  28.575  1.00  0.00     0.091 A 
ATOM     92  F   UNL A   1      44.307  34.216  27.320  1.00  0.00    -0.205 F 
ATOM     93  C   UNL A   1      46.712  35.577  29.722  1.00  0.00     0.022 A 
BRANCH  91  94
ATOM     94  S   UNL A   1      46.000  36.790  27.368  1.00  0.00     0.127 S 
ATOM     95  O   UNL A   1      46.964  37.694  27.991  1.00  0.00    -0.237 OA
ATOM     96  O   UNL A   1      46.496  36.095  26.179  1.00  0.00    -0.237 OA
ATOM     97  O   UNL A   1      44.645  37.307  27.239  1.00  0.00    -0.744 OA
ENDBRANCH  91  94
ENDBRANCH  64  87
ENDBRANCH  38  39
ENDBRANCH  31  33
ENDBRANCH  30  31
ENDBRANCH  29  30
ENDBRANCH   1  29
TORSDOF 20
ENDMDL
MODEL 2
REMARK VINA RESULT:     -12.0      4.959      9.870
REMARK SMILES COc1ccc(C(=O)/C=C(\Nc2cccc(C(F)(F)F)c2)C(=O)OCCOC(=O)c2ccc(-c3c4nc(c(-c5cccc(S(=O)(=O)[O-])c5F)c5ccc([nH]5)c(-c5cccc(S(=O)(=O)[O-])c5F)c5nc(c(-c6cccc(S(=O)(=O)[O-])c6F)c6ccc3[nH]6)C=C5)C=C4)cc2)cc1
REMARK SMILES IDX 25 1 24 2 22 3 23 4 10 5 9 6 7 7 8 8 6 9 3 10 4 11 94 12
REMARK SMILES IDX 5 13 93 14 2 15 1 16 11 17 12 19 13 20 21 21 14 22 16 23
REMARK SMILES IDX 15 24 17 25 18 26 19 27 20 28 26 29 27 30 28 31 29 32 30 33
REMARK SMILES IDX 31 34 92 35 32 36 91 37 33 38 34 39 35 40 85 41 36 42 90 43
REMARK SMILES IDX 84 44 86 45 37 46 89 47 83 48 82 49 38 51 70 52 50 53 69 54
REMARK SMILES IDX 51 55 54 56 68 57 87 58 52 59 53 60 67 62 88 63 55 64 39 65
REMARK SMILES IDX 40 66 48 67 41 68 43 69 49 70 42 71 44 72 45 73 46 74 47 75
REMARK SMILES IDX 71 76 72 77 80 78 73 79 75 80 81 81 74 82 76 83 77 84 78 85
REMARK SMILES IDX 79 86 56 87 57 88 65 89 58 90 60 91 66 92 59 93 61 94 62 95
REMARK SMILES IDX 63 96 64 97
REMARK H PARENT 11 18 86 50 54 61
REMARK Flexibility Score: inf
ROOT
ATOM      1  C   UNL A   1      31.616  28.431  26.833  1.00  0.00     0.275 C 
ENDROOT
BRANCH   1   2
ATOM      2  O   UNL A   1      32.156  27.253  26.197  1.00  0.00    -0.457 OA
BRANCH   2   3
ATOM      3  C   UNL A   1      31.265  26.446  25.563  1.00  0.00     0.355 C 
ATOM      4  O   UNL A   1      30.055  26.606  25.512  1.00  0.00    -0.244 OA
BRANCH   3   5
ATOM      5  C   UNL A   1      31.962  25.268  24.928  1.00  0.00     0.129 C 
ATOM      6  C   UNL A   1      32.982  25.651  24.135  1.00  0.00     0.086 C 
BRANCH   6   7
ATOM      7  C   UNL A   1      33.978  24.917  23.306  1.00  0.00     0.188 C 
ATOM      8  O   UNL A   1      33.862  24.917  22.085  1.00  0.00    -0.289 OA
BRANCH   7   9
ATOM      9  C   UNL A   1      35.067  24.141  23.915  1.00  0.00     0.022 A 
ATOM     10  C   UNL A   1      36.852  22.401  25.116  1.00  0.00     0.118 A 
ATOM     11  C   UNL A   1      36.508  22.211  23.780  1.00  0.00     0.047 A 
ATOM     12  C   UNL A   1      36.419  23.530  25.812  1.00  0.00     0.047 A 
ATOM     13  C   UNL A   1      35.605  23.082  23.176  1.00  0.00     0.016 A 
ATOM     14  C   UNL A   1      35.539  24.421  25.200  1.00  0.00     0.016 A 
BRANCH  10  15
ATOM     15  O   UNL A   1      37.646  21.465  25.721  1.00  0.00    -0.497 OA
ATOM     16  C   UNL A   1      37.563  20.222  25.018  1.00  0.00     0.278 C 
ENDBRANCH  10  15
ENDBRANCH   7   9
ENDBRANCH   6   7
BRANCH   5  17
ATOM     17  N   UNL A   1      31.485  23.988  25.160  1.00  0.00    -0.349 N 
ATOM     18  H   UNL A   1      30.518  23.851  25.035  1.00  0.00     0.167 HD
BRANCH  17  19
ATOM     19  C   UNL A   1      32.231  22.868  25.550  1.00  0.00     0.039 A 
ATOM     20  C   UNL A   1      32.856  22.876  26.803  1.00  0.00     0.026 A 
ATOM     21  C   UNL A   1      32.326  21.722  24.756  1.00  0.00     0.039 A 
ATOM     22  C   UNL A   1      33.551  21.761  27.265  1.00  0.00     0.003 A 
ATOM     23  C   UNL A   1      33.013  20.585  25.212  1.00  0.00     0.058 A 
ATOM     24  C   UNL A   1      33.631  20.620  26.472  1.00  0.00     0.013 A 
BRANCH  23  25
ATOM     25  C   UNL A   1      33.101  19.344  24.363  1.00  0.00     0.416 C 
ATOM     26  F   UNL A   1      32.362  18.318  24.870  1.00  0.00    -0.166 F 
ATOM     27  F   UNL A   1      32.638  19.544  23.096  1.00  0.00    -0.166 F 
ATOM     28  F   UNL A   1      34.367  18.865  24.223  1.00  0.00    -0.166 F 
ENDBRANCH  23  25
ENDBRANCH  17  19
ENDBRANCH   5  17
ENDBRANCH   3   5
ENDBRANCH   2   3
ENDBRANCH   1   2
BRANCH   1  29
ATOM     29  C   UNL A   1      31.712  29.651  25.921  1.00  0.00     0.275 C 
BRANCH  29  30
ATOM     30  O   UNL A   1      33.061  30.141  25.914  1.00  0.00    -0.458 OA
BRANCH  30  31
ATOM     31  C   UNL A   1      33.321  31.106  26.824  1.00  0.00     0.338 C 
ATOM     32  O   UNL A   1      32.554  31.946  27.262  1.00  0.00    -0.246 OA
BRANCH  31  33
ATOM     33  C   UNL A   1      34.670  30.897  27.359  1.00  0.00     0.060 A 
ATOM     34  C   UNL A   1      35.055  29.585  27.616  1.00  0.00     0.016 A 
ATOM     35  C   UNL A   1      35.481  31.959  27.738  1.00  0.00     0.016 A 
ATOM     36  C   UNL A   1      36.185  29.322  28.376  1.00  0.00     0.010 A 
ATOM     37  C   UNL A   1      36.683  31.686  28.400  1.00  0.00     0.010 A 
ATOM     38  C   UNL A   1      37.024  30.370  28.769  1.00  0.00    -0.014 A 
BRANCH  38  39
ATOM     39  C   UNL A   1      38.231  30.093  29.593  1.00  0.00     0.031 A 
ATOM     40  C   UNL A   1      39.319  29.202  29.053  1.00  0.00     0.074 A 
ATOM     41  C   UNL A   1      38.356  30.633  30.823  1.00  0.00     0.049 A 
ATOM     42  N   UNL A   1      40.344  28.679  29.673  1.00  0.00    -0.248 NA
ATOM     43  C   UNL A   1      39.230  28.834  27.629  1.00  0.00     0.031 C 
ATOM     44  C   UNL A   1      37.394  31.539  31.454  1.00  0.00     0.029 A 
ATOM     45  N   UNL A   1      39.340  30.489  31.770  1.00  0.00    -0.354 N 
ATOM     46  C   UNL A   1      40.974  27.859  28.743  1.00  0.00     0.074 A 
ATOM     47  C   UNL A   1      40.220  27.961  27.512  1.00  0.00     0.031 C 
ATOM     48  C   UNL A   1      37.843  31.888  32.668  1.00  0.00     0.029 A 
ATOM     49  C   UNL A   1      39.080  31.165  32.939  1.00  0.00     0.049 A 
ATOM     50  H   UNL A   1      40.154  29.954  31.625  1.00  0.00     0.167 HD
ATOM     51  C   UNL A   1      42.084  27.101  28.899  1.00  0.00     0.034 A 
ATOM     52  C   UNL A   1      39.736  31.171  34.115  1.00  0.00     0.034 A 
ATOM     53  C   UNL A   1      42.875  27.073  30.100  1.00  0.00     0.049 A 
ATOM     54  C   UNL A   1      40.973  30.330  34.259  1.00  0.00     0.074 A 
ATOM     55  C   UNL A   1      44.033  26.360  30.354  1.00  0.00     0.029 A 
ATOM     56  N   UNL A   1      42.600  27.808  31.244  1.00  0.00    -0.354 N 
ATOM     57  N   UNL A   1      41.563  29.573  33.365  1.00  0.00    -0.248 NA
ATOM     58  C   UNL A   1      41.641  30.349  35.567  1.00  0.00     0.031 C 
ATOM     59  C   UNL A   1      44.455  26.659  31.653  1.00  0.00     0.029 A 
ATOM     60  C   UNL A   1      43.568  27.572  32.204  1.00  0.00     0.049 A 
ATOM     61  H   UNL A   1      41.829  28.411  31.356  1.00  0.00     0.167 HD
ATOM     62  C   UNL A   1      42.683  29.045  33.994  1.00  0.00     0.074 A 
ATOM     63  C   UNL A   1      42.702  29.589  35.337  1.00  0.00     0.031 C 
ATOM     64  C   UNL A   1      43.599  28.168  33.514  1.00  0.00     0.034 A 
BRANCH  51  65
ATOM     65  C   UNL A   1      42.526  26.254  27.733  1.00  0.00     0.023 A 
ATOM     66  C   UNL A   1      43.440  26.773  26.794  1.00  0.00     0.012 A 
ATOM     67  C   UNL A   1      42.076  24.925  27.597  1.00  0.00     0.148 A 
ATOM     68  C   UNL A   1      43.873  25.995  25.720  1.00  0.00     0.002 A 
ATOM     69  C   UNL A   1      42.544  24.142  26.547  1.00  0.00     0.091 A 
ATOM     70  F   UNL A   1      41.190  24.454  28.486  1.00  0.00    -0.205 F 
ATOM     71  C   UNL A   1      43.435  24.679  25.602  1.00  0.00     0.022 A 
BRANCH  69  72
ATOM     72  S   UNL A   1      42.095  22.413  26.352  1.00  0.00     0.127 S 
ATOM     73  O   UNL A   1      42.668  22.104  25.043  1.00  0.00    -0.237 OA
ATOM     74  O   UNL A   1      42.782  21.786  27.481  1.00  0.00    -0.237 OA
ATOM     75  O   UNL A   1      40.642  22.366  26.426  1.00  0.00    -0.744 OA
ENDBRANCH  69  72
ENDBRANCH  51  65
BRANCH  52  76
ATOM     76  C   UNL A   1      39.241  32.016  35.239  1.00  0.00     0.023 A 
ATOM     77  C   UNL A   1      38.289  31.488  36.133  1.00  0.00     0.012 A 
ATOM     78  C   UNL A   1      39.737  33.317  35.459  1.00  0.00     0.148 A 
ATOM     79  C   UNL A   1      37.827  32.244  37.211  1.00  0.00     0.002 A 
ATOM     80  C   UNL A   1      39.318  34.042  36.569  1.00  0.00     0.091 A 
ATOM     81  F   UNL A   1      40.624  33.816  34.585  1.00  0.00    -0.205 F 
ATOM     82  C   UNL A   1      38.352  33.514  37.437  1.00  0.00     0.022 A 
BRANCH  80  83
ATOM     83  S   UNL A   1      40.049  35.623  37.012  1.00  0.00     0.127 S 
ATOM     84  O   UNL A   1      39.670  36.458  35.875  1.00  0.00    -0.237 OA
ATOM     85  O   UNL A   1      39.360  35.938  38.265  1.00  0.00    -0.237 OA
ATOM     86  O   UNL A   1      41.475  35.364  37.164  1.00  0.00    -0.744 OA
ENDBRANCH  80  83
ENDBRANCH  52  76
BRANCH  64  87
ATOM     87  C   UNL A   1      44.720  27.766  34.434  1.00  0.00     0.023 A 
ATOM     88  C   UNL A   1      45.889  28.551  34.492  1.00  0.00     0.012 A 
ATOM     89  C   UNL A   1      44.587  26.656  35.290  1.00  0.00     0.148 A 
ATOM     90  C   UNL A   1      46.921  28.218  35.367  1.00  0.00     0.002 A 
ATOM     91  C   UNL A   1      45.601  26.356  36.191  1.00  0.00     0.091 A 
ATOM     92  F   UNL A   1      43.475  25.910  35.203  1.00  0.00    -0.205 F 
ATOM     93  C   UNL A   1      46.773  27.130  36.223  1.00  0.00     0.022 A 
BRANCH  91  94
ATOM     94  S   UNL A   1      45.456  25.029  37.392  1.00  0.00     0.127 S 
ATOM     95  O   UNL A   1      45.423  23.849  36.530  1.00  0.00    -0.237 OA
ATOM     96  O   UNL A   1      46.685  25.179  38.173  1.00  0.00    -0.237 OA
ATOM     97  O   UNL A   1      44.234  25.296  38.137  1.00  0.00    -0.744 OA
ENDBRANCH  91  94
ENDBRANCH  64  87
ENDBRANCH  38  39
ENDBRANCH  31  33
ENDBRANCH  30  31
ENDBRANCH  29  30
ENDBRANCH   1  29
TORSDOF 20
ENDMDL
MODEL 3
REMARK VINA RESULT:     -11.7      4.971      9.902
REMARK SMILES COc1ccc(C(=O)/C=C(\Nc2cccc(C(F)(F)F)c2)C(=O)OCCOC(=O)c2ccc(-c3c4nc(c(-c5cccc(S(=O)(=O)[O-])c5F)c5ccc([nH]5)c(-c5cccc(S(=O)(=O)[O-])c5F)c5nc(c(-c6cccc(S(=O)(=O)[O-])c6F)c6ccc3[nH]6)C=C5)C=C4)cc2)cc1
REMARK SMILES IDX 25 1 24 2 22 3 23 4 10 5 9 6 7 7 8 8 6 9 3 10 4 11 94 12
REMARK SMILES IDX 5 13 93 14 2 15 1 16 11 17 12 19 13 20 21 21 14 22 16 23
REMARK SMILES IDX 15 24 17 25 18 26 19 27 20 28 26 29 27 30 28 31 29 32 30 33
REMARK SMILES IDX 31 34 92 35 32 36 91 37 33 38 34 39 35 40 85 41 36 42 90 43
REMARK SMILES IDX 84 44 86 45 37 46 89 47 83 48 82 49 38 51 70 52 50 53 69 54
REMARK SMILES IDX 51 55 54 56 68 57 87 58 52 59 53 60 67 62 88 63 55 64 39 65
REMARK SMILES IDX 40 66 48 67 41 68 43 69 49 70 42 71 44 72 45 73 46 74 47 75
REMARK SMILES IDX 71 76 72 77 80 78 73 79 75 80 81 81 74 82 76 83 77 84 78 85
REMARK SMILES IDX 79 86 56 87 57 88 65 89 58 90 60 91 66 92 59 93 61 94 62 95
REMARK SMILES IDX 63 96 64 97
REMARK H PARENT 11 18 86 50 54 61
REMARK Flexibility Score: inf
ROOT
ATOM      1  C   UNL A   1      31.450  28.644  26.820  1.00  0.00     0.275 C 
ENDROOT
BRANCH   1   2
ATOM      2  O   UNL A   1      31.829  28.139  25.523  1.00  0.00    -0.457 OA
BRANCH   2   3
ATOM      3  C   UNL A   1      31.163  27.037  25.085  1.00  0.00     0.355 C 
ATOM      4  O   UNL A   1      30.183  27.028  24.356  1.00  0.00    -0.244 OA
BRANCH   3   5
ATOM      5  C   UNL A   1      31.778  25.778  25.643  1.00  0.00     0.129 C 
ATOM      6  C   UNL A   1      30.845  24.903  26.064  1.00  0.00     0.086 C 
BRANCH   6   7
ATOM      7  C   UNL A   1      30.902  23.542  26.667  1.00  0.00     0.188 C 
ATOM      8  O   UNL A   1      30.162  23.268  27.606  1.00  0.00    -0.289 OA
BRANCH   7   9
ATOM      9  C   UNL A   1      31.865  22.532  26.206  1.00  0.00     0.022 A 
ATOM     10  C   UNL A   1      33.390  20.373  25.389  1.00  0.00     0.118 A 
ATOM     11  C   UNL A   1      32.476  20.937  24.502  1.00  0.00     0.047 A 
ATOM     12  C   UNL A   1      33.644  20.965  26.627  1.00  0.00     0.047 A 
ATOM     13  C   UNL A   1      31.703  22.020  24.914  1.00  0.00     0.016 A 
ATOM     14  C   UNL A   1      32.893  22.068  27.030  1.00  0.00     0.016 A 
BRANCH  10  15
ATOM     15  O   UNL A   1      34.051  19.239  25.005  1.00  0.00    -0.497 OA
ATOM     16  C   UNL A   1      33.113  18.237  24.602  1.00  0.00     0.278 C 
ENDBRANCH  10  15
ENDBRANCH   7   9
ENDBRANCH   6   7
BRANCH   5  17
ATOM     17  N   UNL A   1      33.158  25.670  25.719  1.00  0.00    -0.349 N 
ATOM     18  H   UNL A   1      33.613  26.281  26.341  1.00  0.00     0.167 HD
BRANCH  17  19
ATOM     19  C   UNL A   1      33.974  24.781  25.006  1.00  0.00     0.039 A 
ATOM     20  C   UNL A   1      33.715  24.570  23.645  1.00  0.00     0.026 A 
ATOM     21  C   UNL A   1      35.069  24.141  25.591  1.00  0.00     0.039 A 
ATOM     22  C   UNL A   1      34.539  23.750  22.877  1.00  0.00     0.003 A 
ATOM     23  C   UNL A   1      35.916  23.321  24.828  1.00  0.00     0.058 A 
ATOM     24  C   UNL A   1      35.634  23.126  23.467  1.00  0.00     0.013 A 
BRANCH  23  25
ATOM     25  C   UNL A   1      37.107  22.645  25.455  1.00  0.00     0.416 C 
ATOM     26  F   UNL A   1      37.773  23.464  26.315  1.00  0.00    -0.166 F 
ATOM     27  F   UNL A   1      36.760  21.545  26.184  1.00  0.00    -0.166 F 
ATOM     28  F   UNL A   1      38.029  22.213  24.553  1.00  0.00    -0.166 F 
ENDBRANCH  23  25
ENDBRANCH  17  19
ENDBRANCH   5  17
ENDBRANCH   3   5
ENDBRANCH   2   3
ENDBRANCH   1   2
BRANCH   1  29
ATOM     29  C   UNL A   1      31.532  30.167  26.872  1.00  0.00     0.275 C 
BRANCH  29  30
ATOM     30  O   UNL A   1      32.844  30.592  26.473  1.00  0.00    -0.458 OA
BRANCH  30  31
ATOM     31  C   UNL A   1      33.316  31.674  27.129  1.00  0.00     0.338 C 
ATOM     32  O   UNL A   1      32.719  32.702  27.402  1.00  0.00    -0.246 OA
BRANCH  31  33
ATOM     33  C   UNL A   1      34.659  31.371  27.632  1.00  0.00     0.060 A 
ATOM     34  C   UNL A   1      34.942  30.041  27.924  1.00  0.00     0.016 A 
ATOM     35  C   UNL A   1      35.567  32.373  27.951  1.00  0.00     0.016 A 
ATOM     36  C   UNL A   1      36.069  29.709  28.661  1.00  0.00     0.010 A 
ATOM     37  C   UNL A   1      36.762  32.022  28.588  1.00  0.00     0.010 A 
ATOM     38  C   UNL A   1      37.004  30.695  28.994  1.00  0.00    -0.014 A 
BRANCH  38  39
ATOM     39  C   UNL A   1      38.209  30.345  29.792  1.00  0.00     0.031 A 
ATOM     40  C   UNL A   1      39.259  29.437  29.207  1.00  0.00     0.074 A 
ATOM     41  C   UNL A   1      38.366  30.833  31.040  1.00  0.00     0.049 A 
ATOM     42  N   UNL A   1      40.271  28.855  29.794  1.00  0.00    -0.248 NA
ATOM     43  C   UNL A   1      39.141  29.126  27.771  1.00  0.00     0.031 C 
ATOM     44  C   UNL A   1      37.443  31.748  31.716  1.00  0.00     0.029 A 
ATOM     45  N   UNL A   1      39.355  30.619  31.969  1.00  0.00    -0.354 N 
ATOM     46  C   UNL A   1      40.861  28.049  28.827  1.00  0.00     0.074 A 
ATOM     47  C   UNL A   1      40.099  28.224  27.610  1.00  0.00     0.031 C 
ATOM     48  C   UNL A   1      37.918  32.035  32.936  1.00  0.00     0.029 A 
ATOM     49  C   UNL A   1      39.130  31.260  33.166  1.00  0.00     0.049 A 
ATOM     50  H   UNL A   1      40.147  30.062  31.795  1.00  0.00     0.167 HD
ATOM     51  C   UNL A   1      41.945  27.247  28.941  1.00  0.00     0.034 A 
ATOM     52  C   UNL A   1      39.799  31.198  34.334  1.00  0.00     0.034 A 
ATOM     53  C   UNL A   1      42.747  27.146  30.132  1.00  0.00     0.049 A 
ATOM     54  C   UNL A   1      41.006  30.309  34.431  1.00  0.00     0.074 A 
ATOM     55  C   UNL A   1      43.882  26.384  30.344  1.00  0.00     0.029 A 
ATOM     56  N   UNL A   1      42.511  27.847  31.305  1.00  0.00    -0.354 N 
ATOM     57  N   UNL A   1      41.560  29.566  33.502  1.00  0.00    -0.248 NA
ATOM     58  C   UNL A   1      41.688  30.255  35.731  1.00  0.00     0.031 C 
ATOM     59  C   UNL A   1      44.328  26.618  31.649  1.00  0.00     0.029 A 
ATOM     60  C   UNL A   1      43.480  27.540  32.244  1.00  0.00     0.049 A 
ATOM     61  H   UNL A   1      41.763  28.471  31.449  1.00  0.00     0.167 HD
ATOM     62  C   UNL A   1      42.666  28.975  34.098  1.00  0.00     0.074 A 
ATOM     63  C   UNL A   1      42.719  29.468  35.461  1.00  0.00     0.031 C 
ATOM     64  C   UNL A   1      43.546  28.085  33.575  1.00  0.00     0.034 A 
BRANCH  51  65
ATOM     65  C   UNL A   1      42.345  26.429  27.740  1.00  0.00     0.023 A 
ATOM     66  C   UNL A   1      43.148  27.004  26.734  1.00  0.00     0.012 A 
ATOM     67  C   UNL A   1      41.968  25.076  27.632  1.00  0.00     0.148 A 
ATOM     68  C   UNL A   1      43.541  26.255  25.625  1.00  0.00     0.002 A 
ATOM     69  C   UNL A   1      42.399  24.323  26.544  1.00  0.00     0.091 A 
ATOM     70  F   UNL A   1      41.187  24.550  28.587  1.00  0.00    -0.205 F 
ATOM     71  C   UNL A   1      43.176  24.914  25.535  1.00  0.00     0.022 A 
BRANCH  69  72
ATOM     72  S   UNL A   1      42.044  22.570  26.377  1.00  0.00     0.127 S 
ATOM     73  O   UNL A   1      42.745  22.014  27.533  1.00  0.00    -0.237 OA
ATOM     74  O   UNL A   1      40.584  22.539  26.478  1.00  0.00    -0.237 OA
ATOM     75  O   UNL A   1      42.570  22.176  25.078  1.00  0.00    -0.744 OA
ENDBRANCH  69  72
ENDBRANCH  51  65
BRANCH  52  76
ATOM     76  C   UNL A   1      39.345  32.017  35.494  1.00  0.00     0.023 A 
ATOM     77  C   UNL A   1      38.520  31.430  36.472  1.00  0.00     0.012 A 
ATOM     78  C   UNL A   1      39.762  33.353  35.662  1.00  0.00     0.148 A 
ATOM     79  C   UNL A   1      38.102  32.163  37.585  1.00  0.00     0.002 A 
ATOM     80  C   UNL A   1      39.393  34.057  36.802  1.00  0.00     0.091 A 
ATOM     81  F   UNL A   1      40.529  33.905  34.709  1.00  0.00    -0.205 F 
ATOM     82  C   UNL A   1      38.550  33.470  37.757  1.00  0.00     0.022 A 
BRANCH  80  83
ATOM     83  S   UNL A   1      40.042  35.692  37.171  1.00  0.00     0.127 S 
ATOM     84  O   UNL A   1      41.475  35.430  37.271  1.00  0.00    -0.237 OA
ATOM     85  O   UNL A   1      39.637  36.456  35.990  1.00  0.00    -0.237 OA
ATOM     86  O   UNL A   1      39.383  36.104  38.403  1.00  0.00    -0.744 OA
ENDBRANCH  80  83
ENDBRANCH  52  76
BRANCH  64  87
ATOM     87  C   UNL A   1      44.661  27.610  34.466  1.00  0.00     0.023 A 
ATOM     88  C   UNL A   1      45.857  28.351  34.540  1.00  0.00     0.012 A 
ATOM     89  C   UNL A   1      44.498  26.473  35.280  1.00  0.00     0.148 A 
ATOM     90  C   UNL A   1      46.887  27.950  35.390  1.00  0.00     0.002 A 
ATOM     91  C   UNL A   1      45.511  26.104  36.158  1.00  0.00     0.091 A 
ATOM     92  F   UNL A   1      43.360  25.770  35.179  1.00  0.00    -0.205 F 
ATOM     93  C   UNL A   1      46.709  26.835  36.206  1.00  0.00     0.022 A 
BRANCH  91  94
ATOM     94  S   UNL A   1      45.331  24.737  37.309  1.00  0.00     0.127 S 
ATOM     95  O   UNL A   1      44.228  25.198  38.150  1.00  0.00    -0.237 OA
ATOM     96  O   UNL A   1      44.996  23.623  36.421  1.00  0.00    -0.237 OA
ATOM     97  O   UNL A   1      46.618  24.606  37.978  1.00  0.00    -0.744 OA
ENDBRANCH  91  94
ENDBRANCH  64  87
ENDBRANCH  38  39
ENDBRANCH  31  33
ENDBRANCH  30  31
ENDBRANCH  29  30
ENDBRANCH   1  29
TORSDOF 20
ENDMDL
