MODEL 1
REMARK VINA RESULT:     -12.6      0.000      0.000
REMARK SMILES NC(=O)c1c(-c2ccc(Cl)cc2)csc1NC(=O)[C@H]1[C@@H](C(=O)OCCOC(=O)c2ccc(-c3c4nc(c(-c5cccc(S(=O)(=O)[O-])c5F)c5ccc([nH]5)c(-c5cccc(S(=O)(=O)[O-])c5F)c5nc(c(-c6cccc(S(=O)(=O)[O-])c6F)c6ccc3[nH]6)C=C5)C=C4)cc2)[C@@H]2CC[C@H]1O2
REMARK SMILES IDX 24 1 23 2 21 3 22 4 20 5 19 6 95 7 92 8 94 9 96 10 93 11
REMARK SMILES IDX 17 12 16 13 18 15 15 16 4 17 5 18 13 19 14 20 2 21 1 22 3 25
REMARK SMILES IDX 6 26 7 27 12 28 8 29 11 30 9 31 10 32 25 33 26 34 27 35
REMARK SMILES IDX 28 36 29 37 30 38 91 39 31 40 90 41 32 42 33 43 34 44 84 45
REMARK SMILES IDX 35 46 89 47 83 48 85 49 36 50 88 51 82 52 81 53 37 55 69 56
REMARK SMILES IDX 49 57 68 58 50 59 53 60 67 61 86 62 51 63 52 64 66 66 87 67
REMARK SMILES IDX 54 68 38 69 39 70 47 71 40 72 42 73 48 74 41 75 43 76 44 77
REMARK SMILES IDX 45 78 46 79 70 80 71 81 79 82 72 83 74 84 80 85 73 86 75 87
REMARK SMILES IDX 76 88 77 89 78 90 55 91 56 92 64 93 57 94 59 95 65 96 58 97
REMARK SMILES IDX 60 98 61 99 62 100 63 101
REMARK H PARENT 16 14 1 23 1 24 85 54 53 65
REMARK Flexibility Score: inf
ROOT
ATOM      1  C   UNL A   1      31.194  30.142  25.117  1.00  0.00     0.274 C 
ENDROOT
BRANCH   1   2
ATOM      2  O   UNL A   1      31.826  28.850  25.115  1.00  0.00    -0.462 OA
BRANCH   2   3
ATOM      3  C   UNL A   1      32.662  28.601  24.076  1.00  0.00     0.312 C 
ATOM      4  O   UNL A   1      33.669  29.251  23.815  1.00  0.00    -0.252 OA
BRANCH   3   5
ATOM      5  C   UNL A   1      32.332  27.329  23.335  1.00  0.00     0.143 C 
ATOM      6  C   UNL A   1      32.644  26.004  24.040  1.00  0.00     0.124 C 
ATOM      7  C   UNL A   1      33.386  25.255  22.923  1.00  0.00     0.132 C 
ATOM      8  C   UNL A   1      32.962  27.145  21.954  1.00  0.00     0.133 C 
ATOM      9  C   UNL A   1      32.402  24.831  21.829  1.00  0.00     0.035 C 
ATOM     10  O   UNL A   1      34.104  26.314  22.251  1.00  0.00    -0.373 OA
ATOM     11  C   UNL A   1      32.110  26.163  21.134  1.00  0.00     0.036 C 
BRANCH   6  12
ATOM     12  C   UNL A   1      33.463  26.039  25.327  1.00  0.00     0.231 C 
ATOM     13  N   UNL A   1      33.105  25.234  26.391  1.00  0.00    -0.317 N 
ATOM     14  H   UNL A   1      33.265  25.557  27.308  1.00  0.00     0.170 HD
ATOM     15  O   UNL A   1      34.474  26.730  25.452  1.00  0.00    -0.274 OA
BRANCH  13  16
ATOM     16  C   UNL A   1      32.528  23.993  26.213  1.00  0.00     0.108 A 
ATOM     17  C   UNL A   1      33.183  22.807  25.930  1.00  0.00     0.082 A 
ATOM     18  C   UNL A   1      32.214  21.795  25.580  1.00  0.00     0.007 A 
ATOM     19  C   UNL A   1      30.913  22.223  25.777  1.00  0.00     0.076 A 
ATOM     20  S   UNL A   1      30.850  23.823  26.373  1.00  0.00    -0.125 S 
BRANCH  17  21
ATOM     21  C   UNL A   1      34.639  22.744  25.910  1.00  0.00     0.252 C 
ATOM     22  N   UNL A   1      35.235  21.926  26.821  1.00  0.00    -0.365 N 
ATOM     23  H   UNL A   1      36.216  21.850  26.848  1.00  0.00     0.159 HD
ATOM     24  H   UNL A   1      34.684  21.412  27.455  1.00  0.00     0.159 HD
ATOM     25  O   UNL A   1      35.319  23.347  25.085  1.00  0.00    -0.269 OA
ENDBRANCH  17  21
BRANCH  18  26
ATOM     26  C   UNL A   1      32.469  20.449  25.103  1.00  0.00    -0.017 A 
ATOM     27  C   UNL A   1      32.415  20.170  23.730  1.00  0.00     0.010 A 
ATOM     28  C   UNL A   1      32.825  19.446  26.009  1.00  0.00     0.010 A 
ATOM     29  C   UNL A   1      32.728  18.889  23.268  1.00  0.00     0.021 A 
ATOM     30  C   UNL A   1      33.130  18.166  25.545  1.00  0.00     0.021 A 
ATOM     31  C   UNL A   1      33.084  17.893  24.178  1.00  0.00     0.041 A 
ATOM     32  Cl  UNL A   1      33.481  16.320  23.609  1.00  0.00    -0.084 Cl
ENDBRANCH  18  26
ENDBRANCH  13  16
ENDBRANCH   6  12
ENDBRANCH   3   5
ENDBRANCH   2   3
ENDBRANCH   1   2
BRANCH   1  33
ATOM     33  C   UNL A   1      31.590  30.953  26.358  1.00  0.00     0.275 C 
BRANCH  33  34
ATOM     34  O   UNL A   1      32.941  30.689  26.789  1.00  0.00    -0.458 OA
BRANCH  34  35
ATOM     35  C   UNL A   1      33.556  31.717  27.421  1.00  0.00     0.338 C 
ATOM     36  O   UNL A   1      33.059  32.789  27.731  1.00  0.00    -0.246 OA
BRANCH  35  37
ATOM     37  C   UNL A   1      34.918  31.338  27.839  1.00  0.00     0.060 A 
ATOM     38  C   UNL A   1      35.147  29.991  28.127  1.00  0.00     0.016 A 
ATOM     39  C   UNL A   1      35.923  32.278  28.066  1.00  0.00     0.016 A 
ATOM     40  C   UNL A   1      36.343  29.575  28.687  1.00  0.00     0.010 A 
ATOM     41  C   UNL A   1      37.145  31.855  28.611  1.00  0.00     0.010 A 
ATOM     42  C   UNL A   1      37.349  30.506  28.949  1.00  0.00    -0.014 A 
BRANCH  42  43
ATOM     43  C   UNL A   1      38.572  30.035  29.642  1.00  0.00     0.031 A 
ATOM     44  C   UNL A   1      38.887  30.532  31.024  1.00  0.00     0.074 A 
ATOM     45  C   UNL A   1      39.348  29.099  29.062  1.00  0.00     0.049 A 
ATOM     46  N   UNL A   1      39.908  30.249  31.790  1.00  0.00    -0.248 NA
ATOM     47  C   UNL A   1      37.926  31.471  31.627  1.00  0.00     0.031 C 
ATOM     48  C   UNL A   1      39.121  28.519  27.736  1.00  0.00     0.029 A 
ATOM     49  N   UNL A   1      40.480  28.470  29.512  1.00  0.00    -0.354 N 
ATOM     50  C   UNL A   1      39.737  31.002  32.945  1.00  0.00     0.074 A 
ATOM     51  C   UNL A   1      38.515  31.758  32.779  1.00  0.00     0.031 C 
ATOM     52  C   UNL A   1      40.087  27.624  27.478  1.00  0.00     0.029 A 
ATOM     53  C   UNL A   1      41.019  27.593  28.599  1.00  0.00     0.049 A 
ATOM     54  H   UNL A   1      40.868  28.629  30.402  1.00  0.00     0.167 HD
ATOM     55  C   UNL A   1      40.519  31.045  34.050  1.00  0.00     0.034 A 
ATOM     56  C   UNL A   1      42.150  26.863  28.655  1.00  0.00     0.034 A 
ATOM     57  C   UNL A   1      41.712  30.259  34.224  1.00  0.00     0.049 A 
ATOM     58  C   UNL A   1      42.990  26.920  29.900  1.00  0.00     0.074 A 
ATOM     59  C   UNL A   1      42.582  30.241  35.299  1.00  0.00     0.029 A 
ATOM     60  N   UNL A   1      42.196  29.343  33.302  1.00  0.00    -0.354 N 
ATOM     61  N   UNL A   1      42.787  27.601  31.003  1.00  0.00    -0.248 NA
ATOM     62  C   UNL A   1      44.199  26.085  29.924  1.00  0.00     0.031 C 
ATOM     63  C   UNL A   1      43.593  29.311  35.029  1.00  0.00     0.029 A 
ATOM     64  C   UNL A   1      43.345  28.743  33.789  1.00  0.00     0.049 A 
ATOM     65  H   UNL A   1      41.784  29.149  32.429  1.00  0.00     0.167 HD
ATOM     66  C   UNL A   1      43.827  27.261  31.859  1.00  0.00     0.074 A 
ATOM     67  C   UNL A   1      44.638  26.285  31.160  1.00  0.00     0.031 C 
ATOM     68  C   UNL A   1      44.104  27.732  33.100  1.00  0.00     0.034 A 
BRANCH  55  69
ATOM     69  C   UNL A   1      40.086  31.949  35.172  1.00  0.00     0.023 A 
ATOM     70  C   UNL A   1      40.565  33.274  35.218  1.00  0.00     0.012 A 
ATOM     71  C   UNL A   1      39.178  31.507  36.154  1.00  0.00     0.148 A 
ATOM     72  C   UNL A   1      40.165  34.138  36.237  1.00  0.00     0.002 A 
ATOM     73  C   UNL A   1      38.756  32.385  37.145  1.00  0.00     0.091 A 
ATOM     74  F   UNL A   1      38.755  30.236  36.107  1.00  0.00    -0.205 F 
ATOM     75  C   UNL A   1      39.255  33.697  37.194  1.00  0.00     0.022 A 
BRANCH  73  76
ATOM     76  S   UNL A   1      37.536  31.934  38.385  1.00  0.00     0.127 S 
ATOM     77  O   UNL A   1      36.477  32.908  38.126  1.00  0.00    -0.237 OA
ATOM     78  O   UNL A   1      37.205  30.560  38.006  1.00  0.00    -0.237 OA
ATOM     79  O   UNL A   1      38.205  32.064  39.671  1.00  0.00    -0.744 OA
ENDBRANCH  73  76
ENDBRANCH  55  69
BRANCH  56  80
ATOM     80  C   UNL A   1      42.534  25.999  27.503  1.00  0.00     0.023 A 
ATOM     81  C   UNL A   1      43.373  26.508  26.494  1.00  0.00     0.012 A 
ATOM     82  C   UNL A   1      42.092  24.664  27.418  1.00  0.00     0.148 A 
ATOM     83  C   UNL A   1      43.741  25.715  25.407  1.00  0.00     0.002 A 
ATOM     84  C   UNL A   1      42.511  23.861  26.364  1.00  0.00     0.091 A 
ATOM     85  F   UNL A   1      41.273  24.200  28.373  1.00  0.00    -0.205 F 
ATOM     86  C   UNL A   1      43.320  24.387  25.348  1.00  0.00     0.022 A 
BRANCH  84  87
ATOM     87  S   UNL A   1      42.121  22.108  26.298  1.00  0.00     0.127 S 
ATOM     88  O   UNL A   1      42.902  21.668  25.146  1.00  0.00    -0.237 OA
ATOM     89  O   UNL A   1      42.611  21.632  27.592  1.00  0.00    -0.237 OA
ATOM     90  O   UNL A   1      40.672  22.045  26.153  1.00  0.00    -0.744 OA
ENDBRANCH  84  87
ENDBRANCH  56  80
BRANCH  68  91
ATOM     91  C   UNL A   1      45.323  27.178  33.790  1.00  0.00     0.023 A 
ATOM     92  C   UNL A   1      46.559  27.842  33.658  1.00  0.00     0.012 A 
ATOM     93  C   UNL A   1      45.237  26.031  34.600  1.00  0.00     0.148 A 
ATOM     94  C   UNL A   1      47.698  27.351  34.293  1.00  0.00     0.002 A 
ATOM     95  C   UNL A   1      46.367  25.572  35.266  1.00  0.00     0.091 A 
ATOM     96  F   UNL A   1      44.058  25.396  34.696  1.00  0.00    -0.205 F 
ATOM     97  C   UNL A   1      47.601  26.223  35.104  1.00  0.00     0.022 A 
BRANCH  95  98
ATOM     98  S   UNL A   1      46.297  24.177  36.396  1.00  0.00     0.127 S 
ATOM     99  O   UNL A   1      46.035  23.066  35.485  1.00  0.00    -0.237 OA
ATOM    100  O   UNL A   1      47.637  24.178  36.986  1.00  0.00    -0.237 OA
ATOM    101  O   UNL A   1      45.231  24.492  37.337  1.00  0.00    -0.744 OA
ENDBRANCH  95  98
ENDBRANCH  68  91
ENDBRANCH  42  43
ENDBRANCH  35  37
ENDBRANCH  34  35
ENDBRANCH  33  34
ENDBRANCH   1  33
TORSDOF 18
ENDMDL
MODEL 2
REMARK VINA RESULT:     -11.8      1.619      2.148
REMARK SMILES NC(=O)c1c(-c2ccc(Cl)cc2)csc1NC(=O)[C@H]1[C@@H](C(=O)OCCOC(=O)c2ccc(-c3c4nc(c(-c5cccc(S(=O)(=O)[O-])c5F)c5ccc([nH]5)c(-c5cccc(S(=O)(=O)[O-])c5F)c5nc(c(-c6cccc(S(=O)(=O)[O-])c6F)c6ccc3[nH]6)C=C5)C=C4)cc2)[C@@H]2CC[C@H]1O2
REMARK SMILES IDX 24 1 23 2 21 3 22 4 20 5 19 6 95 7 92 8 94 9 96 10 93 11
REMARK SMILES IDX 17 12 16 13 18 15 15 16 4 17 5 18 13 19 14 20 2 21 1 22 3 25
REMARK SMILES IDX 6 26 7 27 12 28 8 29 11 30 9 31 10 32 25 33 26 34 27 35
REMARK SMILES IDX 28 36 29 37 30 38 91 39 31 40 90 41 32 42 33 43 34 44 84 45
REMARK SMILES IDX 35 46 89 47 83 48 85 49 36 50 88 51 82 52 81 53 37 55 69 56
REMARK SMILES IDX 49 57 68 58 50 59 53 60 67 61 86 62 51 63 52 64 66 66 87 67
REMARK SMILES IDX 54 68 38 69 39 70 47 71 40 72 42 73 48 74 41 75 43 76 44 77
REMARK SMILES IDX 45 78 46 79 70 80 71 81 79 82 72 83 74 84 80 85 73 86 75 87
REMARK SMILES IDX 76 88 77 89 78 90 55 91 56 92 64 93 57 94 59 95 65 96 58 97
REMARK SMILES IDX 60 98 61 99 62 100 63 101
REMARK H PARENT 16 14 1 23 1 24 85 54 53 65
REMARK Flexibility Score: inf
ROOT
ATOM      1  C   UNL A   1      32.444  30.781  27.018  1.00  0.00     0.274 C 
ENDROOT
BRANCH   1   2
ATOM      2  O   UNL A   1      31.574  29.993  26.188  1.00  0.00    -0.462 OA
BRANCH   2   3
ATOM      3  C   UNL A   1      31.481  28.678  26.509  1.00  0.00     0.312 C 
ATOM      4  O   UNL A   1      31.547  28.228  27.648  1.00  0.00    -0.252 OA
BRANCH   3   5
ATOM      5  C   UNL A   1      31.124  27.800  25.336  1.00  0.00     0.143 C 
ATOM      6  C   UNL A   1      32.164  26.765  24.890  1.00  0.00     0.124 C 
ATOM      7  C   UNL A   1      32.193  27.025  23.376  1.00  0.00     0.132 C 
ATOM      8  C   UNL A   1      30.748  28.500  24.030  1.00  0.00     0.133 C 
ATOM      9  C   UNL A   1      30.906  26.510  22.727  1.00  0.00     0.035 C 
ATOM     10  O   UNL A   1      31.989  28.454  23.294  1.00  0.00    -0.373 OA
ATOM     11  C   UNL A   1      29.885  27.558  23.177  1.00  0.00     0.036 C 
BRANCH   6  12
ATOM     12  C   UNL A   1      33.562  26.832  25.494  1.00  0.00     0.231 C 
ATOM     13  N   UNL A   1      34.239  25.665  25.792  1.00  0.00    -0.317 N 
ATOM     14  H   UNL A   1      34.851  25.652  26.563  1.00  0.00     0.170 HD
ATOM     15  O   UNL A   1      34.150  27.895  25.695  1.00  0.00    -0.274 OA
BRANCH  13  16
ATOM     16  C   UNL A   1      34.085  24.514  25.044  1.00  0.00     0.108 A 
ATOM     17  C   UNL A   1      33.712  23.267  25.511  1.00  0.00     0.082 A 
ATOM     18  C   UNL A   1      33.902  22.286  24.468  1.00  0.00     0.007 A 
ATOM     19  C   UNL A   1      34.241  22.866  23.259  1.00  0.00     0.076 A 
ATOM     20  S   UNL A   1      34.333  24.568  23.369  1.00  0.00    -0.125 S 
BRANCH  17  21
ATOM     21  C   UNL A   1      33.312  23.077  26.901  1.00  0.00     0.252 C 
ATOM     22  N   UNL A   1      34.254  22.591  27.754  1.00  0.00    -0.365 N 
ATOM     23  H   UNL A   1      34.032  22.445  28.703  1.00  0.00     0.159 HD
ATOM     24  H   UNL A   1      35.158  22.384  27.423  1.00  0.00     0.159 HD
ATOM     25  O   UNL A   1      32.199  23.384  27.319  1.00  0.00    -0.269 OA
ENDBRANCH  17  21
BRANCH  18  26
ATOM     26  C   UNL A   1      33.749  20.847  24.563  1.00  0.00    -0.017 A 
ATOM     27  C   UNL A   1      32.478  20.267  24.454  1.00  0.00     0.010 A 
ATOM     28  C   UNL A   1      34.880  20.037  24.706  1.00  0.00     0.010 A 
ATOM     29  C   UNL A   1      32.343  18.877  24.478  1.00  0.00     0.021 A 
ATOM     30  C   UNL A   1      34.740  18.648  24.736  1.00  0.00     0.021 A 
ATOM     31  C   UNL A   1      33.474  18.074  24.619  1.00  0.00     0.041 A 
ATOM     32  Cl  UNL A   1      33.310  16.362  24.637  1.00  0.00    -0.084 Cl
ENDBRANCH  18  26
ENDBRANCH  13  16
ENDBRANCH   6  12
ENDBRANCH   3   5
ENDBRANCH   2   3
ENDBRANCH   1   2
BRANCH   1  33
ATOM     33  C   UNL A   1      32.017  32.255  27.029  1.00  0.00     0.275 C 
BRANCH  33  34
ATOM     34  O   UNL A   1      33.138  33.160  26.959  1.00  0.00    -0.458 OA
BRANCH  34  35
ATOM     35  C   UNL A   1      33.311  33.951  28.045  1.00  0.00     0.338 C 
ATOM     36  O   UNL A   1      32.620  34.902  28.375  1.00  0.00    -0.246 OA
BRANCH  35  37
ATOM     37  C   UNL A   1      34.393  33.436  28.904  1.00  0.00     0.060 A 
ATOM     38  C   UNL A   1      35.694  33.852  28.610  1.00  0.00     0.016 A 
ATOM     39  C   UNL A   1      34.176  32.481  29.895  1.00  0.00     0.016 A 
ATOM     40  C   UNL A   1      36.784  33.289  29.252  1.00  0.00     0.010 A 
ATOM     41  C   UNL A   1      35.277  31.927  30.565  1.00  0.00     0.010 A 
ATOM     42  C   UNL A   1      36.588  32.309  30.227  1.00  0.00    -0.014 A 
BRANCH  42  43
ATOM     43  C   UNL A   1      37.783  31.661  30.816  1.00  0.00     0.031 A 
ATOM     44  C   UNL A   1      38.181  31.972  32.231  1.00  0.00     0.074 A 
ATOM     45  C   UNL A   1      38.455  30.733  30.108  1.00  0.00     0.049 A 
ATOM     46  N   UNL A   1      39.195  31.518  32.921  1.00  0.00    -0.248 NA
ATOM     47  C   UNL A   1      37.326  32.915  32.969  1.00  0.00     0.031 C 
ATOM     48  C   UNL A   1      38.139  30.328  28.736  1.00  0.00     0.029 A 
ATOM     49  N   UNL A   1      39.540  29.964  30.442  1.00  0.00    -0.354 N 
ATOM     50  C   UNL A   1      39.125  32.148  34.157  1.00  0.00     0.074 A 
ATOM     51  C   UNL A   1      37.971  33.019  34.123  1.00  0.00     0.031 C 
ATOM     52  C   UNL A   1      39.014  29.388  28.344  1.00  0.00     0.029 A 
ATOM     53  C   UNL A   1      39.972  29.153  29.419  1.00  0.00     0.049 A 
ATOM     54  H   UNL A   1      39.967  29.989  31.328  1.00  0.00     0.167 HD
ATOM     55  C   UNL A   1      39.939  32.000  35.229  1.00  0.00     0.034 A 
ATOM     56  C   UNL A   1      41.035  28.328  29.350  1.00  0.00     0.034 A 
ATOM     57  C   UNL A   1      41.062  31.101  35.270  1.00  0.00     0.049 A 
ATOM     58  C   UNL A   1      41.913  28.173  30.561  1.00  0.00     0.074 A 
ATOM     59  C   UNL A   1      41.958  30.888  36.302  1.00  0.00     0.029 A 
ATOM     60  N   UNL A   1      41.436  30.257  34.235  1.00  0.00    -0.354 N 
ATOM     61  N   UNL A   1      41.803  28.740  31.738  1.00  0.00    -0.248 NA
ATOM     62  C   UNL A   1      43.043  27.240  30.446  1.00  0.00     0.031 C 
ATOM     63  C   UNL A   1      42.874  29.912  35.893  1.00  0.00     0.029 A 
ATOM     64  C   UNL A   1      42.540  29.510  34.609  1.00  0.00     0.049 A 
ATOM     65  H   UNL A   1      40.983  30.198  33.363  1.00  0.00     0.167 HD
ATOM     66  C   UNL A   1      42.833  28.219  32.511  1.00  0.00     0.074 A 
ATOM     67  C   UNL A   1      43.534  27.261  31.679  1.00  0.00     0.031 C 
ATOM     68  C   UNL A   1      43.187  28.522  33.785  1.00  0.00     0.034 A 
BRANCH  55  69
ATOM     69  C   UNL A   1      39.621  32.805  36.460  1.00  0.00     0.023 A 
ATOM     70  C   UNL A   1      40.207  34.077  36.626  1.00  0.00     0.012 A 
ATOM     71  C   UNL A   1      38.715  32.330  37.427  1.00  0.00     0.148 A 
ATOM     72  C   UNL A   1      39.915  34.852  37.748  1.00  0.00     0.002 A 
ATOM     73  C   UNL A   1      38.401  33.123  38.524  1.00  0.00     0.091 A 
ATOM     74  F   UNL A   1      38.189  31.108  37.264  1.00  0.00    -0.205 F 
ATOM     75  C   UNL A   1      39.007  34.380  38.691  1.00  0.00     0.022 A 
BRANCH  73  76
ATOM     76  S   UNL A   1      37.193  32.634  39.761  1.00  0.00     0.127 S 
ATOM     77  O   UNL A   1      35.967  32.567  38.966  1.00  0.00    -0.237 OA
ATOM     78  O   UNL A   1      37.706  31.336  40.198  1.00  0.00    -0.237 OA
ATOM     79  O   UNL A   1      37.221  33.672  40.781  1.00  0.00    -0.744 OA
ENDBRANCH  73  76
ENDBRANCH  55  69
BRANCH  56  80
ATOM     80  C   UNL A   1      41.307  27.568  28.097  1.00  0.00     0.023 A 
ATOM     81  C   UNL A   1      41.860  28.230  26.984  1.00  0.00     0.012 A 
ATOM     82  C   UNL A   1      41.044  26.187  28.012  1.00  0.00     0.148 A 
ATOM     83  C   UNL A   1      42.118  27.536  25.801  1.00  0.00     0.002 A 
ATOM     84  C   UNL A   1      41.360  25.490  26.852  1.00  0.00     0.091 A 
ATOM     85  F   UNL A   1      40.494  25.576  29.072  1.00  0.00    -0.205 F 
ATOM     86  C   UNL A   1      41.881  26.164  25.739  1.00  0.00     0.022 A 
BRANCH  84  87
ATOM     87  S   UNL A   1      41.209  23.702  26.752  1.00  0.00     0.127 S 
ATOM     88  O   UNL A   1      42.033  23.396  25.587  1.00  0.00    -0.237 OA
ATOM     89  O   UNL A   1      41.770  23.272  28.033  1.00  0.00    -0.237 OA
ATOM     90  O   UNL A   1      39.781  23.448  26.613  1.00  0.00    -0.744 OA
ENDBRANCH  84  87
ENDBRANCH  56  80
BRANCH  68  91
ATOM     91  C   UNL A   1      44.371  27.792  34.362  1.00  0.00     0.023 A 
ATOM     92  C   UNL A   1      45.644  28.397  34.330  1.00  0.00     0.012 A 
ATOM     93  C   UNL A   1      44.218  26.534  34.972  1.00  0.00     0.148 A 
ATOM     94  C   UNL A   1      46.752  27.743  34.864  1.00  0.00     0.002 A 
ATOM     95  C   UNL A   1      45.320  25.907  35.542  1.00  0.00     0.091 A 
ATOM     96  F   UNL A   1      43.004  25.961  34.973  1.00  0.00    -0.205 F 
ATOM     97  C   UNL A   1      46.589  26.504  35.479  1.00  0.00     0.022 A 
BRANCH  95  98
ATOM     98  S   UNL A   1      45.168  24.350  36.426  1.00  0.00     0.127 S 
ATOM     99  O   UNL A   1      44.708  24.794  37.740  1.00  0.00    -0.237 OA
ATOM    100  O   UNL A   1      44.164  23.633  35.639  1.00  0.00    -0.237 OA
ATOM    101  O   UNL A   1      46.495  23.751  36.388  1.00  0.00    -0.744 OA
ENDBRANCH  95  98
ENDBRANCH  68  91
ENDBRANCH  42  43
ENDBRANCH  35  37
ENDBRANCH  34  35
ENDBRANCH  33  34
ENDBRANCH   1  33
TORSDOF 18
ENDMDL
MODEL 3
REMARK VINA RESULT:     -11.8      2.265      7.808
REMARK SMILES NC(=O)c1c(-c2ccc(Cl)cc2)csc1NC(=O)[C@H]1[C@@H](C(=O)OCCOC(=O)c2ccc(-c3c4nc(c(-c5cccc(S(=O)(=O)[O-])c5F)c5ccc([nH]5)c(-c5cccc(S(=O)(=O)[O-])c5F)c5nc(c(-c6cccc(S(=O)(=O)[O-])c6F)c6ccc3[nH]6)C=C5)C=C4)cc2)[C@@H]2CC[C@H]1O2
REMARK SMILES IDX 24 1 23 2 21 3 22 4 20 5 19 6 95 7 92 8 94 9 96 10 93 11
REMARK SMILES IDX 17 12 16 13 18 15 15 16 4 17 5 18 13 19 14 20 2 21 1 22 3 25
REMARK SMILES IDX 6 26 7 27 12 28 8 29 11 30 9 31 10 32 25 33 26 34 27 35
REMARK SMILES IDX 28 36 29 37 30 38 91 39 31 40 90 41 32 42 33 43 34 44 84 45
REMARK SMILES IDX 35 46 89 47 83 48 85 49 36 50 88 51 82 52 81 53 37 55 69 56
REMARK SMILES IDX 49 57 68 58 50 59 53 60 67 61 86 62 51 63 52 64 66 66 87 67
REMARK SMILES IDX 54 68 38 69 39 70 47 71 40 72 42 73 48 74 41 75 43 76 44 77
REMARK SMILES IDX 45 78 46 79 70 80 71 81 79 82 72 83 74 84 80 85 73 86 75 87
REMARK SMILES IDX 76 88 77 89 78 90 55 91 56 92 64 93 57 94 59 95 65 96 58 97
REMARK SMILES IDX 60 98 61 99 62 100 63 101
REMARK H PARENT 16 14 1 23 1 24 85 54 53 65
REMARK Flexibility Score: inf
ROOT
ATOM      1  C   UNL A   1      32.432  30.841  27.246  1.00  0.00     0.274 C 
ENDROOT
BRANCH   1   2
ATOM      2  O   UNL A   1      31.844  30.140  26.137  1.00  0.00    -0.462 OA
BRANCH   2   3
ATOM      3  C   UNL A   1      31.601  28.820  26.334  1.00  0.00     0.312 C 
ATOM      4  O   UNL A   1      31.617  28.258  27.425  1.00  0.00    -0.252 OA
BRANCH   3   5
ATOM      5  C   UNL A   1      31.142  28.104  25.088  1.00  0.00     0.143 C 
ATOM      6  C   UNL A   1      32.126  27.127  24.436  1.00  0.00     0.124 C 
ATOM      7  C   UNL A   1      32.049  27.580  22.970  1.00  0.00     0.132 C 
ATOM      8  C   UNL A   1      30.683  28.971  23.915  1.00  0.00     0.133 C 
ATOM      9  C   UNL A   1      30.707  27.165  22.359  1.00  0.00     0.035 C 
ATOM     10  O   UNL A   1      31.865  29.009  23.087  1.00  0.00    -0.373 OA
ATOM     11  C   UNL A   1      29.742  28.155  23.016  1.00  0.00     0.036 C 
BRANCH   6  12
ATOM     12  C   UNL A   1      33.567  27.102  24.936  1.00  0.00     0.231 C 
ATOM     13  N   UNL A   1      34.184  25.894  25.194  1.00  0.00    -0.317 N 
ATOM     14  H   UNL A   1      34.848  25.843  25.919  1.00  0.00     0.170 HD
ATOM     15  O   UNL A   1      34.237  28.125  25.083  1.00  0.00    -0.274 OA
BRANCH  13  16
ATOM     16  C   UNL A   1      33.899  24.752  24.471  1.00  0.00     0.108 A 
ATOM     17  C   UNL A   1      33.611  23.499  24.980  1.00  0.00     0.082 A 
ATOM     18  C   UNL A   1      33.614  22.532  23.907  1.00  0.00     0.007 A 
ATOM     19  C   UNL A   1      33.736  23.127  22.665  1.00  0.00     0.076 A 
ATOM     20  S   UNL A   1      33.850  24.828  22.779  1.00  0.00    -0.125 S 
BRANCH  17  21
ATOM     21  C   UNL A   1      33.460  23.291  26.416  1.00  0.00     0.252 C 
ATOM     22  N   UNL A   1      32.215  22.977  26.867  1.00  0.00    -0.365 N 
ATOM     23  H   UNL A   1      32.063  22.827  27.829  1.00  0.00     0.159 HD
ATOM     24  H   UNL A   1      31.467  22.899  26.233  1.00  0.00     0.159 HD
ATOM     25  O   UNL A   1      34.407  23.339  27.197  1.00  0.00    -0.269 OA
ENDBRANCH  17  21
BRANCH  18  26
ATOM     26  C   UNL A   1      33.478  21.091  24.010  1.00  0.00    -0.017 A 
ATOM     27  C   UNL A   1      32.391  20.445  23.405  1.00  0.00     0.010 A 
ATOM     28  C   UNL A   1      34.463  20.346  24.664  1.00  0.00     0.010 A 
ATOM     29  C   UNL A   1      32.300  19.051  23.448  1.00  0.00     0.021 A 
ATOM     30  C   UNL A   1      34.365  18.954  24.711  1.00  0.00     0.021 A 
ATOM     31  C   UNL A   1      33.287  18.313  24.101  1.00  0.00     0.041 A 
ATOM     32  Cl  UNL A   1      33.181  16.597  24.144  1.00  0.00    -0.084 Cl
ENDBRANCH  18  26
ENDBRANCH  13  16
ENDBRANCH   6  12
ENDBRANCH   3   5
ENDBRANCH   2   3
ENDBRANCH   1   2
BRANCH   1  33
ATOM     33  C   UNL A   1      32.043  32.326  27.235  1.00  0.00     0.275 C 
BRANCH  33  34
ATOM     34  O   UNL A   1      33.189  33.202  27.228  1.00  0.00    -0.458 OA
BRANCH  34  35
ATOM     35  C   UNL A   1      33.263  34.063  28.270  1.00  0.00     0.338 C 
ATOM     36  O   UNL A   1      32.498  34.984  28.514  1.00  0.00    -0.246 OA
BRANCH  35  37
ATOM     37  C   UNL A   1      34.336  33.673  29.202  1.00  0.00     0.060 A 
ATOM     38  C   UNL A   1      35.648  33.962  28.821  1.00  0.00     0.016 A 
ATOM     39  C   UNL A   1      34.095  32.936  30.361  1.00  0.00     0.016 A 
ATOM     40  C   UNL A   1      36.724  33.482  29.549  1.00  0.00     0.010 A 
ATOM     41  C   UNL A   1      35.183  32.469  31.114  1.00  0.00     0.010 A 
ATOM     42  C   UNL A   1      36.502  32.717  30.696  1.00  0.00    -0.014 A 
BRANCH  42  43
ATOM     43  C   UNL A   1      37.678  32.139  31.387  1.00  0.00     0.031 A 
ATOM     44  C   UNL A   1      38.449  31.021  30.744  1.00  0.00     0.074 A 
ATOM     45  C   UNL A   1      38.100  32.676  32.549  1.00  0.00     0.049 A 
ATOM     46  N   UNL A   1      39.496  30.377  31.190  1.00  0.00    -0.248 NA
ATOM     47  C   UNL A   1      37.984  30.569  29.423  1.00  0.00     0.031 C 
ATOM     48  C   UNL A   1      37.448  33.785  33.250  1.00  0.00     0.029 A 
ATOM     49  N   UNL A   1      39.173  32.365  33.342  1.00  0.00    -0.354 N 
ATOM     50  C   UNL A   1      39.791  29.419  30.229  1.00  0.00     0.074 A 
ATOM     51  C   UNL A   1      38.811  29.563  29.175  1.00  0.00     0.031 C 
ATOM     52  C   UNL A   1      38.132  34.057  34.372  1.00  0.00     0.029 A 
ATOM     53  C   UNL A   1      39.245  33.121  34.489  1.00  0.00     0.049 A 
ATOM     54  H   UNL A   1      39.830  31.668  33.113  1.00  0.00     0.167 HD
ATOM     55  C   UNL A   1      40.798  28.514  30.218  1.00  0.00     0.034 A 
ATOM     56  C   UNL A   1      40.102  33.052  35.526  1.00  0.00     0.034 A 
ATOM     57  C   UNL A   1      41.793  28.404  31.252  1.00  0.00     0.049 A 
ATOM     58  C   UNL A   1      41.219  32.047  35.480  1.00  0.00     0.074 A 
ATOM     59  C   UNL A   1      42.846  27.511  31.342  1.00  0.00     0.029 A 
ATOM     60  N   UNL A   1      41.866  29.222  32.369  1.00  0.00    -0.354 N 
ATOM     61  N   UNL A   1      41.512  31.180  34.539  1.00  0.00    -0.248 NA
ATOM     62  C   UNL A   1      42.143  32.028  36.622  1.00  0.00     0.031 C 
ATOM     63  C   UNL A   1      43.558  27.790  32.515  1.00  0.00     0.029 A 
ATOM     64  C   UNL A   1      42.954  28.865  33.148  1.00  0.00     0.049 A 
ATOM     65  H   UNL A   1      41.236  29.949  32.578  1.00  0.00     0.167 HD
ATOM     66  C   UNL A   1      42.664  30.531  34.963  1.00  0.00     0.074 A 
ATOM     67  C   UNL A   1      43.037  31.130  36.229  1.00  0.00     0.031 C 
ATOM     68  C   UNL A   1      43.339  29.512  34.375  1.00  0.00     0.034 A 
BRANCH  55  69
ATOM     69  C   UNL A   1      40.892  27.593  29.032  1.00  0.00     0.023 A 
ATOM     70  C   UNL A   1      40.080  26.442  28.983  1.00  0.00     0.012 A 
ATOM     71  C   UNL A   1      41.746  27.884  27.951  1.00  0.00     0.148 A 
ATOM     72  C   UNL A   1      40.134  25.582  27.886  1.00  0.00     0.002 A 
ATOM     73  C   UNL A   1      41.768  27.042  26.845  1.00  0.00     0.091 A 
ATOM     74  F   UNL A   1      42.529  28.969  28.028  1.00  0.00    -0.205 F 
ATOM     75  C   UNL A   1      40.970  25.886  26.815  1.00  0.00     0.022 A 
BRANCH  73  76
ATOM     76  S   UNL A   1      42.761  27.381  25.387  1.00  0.00     0.127 S 
ATOM     77  O   UNL A   1      44.086  27.578  25.971  1.00  0.00    -0.237 OA
ATOM     78  O   UNL A   1      42.612  26.145  24.617  1.00  0.00    -0.237 OA
ATOM     79  O   UNL A   1      42.170  28.557  24.764  1.00  0.00    -0.744 OA
ENDBRANCH  73  76
ENDBRANCH  55  69
BRANCH  56  80
ATOM     80  C   UNL A   1      39.947  33.981  36.681  1.00  0.00     0.023 A 
ATOM     81  C   UNL A   1      40.360  35.322  36.560  1.00  0.00     0.012 A 
ATOM     82  C   UNL A   1      39.366  33.549  37.890  1.00  0.00     0.148 A 
ATOM     83  C   UNL A   1      40.225  36.206  37.631  1.00  0.00     0.002 A 
ATOM     84  C   UNL A   1      39.180  34.450  38.931  1.00  0.00     0.091 A 
ATOM     85  F   UNL A   1      39.001  32.263  37.998  1.00  0.00    -0.205 F 
ATOM     86  C   UNL A   1      39.624  35.774  38.812  1.00  0.00     0.022 A 
BRANCH  84  87
ATOM     87  S   UNL A   1      38.290  33.997  40.425  1.00  0.00     0.127 S 
ATOM     88  O   UNL A   1      39.243  33.111  41.087  1.00  0.00    -0.237 OA
ATOM     89  O   UNL A   1      38.100  35.294  41.078  1.00  0.00    -0.237 OA
ATOM     90  O   UNL A   1      37.055  33.380  39.961  1.00  0.00    -0.744 OA
ENDBRANCH  84  87
ENDBRANCH  56  80
BRANCH  68  91
ATOM     91  C   UNL A   1      44.564  28.999  35.085  1.00  0.00     0.023 A 
ATOM     92  C   UNL A   1      45.823  29.563  34.796  1.00  0.00     0.012 A 
ATOM     93  C   UNL A   1      44.464  27.995  36.066  1.00  0.00     0.148 A 
ATOM     94  C   UNL A   1      46.969  29.109  35.446  1.00  0.00     0.002 A 
ATOM     95  C   UNL A   1      45.605  27.578  36.742  1.00  0.00     0.091 A 
ATOM     96  F   UNL A   1      43.262  27.451  36.312  1.00  0.00    -0.205 F 
ATOM     97  C   UNL A   1      46.859  28.125  36.425  1.00  0.00     0.022 A 
BRANCH  95  98
ATOM     98  S   UNL A   1      45.527  26.377  38.075  1.00  0.00     0.127 S 
ATOM     99  O   UNL A   1      44.536  26.978  38.964  1.00  0.00    -0.237 OA
ATOM    100  O   UNL A   1      45.072  25.167  37.387  1.00  0.00    -0.237 OA
ATOM    101  O   UNL A   1      46.883  26.290  38.600  1.00  0.00    -0.744 OA
ENDBRANCH  95  98
ENDBRANCH  68  91
ENDBRANCH  42  43
ENDBRANCH  35  37
ENDBRANCH  34  35
ENDBRANCH  33  34
ENDBRANCH   1  33
TORSDOF 18
ENDMDL
