MODEL 1
REMARK VINA RESULT:     -10.9      0.000      0.000
REMARK SMILES O=C(Cn1cc(C(=O)C(F)(F)F)c2ccccc21)OCCOC(=O)c1ccc(-c2c3nc(c(-c4cccc(S(=O)(=O)[O-])c4F)c4ccc([nH]4)c(-c4cccc(S(=O)(=O)[O-])c4F)c4nc(c(-c5cccc(S(=O)(=O)[O-])c5F)c5ccc2[nH]5)C=C4)C=C3)cc1
REMARK SMILES IDX 20 1 19 2 2 3 1 4 3 5 4 6 5 7 18 8 6 9 13 10 17 11 14 12
REMARK SMILES IDX 16 13 15 14 7 15 8 16 9 17 10 18 11 19 12 20 21 21 22 22
REMARK SMILES IDX 23 23 24 24 25 25 26 26 87 27 27 28 86 29 28 30 29 31 30 32
REMARK SMILES IDX 80 33 31 34 85 35 79 36 81 37 32 38 84 39 78 40 77 41 33 43
REMARK SMILES IDX 65 44 45 45 64 46 46 47 49 48 63 49 82 50 47 51 48 52 62 54
REMARK SMILES IDX 83 55 50 56 34 57 35 58 43 59 36 60 38 61 44 62 37 63 39 64
REMARK SMILES IDX 40 65 41 66 42 67 66 68 67 69 75 70 68 71 70 72 76 73 69 74
REMARK SMILES IDX 71 75 72 76 73 77 74 78 51 79 52 80 60 81 53 82 55 83 61 84
REMARK SMILES IDX 54 85 56 86 57 87 58 88 59 89
REMARK H PARENT 81 42 49 53
REMARK Flexibility Score: inf
ROOT
ATOM      1  C   UNL A   1      33.882  34.328  28.650  1.00  0.00     0.274 C 
ENDROOT
BRANCH   1   2
ATOM      2  O   UNL A   1      33.662  34.335  30.070  1.00  0.00    -0.461 OA
BRANCH   2   3
ATOM      3  C   UNL A   1      34.695  34.062  30.923  1.00  0.00     0.326 C 
ATOM      4  O   UNL A   1      35.857  34.167  30.542  1.00  0.00    -0.250 OA
BRANCH   3   5
ATOM      5  C   UNL A   1      34.333  33.394  32.213  1.00  0.00     0.244 C 
BRANCH   5   6
ATOM      6  N   UNL A   1      35.374  33.043  33.156  1.00  0.00    -0.335 N 
ATOM      7  C   UNL A   1      35.924  33.967  34.003  1.00  0.00     0.099 A 
ATOM      8  C   UNL A   1      36.215  31.951  33.057  1.00  0.00     0.049 A 
ATOM      9  C   UNL A   1      37.082  33.438  34.531  1.00  0.00     0.053 A 
ATOM     10  C   UNL A   1      37.150  32.078  34.089  1.00  0.00     0.011 A 
ATOM     11  C   UNL A   1      36.288  30.889  32.141  1.00  0.00     0.027 A 
ATOM     12  C   UNL A   1      38.017  30.997  34.346  1.00  0.00     0.011 A 
ATOM     13  C   UNL A   1      37.149  29.827  32.416  1.00  0.00     0.002 A 
ATOM     14  C   UNL A   1      37.967  29.856  33.536  1.00  0.00     0.001 A 
BRANCH   9  15
ATOM     15  C   UNL A   1      38.092  34.198  35.273  1.00  0.00     0.268 C 
ATOM     16  O   UNL A   1      38.670  35.143  34.736  1.00  0.00    -0.284 OA
BRANCH  15  17
ATOM     17  C   UNL A   1      38.252  33.808  36.754  1.00  0.00     0.454 C 
ATOM     18  F   UNL A   1      37.073  33.345  37.275  1.00  0.00    -0.163 F 
ATOM     19  F   UNL A   1      39.148  32.798  36.920  1.00  0.00    -0.163 F 
ATOM     20  F   UNL A   1      38.636  34.836  37.550  1.00  0.00    -0.163 F 
ENDBRANCH  15  17
ENDBRANCH   9  15
ENDBRANCH   5   6
ENDBRANCH   3   5
ENDBRANCH   2   3
ENDBRANCH   1   2
BRANCH   1  21
ATOM     21  C   UNL A   1      33.801  32.923  28.025  1.00  0.00     0.275 C 
BRANCH  21  22
ATOM     22  O   UNL A   1      35.110  32.348  27.850  1.00  0.00    -0.458 OA
BRANCH  22  23
ATOM     23  C   UNL A   1      35.172  30.997  27.707  1.00  0.00     0.338 C 
ATOM     24  O   UNL A   1      34.440  30.314  27.008  1.00  0.00    -0.246 OA
BRANCH  23  25
ATOM     25  C   UNL A   1      36.480  30.547  28.249  1.00  0.00     0.060 A 
ATOM     26  C   UNL A   1      37.405  31.432  28.817  1.00  0.00     0.016 A 
ATOM     27  C   UNL A   1      36.864  29.234  27.938  1.00  0.00     0.016 A 
ATOM     28  C   UNL A   1      38.740  31.028  28.944  1.00  0.00     0.010 A 
ATOM     29  C   UNL A   1      38.198  28.838  28.059  1.00  0.00     0.010 A 
ATOM     30  C   UNL A   1      39.156  29.752  28.499  1.00  0.00    -0.014 A 
BRANCH  30  31
ATOM     31  C   UNL A   1      40.567  29.362  28.697  1.00  0.00     0.031 A 
ATOM     32  C   UNL A   1      40.858  29.135  30.135  1.00  0.00     0.074 A 
ATOM     33  C   UNL A   1      41.507  29.084  27.758  1.00  0.00     0.049 A 
ATOM     34  N   UNL A   1      41.663  29.802  30.896  1.00  0.00    -0.248 NA
ATOM     35  C   UNL A   1      40.008  28.167  30.849  1.00  0.00     0.031 C 
ATOM     36  C   UNL A   1      41.312  29.012  26.307  1.00  0.00     0.029 A 
ATOM     37  N   UNL A   1      42.823  28.693  27.902  1.00  0.00    -0.354 N 
ATOM     38  C   UNL A   1      41.595  29.161  32.127  1.00  0.00     0.074 A 
ATOM     39  C   UNL A   1      40.429  28.319  32.104  1.00  0.00     0.031 C 
ATOM     40  C   UNL A   1      42.367  28.378  25.742  1.00  0.00     0.029 A 
ATOM     41  C   UNL A   1      43.366  28.090  26.759  1.00  0.00     0.049 A 
ATOM     42  H   UNL A   1      43.335  28.824  28.733  1.00  0.00     0.167 HD
ATOM     43  C   UNL A   1      42.669  29.112  32.956  1.00  0.00     0.034 A 
ATOM     44  C   UNL A   1      44.511  27.359  26.663  1.00  0.00     0.034 A 
ATOM     45  C   UNL A   1      43.694  30.041  32.584  1.00  0.00     0.049 A 
ATOM     46  C   UNL A   1      45.380  27.719  27.802  1.00  0.00     0.074 A 
ATOM     47  C   UNL A   1      43.938  31.388  32.708  1.00  0.00     0.029 A 
ATOM     48  N   UNL A   1      44.549  29.551  31.638  1.00  0.00    -0.354 N 
ATOM     49  N   UNL A   1      46.019  28.849  27.899  1.00  0.00    -0.248 NA
ATOM     50  C   UNL A   1      45.401  26.878  28.993  1.00  0.00     0.031 C 
ATOM     51  C   UNL A   1      44.916  31.710  31.722  1.00  0.00     0.029 A 
ATOM     52  C   UNL A   1      45.258  30.549  31.030  1.00  0.00     0.049 A 
ATOM     53  H   UNL A   1      44.644  28.596  31.422  1.00  0.00     0.167 HD
ATOM     54  C   UNL A   1      46.106  29.056  29.259  1.00  0.00     0.074 A 
ATOM     55  C   UNL A   1      45.908  27.749  29.867  1.00  0.00     0.031 C 
ATOM     56  C   UNL A   1      45.951  30.306  29.779  1.00  0.00     0.034 A 
BRANCH  43  57
ATOM     57  C   UNL A   1      43.002  27.901  33.791  1.00  0.00     0.023 A 
ATOM     58  C   UNL A   1      43.777  26.880  33.209  1.00  0.00     0.012 A 
ATOM     59  C   UNL A   1      42.353  27.603  35.013  1.00  0.00     0.148 A 
ATOM     60  C   UNL A   1      43.916  25.631  33.827  1.00  0.00     0.002 A 
ATOM     61  C   UNL A   1      42.562  26.396  35.664  1.00  0.00     0.091 A 
ATOM     62  F   UNL A   1      41.412  28.432  35.480  1.00  0.00    -0.205 F 
ATOM     63  C   UNL A   1      43.329  25.396  35.065  1.00  0.00     0.022 A 
BRANCH  61  64
ATOM     64  S   UNL A   1      41.853  26.071  37.282  1.00  0.00     0.127 S 
ATOM     65  O   UNL A   1      40.699  26.965  37.282  1.00  0.00    -0.237 OA
ATOM     66  O   UNL A   1      41.535  24.645  37.188  1.00  0.00    -0.237 OA
ATOM     67  O   UNL A   1      42.910  26.383  38.236  1.00  0.00    -0.744 OA
ENDBRANCH  61  64
ENDBRANCH  43  57
BRANCH  44  68
ATOM     68  C   UNL A   1      44.944  26.247  25.761  1.00  0.00     0.023 A 
ATOM     69  C   UNL A   1      46.223  26.318  25.149  1.00  0.00     0.012 A 
ATOM     70  C   UNL A   1      44.293  24.999  25.750  1.00  0.00     0.148 A 
ATOM     71  C   UNL A   1      46.865  25.179  24.646  1.00  0.00     0.002 A 
ATOM     72  C   UNL A   1      44.932  23.868  25.237  1.00  0.00     0.091 A 
ATOM     73  F   UNL A   1      43.092  24.889  26.330  1.00  0.00    -0.205 F 
ATOM     74  C   UNL A   1      46.226  23.949  24.709  1.00  0.00     0.022 A 
BRANCH  72  75
ATOM     75  S   UNL A   1      44.167  22.241  25.296  1.00  0.00     0.127 S 
ATOM     76  O   UNL A   1      43.844  22.100  26.718  1.00  0.00    -0.237 OA
ATOM     77  O   UNL A   1      43.012  22.418  24.422  1.00  0.00    -0.237 OA
ATOM     78  O   UNL A   1      45.189  21.314  24.825  1.00  0.00    -0.744 OA
ENDBRANCH  72  75
ENDBRANCH  44  68
BRANCH  56  79
ATOM     79  C   UNL A   1      46.310  31.486  28.920  1.00  0.00     0.023 A 
ATOM     80  C   UNL A   1      47.595  32.060  28.893  1.00  0.00     0.012 A 
ATOM     81  C   UNL A   1      45.336  31.962  28.026  1.00  0.00     0.148 A 
ATOM     82  C   UNL A   1      47.915  33.059  27.968  1.00  0.00     0.002 A 
ATOM     83  C   UNL A   1      45.663  32.930  27.086  1.00  0.00     0.091 A 
ATOM     84  F   UNL A   1      44.108  31.428  28.088  1.00  0.00    -0.205 F 
ATOM     85  C   UNL A   1      46.956  33.476  27.049  1.00  0.00     0.022 A 
BRANCH  83  86
ATOM     86  S   UNL A   1      44.484  33.496  25.861  1.00  0.00     0.127 S 
ATOM     87  O   UNL A   1      43.604  34.352  26.656  1.00  0.00    -0.237 OA
ATOM     88  O   UNL A   1      45.340  34.209  24.913  1.00  0.00    -0.237 OA
ATOM     89  O   UNL A   1      43.844  32.301  25.324  1.00  0.00    -0.744 OA
ENDBRANCH  83  86
ENDBRANCH  56  79
ENDBRANCH  30  31
ENDBRANCH  23  25
ENDBRANCH  22  23
ENDBRANCH  21  22
ENDBRANCH   1  21
TORSDOF 17
ENDMDL
MODEL 2
REMARK VINA RESULT:     -10.8      5.483     11.993
REMARK SMILES O=C(Cn1cc(C(=O)C(F)(F)F)c2ccccc21)OCCOC(=O)c1ccc(-c2c3nc(c(-c4cccc(S(=O)(=O)[O-])c4F)c4ccc([nH]4)c(-c4cccc(S(=O)(=O)[O-])c4F)c4nc(c(-c5cccc(S(=O)(=O)[O-])c5F)c5ccc2[nH]5)C=C4)C=C3)cc1
REMARK SMILES IDX 20 1 19 2 2 3 1 4 3 5 4 6 5 7 18 8 6 9 13 10 17 11 14 12
REMARK SMILES IDX 16 13 15 14 7 15 8 16 9 17 10 18 11 19 12 20 21 21 22 22
REMARK SMILES IDX 23 23 24 24 25 25 26 26 87 27 27 28 86 29 28 30 29 31 30 32
REMARK SMILES IDX 80 33 31 34 85 35 79 36 81 37 32 38 84 39 78 40 77 41 33 43
REMARK SMILES IDX 65 44 45 45 64 46 46 47 49 48 63 49 82 50 47 51 48 52 62 54
REMARK SMILES IDX 83 55 50 56 34 57 35 58 43 59 36 60 38 61 44 62 37 63 39 64
REMARK SMILES IDX 40 65 41 66 42 67 66 68 67 69 75 70 68 71 70 72 76 73 69 74
REMARK SMILES IDX 71 75 72 76 73 77 74 78 51 79 52 80 60 81 53 82 55 83 61 84
REMARK SMILES IDX 54 85 56 86 57 87 58 88 59 89
REMARK H PARENT 81 42 49 53
REMARK Flexibility Score: inf
ROOT
ATOM      1  C   UNL A   1      39.234  21.517  26.087  1.00  0.00     0.274 C 
ENDROOT
BRANCH   1   2
ATOM      2  O   UNL A   1      38.552  22.782  26.123  1.00  0.00    -0.461 OA
BRANCH   2   3
ATOM      3  C   UNL A   1      37.388  22.950  25.425  1.00  0.00     0.326 C 
ATOM      4  O   UNL A   1      36.672  23.923  25.640  1.00  0.00    -0.250 OA
BRANCH   3   5
ATOM      5  C   UNL A   1      36.929  21.783  24.608  1.00  0.00     0.244 C 
BRANCH   5   6
ATOM      6  N   UNL A   1      35.543  21.367  24.667  1.00  0.00    -0.335 N 
ATOM      7  C   UNL A   1      35.181  20.123  25.110  1.00  0.00     0.099 A 
ATOM      8  C   UNL A   1      34.505  21.918  23.941  1.00  0.00     0.049 A 
ATOM      9  C   UNL A   1      33.869  19.899  24.752  1.00  0.00     0.053 A 
ATOM     10  C   UNL A   1      33.381  21.124  24.195  1.00  0.00     0.011 A 
ATOM     11  C   UNL A   1      34.441  22.999  23.048  1.00  0.00     0.027 A 
ATOM     12  C   UNL A   1      32.127  21.570  23.732  1.00  0.00     0.011 A 
ATOM     13  C   UNL A   1      33.189  23.428  22.606  1.00  0.00     0.002 A 
ATOM     14  C   UNL A   1      32.039  22.753  22.988  1.00  0.00     0.001 A 
BRANCH   9  15
ATOM     15  C   UNL A   1      33.191  18.600  24.811  1.00  0.00     0.268 C 
ATOM     16  O   UNL A   1      32.361  18.378  25.693  1.00  0.00    -0.284 OA
BRANCH  15  17
ATOM     17  C   UNL A   1      33.501  17.643  23.646  1.00  0.00     0.454 C 
ATOM     18  F   UNL A   1      33.010  18.127  22.463  1.00  0.00    -0.163 F 
ATOM     19  F   UNL A   1      34.839  17.493  23.453  1.00  0.00    -0.163 F 
ATOM     20  F   UNL A   1      32.964  16.408  23.798  1.00  0.00    -0.163 F 
ENDBRANCH  15  17
ENDBRANCH   9  15
ENDBRANCH   5   6
ENDBRANCH   3   5
ENDBRANCH   2   3
ENDBRANCH   1   2
BRANCH   1  21
ATOM     21  C   UNL A   1      40.590  21.532  26.816  1.00  0.00     0.275 C 
BRANCH  21  22
ATOM     22  O   UNL A   1      40.742  22.716  27.622  1.00  0.00    -0.458 OA
BRANCH  22  23
ATOM     23  C   UNL A   1      41.706  23.597  27.243  1.00  0.00     0.338 C 
ATOM     24  O   UNL A   1      42.510  23.437  26.337  1.00  0.00    -0.246 OA
BRANCH  23  25
ATOM     25  C   UNL A   1      41.389  24.908  27.866  1.00  0.00     0.060 A 
ATOM     26  C   UNL A   1      40.436  25.785  27.333  1.00  0.00     0.016 A 
ATOM     27  C   UNL A   1      42.266  25.349  28.869  1.00  0.00     0.016 A 
ATOM     28  C   UNL A   1      40.462  27.130  27.719  1.00  0.00     0.010 A 
ATOM     29  C   UNL A   1      42.293  26.693  29.245  1.00  0.00     0.010 A 
ATOM     30  C   UNL A   1      41.438  27.606  28.626  1.00  0.00    -0.014 A 
BRANCH  30  31
ATOM     31  C   UNL A   1      41.393  29.026  29.031  1.00  0.00     0.031 A 
ATOM     32  C   UNL A   1      42.614  29.743  28.585  1.00  0.00     0.074 A 
ATOM     33  C   UNL A   1      40.369  29.709  29.603  1.00  0.00     0.049 A 
ATOM     34  N   UNL A   1      43.527  30.286  29.322  1.00  0.00    -0.248 NA
ATOM     35  C   UNL A   1      42.945  29.683  27.151  1.00  0.00     0.031 C 
ATOM     36  C   UNL A   1      39.016  29.214  29.870  1.00  0.00     0.029 A 
ATOM     37  N   UNL A   1      40.279  31.037  29.970  1.00  0.00    -0.354 N 
ATOM     38  C   UNL A   1      44.419  30.851  28.418  1.00  0.00     0.074 A 
ATOM     39  C   UNL A   1      44.136  30.279  27.129  1.00  0.00     0.031 C 
ATOM     40  C   UNL A   1      38.193  30.262  30.114  1.00  0.00     0.029 A 
ATOM     41  C   UNL A   1      38.964  31.494  30.132  1.00  0.00     0.049 A 
ATOM     42  H   UNL A   1      41.067  31.611  30.107  1.00  0.00     0.167 HD
ATOM     43  C   UNL A   1      45.104  31.984  28.720  1.00  0.00     0.034 A 
ATOM     44  C   UNL A   1      38.531  32.783  30.211  1.00  0.00     0.034 A 
ATOM     45  C   UNL A   1      45.063  32.296  30.117  1.00  0.00     0.049 A 
ATOM     46  C   UNL A   1      39.672  33.623  30.629  1.00  0.00     0.074 A 
ATOM     47  C   UNL A   1      45.683  31.877  31.270  1.00  0.00     0.029 A 
ATOM     48  N   UNL A   1      43.956  33.010  30.479  1.00  0.00    -0.354 N 
ATOM     49  N   UNL A   1      40.161  33.633  31.836  1.00  0.00    -0.248 NA
ATOM     50  C   UNL A   1      40.442  34.351  29.629  1.00  0.00     0.031 C 
ATOM     51  C   UNL A   1      44.845  32.289  32.347  1.00  0.00     0.029 A 
ATOM     52  C   UNL A   1      43.742  32.964  31.828  1.00  0.00     0.049 A 
ATOM     53  H   UNL A   1      43.383  33.498  29.845  1.00  0.00     0.167 HD
ATOM     54  C   UNL A   1      41.489  33.950  31.643  1.00  0.00     0.074 A 
ATOM     55  C   UNL A   1      41.555  34.574  30.330  1.00  0.00     0.031 C 
ATOM     56  C   UNL A   1      42.458  33.345  32.385  1.00  0.00     0.034 A 
BRANCH  43  57
ATOM     57  C   UNL A   1      45.388  33.062  27.704  1.00  0.00     0.023 A 
ATOM     58  C   UNL A   1      44.329  33.512  26.893  1.00  0.00     0.012 A 
ATOM     59  C   UNL A   1      46.698  33.442  27.327  1.00  0.00     0.148 A 
ATOM     60  C   UNL A   1      44.563  34.320  25.773  1.00  0.00     0.002 A 
ATOM     61  C   UNL A   1      46.919  34.312  26.269  1.00  0.00     0.091 A 
ATOM     62  F   UNL A   1      47.750  32.846  27.901  1.00  0.00    -0.205 F 
ATOM     63  C   UNL A   1      45.855  34.740  25.474  1.00  0.00     0.022 A 
BRANCH  61  64
ATOM     64  S   UNL A   1      48.568  34.907  25.876  1.00  0.00     0.127 S 
ATOM     65  O   UNL A   1      49.146  33.748  25.202  1.00  0.00    -0.237 OA
ATOM     66  O   UNL A   1      48.275  36.049  25.009  1.00  0.00    -0.237 OA
ATOM     67  O   UNL A   1      49.162  35.270  27.157  1.00  0.00    -0.744 OA
ENDBRANCH  61  64
ENDBRANCH  43  57
BRANCH  44  68
ATOM     68  C   UNL A   1      37.248  33.457  29.841  1.00  0.00     0.023 A 
ATOM     69  C   UNL A   1      36.741  33.296  28.525  1.00  0.00     0.012 A 
ATOM     70  C   UNL A   1      36.365  33.964  30.814  1.00  0.00     0.148 A 
ATOM     71  C   UNL A   1      35.394  33.528  28.219  1.00  0.00     0.002 A 
ATOM     72  C   UNL A   1      35.025  34.205  30.502  1.00  0.00     0.091 A 
ATOM     73  F   UNL A   1      36.801  34.117  32.069  1.00  0.00    -0.205 F 
ATOM     74  C   UNL A   1      34.530  33.964  29.214  1.00  0.00     0.022 A 
BRANCH  72  75
ATOM     75  S   UNL A   1      33.849  34.760  31.745  1.00  0.00     0.127 S 
ATOM     76  O   UNL A   1      32.676  35.097  30.935  1.00  0.00    -0.237 OA
ATOM     77  O   UNL A   1      33.698  33.567  32.572  1.00  0.00    -0.237 OA
ATOM     78  O   UNL A   1      34.476  35.909  32.387  1.00  0.00    -0.744 OA
ENDBRANCH  72  75
ENDBRANCH  44  68
BRANCH  56  79
ATOM     79  C   UNL A   1      42.102  32.855  33.761  1.00  0.00     0.023 A 
ATOM     80  C   UNL A   1      42.241  33.639  34.921  1.00  0.00     0.012 A 
ATOM     81  C   UNL A   1      41.503  31.588  33.867  1.00  0.00     0.148 A 
ATOM     82  C   UNL A   1      41.756  33.190  36.153  1.00  0.00     0.002 A 
ATOM     83  C   UNL A   1      40.992  31.156  35.083  1.00  0.00     0.091 A 
ATOM     84  F   UNL A   1      41.410  30.840  32.758  1.00  0.00    -0.205 F 
ATOM     85  C   UNL A   1      41.110  31.958  36.229  1.00  0.00     0.022 A 
BRANCH  83  86
ATOM     86  S   UNL A   1      40.131  29.592  35.246  1.00  0.00     0.127 S 
ATOM     87  O   UNL A   1      39.188  29.873  36.327  1.00  0.00    -0.237 OA
ATOM     88  O   UNL A   1      39.522  29.436  33.925  1.00  0.00    -0.237 OA
ATOM     89  O   UNL A   1      41.147  28.597  35.570  1.00  0.00    -0.744 OA
ENDBRANCH  83  86
ENDBRANCH  56  79
ENDBRANCH  30  31
ENDBRANCH  23  25
ENDBRANCH  22  23
ENDBRANCH  21  22
ENDBRANCH   1  21
TORSDOF 17
ENDMDL
MODEL 3
REMARK VINA RESULT:     -10.6      4.608     10.952
REMARK SMILES O=C(Cn1cc(C(=O)C(F)(F)F)c2ccccc21)OCCOC(=O)c1ccc(-c2c3nc(c(-c4cccc(S(=O)(=O)[O-])c4F)c4ccc([nH]4)c(-c4cccc(S(=O)(=O)[O-])c4F)c4nc(c(-c5cccc(S(=O)(=O)[O-])c5F)c5ccc2[nH]5)C=C4)C=C3)cc1
REMARK SMILES IDX 20 1 19 2 2 3 1 4 3 5 4 6 5 7 18 8 6 9 13 10 17 11 14 12
REMARK SMILES IDX 16 13 15 14 7 15 8 16 9 17 10 18 11 19 12 20 21 21 22 22
REMARK SMILES IDX 23 23 24 24 25 25 26 26 87 27 27 28 86 29 28 30 29 31 30 32
REMARK SMILES IDX 80 33 31 34 85 35 79 36 81 37 32 38 84 39 78 40 77 41 33 43
REMARK SMILES IDX 65 44 45 45 64 46 46 47 49 48 63 49 82 50 47 51 48 52 62 54
REMARK SMILES IDX 83 55 50 56 34 57 35 58 43 59 36 60 38 61 44 62 37 63 39 64
REMARK SMILES IDX 40 65 41 66 42 67 66 68 67 69 75 70 68 71 70 72 76 73 69 74
REMARK SMILES IDX 71 75 72 76 73 77 74 78 51 79 52 80 60 81 53 82 55 83 61 84
REMARK SMILES IDX 54 85 56 86 57 87 58 88 59 89
REMARK H PARENT 81 42 49 53
REMARK Flexibility Score: inf
ROOT
ATOM      1  C   UNL A   1      38.696  21.886  25.989  1.00  0.00     0.274 C 
ENDROOT
BRANCH   1   2
ATOM      2  O   UNL A   1      37.813  21.055  25.217  1.00  0.00    -0.461 OA
BRANCH   2   3
ATOM      3  C   UNL A   1      36.463  21.267  25.261  1.00  0.00     0.326 C 
ATOM      4  O   UNL A   1      35.685  20.370  24.952  1.00  0.00    -0.250 OA
BRANCH   3   5
ATOM      5  C   UNL A   1      36.019  22.684  25.442  1.00  0.00     0.244 C 
BRANCH   5   6
ATOM      6  N   UNL A   1      34.821  23.152  24.775  1.00  0.00    -0.335 N 
ATOM      7  C   UNL A   1      34.871  23.789  23.564  1.00  0.00     0.099 A 
ATOM      8  C   UNL A   1      33.610  23.416  25.385  1.00  0.00     0.049 A 
ATOM      9  C   UNL A   1      33.653  24.395  23.341  1.00  0.00     0.053 A 
ATOM     10  C   UNL A   1      32.788  23.978  24.403  1.00  0.00     0.011 A 
ATOM     11  C   UNL A   1      33.161  23.268  26.707  1.00  0.00     0.027 A 
ATOM     12  C   UNL A   1      31.424  24.169  24.700  1.00  0.00     0.011 A 
ATOM     13  C   UNL A   1      31.806  23.456  26.979  1.00  0.00     0.002 A 
ATOM     14  C   UNL A   1      30.936  23.851  25.973  1.00  0.00     0.001 A 
BRANCH   9  15
ATOM     15  C   UNL A   1      33.384  25.382  22.291  1.00  0.00     0.268 C 
ATOM     16  O   UNL A   1      33.122  25.010  21.148  1.00  0.00    -0.284 OA
BRANCH  15  17
ATOM     17  C   UNL A   1      33.330  26.846  22.764  1.00  0.00     0.454 C 
ATOM     18  F   UNL A   1      33.990  27.008  23.953  1.00  0.00    -0.163 F 
ATOM     19  F   UNL A   1      33.942  27.687  21.888  1.00  0.00    -0.163 F 
ATOM     20  F   UNL A   1      32.072  27.307  22.968  1.00  0.00    -0.163 F 
ENDBRANCH  15  17
ENDBRANCH   9  15
ENDBRANCH   5   6
ENDBRANCH   3   5
ENDBRANCH   2   3
ENDBRANCH   1   2
BRANCH   1  21
ATOM     21  C   UNL A   1      40.058  21.230  26.277  1.00  0.00     0.275 C 
BRANCH  21  22
ATOM     22  O   UNL A   1      40.935  22.125  26.988  1.00  0.00    -0.458 OA
BRANCH  22  23
ATOM     23  C   UNL A   1      41.910  22.733  26.262  1.00  0.00     0.338 C 
ATOM     24  O   UNL A   1      42.435  22.293  25.251  1.00  0.00    -0.246 OA
BRANCH  23  25
ATOM     25  C   UNL A   1      41.973  24.153  26.693  1.00  0.00     0.060 A 
ATOM     26  C   UNL A   1      42.931  24.625  27.600  1.00  0.00     0.016 A 
ATOM     27  C   UNL A   1      40.872  24.955  26.355  1.00  0.00     0.016 A 
ATOM     28  C   UNL A   1      42.705  25.841  28.255  1.00  0.00     0.010 A 
ATOM     29  C   UNL A   1      40.647  26.164  27.017  1.00  0.00     0.010 A 
ATOM     30  C   UNL A   1      41.524  26.583  28.017  1.00  0.00    -0.014 A 
BRANCH  30  31
ATOM     31  C   UNL A   1      41.357  27.880  28.704  1.00  0.00     0.031 A 
ATOM     32  C   UNL A   1      42.347  28.872  28.211  1.00  0.00     0.074 A 
ATOM     33  C   UNL A   1      40.383  28.259  29.570  1.00  0.00     0.049 A 
ATOM     34  N   UNL A   1      43.302  29.436  28.874  1.00  0.00    -0.248 NA
ATOM     35  C   UNL A   1      42.385  29.120  26.759  1.00  0.00     0.031 C 
ATOM     36  C   UNL A   1      39.198  27.490  29.959  1.00  0.00     0.029 A 
ATOM     37  N   UNL A   1      40.179  29.466  30.209  1.00  0.00    -0.354 N 
ATOM     38  C   UNL A   1      43.900  30.300  27.965  1.00  0.00     0.074 A 
ATOM     39  C   UNL A   1      43.448  29.916  26.654  1.00  0.00     0.031 C 
ATOM     40  C   UNL A   1      38.299  28.314  30.548  1.00  0.00     0.029 A 
ATOM     41  C   UNL A   1      38.872  29.644  30.683  1.00  0.00     0.049 A 
ATOM     42  H   UNL A   1      40.887  30.141  30.322  1.00  0.00     0.167 HD
ATOM     43  C   UNL A   1      44.461  31.468  28.368  1.00  0.00     0.034 A 
ATOM     44  C   UNL A   1      38.282  30.801  31.095  1.00  0.00     0.034 A 
ATOM     45  C   UNL A   1      44.661  31.523  29.786  1.00  0.00     0.049 A 
ATOM     46  C   UNL A   1      39.351  31.748  31.474  1.00  0.00     0.074 A 
ATOM     47  C   UNL A   1      45.556  31.031  30.706  1.00  0.00     0.029 A 
ATOM     48  N   UNL A   1      43.559  31.953  30.469  1.00  0.00    -0.354 N 
ATOM     49  N   UNL A   1      40.068  31.639  32.555  1.00  0.00    -0.248 NA
ATOM     50  C   UNL A   1      39.789  32.764  30.525  1.00  0.00     0.031 C 
ATOM     51  C   UNL A   1      44.903  31.094  31.971  1.00  0.00     0.029 A 
ATOM     52  C   UNL A   1      43.631  31.638  31.797  1.00  0.00     0.049 A 
ATOM     53  H   UNL A   1      42.805  32.431  30.055  1.00  0.00     0.167 HD
ATOM     54  C   UNL A   1      41.270  32.218  32.206  1.00  0.00     0.074 A 
ATOM     55  C   UNL A   1      40.977  33.060  31.055  1.00  0.00     0.031 C 
ATOM     56  C   UNL A   1      42.446  31.680  32.632  1.00  0.00     0.034 A 
BRANCH  43  57
ATOM     57  C   UNL A   1      44.375  32.738  27.559  1.00  0.00     0.023 A 
ATOM     58  C   UNL A   1      45.342  32.962  26.561  1.00  0.00     0.012 A 
ATOM     59  C   UNL A   1      43.561  33.836  27.929  1.00  0.00     0.148 A 
ATOM     60  C   UNL A   1      45.476  34.213  25.946  1.00  0.00     0.002 A 
ATOM     61  C   UNL A   1      43.638  35.048  27.258  1.00  0.00     0.091 A 
ATOM     62  F   UNL A   1      42.807  33.757  29.032  1.00  0.00    -0.205 F 
ATOM     63  C   UNL A   1      44.609  35.250  26.277  1.00  0.00     0.022 A 
BRANCH  61  64
ATOM     64  S   UNL A   1      42.511  36.396  27.630  1.00  0.00     0.127 S 
ATOM     65  O   UNL A   1      41.216  35.725  27.556  1.00  0.00    -0.237 OA
ATOM     66  O   UNL A   1      42.937  36.779  28.977  1.00  0.00    -0.237 OA
ATOM     67  O   UNL A   1      42.771  37.408  26.613  1.00  0.00    -0.744 OA
ENDBRANCH  61  64
ENDBRANCH  43  57
BRANCH  44  68
ATOM     68  C   UNL A   1      36.867  31.286  31.096  1.00  0.00     0.023 A 
ATOM     69  C   UNL A   1      36.284  31.698  32.323  1.00  0.00     0.012 A 
ATOM     70  C   UNL A   1      36.206  31.657  29.911  1.00  0.00     0.148 A 
ATOM     71  C   UNL A   1      35.156  32.528  32.362  1.00  0.00     0.002 A 
ATOM     72  C   UNL A   1      35.075  32.476  29.954  1.00  0.00     0.091 A 
ATOM     73  F   UNL A   1      36.732  31.299  28.734  1.00  0.00    -0.205 F 
ATOM     74  C   UNL A   1      34.563  32.934  31.174  1.00  0.00     0.022 A 
BRANCH  72  75
ATOM     75  S   UNL A   1      34.263  33.048  28.454  1.00  0.00     0.127 S 
ATOM     76  O   UNL A   1      33.720  31.806  27.900  1.00  0.00    -0.237 OA
ATOM     77  O   UNL A   1      33.263  33.969  28.985  1.00  0.00    -0.237 OA
ATOM     78  O   UNL A   1      35.318  33.646  27.646  1.00  0.00    -0.744 OA
ENDBRANCH  72  75
ENDBRANCH  44  68
BRANCH  56  79
ATOM     79  C   UNL A   1      42.451  30.904  33.919  1.00  0.00     0.023 A 
ATOM     80  C   UNL A   1      42.582  31.507  35.184  1.00  0.00     0.012 A 
ATOM     81  C   UNL A   1      42.205  29.522  33.850  1.00  0.00     0.148 A 
ATOM     82  C   UNL A   1      42.431  30.758  36.356  1.00  0.00     0.002 A 
ATOM     83  C   UNL A   1      42.021  28.785  35.011  1.00  0.00     0.091 A 
ATOM     84  F   UNL A   1      42.117  28.958  32.636  1.00  0.00    -0.205 F 
ATOM     85  C   UNL A   1      42.126  29.402  36.268  1.00  0.00     0.022 A 
BRANCH  83  86
ATOM     86  S   UNL A   1      41.607  27.042  34.970  1.00  0.00     0.127 S 
ATOM     87  O   UNL A   1      40.456  27.022  34.069  1.00  0.00    -0.237 OA
ATOM     88  O   UNL A   1      42.826  26.447  34.423  1.00  0.00    -0.237 OA
ATOM     89  O   UNL A   1      41.307  26.659  36.345  1.00  0.00    -0.744 OA
ENDBRANCH  83  86
ENDBRANCH  56  79
ENDBRANCH  30  31
ENDBRANCH  23  25
ENDBRANCH  22  23
ENDBRANCH  21  22
ENDBRANCH   1  21
TORSDOF 17
ENDMDL
