MODEL 1
REMARK VINA RESULT:     -12.1      0.000      0.000
REMARK SMILES N#Cc1ccc2c(c1)C=C(C(=O)OCCOC(=O)c1ccc(-c3c4nc(c(-c5cccc(S(=O)(=O)[O-])c5F)c5ccc([nH]5)c(-c5cccc(S(=O)(=O)[O-])c5F)c5nc(c(-c6cccc(S(=O)(=O)[O-])c6F)c6ccc3[nH]6)C=C5)C=C4)cc1)[C@@H](C(F)(F)F)O2
REMARK SMILES IDX 15 1 14 2 13 3 11 4 12 5 10 6 3 7 4 8 8 9 5 10 7 11 6 12
REMARK SMILES IDX 9 13 87 14 82 15 2 16 1 17 83 18 84 19 85 20 86 21 16 22
REMARK SMILES IDX 17 23 18 24 19 25 20 26 81 27 21 28 80 29 22 30 23 31 24 32
REMARK SMILES IDX 74 33 25 34 79 35 73 36 75 37 26 38 78 39 72 40 71 41 27 43
REMARK SMILES IDX 59 44 39 45 58 46 40 47 43 48 57 49 76 50 41 51 42 52 56 54
REMARK SMILES IDX 77 55 44 56 28 57 29 58 37 59 30 60 32 61 38 62 31 63 33 64
REMARK SMILES IDX 34 65 35 66 36 67 60 68 61 69 69 70 62 71 64 72 70 73 63 74
REMARK SMILES IDX 65 75 66 76 67 77 68 78 45 79 46 80 54 81 47 82 49 83 55 84
REMARK SMILES IDX 48 85 50 86 51 87 52 88 53 89
REMARK H PARENT 75 42 43 53
REMARK Flexibility Score: inf
ROOT
ATOM      1  C   UNL A   1      36.300  21.028  24.607  1.00  0.00     0.275 C 
ENDROOT
BRANCH   1   2
ATOM      2  C   UNL A   1      34.986  20.322  24.955  1.00  0.00     0.275 C 
BRANCH   2   3
ATOM      3  O   UNL A   1      33.846  20.989  24.364  1.00  0.00    -0.459 OA
BRANCH   3   4
ATOM      4  C   UNL A   1      32.664  20.802  24.999  1.00  0.00     0.338 C 
ATOM      5  O   UNL A   1      32.158  19.726  25.275  1.00  0.00    -0.246 OA
BRANCH   4   6
ATOM      6  C   UNL A   1      32.032  22.096  25.337  1.00  0.00     0.087 C 
ATOM      7  C   UNL A   1      30.624  26.482  23.913  1.00  0.00     0.053 A 
ATOM      8  C   UNL A   1      30.479  26.863  25.251  1.00  0.00     0.023 A 
ATOM      9  C   UNL A   1      30.999  25.173  23.613  1.00  0.00     0.031 A 
ATOM     10  C   UNL A   1      30.704  25.939  26.280  1.00  0.00     0.048 A 
ATOM     11  C   UNL A   1      31.249  24.261  24.650  1.00  0.00     0.019 A 
ATOM     12  C   UNL A   1      31.096  24.636  25.981  1.00  0.00     0.128 A 
ATOM     13  C   UNL A   1      31.723  22.932  24.341  1.00  0.00     0.027 C 
ATOM     14  O   UNL A   1      31.307  23.788  27.033  1.00  0.00    -0.475 OA
ATOM     15  C   UNL A   1      31.914  22.484  26.780  1.00  0.00     0.316 C 
BRANCH   7  16
ATOM     16  C   UNL A   1      30.419  27.436  22.863  1.00  0.00     0.099 C 
ATOM     17  N   UNL A   1      30.280  28.226  22.023  1.00  0.00    -0.192 NA
ENDBRANCH   7  16
BRANCH  15  18
ATOM     18  C   UNL A   1      33.286  22.436  27.472  1.00  0.00     0.430 C 
ATOM     19  F   UNL A   1      33.703  21.159  27.652  1.00  0.00    -0.167 F 
ATOM     20  F   UNL A   1      34.243  23.047  26.731  1.00  0.00    -0.167 F 
ATOM     21  F   UNL A   1      33.270  23.033  28.685  1.00  0.00    -0.167 F 
ENDBRANCH  15  18
ENDBRANCH   4   6
ENDBRANCH   3   4
ENDBRANCH   2   3
ENDBRANCH   1   2
BRANCH   1  22
ATOM     22  O   UNL A   1      36.950  21.529  25.787  1.00  0.00    -0.458 OA
BRANCH  22  23
ATOM     23  C   UNL A   1      38.279  21.297  25.838  1.00  0.00     0.338 C 
ATOM     24  O   UNL A   1      38.890  20.374  25.325  1.00  0.00    -0.246 OA
BRANCH  23  25
ATOM     25  C   UNL A   1      38.949  22.425  26.492  1.00  0.00     0.060 A 
ATOM     26  C   UNL A   1      40.106  22.268  27.238  1.00  0.00     0.016 A 
ATOM     27  C   UNL A   1      38.479  23.696  26.199  1.00  0.00     0.016 A 
ATOM     28  C   UNL A   1      40.768  23.414  27.695  1.00  0.00     0.010 A 
ATOM     29  C   UNL A   1      39.245  24.817  26.470  1.00  0.00     0.010 A 
ATOM     30  C   UNL A   1      40.368  24.704  27.282  1.00  0.00    -0.014 A 
BRANCH  30  31
ATOM     31  C   UNL A   1      41.092  25.930  27.716  1.00  0.00     0.031 A 
ATOM     32  C   UNL A   1      42.520  26.192  27.279  1.00  0.00     0.074 A 
ATOM     33  C   UNL A   1      40.472  26.806  28.532  1.00  0.00     0.049 A 
ATOM     34  N   UNL A   1      43.267  27.239  27.518  1.00  0.00    -0.248 NA
ATOM     35  C   UNL A   1      43.217  25.143  26.510  1.00  0.00     0.031 C 
ATOM     36  C   UNL A   1      39.146  26.614  29.128  1.00  0.00     0.029 A 
ATOM     37  N   UNL A   1      40.862  28.039  28.991  1.00  0.00    -0.354 N 
ATOM     38  C   UNL A   1      44.512  26.957  26.965  1.00  0.00     0.074 A 
ATOM     39  C   UNL A   1      44.449  25.620  26.430  1.00  0.00     0.031 C 
ATOM     40  C   UNL A   1      38.800  27.720  29.802  1.00  0.00     0.029 A 
ATOM     41  C   UNL A   1      39.896  28.680  29.731  1.00  0.00     0.049 A 
ATOM     42  H   UNL A   1      41.747  28.427  28.808  1.00  0.00     0.167 HD
ATOM     43  C   UNL A   1      45.597  27.756  26.856  1.00  0.00     0.034 A 
ATOM     44  C   UNL A   1      39.882  29.910  30.281  1.00  0.00     0.034 A 
ATOM     45  C   UNL A   1      45.636  29.113  27.317  1.00  0.00     0.049 A 
ATOM     46  C   UNL A   1      41.071  30.805  30.095  1.00  0.00     0.074 A 
ATOM     47  C   UNL A   1      46.649  30.040  27.162  1.00  0.00     0.029 A 
ATOM     48  N   UNL A   1      44.620  29.734  28.022  1.00  0.00    -0.354 N 
ATOM     49  N   UNL A   1      42.180  30.565  29.440  1.00  0.00    -0.248 NA
ATOM     50  C   UNL A   1      41.004  32.141  30.700  1.00  0.00     0.031 C 
ATOM     51  C   UNL A   1      46.256  31.218  27.799  1.00  0.00     0.029 A 
ATOM     52  C   UNL A   1      44.985  31.032  28.321  1.00  0.00     0.049 A 
ATOM     53  H   UNL A   1      43.765  29.315  28.273  1.00  0.00     0.167 HD
ATOM     54  C   UNL A   1      42.938  31.724  29.539  1.00  0.00     0.074 A 
ATOM     55  C   UNL A   1      42.154  32.673  30.303  1.00  0.00     0.031 C 
ATOM     56  C   UNL A   1      44.176  31.972  29.049  1.00  0.00     0.034 A 
BRANCH  43  57
ATOM     57  C   UNL A   1      46.809  27.224  26.140  1.00  0.00     0.023 A 
ATOM     58  C   UNL A   1      46.937  27.428  24.751  1.00  0.00     0.012 A 
ATOM     59  C   UNL A   1      47.863  26.620  26.852  1.00  0.00     0.148 A 
ATOM     60  C   UNL A   1      48.092  27.030  24.079  1.00  0.00     0.002 A 
ATOM     61  C   UNL A   1      49.025  26.255  26.181  1.00  0.00     0.091 A 
ATOM     62  F   UNL A   1      47.714  26.427  28.170  1.00  0.00    -0.205 F 
ATOM     63  C   UNL A   1      49.139  26.458  24.796  1.00  0.00     0.022 A 
BRANCH  61  64
ATOM     64  S   UNL A   1      50.451  25.548  27.013  1.00  0.00     0.127 S 
ATOM     65  O   UNL A   1      49.879  24.331  27.589  1.00  0.00    -0.237 OA
ATOM     66  O   UNL A   1      51.371  25.321  25.899  1.00  0.00    -0.237 OA
ATOM     67  O   UNL A   1      50.890  26.541  27.982  1.00  0.00    -0.744 OA
ENDBRANCH  61  64
ENDBRANCH  43  57
BRANCH  44  68
ATOM     68  C   UNL A   1      38.655  30.372  30.984  1.00  0.00     0.023 A 
ATOM     69  C   UNL A   1      38.569  30.239  32.383  1.00  0.00     0.012 A 
ATOM     70  C   UNL A   1      37.627  31.036  30.288  1.00  0.00     0.148 A 
ATOM     71  C   UNL A   1      37.479  30.763  33.078  1.00  0.00     0.002 A 
ATOM     72  C   UNL A   1      36.561  31.585  30.990  1.00  0.00     0.091 A 
ATOM     73  F   UNL A   1      37.742  31.157  28.957  1.00  0.00    -0.205 F 
ATOM     74  C   UNL A   1      36.482  31.445  32.384  1.00  0.00     0.022 A 
BRANCH  72  75
ATOM     75  S   UNL A   1      35.276  32.557  30.197  1.00  0.00     0.127 S 
ATOM     76  O   UNL A   1      34.322  32.736  31.290  1.00  0.00    -0.237 OA
ATOM     77  O   UNL A   1      36.009  33.763  29.814  1.00  0.00    -0.237 OA
ATOM     78  O   UNL A   1      34.800  31.753  29.080  1.00  0.00    -0.744 OA
ENDBRANCH  72  75
ENDBRANCH  44  68
BRANCH  56  79
ATOM     79  C   UNL A   1      44.779  33.325  29.297  1.00  0.00     0.023 A 
ATOM     80  C   UNL A   1      45.609  33.517  30.416  1.00  0.00     0.012 A 
ATOM     81  C   UNL A   1      44.646  34.347  28.337  1.00  0.00     0.148 A 
ATOM     82  C   UNL A   1      46.299  34.716  30.580  1.00  0.00     0.002 A 
ATOM     83  C   UNL A   1      45.361  35.527  28.490  1.00  0.00     0.091 A 
ATOM     84  F   UNL A   1      43.849  34.131  27.280  1.00  0.00    -0.205 F 
ATOM     85  C   UNL A   1      46.187  35.713  29.612  1.00  0.00     0.022 A 
BRANCH  83  86
ATOM     86  S   UNL A   1      45.330  36.843  27.270  1.00  0.00     0.127 S 
ATOM     87  O   UNL A   1      45.941  37.947  28.010  1.00  0.00    -0.237 OA
ATOM     88  O   UNL A   1      46.160  36.290  26.200  1.00  0.00    -0.237 OA
ATOM     89  O   UNL A   1      43.930  37.039  26.918  1.00  0.00    -0.744 OA
ENDBRANCH  83  86
ENDBRANCH  56  79
ENDBRANCH  30  31
ENDBRANCH  23  25
ENDBRANCH  22  23
ENDBRANCH   1  22
TORSDOF 16
ENDMDL
MODEL 2
REMARK VINA RESULT:     -12.0      5.075      9.929
REMARK SMILES N#Cc1ccc2c(c1)C=C(C(=O)OCCOC(=O)c1ccc(-c3c4nc(c(-c5cccc(S(=O)(=O)[O-])c5F)c5ccc([nH]5)c(-c5cccc(S(=O)(=O)[O-])c5F)c5nc(c(-c6cccc(S(=O)(=O)[O-])c6F)c6ccc3[nH]6)C=C5)C=C4)cc1)[C@@H](C(F)(F)F)O2
REMARK SMILES IDX 15 1 14 2 13 3 11 4 12 5 10 6 3 7 4 8 8 9 5 10 7 11 6 12
REMARK SMILES IDX 9 13 87 14 82 15 2 16 1 17 83 18 84 19 85 20 86 21 16 22
REMARK SMILES IDX 17 23 18 24 19 25 20 26 81 27 21 28 80 29 22 30 23 31 24 32
REMARK SMILES IDX 74 33 25 34 79 35 73 36 75 37 26 38 78 39 72 40 71 41 27 43
REMARK SMILES IDX 59 44 39 45 58 46 40 47 43 48 57 49 76 50 41 51 42 52 56 54
REMARK SMILES IDX 77 55 44 56 28 57 29 58 37 59 30 60 32 61 38 62 31 63 33 64
REMARK SMILES IDX 34 65 35 66 36 67 60 68 61 69 69 70 62 71 64 72 70 73 63 74
REMARK SMILES IDX 65 75 66 76 67 77 68 78 45 79 46 80 54 81 47 82 49 83 55 84
REMARK SMILES IDX 48 85 50 86 51 87 52 88 53 89
REMARK H PARENT 75 42 43 53
REMARK Flexibility Score: inf
ROOT
ATOM      1  C   UNL A   1      33.056  29.723  25.206  1.00  0.00     0.275 C 
ENDROOT
BRANCH   1   2
ATOM      2  C   UNL A   1      33.647  28.318  25.061  1.00  0.00     0.275 C 
BRANCH   2   3
ATOM      3  O   UNL A   1      33.640  27.872  23.685  1.00  0.00    -0.459 OA
BRANCH   3   4
ATOM      4  C   UNL A   1      32.848  26.806  23.418  1.00  0.00     0.338 C 
ATOM      5  O   UNL A   1      33.210  25.644  23.331  1.00  0.00    -0.246 OA
BRANCH   4   6
ATOM      6  C   UNL A   1      31.439  27.222  23.239  1.00  0.00     0.087 C 
ATOM      7  C   UNL A   1      28.287  30.682  22.084  1.00  0.00     0.053 A 
ATOM      8  C   UNL A   1      27.255  29.919  22.642  1.00  0.00     0.023 A 
ATOM      9  C   UNL A   1      29.580  30.162  22.054  1.00  0.00     0.031 A 
ATOM     10  C   UNL A   1      27.516  28.645  23.161  1.00  0.00     0.048 A 
ATOM     11  C   UNL A   1      29.838  28.895  22.601  1.00  0.00     0.019 A 
ATOM     12  C   UNL A   1      28.811  28.132  23.147  1.00  0.00     0.128 A 
ATOM     13  C   UNL A   1      31.193  28.395  22.648  1.00  0.00     0.027 C 
ATOM     14  O   UNL A   1      28.998  26.885  23.676  1.00  0.00    -0.475 OA
ATOM     15  C   UNL A   1      30.359  26.395  23.871  1.00  0.00     0.316 C 
BRANCH   7  16
ATOM     16  C   UNL A   1      28.022  31.997  21.578  1.00  0.00     0.099 C 
ATOM     17  N   UNL A   1      27.841  33.068  21.168  1.00  0.00    -0.192 NA
ENDBRANCH   7  16
BRANCH  15  18
ATOM     18  C   UNL A   1      30.613  26.224  25.377  1.00  0.00     0.430 C 
ATOM     19  F   UNL A   1      30.880  27.413  25.970  1.00  0.00    -0.167 F 
ATOM     20  F   UNL A   1      29.529  25.717  26.014  1.00  0.00    -0.167 F 
ATOM     21  F   UNL A   1      31.653  25.400  25.632  1.00  0.00    -0.167 F 
ENDBRANCH  15  18
ENDBRANCH   4   6
ENDBRANCH   3   4
ENDBRANCH   2   3
ENDBRANCH   1   2
BRANCH   1  22
ATOM     22  O   UNL A   1      32.678  29.990  26.567  1.00  0.00    -0.458 OA
BRANCH  22  23
ATOM     23  C   UNL A   1      33.185  31.133  27.077  1.00  0.00     0.338 C 
ATOM     24  O   UNL A   1      32.608  32.198  27.224  1.00  0.00    -0.246 OA
BRANCH  23  25
ATOM     25  C   UNL A   1      34.534  30.884  27.592  1.00  0.00     0.060 A 
ATOM     26  C   UNL A   1      35.463  31.899  27.759  1.00  0.00     0.016 A 
ATOM     27  C   UNL A   1      34.802  29.611  28.074  1.00  0.00     0.016 A 
ATOM     28  C   UNL A   1      36.670  31.601  28.404  1.00  0.00     0.010 A 
ATOM     29  C   UNL A   1      35.895  29.375  28.890  1.00  0.00     0.010 A 
ATOM     30  C   UNL A   1      36.884  30.346  29.014  1.00  0.00    -0.014 A 
BRANCH  30  31
ATOM     31  C   UNL A   1      38.140  30.031  29.749  1.00  0.00     0.031 A 
ATOM     32  C   UNL A   1      38.378  30.554  31.151  1.00  0.00     0.074 A 
ATOM     33  C   UNL A   1      39.089  29.289  29.142  1.00  0.00     0.049 A 
ATOM     34  N   UNL A   1      39.388  30.319  31.949  1.00  0.00    -0.248 NA
ATOM     35  C   UNL A   1      37.386  31.482  31.727  1.00  0.00     0.031 C 
ATOM     36  C   UNL A   1      39.042  28.829  27.750  1.00  0.00     0.029 A 
ATOM     37  N   UNL A   1      40.270  28.778  29.616  1.00  0.00    -0.354 N 
ATOM     38  C   UNL A   1      39.168  31.089  33.086  1.00  0.00     0.074 A 
ATOM     39  C   UNL A   1      37.963  31.848  32.860  1.00  0.00     0.031 C 
ATOM     40  C   UNL A   1      40.097  28.038  27.510  1.00  0.00     0.029 A 
ATOM     41  C   UNL A   1      40.923  27.974  28.710  1.00  0.00     0.049 A 
ATOM     42  H   UNL A   1      40.616  28.966  30.517  1.00  0.00     0.167 HD
ATOM     43  C   UNL A   1      39.868  31.123  34.242  1.00  0.00     0.034 A 
ATOM     44  C   UNL A   1      42.054  27.251  28.832  1.00  0.00     0.034 A 
ATOM     45  C   UNL A   1      41.020  30.310  34.498  1.00  0.00     0.049 A 
ATOM     46  C   UNL A   1      42.782  27.253  30.143  1.00  0.00     0.074 A 
ATOM     47  C   UNL A   1      41.740  30.192  35.672  1.00  0.00     0.029 A 
ATOM     48  N   UNL A   1      41.621  29.480  33.568  1.00  0.00    -0.354 N 
ATOM     49  N   UNL A   1      42.469  27.877  31.252  1.00  0.00    -0.248 NA
ATOM     50  C   UNL A   1      44.001  26.438  30.232  1.00  0.00     0.031 C 
ATOM     51  C   UNL A   1      42.795  29.308  35.444  1.00  0.00     0.029 A 
ATOM     52  C   UNL A   1      42.712  28.853  34.137  1.00  0.00     0.049 A 
ATOM     53  H   UNL A   1      41.317  29.354  32.639  1.00  0.00     0.167 HD
ATOM     54  C   UNL A   1      43.442  27.521  32.176  1.00  0.00     0.074 A 
ATOM     55  C   UNL A   1      44.346  26.611  31.502  1.00  0.00     0.031 C 
ATOM     56  C   UNL A   1      43.577  27.922  33.462  1.00  0.00     0.034 A 
BRANCH  43  57
ATOM     57  C   UNL A   1      39.368  32.002  35.356  1.00  0.00     0.023 A 
ATOM     58  C   UNL A   1      38.511  31.459  36.334  1.00  0.00     0.012 A 
ATOM     59  C   UNL A   1      39.827  33.326  35.495  1.00  0.00     0.148 A 
ATOM     60  C   UNL A   1      38.109  32.223  37.429  1.00  0.00     0.002 A 
ATOM     61  C   UNL A   1      39.449  34.071  36.605  1.00  0.00     0.091 A 
ATOM     62  F   UNL A   1      40.634  33.824  34.547  1.00  0.00    -0.205 F 
ATOM     63  C   UNL A   1      38.589  33.522  37.571  1.00  0.00     0.022 A 
BRANCH  61  64
ATOM     64  S   UNL A   1      40.040  35.740  36.908  1.00  0.00     0.127 S 
ATOM     65  O   UNL A   1      39.306  36.095  38.123  1.00  0.00    -0.237 OA
ATOM     66  O   UNL A   1      41.473  35.525  37.103  1.00  0.00    -0.237 OA
ATOM     67  O   UNL A   1      39.689  36.516  35.728  1.00  0.00    -0.744 OA
ENDBRANCH  61  64
ENDBRANCH  43  57
BRANCH  44  68
ATOM     68  C   UNL A   1      42.499  26.410  27.688  1.00  0.00     0.023 A 
ATOM     69  C   UNL A   1      43.461  26.914  26.793  1.00  0.00     0.012 A 
ATOM     70  C   UNL A   1      42.054  25.081  27.550  1.00  0.00     0.148 A 
ATOM     71  C   UNL A   1      43.976  26.107  25.778  1.00  0.00     0.002 A 
ATOM     72  C   UNL A   1      42.595  24.273  26.558  1.00  0.00     0.091 A 
ATOM     73  F   UNL A   1      41.144  24.626  28.424  1.00  0.00    -0.205 F 
ATOM     74  C   UNL A   1      43.552  24.784  25.668  1.00  0.00     0.022 A 
BRANCH  72  75
ATOM     75  S   UNL A   1      42.179  22.533  26.392  1.00  0.00     0.127 S 
ATOM     76  O   UNL A   1      40.720  22.583  26.315  1.00  0.00    -0.237 OA
ATOM     77  O   UNL A   1      42.852  22.186  25.141  1.00  0.00    -0.237 OA
ATOM     78  O   UNL A   1      42.719  21.880  27.576  1.00  0.00    -0.744 OA
ENDBRANCH  72  75
ENDBRANCH  44  68
BRANCH  56  79
ATOM     79  C   UNL A   1      44.729  27.381  34.257  1.00  0.00     0.023 A 
ATOM     80  C   UNL A   1      45.931  28.109  34.315  1.00  0.00     0.012 A 
ATOM     81  C   UNL A   1      44.561  26.238  35.063  1.00  0.00     0.148 A 
ATOM     82  C   UNL A   1      46.957  27.704  35.167  1.00  0.00     0.002 A 
ATOM     83  C   UNL A   1      45.574  25.859  35.933  1.00  0.00     0.091 A 
ATOM     84  F   UNL A   1      43.402  25.568  34.986  1.00  0.00    -0.205 F 
ATOM     85  C   UNL A   1      46.773  26.590  35.985  1.00  0.00     0.022 A 
BRANCH  83  86
ATOM     86  S   UNL A   1      45.409  24.478  37.068  1.00  0.00     0.127 S 
ATOM     87  O   UNL A   1      44.267  24.897  37.879  1.00  0.00    -0.237 OA
ATOM     88  O   UNL A   1      45.138  23.364  36.159  1.00  0.00    -0.237 OA
ATOM     89  O   UNL A   1      46.673  24.387  37.786  1.00  0.00    -0.744 OA
ENDBRANCH  83  86
ENDBRANCH  56  79
ENDBRANCH  30  31
ENDBRANCH  23  25
ENDBRANCH  22  23
ENDBRANCH   1  22
TORSDOF 16
ENDMDL
MODEL 3
REMARK VINA RESULT:     -12.0      4.910      9.997
REMARK SMILES N#Cc1ccc2c(c1)C=C(C(=O)OCCOC(=O)c1ccc(-c3c4nc(c(-c5cccc(S(=O)(=O)[O-])c5F)c5ccc([nH]5)c(-c5cccc(S(=O)(=O)[O-])c5F)c5nc(c(-c6cccc(S(=O)(=O)[O-])c6F)c6ccc3[nH]6)C=C5)C=C4)cc1)[C@@H](C(F)(F)F)O2
REMARK SMILES IDX 15 1 14 2 13 3 11 4 12 5 10 6 3 7 4 8 8 9 5 10 7 11 6 12
REMARK SMILES IDX 9 13 87 14 82 15 2 16 1 17 83 18 84 19 85 20 86 21 16 22
REMARK SMILES IDX 17 23 18 24 19 25 20 26 81 27 21 28 80 29 22 30 23 31 24 32
REMARK SMILES IDX 74 33 25 34 79 35 73 36 75 37 26 38 78 39 72 40 71 41 27 43
REMARK SMILES IDX 59 44 39 45 58 46 40 47 43 48 57 49 76 50 41 51 42 52 56 54
REMARK SMILES IDX 77 55 44 56 28 57 29 58 37 59 30 60 32 61 38 62 31 63 33 64
REMARK SMILES IDX 34 65 35 66 36 67 60 68 61 69 69 70 62 71 64 72 70 73 63 74
REMARK SMILES IDX 65 75 66 76 67 77 68 78 45 79 46 80 54 81 47 82 49 83 55 84
REMARK SMILES IDX 48 85 50 86 51 87 52 88 53 89
REMARK H PARENT 75 42 43 53
REMARK Flexibility Score: inf
ROOT
ATOM      1  C   UNL A   1      31.706  30.105  25.465  1.00  0.00     0.275 C 
ENDROOT
BRANCH   1   2
ATOM      2  C   UNL A   1      31.454  28.722  24.859  1.00  0.00     0.275 C 
BRANCH   2   3
ATOM      3  O   UNL A   1      32.274  27.706  25.481  1.00  0.00    -0.459 OA
BRANCH   3   4
ATOM      4  C   UNL A   1      31.614  26.819  26.265  1.00  0.00     0.338 C 
ATOM      5  O   UNL A   1      30.807  27.093  27.139  1.00  0.00    -0.246 OA
BRANCH   4   6
ATOM      6  C   UNL A   1      31.991  25.429  25.929  1.00  0.00     0.087 C 
ATOM      7  C   UNL A   1      35.472  22.165  25.237  1.00  0.00     0.053 A 
ATOM      8  C   UNL A   1      34.545  21.315  24.625  1.00  0.00     0.023 A 
ATOM      9  C   UNL A   1      35.040  23.383  25.760  1.00  0.00     0.031 A 
ATOM     10  C   UNL A   1      33.195  21.681  24.540  1.00  0.00     0.048 A 
ATOM     11  C   UNL A   1      33.691  23.754  25.647  1.00  0.00     0.019 A 
ATOM     12  C   UNL A   1      32.767  22.906  25.047  1.00  0.00     0.128 A 
ATOM     13  C   UNL A   1      33.261  25.054  26.111  1.00  0.00     0.027 C 
ATOM     14  O   UNL A   1      31.437  23.204  24.925  1.00  0.00    -0.475 OA
ATOM     15  C   UNL A   1      30.981  24.552  25.252  1.00  0.00     0.316 C 
BRANCH   7  16
ATOM     16  C   UNL A   1      36.857  21.801  25.298  1.00  0.00     0.099 C 
ATOM     17  N   UNL A   1      37.976  21.502  25.380  1.00  0.00    -0.192 NA
ENDBRANCH   7  16
BRANCH  15  18
ATOM     18  C   UNL A   1      30.452  25.219  23.972  1.00  0.00     0.430 C 
ATOM     19  F   UNL A   1      29.917  24.306  23.125  1.00  0.00    -0.167 F 
ATOM     20  F   UNL A   1      29.466  26.110  24.241  1.00  0.00    -0.167 F 
ATOM     21  F   UNL A   1      31.420  25.878  23.299  1.00  0.00    -0.167 F 
ENDBRANCH  15  18
ENDBRANCH   4   6
ENDBRANCH   3   4
ENDBRANCH   2   3
ENDBRANCH   1   2
BRANCH   1  22
ATOM     22  O   UNL A   1      32.552  30.019  26.624  1.00  0.00    -0.458 OA
BRANCH  22  23
ATOM     23  C   UNL A   1      33.083  31.196  27.021  1.00  0.00     0.338 C 
ATOM     24  O   UNL A   1      32.525  32.278  27.079  1.00  0.00    -0.246 OA
BRANCH  23  25
ATOM     25  C   UNL A   1      34.437  30.972  27.537  1.00  0.00     0.060 A 
ATOM     26  C   UNL A   1      35.280  32.017  27.882  1.00  0.00     0.016 A 
ATOM     27  C   UNL A   1      34.793  29.666  27.834  1.00  0.00     0.016 A 
ATOM     28  C   UNL A   1      36.492  31.717  28.515  1.00  0.00     0.010 A 
ATOM     29  C   UNL A   1      35.884  29.392  28.641  1.00  0.00     0.010 A 
ATOM     30  C   UNL A   1      36.791  30.404  28.939  1.00  0.00    -0.014 A 
BRANCH  30  31
ATOM     31  C   UNL A   1      38.052  30.075  29.660  1.00  0.00     0.031 A 
ATOM     32  C   UNL A   1      38.294  30.562  31.075  1.00  0.00     0.074 A 
ATOM     33  C   UNL A   1      39.003  29.356  29.029  1.00  0.00     0.049 A 
ATOM     34  N   UNL A   1      39.309  30.311  31.862  1.00  0.00    -0.248 NA
ATOM     35  C   UNL A   1      37.299  31.469  31.680  1.00  0.00     0.031 C 
ATOM     36  C   UNL A   1      38.951  28.933  27.626  1.00  0.00     0.029 A 
ATOM     37  N   UNL A   1      40.189  28.838  29.484  1.00  0.00    -0.354 N 
ATOM     38  C   UNL A   1      39.089  31.050  33.020  1.00  0.00     0.074 A 
ATOM     39  C   UNL A   1      37.880  31.808  32.820  1.00  0.00     0.031 C 
ATOM     40  C   UNL A   1      40.010  28.155  27.360  1.00  0.00     0.029 A 
ATOM     41  C   UNL A   1      40.842  28.063  28.555  1.00  0.00     0.049 A 
ATOM     42  H   UNL A   1      40.537  29.004  30.389  1.00  0.00     0.167 HD
ATOM     43  C   UNL A   1      39.795  31.056  34.173  1.00  0.00     0.034 A 
ATOM     44  C   UNL A   1      41.977  27.344  28.652  1.00  0.00     0.034 A 
ATOM     45  C   UNL A   1      40.952  30.243  34.403  1.00  0.00     0.049 A 
ATOM     46  C   UNL A   1      42.711  27.314  29.959  1.00  0.00     0.074 A 
ATOM     47  C   UNL A   1      41.677  30.098  35.570  1.00  0.00     0.029 A 
ATOM     48  N   UNL A   1      41.553  29.442  33.448  1.00  0.00    -0.354 N 
ATOM     49  N   UNL A   1      42.400  27.906  31.086  1.00  0.00    -0.248 NA
ATOM     50  C   UNL A   1      43.935  26.504  30.021  1.00  0.00     0.031 C 
ATOM     51  C   UNL A   1      42.737  29.226  35.314  1.00  0.00     0.029 A 
ATOM     52  C   UNL A   1      42.650  28.805  33.995  1.00  0.00     0.049 A 
ATOM     53  H   UNL A   1      41.246  29.340  32.518  1.00  0.00     0.167 HD
ATOM     54  C   UNL A   1      43.378  27.531  31.996  1.00  0.00     0.074 A 
ATOM     55  C   UNL A   1      44.285  26.645  31.294  1.00  0.00     0.031 C 
ATOM     56  C   UNL A   1      43.517  27.898  33.292  1.00  0.00     0.034 A 
BRANCH  43  57
ATOM     57  C   UNL A   1      39.294  31.902  35.314  1.00  0.00     0.023 A 
ATOM     58  C   UNL A   1      38.415  31.338  36.260  1.00  0.00     0.012 A 
ATOM     59  C   UNL A   1      39.774  33.212  35.506  1.00  0.00     0.148 A 
ATOM     60  C   UNL A   1      38.012  32.068  37.377  1.00  0.00     0.002 A 
ATOM     61  C   UNL A   1      39.393  33.922  36.639  1.00  0.00     0.091 A 
ATOM     62  F   UNL A   1      40.600  33.731  34.588  1.00  0.00    -0.205 F 
ATOM     63  C   UNL A   1      38.511  33.353  37.573  1.00  0.00     0.022 A 
BRANCH  61  64
ATOM     64  S   UNL A   1      40.008  35.569  37.011  1.00  0.00     0.127 S 
ATOM     65  O   UNL A   1      39.292  35.876  38.248  1.00  0.00    -0.237 OA
ATOM     66  O   UNL A   1      41.441  35.328  37.179  1.00  0.00    -0.237 OA
ATOM     67  O   UNL A   1      39.654  36.401  35.871  1.00  0.00    -0.744 OA
ENDBRANCH  61  64
ENDBRANCH  43  57
BRANCH  44  68
ATOM     68  C   UNL A   1      42.422  26.536  27.484  1.00  0.00     0.023 A 
ATOM     69  C   UNL A   1      43.279  27.115  26.530  1.00  0.00     0.012 A 
ATOM     70  C   UNL A   1      42.086  25.173  27.376  1.00  0.00     0.148 A 
ATOM     71  C   UNL A   1      43.797  26.348  25.486  1.00  0.00     0.002 A 
ATOM     72  C   UNL A   1      42.633  24.407  26.354  1.00  0.00     0.091 A 
ATOM     73  F   UNL A   1      41.276  24.647  28.306  1.00  0.00    -0.205 F 
ATOM     74  C   UNL A   1      43.484  24.993  25.405  1.00  0.00     0.022 A 
BRANCH  72  75
ATOM     75  S   UNL A   1      42.361  22.637  26.218  1.00  0.00     0.127 S 
ATOM     76  O   UNL A   1      42.945  22.150  27.466  1.00  0.00    -0.237 OA
ATOM     77  O   UNL A   1      40.902  22.565  26.150  1.00  0.00    -0.237 OA
ATOM     78  O   UNL A   1      43.048  22.221  25.004  1.00  0.00    -0.744 OA
ENDBRANCH  72  75
ENDBRANCH  44  68
BRANCH  56  79
ATOM     79  C   UNL A   1      44.676  27.342  34.067  1.00  0.00     0.023 A 
ATOM     80  C   UNL A   1      45.881  28.065  34.121  1.00  0.00     0.012 A 
ATOM     81  C   UNL A   1      44.512  26.190  34.861  1.00  0.00     0.148 A 
ATOM     82  C   UNL A   1      46.915  27.645  34.956  1.00  0.00     0.002 A 
ATOM     83  C   UNL A   1      45.533  25.796  35.714  1.00  0.00     0.091 A 
ATOM     84  F   UNL A   1      43.349  25.526  34.788  1.00  0.00    -0.205 F 
ATOM     85  C   UNL A   1      46.735  26.521  35.762  1.00  0.00     0.022 A 
BRANCH  83  86
ATOM     86  S   UNL A   1      45.375  24.401  36.833  1.00  0.00     0.127 S 
ATOM     87  O   UNL A   1      45.010  23.324  35.913  1.00  0.00    -0.237 OA
ATOM     88  O   UNL A   1      46.723  24.299  37.391  1.00  0.00    -0.237 OA
ATOM     89  O   UNL A   1      44.341  24.764  37.793  1.00  0.00    -0.744 OA
ENDBRANCH  83  86
ENDBRANCH  56  79
ENDBRANCH  30  31
ENDBRANCH  23  25
ENDBRANCH  22  23
ENDBRANCH   1  22
TORSDOF 16
ENDMDL
