MODEL 1
REMARK VINA RESULT:     -11.8      0.000      0.000
REMARK SMILES CC(C)c1nc(N2C[C@H](C)OC(C)(C)C2)sc1C(=O)OCCOC(=O)c1ccc(-c2c3nc(c(-c4cccc(S(=O)(=O)[O-])c4F)c4ccc([nH]4)c(-c4cccc(S(=O)(=O)[O-])c4F)c4nc(c(-c5cccc(S(=O)(=O)[O-])c5F)c5ccc2[nH]5)C=C4)C=C3)cc1
REMARK SMILES IDX 22 1 21 2 20 3 18 4 19 5 17 6 4 7 5 8 6 9 16 10 2 11 1 12
REMARK SMILES IDX 3 13 7 14 8 15 15 16 9 17 12 18 11 19 10 20 13 21 14 22
REMARK SMILES IDX 23 23 24 24 25 25 26 26 27 27 88 28 28 29 87 30 29 31 30 32
REMARK SMILES IDX 31 33 81 34 32 35 86 36 80 37 82 38 33 39 85 40 79 41 78 42
REMARK SMILES IDX 34 44 66 45 46 46 65 47 47 48 50 49 64 50 83 51 48 52 49 53
REMARK SMILES IDX 63 55 84 56 51 57 35 58 36 59 44 60 37 61 39 62 45 63 38 64
REMARK SMILES IDX 40 65 41 66 42 67 43 68 67 69 68 70 76 71 69 72 71 73 77 74
REMARK SMILES IDX 70 75 72 76 73 77 74 78 75 79 52 80 53 81 61 82 54 83 56 84
REMARK SMILES IDX 62 85 55 86 57 87 58 88 59 89 60 90
REMARK H PARENT 82 43 50 54
REMARK Flexibility Score: inf
ROOT
ATOM      1  C   UNL A   1      31.847  29.982  26.612  1.00  0.00     0.275 C 
ENDROOT
BRANCH   1   2
ATOM      2  C   UNL A   1      31.800  28.703  27.456  1.00  0.00     0.275 C 
BRANCH   2   3
ATOM      3  O   UNL A   1      32.509  27.631  26.803  1.00  0.00    -0.458 OA
BRANCH   3   4
ATOM      4  C   UNL A   1      31.787  26.579  26.326  1.00  0.00     0.350 C 
ATOM      5  O   UNL A   1      30.593  26.428  26.541  1.00  0.00    -0.245 OA
BRANCH   4   6
ATOM      6  C   UNL A   1      32.611  25.739  25.475  1.00  0.00     0.137 A 
ATOM      7  C   UNL A   1      33.074  25.861  24.170  1.00  0.00     0.071 A 
ATOM      8  N   UNL A   1      33.705  24.715  23.680  1.00  0.00    -0.224 NA
ATOM      9  C   UNL A   1      33.739  23.767  24.585  1.00  0.00     0.186 A 
ATOM     10  S   UNL A   1      33.238  24.273  26.141  1.00  0.00    -0.089 S 
BRANCH   7  11
ATOM     11  C   UNL A   1      33.060  27.049  23.240  1.00  0.00     0.034 C 
ATOM     12  C   UNL A   1      31.665  27.518  22.839  1.00  0.00     0.014 C 
ATOM     13  C   UNL A   1      33.946  28.188  23.749  1.00  0.00     0.014 C 
ENDBRANCH   7  11
BRANCH   9  14
ATOM     14  N   UNL A   1      34.224  22.530  24.357  1.00  0.00    -0.343 N 
ATOM     15  C   UNL A   1      35.653  22.245  24.308  1.00  0.00     0.150 C 
ATOM     16  C   UNL A   1      33.348  21.460  23.915  1.00  0.00     0.153 C 
ATOM     17  C   UNL A   1      35.927  20.945  25.100  1.00  0.00     0.135 C 
ATOM     18  C   UNL A   1      33.668  20.163  24.701  1.00  0.00     0.081 C 
ATOM     19  O   UNL A   1      35.082  19.858  24.665  1.00  0.00    -0.369 OA
ATOM     20  C   UNL A   1      37.369  20.484  24.933  1.00  0.00     0.040 C 
ATOM     21  C   UNL A   1      33.171  20.255  26.151  1.00  0.00     0.044 C 
ATOM     22  C   UNL A   1      32.971  18.983  24.013  1.00  0.00     0.044 C 
ENDBRANCH   9  14
ENDBRANCH   4   6
ENDBRANCH   3   4
ENDBRANCH   2   3
ENDBRANCH   1   2
BRANCH   1  23
ATOM     23  O   UNL A   1      33.204  30.423  26.423  1.00  0.00    -0.458 OA
BRANCH  23  24
ATOM     24  C   UNL A   1      33.585  31.453  27.212  1.00  0.00     0.338 C 
ATOM     25  O   UNL A   1      32.899  32.395  27.576  1.00  0.00    -0.246 OA
BRANCH  24  26
ATOM     26  C   UNL A   1      34.917  31.173  27.767  1.00  0.00     0.060 A 
ATOM     27  C   UNL A   1      35.141  29.872  28.206  1.00  0.00     0.016 A 
ATOM     28  C   UNL A   1      35.898  32.146  27.928  1.00  0.00     0.016 A 
ATOM     29  C   UNL A   1      36.328  29.521  28.830  1.00  0.00     0.010 A 
ATOM     30  C   UNL A   1      37.110  31.792  28.537  1.00  0.00     0.010 A 
ATOM     31  C   UNL A   1      37.327  30.480  29.004  1.00  0.00    -0.014 A 
BRANCH  31  32
ATOM     32  C   UNL A   1      38.571  30.101  29.721  1.00  0.00     0.031 A 
ATOM     33  C   UNL A   1      39.536  29.142  29.085  1.00  0.00     0.074 A 
ATOM     34  C   UNL A   1      38.844  30.642  30.924  1.00  0.00     0.049 A 
ATOM     35  N   UNL A   1      40.630  28.624  29.577  1.00  0.00    -0.248 NA
ATOM     36  C   UNL A   1      39.229  28.703  27.713  1.00  0.00     0.031 C 
ATOM     37  C   UNL A   1      38.004  31.616  31.623  1.00  0.00     0.029 A 
ATOM     38  N   UNL A   1      39.900  30.442  31.778  1.00  0.00    -0.354 N 
ATOM     39  C   UNL A   1      41.109  27.754  28.606  1.00  0.00     0.074 A 
ATOM     40  C   UNL A   1      40.192  27.820  27.489  1.00  0.00     0.031 C 
ATOM     41  C   UNL A   1      38.573  31.925  32.799  1.00  0.00     0.029 A 
ATOM     42  C   UNL A   1      39.782  31.126  32.966  1.00  0.00     0.049 A 
ATOM     43  H   UNL A   1      40.667  29.865  31.562  1.00  0.00     0.167 HD
ATOM     44  C   UNL A   1      42.216  26.974  28.643  1.00  0.00     0.034 A 
ATOM     45  C   UNL A   1      40.539  31.084  34.079  1.00  0.00     0.034 A 
ATOM     46  C   UNL A   1      43.142  26.945  29.742  1.00  0.00     0.049 A 
ATOM     47  C   UNL A   1      41.747  30.187  34.101  1.00  0.00     0.074 A 
ATOM     48  C   UNL A   1      44.314  26.219  29.860  1.00  0.00     0.029 A 
ATOM     49  N   UNL A   1      43.001  27.667  30.918  1.00  0.00    -0.354 N 
ATOM     50  N   UNL A   1      42.223  29.422  33.149  1.00  0.00    -0.248 NA
ATOM     51  C   UNL A   1      42.534  30.163  35.342  1.00  0.00     0.031 C 
ATOM     52  C   UNL A   1      44.862  26.474  31.121  1.00  0.00     0.029 A 
ATOM     53  C   UNL A   1      44.053  27.392  31.773  1.00  0.00     0.049 A 
ATOM     54  H   UNL A   1      42.258  28.284  31.115  1.00  0.00     0.167 HD
ATOM     55  C   UNL A   1      43.383  28.853  33.662  1.00  0.00     0.074 A 
ATOM     56  C   UNL A   1      43.548  29.380  35.002  1.00  0.00     0.031 C 
ATOM     57  C   UNL A   1      44.229  27.965  33.084  1.00  0.00     0.034 A 
BRANCH  44  58
ATOM     58  C   UNL A   1      42.484  26.079  27.461  1.00  0.00     0.023 A 
ATOM     59  C   UNL A   1      43.216  26.561  26.357  1.00  0.00     0.012 A 
ATOM     60  C   UNL A   1      42.053  24.736  27.470  1.00  0.00     0.148 A 
ATOM     61  C   UNL A   1      43.486  25.732  25.268  1.00  0.00     0.002 A 
ATOM     62  C   UNL A   1      42.366  23.905  26.403  1.00  0.00     0.091 A 
ATOM     63  F   UNL A   1      41.340  24.302  28.520  1.00  0.00    -0.205 F 
ATOM     64  C   UNL A   1      43.071  24.403  25.296  1.00  0.00     0.022 A 
BRANCH  62  65
ATOM     65  S   UNL A   1      41.946  22.157  26.380  1.00  0.00     0.127 S 
ATOM     66  O   UNL A   1      42.715  21.685  25.230  1.00  0.00    -0.237 OA
ATOM     67  O   UNL A   1      42.448  21.704  27.678  1.00  0.00    -0.237 OA
ATOM     68  O   UNL A   1      40.499  22.092  26.230  1.00  0.00    -0.744 OA
ENDBRANCH  62  65
ENDBRANCH  44  58
BRANCH  45  69
ATOM     69  C   UNL A   1      40.179  31.916  35.264  1.00  0.00     0.023 A 
ATOM     70  C   UNL A   1      40.800  33.166  35.451  1.00  0.00     0.012 A 
ATOM     71  C   UNL A   1      39.220  31.480  36.198  1.00  0.00     0.148 A 
ATOM     72  C   UNL A   1      40.496  33.951  36.564  1.00  0.00     0.002 A 
ATOM     73  C   UNL A   1      38.877  32.293  37.272  1.00  0.00     0.091 A 
ATOM     74  F   UNL A   1      38.652  30.279  36.013  1.00  0.00    -0.205 F 
ATOM     75  C   UNL A   1      39.528  33.521  37.467  1.00  0.00     0.022 A 
BRANCH  73  76
ATOM     76  S   UNL A   1      37.554  31.876  38.412  1.00  0.00     0.127 S 
ATOM     77  O   UNL A   1      38.192  32.101  39.707  1.00  0.00    -0.237 OA
ATOM     78  O   UNL A   1      36.527  32.856  38.053  1.00  0.00    -0.237 OA
ATOM     79  O   UNL A   1      37.196  30.497  38.115  1.00  0.00    -0.744 OA
ENDBRANCH  73  76
ENDBRANCH  45  69
BRANCH  57  80
ATOM     80  C   UNL A   1      45.439  27.541  33.872  1.00  0.00     0.023 A 
ATOM     81  C   UNL A   1      46.629  28.293  33.799  1.00  0.00     0.012 A 
ATOM     82  C   UNL A   1      45.373  26.434  34.742  1.00  0.00     0.148 A 
ATOM     83  C   UNL A   1      47.745  27.927  34.551  1.00  0.00     0.002 A 
ATOM     84  C   UNL A   1      46.469  26.110  35.531  1.00  0.00     0.091 A 
ATOM     85  F   UNL A   1      44.237  25.722  34.785  1.00  0.00    -0.205 F 
ATOM     86  C   UNL A   1      47.661  26.846  35.425  1.00  0.00     0.022 A 
BRANCH  84  87
ATOM     87  S   UNL A   1      46.420  24.799  36.756  1.00  0.00     0.127 S 
ATOM     88  O   UNL A   1      46.126  23.629  35.929  1.00  0.00    -0.237 OA
ATOM     89  O   UNL A   1      47.777  24.834  37.301  1.00  0.00    -0.237 OA
ATOM     90  O   UNL A   1      45.377  25.171  37.703  1.00  0.00    -0.744 OA
ENDBRANCH  84  87
ENDBRANCH  57  80
ENDBRANCH  31  32
ENDBRANCH  24  26
ENDBRANCH  23  24
ENDBRANCH   1  23
TORSDOF 16
ENDMDL
MODEL 2
REMARK VINA RESULT:     -11.7      5.182     10.178
REMARK SMILES CC(C)c1nc(N2C[C@H](C)OC(C)(C)C2)sc1C(=O)OCCOC(=O)c1ccc(-c2c3nc(c(-c4cccc(S(=O)(=O)[O-])c4F)c4ccc([nH]4)c(-c4cccc(S(=O)(=O)[O-])c4F)c4nc(c(-c5cccc(S(=O)(=O)[O-])c5F)c5ccc2[nH]5)C=C4)C=C3)cc1
REMARK SMILES IDX 22 1 21 2 20 3 18 4 19 5 17 6 4 7 5 8 6 9 16 10 2 11 1 12
REMARK SMILES IDX 3 13 7 14 8 15 15 16 9 17 12 18 11 19 10 20 13 21 14 22
REMARK SMILES IDX 23 23 24 24 25 25 26 26 27 27 88 28 28 29 87 30 29 31 30 32
REMARK SMILES IDX 31 33 81 34 32 35 86 36 80 37 82 38 33 39 85 40 79 41 78 42
REMARK SMILES IDX 34 44 66 45 46 46 65 47 47 48 50 49 64 50 83 51 48 52 49 53
REMARK SMILES IDX 63 55 84 56 51 57 35 58 36 59 44 60 37 61 39 62 45 63 38 64
REMARK SMILES IDX 40 65 41 66 42 67 43 68 67 69 68 70 76 71 69 72 71 73 77 74
REMARK SMILES IDX 70 75 72 76 73 77 74 78 75 79 52 80 53 81 61 82 54 83 56 84
REMARK SMILES IDX 62 85 55 86 57 87 58 88 59 89 60 90
REMARK H PARENT 82 43 50 54
REMARK Flexibility Score: inf
ROOT
ATOM      1  C   UNL A   1      36.857  20.573  24.979  1.00  0.00     0.275 C 
ENDROOT
BRANCH   1   2
ATOM      2  C   UNL A   1      35.342  20.696  25.174  1.00  0.00     0.275 C 
BRANCH   2   3
ATOM      3  O   UNL A   1      34.995  21.994  25.698  1.00  0.00    -0.458 OA
BRANCH   3   4
ATOM      4  C   UNL A   1      33.755  22.160  26.237  1.00  0.00     0.350 C 
ATOM      5  O   UNL A   1      33.359  21.548  27.218  1.00  0.00    -0.245 OA
BRANCH   4   6
ATOM      6  C   UNL A   1      33.033  23.210  25.542  1.00  0.00     0.137 A 
ATOM      7  C   UNL A   1      32.821  23.498  24.198  1.00  0.00     0.071 A 
ATOM      8  N   UNL A   1      32.200  24.728  23.970  1.00  0.00    -0.224 NA
ATOM      9  C   UNL A   1      31.931  25.342  25.097  1.00  0.00     0.186 A 
ATOM     10  S   UNL A   1      32.185  24.380  26.490  1.00  0.00    -0.089 S 
BRANCH   7  11
ATOM     11  C   UNL A   1      33.093  22.664  22.970  1.00  0.00     0.034 C 
ATOM     12  C   UNL A   1      32.153  21.475  22.796  1.00  0.00     0.014 C 
ATOM     13  C   UNL A   1      33.206  23.521  21.707  1.00  0.00     0.014 C 
ENDBRANCH   7  11
BRANCH   9  14
ATOM     14  N   UNL A   1      31.399  26.578  25.169  1.00  0.00    -0.343 N 
ATOM     15  C   UNL A   1      31.607  27.456  26.314  1.00  0.00     0.150 C 
ATOM     16  C   UNL A   1      30.396  27.011  24.212  1.00  0.00     0.153 C 
ATOM     17  C   UNL A   1      31.916  28.881  25.798  1.00  0.00     0.135 C 
ATOM     18  C   UNL A   1      30.713  28.451  23.738  1.00  0.00     0.081 C 
ATOM     19  O   UNL A   1      30.921  29.343  24.859  1.00  0.00    -0.369 OA
ATOM     20  C   UNL A   1      31.956  29.891  26.938  1.00  0.00     0.040 C 
ATOM     21  C   UNL A   1      31.925  28.474  22.796  1.00  0.00     0.044 C 
ATOM     22  C   UNL A   1      29.494  29.005  22.989  1.00  0.00     0.044 C 
ENDBRANCH   9  14
ENDBRANCH   4   6
ENDBRANCH   3   4
ENDBRANCH   2   3
ENDBRANCH   1   2
BRANCH   1  23
ATOM     23  O   UNL A   1      37.556  21.575  25.739  1.00  0.00    -0.458 OA
BRANCH  23  24
ATOM     24  C   UNL A   1      38.819  21.246  26.091  1.00  0.00     0.338 C 
ATOM     25  O   UNL A   1      39.404  20.203  25.847  1.00  0.00    -0.246 OA
BRANCH  24  26
ATOM     26  C   UNL A   1      39.494  22.430  26.644  1.00  0.00     0.060 A 
ATOM     27  C   UNL A   1      39.116  23.658  26.113  1.00  0.00     0.016 A 
ATOM     28  C   UNL A   1      40.509  22.358  27.593  1.00  0.00     0.016 A 
ATOM     29  C   UNL A   1      39.752  24.830  26.494  1.00  0.00     0.010 A 
ATOM     30  C   UNL A   1      41.140  23.542  28.001  1.00  0.00     0.010 A 
ATOM     31  C   UNL A   1      40.775  24.784  27.444  1.00  0.00    -0.014 A 
BRANCH  31  32
ATOM     32  C   UNL A   1      41.480  26.040  27.803  1.00  0.00     0.031 A 
ATOM     33  C   UNL A   1      40.771  27.090  28.607  1.00  0.00     0.074 A 
ATOM     34  C   UNL A   1      42.763  26.219  27.432  1.00  0.00     0.049 A 
ATOM     35  N   UNL A   1      41.180  28.283  28.952  1.00  0.00    -0.248 NA
ATOM     36  C   UNL A   1      39.418  26.759  29.088  1.00  0.00     0.031 C 
ATOM     37  C   UNL A   1      43.570  25.252  26.684  1.00  0.00     0.029 A 
ATOM     38  N   UNL A   1      43.612  27.281  27.623  1.00  0.00    -0.354 N 
ATOM     39  C   UNL A   1      40.119  28.867  29.632  1.00  0.00     0.074 A 
ATOM     40  C   UNL A   1      39.048  27.894  29.662  1.00  0.00     0.031 C 
ATOM     41  C   UNL A   1      44.792  25.766  26.477  1.00  0.00     0.029 A 
ATOM     42  C   UNL A   1      44.837  27.119  27.019  1.00  0.00     0.049 A 
ATOM     43  H   UNL A   1      43.368  28.080  28.143  1.00  0.00     0.167 HD
ATOM     44  C   UNL A   1      40.048  30.102  30.185  1.00  0.00     0.034 A 
ATOM     45  C   UNL A   1      45.864  27.978  26.881  1.00  0.00     0.034 A 
ATOM     46  C   UNL A   1      41.132  31.047  30.183  1.00  0.00     0.049 A 
ATOM     47  C   UNL A   1      45.746  29.353  27.481  1.00  0.00     0.074 A 
ATOM     48  C   UNL A   1      41.174  32.308  30.751  1.00  0.00     0.029 A 
ATOM     49  N   UNL A   1      42.364  30.839  29.580  1.00  0.00    -0.354 N 
ATOM     50  N   UNL A   1      44.762  29.866  28.180  1.00  0.00    -0.248 NA
ATOM     51  C   UNL A   1      46.886  30.261  27.293  1.00  0.00     0.031 C 
ATOM     52  C   UNL A   1      42.417  32.877  30.459  1.00  0.00     0.029 A 
ATOM     53  C   UNL A   1      43.166  31.954  29.747  1.00  0.00     0.049 A 
ATOM     54  H   UNL A   1      42.627  30.019  29.103  1.00  0.00     0.167 HD
ATOM     55  C   UNL A   1      45.178  31.141  28.544  1.00  0.00     0.074 A 
ATOM     56  C   UNL A   1      46.512  31.314  28.006  1.00  0.00     0.031 C 
ATOM     57  C   UNL A   1      44.512  32.090  29.248  1.00  0.00     0.034 A 
BRANCH  44  58
ATOM     58  C   UNL A   1      38.749  30.508  30.832  1.00  0.00     0.023 A 
ATOM     59  C   UNL A   1      38.555  30.316  32.214  1.00  0.00     0.012 A 
ATOM     60  C   UNL A   1      37.738  31.131  30.073  1.00  0.00     0.148 A 
ATOM     61  C   UNL A   1      37.363  30.708  32.825  1.00  0.00     0.002 A 
ATOM     62  C   UNL A   1      36.574  31.561  30.696  1.00  0.00     0.091 A 
ATOM     63  F   UNL A   1      37.932  31.286  28.755  1.00  0.00    -0.205 F 
ATOM     64  C   UNL A   1      36.379  31.339  32.069  1.00  0.00     0.022 A 
BRANCH  62  65
ATOM     65  S   UNL A   1      35.281  32.455  29.826  1.00  0.00     0.127 S 
ATOM     66  O   UNL A   1      36.020  33.601  29.298  1.00  0.00    -0.237 OA
ATOM     67  O   UNL A   1      34.861  31.482  28.817  1.00  0.00    -0.237 OA
ATOM     68  O   UNL A   1      34.269  32.774  30.823  1.00  0.00    -0.744 OA
ENDBRANCH  62  65
ENDBRANCH  44  58
BRANCH  45  69
ATOM     69  C   UNL A   1      47.096  27.566  26.146  1.00  0.00     0.023 A 
ATOM     70  C   UNL A   1      48.118  26.880  26.830  1.00  0.00     0.012 A 
ATOM     71  C   UNL A   1      47.253  27.841  24.774  1.00  0.00     0.148 A 
ATOM     72  C   UNL A   1      49.288  26.505  26.168  1.00  0.00     0.002 A 
ATOM     73  C   UNL A   1      48.394  27.411  24.106  1.00  0.00     0.091 A 
ATOM     74  F   UNL A   1      46.277  28.510  24.143  1.00  0.00    -0.205 F 
ATOM     75  C   UNL A   1      49.421  26.759  24.806  1.00  0.00     0.022 A 
BRANCH  73  76
ATOM     76  S   UNL A   1      48.594  27.584  22.330  1.00  0.00     0.127 S 
ATOM     77  O   UNL A   1      48.643  26.190  21.896  1.00  0.00    -0.237 OA
ATOM     78  O   UNL A   1      47.373  28.302  21.959  1.00  0.00    -0.237 OA
ATOM     79  O   UNL A   1      49.819  28.348  22.143  1.00  0.00    -0.744 OA
ENDBRANCH  73  76
ENDBRANCH  45  69
BRANCH  57  80
ATOM     80  C   UNL A   1      45.230  33.384  29.525  1.00  0.00     0.023 A 
ATOM     81  C   UNL A   1      46.028  33.515  30.679  1.00  0.00     0.012 A 
ATOM     82  C   UNL A   1      45.169  34.446  28.601  1.00  0.00     0.148 A 
ATOM     83  C   UNL A   1      46.723  34.698  30.928  1.00  0.00     0.002 A 
ATOM     84  C   UNL A   1      45.909  35.600  28.827  1.00  0.00     0.091 A 
ATOM     85  F   UNL A   1      44.390  34.307  27.518  1.00  0.00    -0.205 F 
ATOM     86  C   UNL A   1      46.674  35.733  29.996  1.00  0.00     0.022 A 
BRANCH  84  87
ATOM     87  S   UNL A   1      45.987  36.941  27.636  1.00  0.00     0.127 S 
ATOM     88  O   UNL A   1      44.585  37.350  27.556  1.00  0.00    -0.237 OA
ATOM     89  O   UNL A   1      46.863  37.901  28.309  1.00  0.00    -0.237 OA
ATOM     90  O   UNL A   1      46.540  36.367  26.417  1.00  0.00    -0.744 OA
ENDBRANCH  84  87
ENDBRANCH  57  80
ENDBRANCH  31  32
ENDBRANCH  24  26
ENDBRANCH  23  24
ENDBRANCH   1  23
TORSDOF 16
ENDMDL
MODEL 3
REMARK VINA RESULT:     -11.7      1.404      1.712
REMARK SMILES CC(C)c1nc(N2C[C@H](C)OC(C)(C)C2)sc1C(=O)OCCOC(=O)c1ccc(-c2c3nc(c(-c4cccc(S(=O)(=O)[O-])c4F)c4ccc([nH]4)c(-c4cccc(S(=O)(=O)[O-])c4F)c4nc(c(-c5cccc(S(=O)(=O)[O-])c5F)c5ccc2[nH]5)C=C4)C=C3)cc1
REMARK SMILES IDX 22 1 21 2 20 3 18 4 19 5 17 6 4 7 5 8 6 9 16 10 2 11 1 12
REMARK SMILES IDX 3 13 7 14 8 15 15 16 9 17 12 18 11 19 10 20 13 21 14 22
REMARK SMILES IDX 23 23 24 24 25 25 26 26 27 27 88 28 28 29 87 30 29 31 30 32
REMARK SMILES IDX 31 33 81 34 32 35 86 36 80 37 82 38 33 39 85 40 79 41 78 42
REMARK SMILES IDX 34 44 66 45 46 46 65 47 47 48 50 49 64 50 83 51 48 52 49 53
REMARK SMILES IDX 63 55 84 56 51 57 35 58 36 59 44 60 37 61 39 62 45 63 38 64
REMARK SMILES IDX 40 65 41 66 42 67 43 68 67 69 68 70 76 71 69 72 71 73 77 74
REMARK SMILES IDX 70 75 72 76 73 77 74 78 75 79 52 80 53 81 61 82 54 83 56 84
REMARK SMILES IDX 62 85 55 86 57 87 58 88 59 89 60 90
REMARK H PARENT 82 43 50 54
REMARK Flexibility Score: inf
ROOT
ATOM      1  C   UNL A   1      31.728  30.398  25.813  1.00  0.00     0.275 C 
ENDROOT
BRANCH   1   2
ATOM      2  C   UNL A   1      32.450  29.305  25.018  1.00  0.00     0.275 C 
BRANCH   2   3
ATOM      3  O   UNL A   1      32.945  28.274  25.896  1.00  0.00    -0.458 OA
BRANCH   3   4
ATOM      4  C   UNL A   1      32.189  27.152  26.062  1.00  0.00     0.350 C 
ATOM      5  O   UNL A   1      31.229  27.092  26.816  1.00  0.00    -0.245 OA
BRANCH   4   6
ATOM      6  C   UNL A   1      32.634  26.101  25.164  1.00  0.00     0.137 A 
ATOM      7  C   UNL A   1      32.349  25.789  23.840  1.00  0.00     0.071 A 
ATOM      8  N   UNL A   1      32.874  24.566  23.417  1.00  0.00    -0.224 NA
ATOM      9  C   UNL A   1      33.550  23.981  24.377  1.00  0.00     0.186 A 
ATOM     10  S   UNL A   1      33.797  24.967  25.753  1.00  0.00    -0.089 S 
BRANCH   7  11
ATOM     11  C   UNL A   1      31.629  26.592  22.785  1.00  0.00     0.034 C 
ATOM     12  C   UNL A   1      31.779  26.047  21.367  1.00  0.00     0.014 C 
ATOM     13  C   UNL A   1      30.171  26.863  23.165  1.00  0.00     0.014 C 
ENDBRANCH   7  11
BRANCH   9  14
ATOM     14  N   UNL A   1      34.102  22.756  24.266  1.00  0.00    -0.343 N 
ATOM     15  C   UNL A   1      35.542  22.550  24.174  1.00  0.00     0.150 C 
ATOM     16  C   UNL A   1      33.276  21.592  23.996  1.00  0.00     0.153 C 
ATOM     17  C   UNL A   1      35.934  21.370  25.094  1.00  0.00     0.135 C 
ATOM     18  C   UNL A   1      33.713  20.418  24.907  1.00  0.00     0.081 C 
ATOM     19  O   UNL A   1      35.141  20.192  24.831  1.00  0.00    -0.369 OA
ATOM     20  C   UNL A   1      37.393  20.976  24.904  1.00  0.00     0.040 C 
ATOM     21  C   UNL A   1      33.278  20.649  26.361  1.00  0.00     0.044 C 
ATOM     22  C   UNL A   1      33.062  19.127  24.396  1.00  0.00     0.044 C 
ENDBRANCH   9  14
ENDBRANCH   4   6
ENDBRANCH   3   4
ENDBRANCH   2   3
ENDBRANCH   1   2
BRANCH   1  23
ATOM     23  O   UNL A   1      32.367  30.615  27.085  1.00  0.00    -0.458 OA
BRANCH  23  24
ATOM     24  C   UNL A   1      33.085  31.758  27.175  1.00  0.00     0.338 C 
ATOM     25  O   UNL A   1      32.693  32.893  26.960  1.00  0.00    -0.246 OA
BRANCH  24  26
ATOM     26  C   UNL A   1      34.388  31.465  27.790  1.00  0.00     0.060 A 
ATOM     27  C   UNL A   1      34.585  30.159  28.226  1.00  0.00     0.016 A 
ATOM     28  C   UNL A   1      35.365  32.432  28.008  1.00  0.00     0.016 A 
ATOM     29  C   UNL A   1      35.738  29.796  28.902  1.00  0.00     0.010 A 
ATOM     30  C   UNL A   1      36.545  32.065  28.671  1.00  0.00     0.010 A 
ATOM     31  C   UNL A   1      36.733  30.747  29.134  1.00  0.00    -0.014 A 
BRANCH  31  32
ATOM     32  C   UNL A   1      37.939  30.354  29.906  1.00  0.00     0.031 A 
ATOM     33  C   UNL A   1      38.940  29.415  29.298  1.00  0.00     0.074 A 
ATOM     34  C   UNL A   1      38.146  30.866  31.135  1.00  0.00     0.049 A 
ATOM     35  N   UNL A   1      40.010  28.888  29.834  1.00  0.00    -0.248 NA
ATOM     36  C   UNL A   1      38.709  29.010  27.901  1.00  0.00     0.031 C 
ATOM     37  C   UNL A   1      37.266  31.819  31.813  1.00  0.00     0.029 A 
ATOM     38  N   UNL A   1      39.157  30.648  32.038  1.00  0.00    -0.354 N 
ATOM     39  C   UNL A   1      40.543  28.045  28.868  1.00  0.00     0.074 A 
ATOM     40  C   UNL A   1      39.686  28.136  27.706  1.00  0.00     0.031 C 
ATOM     41  C   UNL A   1      37.771  32.101  33.024  1.00  0.00     0.029 A 
ATOM     42  C   UNL A   1      38.973  31.302  33.235  1.00  0.00     0.049 A 
ATOM     43  H   UNL A   1      39.937  30.080  31.848  1.00  0.00     0.167 HD
ATOM     44  C   UNL A   1      41.650  27.268  28.943  1.00  0.00     0.034 A 
ATOM     45  C   UNL A   1      39.671  31.234  34.384  1.00  0.00     0.034 A 
ATOM     46  C   UNL A   1      42.518  27.214  30.089  1.00  0.00     0.049 A 
ATOM     47  C   UNL A   1      40.880  30.341  34.448  1.00  0.00     0.074 A 
ATOM     48  C   UNL A   1      43.685  26.490  30.250  1.00  0.00     0.029 A 
ATOM     49  N   UNL A   1      42.311  27.906  31.273  1.00  0.00    -0.354 N 
ATOM     50  N   UNL A   1      41.409  29.602  33.503  1.00  0.00    -0.248 NA
ATOM     51  C   UNL A   1      41.601  30.289  35.727  1.00  0.00     0.031 C 
ATOM     52  C   UNL A   1      44.164  26.715  31.544  1.00  0.00     0.029 A 
ATOM     53  C   UNL A   1      43.319  27.613  32.175  1.00  0.00     0.049 A 
ATOM     54  H   UNL A   1      41.557  28.515  31.446  1.00  0.00     0.167 HD
ATOM     55  C   UNL A   1      42.544  29.024  34.063  1.00  0.00     0.074 A 
ATOM     56  C   UNL A   1      42.635  29.517  35.422  1.00  0.00     0.031 C 
ATOM     57  C   UNL A   1      43.422  28.153  33.508  1.00  0.00     0.034 A 
BRANCH  44  58
ATOM     58  C   UNL A   1      41.984  26.404  27.755  1.00  0.00     0.023 A 
ATOM     59  C   UNL A   1      42.730  26.931  26.682  1.00  0.00     0.012 A 
ATOM     60  C   UNL A   1      41.602  25.047  27.730  1.00  0.00     0.148 A 
ATOM     61  C   UNL A   1      43.061  26.131  25.587  1.00  0.00     0.002 A 
ATOM     62  C   UNL A   1      41.975  24.246  26.659  1.00  0.00     0.091 A 
ATOM     63  F   UNL A   1      40.875  24.569  28.750  1.00  0.00    -0.205 F 
ATOM     64  C   UNL A   1      42.693  24.788  25.581  1.00  0.00     0.022 A 
BRANCH  62  65
ATOM     65  S   UNL A   1      41.619  22.485  26.595  1.00  0.00     0.127 S 
ATOM     66  O   UNL A   1      42.281  22.096  25.350  1.00  0.00    -0.237 OA
ATOM     67  O   UNL A   1      42.270  21.997  27.811  1.00  0.00    -0.237 OA
ATOM     68  O   UNL A   1      40.168  22.367  26.590  1.00  0.00    -0.744 OA
ENDBRANCH  62  65
ENDBRANCH  44  58
BRANCH  45  69
ATOM     69  C   UNL A   1      39.245  32.035  35.569  1.00  0.00     0.023 A 
ATOM     70  C   UNL A   1      38.360  31.473  36.509  1.00  0.00     0.012 A 
ATOM     71  C   UNL A   1      39.721  33.345  35.774  1.00  0.00     0.148 A 
ATOM     72  C   UNL A   1      37.931  32.211  37.612  1.00  0.00     0.002 A 
ATOM     73  C   UNL A   1      39.337  34.054  36.907  1.00  0.00     0.091 A 
ATOM     74  F   UNL A   1      40.549  33.871  34.859  1.00  0.00    -0.205 F 
ATOM     75  C   UNL A   1      38.428  33.495  37.817  1.00  0.00     0.022 A 
BRANCH  73  76
ATOM     76  S   UNL A   1      40.024  35.662  37.315  1.00  0.00     0.127 S 
ATOM     77  O   UNL A   1      39.654  36.452  36.144  1.00  0.00    -0.237 OA
ATOM     78  O   UNL A   1      39.295  35.997  38.540  1.00  0.00    -0.237 OA
ATOM     79  O   UNL A   1      41.451  35.445  37.507  1.00  0.00    -0.744 OA
ENDBRANCH  73  76
ENDBRANCH  45  69
BRANCH  57  80
ATOM     80  C   UNL A   1      44.592  27.714  34.348  1.00  0.00     0.023 A 
ATOM     81  C   UNL A   1      45.800  28.438  34.311  1.00  0.00     0.012 A 
ATOM     82  C   UNL A   1      44.467  26.621  35.229  1.00  0.00     0.148 A 
ATOM     83  C   UNL A   1      46.877  28.059  35.110  1.00  0.00     0.002 A 
ATOM     84  C   UNL A   1      45.525  26.284  36.063  1.00  0.00     0.091 A 
ATOM     85  F   UNL A   1      43.314  25.935  35.237  1.00  0.00    -0.205 F 
ATOM     86  C   UNL A   1      46.735  26.992  35.995  1.00  0.00     0.022 A 
BRANCH  84  87
ATOM     87  S   UNL A   1      45.398  24.991  37.303  1.00  0.00     0.127 S 
ATOM     88  O   UNL A   1      46.747  24.987  37.867  1.00  0.00    -0.237 OA
ATOM     89  O   UNL A   1      44.366  25.519  38.196  1.00  0.00    -0.237 OA
ATOM     90  O   UNL A   1      45.017  23.781  36.587  1.00  0.00    -0.744 OA
ENDBRANCH  84  87
ENDBRANCH  57  80
ENDBRANCH  31  32
ENDBRANCH  24  26
ENDBRANCH  23  24
ENDBRANCH   1  23
TORSDOF 16
ENDMDL
