MODEL 1
REMARK VINA RESULT:     -11.4      0.000      0.000
REMARK SMILES CCC(CC)(CC(=O)Nc1ccc(F)c(F)c1)C(=O)OCCOC(=O)c1ccc(-c2c3nc(c(-c4cccc(S(=O)(=O)[O-])c4F)c4ccc([nH]4)c(-c4cccc(S(=O)(=O)[O-])c4F)c4nc(c(-c5cccc(S(=O)(=O)[O-])c5F)c5ccc2[nH]5)C=C4)C=C3)cc1
REMARK SMILES IDX 21 1 20 2 18 3 19 4 3 5 2 6 1 7 4 8 5 9 6 10 7 11 8 12 9 13
REMARK SMILES IDX 10 15 11 16 17 17 12 18 15 19 13 20 16 21 14 22 22 23 23 24
REMARK SMILES IDX 24 25 25 26 26 27 27 28 88 29 28 30 87 31 29 32 30 33 31 34
REMARK SMILES IDX 81 35 32 36 86 37 80 38 82 39 33 40 85 41 79 42 78 43 34 45
REMARK SMILES IDX 66 46 46 47 65 48 47 49 50 50 64 51 83 52 48 53 49 54 63 56
REMARK SMILES IDX 84 57 51 58 35 59 36 60 44 61 37 62 39 63 45 64 38 65 40 66
REMARK SMILES IDX 41 67 42 68 43 69 67 70 68 71 76 72 69 73 71 74 77 75 70 76
REMARK SMILES IDX 72 77 73 78 74 79 75 80 52 81 53 82 61 83 54 84 56 85 62 86
REMARK SMILES IDX 55 87 57 88 58 89 59 90 60 91
REMARK H PARENT 9 14 82 44 50 55
REMARK Flexibility Score: inf
ROOT
ATOM      1  C   UNL A   1      31.627  27.738  26.624  1.00  0.00     0.274 C 
ENDROOT
BRANCH   1   2
ATOM      2  O   UNL A   1      31.246  26.466  26.058  1.00  0.00    -0.462 OA
BRANCH   2   3
ATOM      3  C   UNL A   1      32.294  25.729  25.603  1.00  0.00     0.312 C 
ATOM      4  O   UNL A   1      33.458  25.930  25.939  1.00  0.00    -0.252 OA
BRANCH   3   5
ATOM      5  C   UNL A   1      31.915  24.732  24.496  1.00  0.00     0.076 C 
BRANCH   5   6
ATOM      6  C   UNL A   1      33.228  24.151  23.899  1.00  0.00     0.016 C 
ATOM      7  C   UNL A   1      33.150  23.136  22.766  1.00  0.00     0.005 C 
ENDBRANCH   5   6
BRANCH   5   8
ATOM      8  C   UNL A   1      31.133  25.562  23.438  1.00  0.00     0.016 C 
ATOM      9  C   UNL A   1      31.959  26.585  22.667  1.00  0.00     0.005 C 
ENDBRANCH   5   8
BRANCH   5  10
ATOM     10  C   UNL A   1      31.043  23.534  24.977  1.00  0.00     0.119 C 
BRANCH  10  11
ATOM     11  C   UNL A   1      31.124  23.024  26.417  1.00  0.00     0.225 C 
ATOM     12  O   UNL A   1      30.316  23.402  27.265  1.00  0.00    -0.275 OA
ATOM     13  N   UNL A   1      31.913  21.930  26.695  1.00  0.00    -0.326 N 
ATOM     14  H   UNL A   1      31.533  21.297  27.346  1.00  0.00     0.169 HD
BRANCH  13  15
ATOM     15  C   UNL A   1      33.177  21.579  26.193  1.00  0.00     0.044 A 
ATOM     16  C   UNL A   1      34.314  22.310  26.532  1.00  0.00     0.029 A 
ATOM     17  C   UNL A   1      33.333  20.397  25.472  1.00  0.00     0.068 A 
ATOM     18  C   UNL A   1      35.582  21.951  26.071  1.00  0.00     0.044 A 
ATOM     19  C   UNL A   1      34.599  20.041  24.999  1.00  0.00     0.160 A 
ATOM     20  C   UNL A   1      35.714  20.822  25.281  1.00  0.00     0.158 A 
ATOM     21  F   UNL A   1      34.729  18.934  24.255  1.00  0.00    -0.204 F 
ATOM     22  F   UNL A   1      36.921  20.485  24.810  1.00  0.00    -0.204 F 
ENDBRANCH  13  15
ENDBRANCH  10  11
ENDBRANCH   5  10
ENDBRANCH   3   5
ENDBRANCH   2   3
ENDBRANCH   1   2
BRANCH   1  23
ATOM     23  C   UNL A   1      31.741  28.849  25.577  1.00  0.00     0.275 C 
BRANCH  23  24
ATOM     24  O   UNL A   1      32.995  29.539  25.688  1.00  0.00    -0.458 OA
BRANCH  24  25
ATOM     25  C   UNL A   1      33.006  30.570  26.563  1.00  0.00     0.338 C 
ATOM     26  O   UNL A   1      32.133  31.424  26.682  1.00  0.00    -0.246 OA
BRANCH  25  27
ATOM     27  C   UNL A   1      34.248  30.575  27.375  1.00  0.00     0.060 A 
ATOM     28  C   UNL A   1      34.978  31.736  27.641  1.00  0.00     0.016 A 
ATOM     29  C   UNL A   1      34.723  29.353  27.851  1.00  0.00     0.016 A 
ATOM     30  C   UNL A   1      36.215  31.660  28.296  1.00  0.00     0.010 A 
ATOM     31  C   UNL A   1      35.912  29.294  28.583  1.00  0.00     0.010 A 
ATOM     32  C   UNL A   1      36.701  30.438  28.784  1.00  0.00    -0.014 A 
BRANCH  32  33
ATOM     33  C   UNL A   1      38.012  30.299  29.495  1.00  0.00     0.031 A 
ATOM     34  C   UNL A   1      39.087  29.414  28.913  1.00  0.00     0.074 A 
ATOM     35  C   UNL A   1      38.223  30.861  30.703  1.00  0.00     0.049 A 
ATOM     36  N   UNL A   1      40.106  28.845  29.504  1.00  0.00    -0.248 NA
ATOM     37  C   UNL A   1      38.978  29.100  27.477  1.00  0.00     0.031 C 
ATOM     38  C   UNL A   1      37.304  31.760  31.397  1.00  0.00     0.029 A 
ATOM     39  N   UNL A   1      39.273  30.714  31.583  1.00  0.00    -0.354 N 
ATOM     40  C   UNL A   1      40.687  28.017  28.548  1.00  0.00     0.074 A 
ATOM     41  C   UNL A   1      39.929  28.189  27.327  1.00  0.00     0.031 C 
ATOM     42  C   UNL A   1      37.820  32.083  32.591  1.00  0.00     0.029 A 
ATOM     43  C   UNL A   1      39.051  31.327  32.796  1.00  0.00     0.049 A 
ATOM     44  H   UNL A   1      40.097  30.221  31.368  1.00  0.00     0.167 HD
ATOM     45  C   UNL A   1      41.749  27.185  28.679  1.00  0.00     0.034 A 
ATOM     46  C   UNL A   1      39.705  31.238  33.972  1.00  0.00     0.034 A 
ATOM     47  C   UNL A   1      42.566  27.096  29.861  1.00  0.00     0.049 A 
ATOM     48  C   UNL A   1      40.906  30.345  34.090  1.00  0.00     0.074 A 
ATOM     49  C   UNL A   1      43.704  26.335  30.065  1.00  0.00     0.029 A 
ATOM     50  N   UNL A   1      42.348  27.808  31.029  1.00  0.00    -0.354 N 
ATOM     51  N   UNL A   1      41.452  29.578  33.179  1.00  0.00    -0.248 NA
ATOM     52  C   UNL A   1      41.585  30.308  35.394  1.00  0.00     0.031 C 
ATOM     53  C   UNL A   1      44.173  26.586  31.359  1.00  0.00     0.029 A 
ATOM     54  C   UNL A   1      43.333  27.510  31.957  1.00  0.00     0.049 A 
ATOM     55  H   UNL A   1      41.603  28.435  31.179  1.00  0.00     0.167 HD
ATOM     56  C   UNL A   1      42.544  28.976  33.792  1.00  0.00     0.074 A 
ATOM     57  C   UNL A   1      42.598  29.487  35.147  1.00  0.00     0.031 C 
ATOM     58  C   UNL A   1      43.409  28.065  33.284  1.00  0.00     0.034 A 
BRANCH  45  59
ATOM     59  C   UNL A   1      42.109  26.310  27.507  1.00  0.00     0.023 A 
ATOM     60  C   UNL A   1      42.851  26.839  26.432  1.00  0.00     0.012 A 
ATOM     61  C   UNL A   1      41.765  24.942  27.498  1.00  0.00     0.148 A 
ATOM     62  C   UNL A   1      43.216  26.031  25.356  1.00  0.00     0.002 A 
ATOM     63  C   UNL A   1      42.168  24.133  26.442  1.00  0.00     0.091 A 
ATOM     64  F   UNL A   1      41.037  24.456  28.514  1.00  0.00    -0.205 F 
ATOM     65  C   UNL A   1      42.886  24.677  25.365  1.00  0.00     0.022 A 
BRANCH  63  66
ATOM     66  S   UNL A   1      41.848  22.365  26.426  1.00  0.00     0.127 S 
ATOM     67  O   UNL A   1      42.259  21.975  27.773  1.00  0.00    -0.237 OA
ATOM     68  O   UNL A   1      40.404  22.304  26.189  1.00  0.00    -0.237 OA
ATOM     69  O   UNL A   1      42.654  21.836  25.334  1.00  0.00    -0.744 OA
ENDBRANCH  63  66
ENDBRANCH  45  59
BRANCH  46  70
ATOM     70  C   UNL A   1      39.201  32.024  35.134  1.00  0.00     0.023 A 
ATOM     71  C   UNL A   1      38.410  31.389  36.108  1.00  0.00     0.012 A 
ATOM     72  C   UNL A   1      39.607  33.360  35.338  1.00  0.00     0.148 A 
ATOM     73  C   UNL A   1      38.039  32.066  37.271  1.00  0.00     0.002 A 
ATOM     74  C   UNL A   1      39.294  34.002  36.529  1.00  0.00     0.091 A 
ATOM     75  F   UNL A   1      40.336  33.954  34.384  1.00  0.00    -0.205 F 
ATOM     76  C   UNL A   1      38.499  33.361  37.492  1.00  0.00     0.022 A 
BRANCH  74  77
ATOM     77  S   UNL A   1      40.005  35.592  36.972  1.00  0.00     0.127 S 
ATOM     78  O   UNL A   1      39.355  35.865  38.252  1.00  0.00    -0.237 OA
ATOM     79  O   UNL A   1      41.431  35.274  37.060  1.00  0.00    -0.237 OA
ATOM     80  O   UNL A   1      39.661  36.493  35.880  1.00  0.00    -0.744 OA
ENDBRANCH  74  77
ENDBRANCH  46  70
BRANCH  58  81
ATOM     81  C   UNL A   1      44.514  27.573  34.181  1.00  0.00     0.023 A 
ATOM     82  C   UNL A   1      45.692  28.334  34.310  1.00  0.00     0.012 A 
ATOM     83  C   UNL A   1      44.352  26.408  34.954  1.00  0.00     0.148 A 
ATOM     84  C   UNL A   1      46.702  27.929  35.183  1.00  0.00     0.002 A 
ATOM     85  C   UNL A   1      45.347  26.031  35.848  1.00  0.00     0.091 A 
ATOM     86  F   UNL A   1      43.230  25.688  34.799  1.00  0.00    -0.205 F 
ATOM     87  C   UNL A   1      46.525  26.786  35.959  1.00  0.00     0.022 A 
BRANCH  85  88
ATOM     88  S   UNL A   1      45.168  24.617  36.943  1.00  0.00     0.127 S 
ATOM     89  O   UNL A   1      43.957  24.965  37.684  1.00  0.00    -0.237 OA
ATOM     90  O   UNL A   1      45.009  23.509  36.001  1.00  0.00    -0.237 OA
ATOM     91  O   UNL A   1      46.392  24.567  37.732  1.00  0.00    -0.744 OA
ENDBRANCH  85  88
ENDBRANCH  58  81
ENDBRANCH  32  33
ENDBRANCH  25  27
ENDBRANCH  24  25
ENDBRANCH  23  24
ENDBRANCH   1  23
TORSDOF 19
ENDMDL
MODEL 2
REMARK VINA RESULT:     -11.3      5.138      9.929
REMARK SMILES CCC(CC)(CC(=O)Nc1ccc(F)c(F)c1)C(=O)OCCOC(=O)c1ccc(-c2c3nc(c(-c4cccc(S(=O)(=O)[O-])c4F)c4ccc([nH]4)c(-c4cccc(S(=O)(=O)[O-])c4F)c4nc(c(-c5cccc(S(=O)(=O)[O-])c5F)c5ccc2[nH]5)C=C4)C=C3)cc1
REMARK SMILES IDX 21 1 20 2 18 3 19 4 3 5 2 6 1 7 4 8 5 9 6 10 7 11 8 12 9 13
REMARK SMILES IDX 10 15 11 16 17 17 12 18 15 19 13 20 16 21 14 22 22 23 23 24
REMARK SMILES IDX 24 25 25 26 26 27 27 28 88 29 28 30 87 31 29 32 30 33 31 34
REMARK SMILES IDX 81 35 32 36 86 37 80 38 82 39 33 40 85 41 79 42 78 43 34 45
REMARK SMILES IDX 66 46 46 47 65 48 47 49 50 50 64 51 83 52 48 53 49 54 63 56
REMARK SMILES IDX 84 57 51 58 35 59 36 60 44 61 37 62 39 63 45 64 38 65 40 66
REMARK SMILES IDX 41 67 42 68 43 69 67 70 68 71 76 72 69 73 71 74 77 75 70 76
REMARK SMILES IDX 72 77 73 78 74 79 75 80 52 81 53 82 61 83 54 84 56 85 62 86
REMARK SMILES IDX 55 87 57 88 58 89 59 90 60 91
REMARK H PARENT 9 14 82 44 50 55
REMARK Flexibility Score: inf
ROOT
ATOM      1  C   UNL A   1      34.608  20.559  25.129  1.00  0.00     0.274 C 
ENDROOT
BRANCH   1   2
ATOM      2  O   UNL A   1      33.828  21.363  24.218  1.00  0.00    -0.462 OA
BRANCH   2   3
ATOM      3  C   UNL A   1      32.766  21.982  24.800  1.00  0.00     0.312 C 
ATOM      4  O   UNL A   1      31.880  21.381  25.401  1.00  0.00    -0.252 OA
BRANCH   3   5
ATOM      5  C   UNL A   1      32.680  23.485  24.492  1.00  0.00     0.076 C 
BRANCH   5   6
ATOM      6  C   UNL A   1      34.129  24.043  24.404  1.00  0.00     0.016 C 
ATOM      7  C   UNL A   1      34.799  24.589  25.658  1.00  0.00     0.005 C 
ENDBRANCH   5   6
BRANCH   5   8
ATOM      8  C   UNL A   1      31.906  24.112  25.687  1.00  0.00     0.016 C 
ATOM      9  C   UNL A   1      30.701  24.968  25.310  1.00  0.00     0.005 C 
ENDBRANCH   5   8
BRANCH   5  10
ATOM     10  C   UNL A   1      31.959  23.831  23.156  1.00  0.00     0.119 C 
BRANCH  10  11
ATOM     11  C   UNL A   1      32.709  24.495  21.999  1.00  0.00     0.225 C 
ATOM     12  O   UNL A   1      33.387  23.824  21.221  1.00  0.00    -0.275 OA
ATOM     13  N   UNL A   1      32.397  25.792  21.658  1.00  0.00    -0.326 N 
ATOM     14  H   UNL A   1      32.383  25.976  20.691  1.00  0.00     0.169 HD
BRANCH  13  15
ATOM     15  C   UNL A   1      32.096  26.892  22.477  1.00  0.00     0.044 A 
ATOM     16  C   UNL A   1      30.802  27.406  22.544  1.00  0.00     0.029 A 
ATOM     17  C   UNL A   1      33.058  27.387  23.356  1.00  0.00     0.068 A 
ATOM     18  C   UNL A   1      30.480  28.476  23.381  1.00  0.00     0.044 A 
ATOM     19  C   UNL A   1      32.742  28.465  24.187  1.00  0.00     0.160 A 
ATOM     20  C   UNL A   1      31.467  29.018  24.188  1.00  0.00     0.158 A 
ATOM     21  F   UNL A   1      33.691  28.973  24.985  1.00  0.00    -0.204 F 
ATOM     22  F   UNL A   1      31.175  30.063  24.974  1.00  0.00    -0.204 F 
ENDBRANCH  13  15
ENDBRANCH  10  11
ENDBRANCH   5  10
ENDBRANCH   3   5
ENDBRANCH   2   3
ENDBRANCH   1   2
BRANCH   1  23
ATOM     23  C   UNL A   1      36.102  20.557  24.795  1.00  0.00     0.275 C 
BRANCH  23  24
ATOM     24  O   UNL A   1      36.808  21.537  25.572  1.00  0.00    -0.458 OA
BRANCH  24  25
ATOM     25  C   UNL A   1      38.129  21.299  25.730  1.00  0.00     0.338 C 
ATOM     26  O   UNL A   1      38.713  20.255  25.453  1.00  0.00    -0.246 OA
BRANCH  25  27
ATOM     27  C   UNL A   1      38.821  22.470  26.323  1.00  0.00     0.060 A 
ATOM     28  C   UNL A   1      38.397  23.786  26.122  1.00  0.00     0.016 A 
ATOM     29  C   UNL A   1      39.973  22.237  27.075  1.00  0.00     0.016 A 
ATOM     30  C   UNL A   1      39.169  24.858  26.593  1.00  0.00     0.010 A 
ATOM     31  C   UNL A   1      40.689  23.306  27.619  1.00  0.00     0.010 A 
ATOM     32  C   UNL A   1      40.325  24.637  27.354  1.00  0.00    -0.014 A 
BRANCH  32  33
ATOM     33  C   UNL A   1      41.184  25.742  27.885  1.00  0.00     0.031 A 
ATOM     34  C   UNL A   1      40.562  26.836  28.720  1.00  0.00     0.074 A 
ATOM     35  C   UNL A   1      42.486  25.849  27.550  1.00  0.00     0.049 A 
ATOM     36  N   UNL A   1      40.992  28.049  28.955  1.00  0.00    -0.248 NA
ATOM     37  C   UNL A   1      39.264  26.530  29.346  1.00  0.00     0.031 C 
ATOM     38  C   UNL A   1      43.249  24.874  26.773  1.00  0.00     0.029 A 
ATOM     39  N   UNL A   1      43.388  26.863  27.786  1.00  0.00    -0.354 N 
ATOM     40  C   UNL A   1      39.970  28.687  29.650  1.00  0.00     0.074 A 
ATOM     41  C   UNL A   1      38.915  27.713  29.834  1.00  0.00     0.031 C 
ATOM     42  C   UNL A   1      44.495  25.331  26.591  1.00  0.00     0.029 A 
ATOM     43  C   UNL A   1      44.590  26.680  27.140  1.00  0.00     0.049 A 
ATOM     44  H   UNL A   1      43.193  27.640  28.358  1.00  0.00     0.167 HD
ATOM     45  C   UNL A   1      39.913  29.969  30.089  1.00  0.00     0.034 A 
ATOM     46  C   UNL A   1      45.626  27.517  26.932  1.00  0.00     0.034 A 
ATOM     47  C   UNL A   1      41.004  30.903  30.000  1.00  0.00     0.049 A 
ATOM     48  C   UNL A   1      45.567  28.920  27.462  1.00  0.00     0.074 A 
ATOM     49  C   UNL A   1      41.067  32.201  30.478  1.00  0.00     0.029 A 
ATOM     50  N   UNL A   1      42.232  30.634  29.416  1.00  0.00    -0.354 N 
ATOM     51  N   UNL A   1      44.604  29.508  28.126  1.00  0.00    -0.248 NA
ATOM     52  C   UNL A   1      46.739  29.776  27.218  1.00  0.00     0.031 C 
ATOM     53  C   UNL A   1      42.333  32.717  30.180  1.00  0.00     0.029 A 
ATOM     54  C   UNL A   1      43.061  31.738  29.525  1.00  0.00     0.049 A 
ATOM     55  H   UNL A   1      42.479  29.783  28.986  1.00  0.00     0.167 HD
ATOM     56  C   UNL A   1      45.053  30.795  28.392  1.00  0.00     0.074 A 
ATOM     57  C   UNL A   1      46.388  30.896  27.837  1.00  0.00     0.031 C 
ATOM     58  C   UNL A   1      44.408  31.810  29.019  1.00  0.00     0.034 A 
BRANCH  45  59
ATOM     59  C   UNL A   1      38.632  30.441  30.726  1.00  0.00     0.023 A 
ATOM     60  C   UNL A   1      38.442  30.304  32.115  1.00  0.00     0.012 A 
ATOM     61  C   UNL A   1      37.638  31.078  29.955  1.00  0.00     0.148 A 
ATOM     62  C   UNL A   1      37.274  30.765  32.721  1.00  0.00     0.002 A 
ATOM     63  C   UNL A   1      36.494  31.572  30.572  1.00  0.00     0.091 A 
ATOM     64  F   UNL A   1      37.818  31.179  28.630  1.00  0.00    -0.205 F 
ATOM     65  C   UNL A   1      36.305  31.408  31.953  1.00  0.00     0.022 A 
BRANCH  63  66
ATOM     66  S   UNL A   1      35.242  32.482  29.658  1.00  0.00     0.127 S 
ATOM     67  O   UNL A   1      34.783  31.479  28.700  1.00  0.00    -0.237 OA
ATOM     68  O   UNL A   1      34.269  32.819  30.699  1.00  0.00    -0.237 OA
ATOM     69  O   UNL A   1      35.935  33.633  29.095  1.00  0.00    -0.744 OA
ENDBRANCH  63  66
ENDBRANCH  45  59
BRANCH  46  70
ATOM     70  C   UNL A   1      46.804  27.023  26.163  1.00  0.00     0.023 A 
ATOM     71  C   UNL A   1      46.906  27.316  24.792  1.00  0.00     0.012 A 
ATOM     72  C   UNL A   1      47.877  26.375  26.812  1.00  0.00     0.148 A 
ATOM     73  C   UNL A   1      48.059  26.982  24.079  1.00  0.00     0.002 A 
ATOM     74  C   UNL A   1      49.048  26.112  26.115  1.00  0.00     0.091 A 
ATOM     75  F   UNL A   1      47.746  26.081  28.113  1.00  0.00    -0.205 F 
ATOM     76  C   UNL A   1      49.137  26.403  24.745  1.00  0.00     0.022 A 
BRANCH  74  77
ATOM     77  S   UNL A   1      50.543  25.545  26.936  1.00  0.00     0.127 S 
ATOM     78  O   UNL A   1      51.458  25.376  25.810  1.00  0.00    -0.237 OA
ATOM     79  O   UNL A   1      50.851  26.673  27.817  1.00  0.00    -0.237 OA
ATOM     80  O   UNL A   1      50.165  24.326  27.638  1.00  0.00    -0.744 OA
ENDBRANCH  74  77
ENDBRANCH  46  70
BRANCH  58  81
ATOM     81  C   UNL A   1      45.139  33.116  29.170  1.00  0.00     0.023 A 
ATOM     82  C   UNL A   1      45.968  33.321  30.289  1.00  0.00     0.012 A 
ATOM     83  C   UNL A   1      45.070  34.103  28.168  1.00  0.00     0.148 A 
ATOM     84  C   UNL A   1      46.703  34.500  30.418  1.00  0.00     0.002 A 
ATOM     85  C   UNL A   1      45.833  35.258  28.285  1.00  0.00     0.091 A 
ATOM     86  F   UNL A   1      44.257  33.895  27.120  1.00  0.00    -0.205 F 
ATOM     87  C   UNL A   1      46.644  35.462  29.413  1.00  0.00     0.022 A 
BRANCH  85  88
ATOM     88  S   UNL A   1      45.879  36.514  27.000  1.00  0.00     0.127 S 
ATOM     89  O   UNL A   1      46.316  35.738  25.841  1.00  0.00    -0.237 OA
ATOM     90  O   UNL A   1      44.485  36.958  26.946  1.00  0.00    -0.237 OA
ATOM     91  O   UNL A   1      46.816  37.527  27.466  1.00  0.00    -0.744 OA
ENDBRANCH  85  88
ENDBRANCH  58  81
ENDBRANCH  32  33
ENDBRANCH  25  27
ENDBRANCH  24  25
ENDBRANCH  23  24
ENDBRANCH   1  23
TORSDOF 19
ENDMDL
MODEL 3
REMARK VINA RESULT:     -11.1      5.316      9.865
REMARK SMILES CCC(CC)(CC(=O)Nc1ccc(F)c(F)c1)C(=O)OCCOC(=O)c1ccc(-c2c3nc(c(-c4cccc(S(=O)(=O)[O-])c4F)c4ccc([nH]4)c(-c4cccc(S(=O)(=O)[O-])c4F)c4nc(c(-c5cccc(S(=O)(=O)[O-])c5F)c5ccc2[nH]5)C=C4)C=C3)cc1
REMARK SMILES IDX 21 1 20 2 18 3 19 4 3 5 2 6 1 7 4 8 5 9 6 10 7 11 8 12 9 13
REMARK SMILES IDX 10 15 11 16 17 17 12 18 15 19 13 20 16 21 14 22 22 23 23 24
REMARK SMILES IDX 24 25 25 26 26 27 27 28 88 29 28 30 87 31 29 32 30 33 31 34
REMARK SMILES IDX 81 35 32 36 86 37 80 38 82 39 33 40 85 41 79 42 78 43 34 45
REMARK SMILES IDX 66 46 46 47 65 48 47 49 50 50 64 51 83 52 48 53 49 54 63 56
REMARK SMILES IDX 84 57 51 58 35 59 36 60 44 61 37 62 39 63 45 64 38 65 40 66
REMARK SMILES IDX 41 67 42 68 43 69 67 70 68 71 76 72 69 73 71 74 77 75 70 76
REMARK SMILES IDX 72 77 73 78 74 79 75 80 52 81 53 82 61 83 54 84 56 85 62 86
REMARK SMILES IDX 55 87 57 88 58 89 59 90 60 91
REMARK H PARENT 9 14 82 44 50 55
REMARK Flexibility Score: inf
ROOT
ATOM      1  C   UNL A   1      35.499  20.411  25.036  1.00  0.00     0.274 C 
ENDROOT
BRANCH   1   2
ATOM      2  O   UNL A   1      34.419  21.302  24.685  1.00  0.00    -0.462 OA
BRANCH   2   3
ATOM      3  C   UNL A   1      33.695  21.738  25.751  1.00  0.00     0.312 C 
ATOM      4  O   UNL A   1      33.655  21.149  26.827  1.00  0.00    -0.252 OA
BRANCH   3   5
ATOM      5  C   UNL A   1      32.794  22.943  25.435  1.00  0.00     0.076 C 
BRANCH   5   6
ATOM      6  C   UNL A   1      31.783  22.513  24.334  1.00  0.00     0.016 C 
ATOM      7  C   UNL A   1      32.164  22.664  22.868  1.00  0.00     0.005 C 
ENDBRANCH   5   6
BRANCH   5   8
ATOM      8  C   UNL A   1      33.751  24.055  24.919  1.00  0.00     0.016 C 
ATOM      9  C   UNL A   1      34.937  24.370  25.824  1.00  0.00     0.005 C 
ENDBRANCH   5   8
BRANCH   5  10
ATOM     10  C   UNL A   1      31.975  23.473  26.649  1.00  0.00     0.119 C 
BRANCH  10  11
ATOM     11  C   UNL A   1      30.447  23.553  26.598  1.00  0.00     0.225 C 
ATOM     12  O   UNL A   1      29.757  22.567  26.856  1.00  0.00    -0.275 OA
ATOM     13  N   UNL A   1      29.844  24.789  26.550  1.00  0.00    -0.326 N 
ATOM     14  H   UNL A   1      29.026  24.875  27.090  1.00  0.00     0.169 HD
BRANCH  13  15
ATOM     15  C   UNL A   1      30.217  25.947  25.849  1.00  0.00     0.044 A 
ATOM     16  C   UNL A   1      31.201  26.802  26.342  1.00  0.00     0.029 A 
ATOM     17  C   UNL A   1      29.717  26.174  24.568  1.00  0.00     0.068 A 
ATOM     18  C   UNL A   1      31.608  27.937  25.638  1.00  0.00     0.044 A 
ATOM     19  C   UNL A   1      30.114  27.315  23.865  1.00  0.00     0.160 A 
ATOM     20  C   UNL A   1      31.040  28.201  24.403  1.00  0.00     0.158 A 
ATOM     21  F   UNL A   1      29.582  27.556  22.659  1.00  0.00    -0.204 F 
ATOM     22  F   UNL A   1      31.403  29.301  23.733  1.00  0.00    -0.204 F 
ENDBRANCH  13  15
ENDBRANCH  10  11
ENDBRANCH   5  10
ENDBRANCH   3   5
ENDBRANCH   2   3
ENDBRANCH   1   2
BRANCH   1  23
ATOM     23  C   UNL A   1      36.877  20.974  24.680  1.00  0.00     0.275 C 
BRANCH  23  24
ATOM     24  O   UNL A   1      37.396  21.786  25.744  1.00  0.00    -0.458 OA
BRANCH  24  25
ATOM     25  C   UNL A   1      38.715  21.624  25.998  1.00  0.00     0.338 C 
ATOM     26  O   UNL A   1      39.369  20.606  25.793  1.00  0.00    -0.246 OA
BRANCH  25  27
ATOM     27  C   UNL A   1      39.302  22.847  26.598  1.00  0.00     0.060 A 
ATOM     28  C   UNL A   1      38.882  24.136  26.264  1.00  0.00     0.016 A 
ATOM     29  C   UNL A   1      40.353  22.691  27.503  1.00  0.00     0.016 A 
ATOM     30  C   UNL A   1      39.567  25.255  26.760  1.00  0.00     0.010 A 
ATOM     31  C   UNL A   1      40.974  23.810  28.065  1.00  0.00     0.010 A 
ATOM     32  C   UNL A   1      40.621  25.111  27.673  1.00  0.00    -0.014 A 
BRANCH  32  33
ATOM     33  C   UNL A   1      41.383  26.270  28.238  1.00  0.00     0.031 A 
ATOM     34  C   UNL A   1      40.653  27.335  29.019  1.00  0.00     0.074 A 
ATOM     35  C   UNL A   1      42.695  26.446  27.978  1.00  0.00     0.049 A 
ATOM     36  N   UNL A   1      41.000  28.574  29.261  1.00  0.00    -0.248 NA
ATOM     37  C   UNL A   1      39.340  26.964  29.572  1.00  0.00     0.031 C 
ATOM     38  C   UNL A   1      43.556  25.508  27.261  1.00  0.00     0.029 A 
ATOM     39  N   UNL A   1      43.523  27.512  28.252  1.00  0.00    -0.354 N 
ATOM     40  C   UNL A   1      39.904  29.160  29.886  1.00  0.00     0.074 A 
ATOM     41  C   UNL A   1      38.896  28.130  30.021  1.00  0.00     0.031 C 
ATOM     42  C   UNL A   1      44.784  26.033  27.146  1.00  0.00     0.029 A 
ATOM     43  C   UNL A   1      44.770  27.390  27.680  1.00  0.00     0.049 A 
ATOM     44  H   UNL A   1      43.252  28.284  28.800  1.00  0.00     0.167 HD
ATOM     45  C   UNL A   1      39.750  30.442  30.302  1.00  0.00     0.034 A 
ATOM     46  C   UNL A   1      45.768  28.283  27.522  1.00  0.00     0.034 A 
ATOM     47  C   UNL A   1      40.790  31.435  30.264  1.00  0.00     0.049 A 
ATOM     48  C   UNL A   1      45.600  29.686  28.026  1.00  0.00     0.074 A 
ATOM     49  C   UNL A   1      40.752  32.739  30.726  1.00  0.00     0.029 A 
ATOM     50  N   UNL A   1      42.063  31.229  29.757  1.00  0.00    -0.354 N 
ATOM     51  N   UNL A   1      44.567  30.225  28.625  1.00  0.00    -0.248 NA
ATOM     52  C   UNL A   1      46.734  30.604  27.839  1.00  0.00     0.031 C 
ATOM     53  C   UNL A   1      42.002  33.323  30.496  1.00  0.00     0.029 A 
ATOM     54  C   UNL A   1      42.822  32.380  29.899  1.00  0.00     0.049 A 
ATOM     55  H   UNL A   1      42.383  30.389  29.354  1.00  0.00     0.167 HD
ATOM     56  C   UNL A   1      44.927  31.539  28.898  1.00  0.00     0.074 A 
ATOM     57  C   UNL A   1      46.285  31.710  28.421  1.00  0.00     0.031 C 
ATOM     58  C   UNL A   1      44.190  32.522  29.471  1.00  0.00     0.034 A 
BRANCH  45  59
ATOM     59  C   UNL A   1      38.409  30.847  30.857  1.00  0.00     0.023 A 
ATOM     60  C   UNL A   1      38.114  30.635  32.218  1.00  0.00     0.012 A 
ATOM     61  C   UNL A   1      37.460  31.496  30.040  1.00  0.00     0.148 A 
ATOM     62  C   UNL A   1      36.888  31.035  32.749  1.00  0.00     0.002 A 
ATOM     63  C   UNL A   1      36.256  31.928  30.586  1.00  0.00     0.091 A 
ATOM     64  F   UNL A   1      37.741  31.668  28.740  1.00  0.00    -0.205 F 
ATOM     65  C   UNL A   1      35.964  31.690  31.938  1.00  0.00     0.022 A 
BRANCH  63  66
ATOM     66  S   UNL A   1      35.054  32.850  29.620  1.00  0.00     0.127 S 
ATOM     67  O   UNL A   1      34.535  31.818  28.725  1.00  0.00    -0.237 OA
ATOM     68  O   UNL A   1      34.107  33.305  30.639  1.00  0.00    -0.237 OA
ATOM     69  O   UNL A   1      35.809  33.923  28.986  1.00  0.00    -0.744 OA
ENDBRANCH  63  66
ENDBRANCH  45  59
BRANCH  46  70
ATOM     70  C   UNL A   1      47.015  27.848  26.830  1.00  0.00     0.023 A 
ATOM     71  C   UNL A   1      47.977  27.106  27.539  1.00  0.00     0.012 A 
ATOM     72  C   UNL A   1      47.190  28.058  25.445  1.00  0.00     0.148 A 
ATOM     73  C   UNL A   1      49.087  26.573  26.882  1.00  0.00     0.002 A 
ATOM     74  C   UNL A   1      48.257  27.464  24.785  1.00  0.00     0.091 A 
ATOM     75  F   UNL A   1      46.275  28.790  24.795  1.00  0.00    -0.205 F 
ATOM     76  C   UNL A   1      49.214  26.731  25.504  1.00  0.00     0.022 A 
BRANCH  74  77
ATOM     77  S   UNL A   1      48.390  27.459  22.993  1.00  0.00     0.127 S 
ATOM     78  O   UNL A   1      47.228  28.253  22.604  1.00  0.00    -0.237 OA
ATOM     79  O   UNL A   1      49.683  28.113  22.783  1.00  0.00    -0.237 OA
ATOM     80  O   UNL A   1      48.361  26.056  22.603  1.00  0.00    -0.744 OA
ENDBRANCH  74  77
ENDBRANCH  46  70
BRANCH  58  81
ATOM     81  C   UNL A   1      44.837  33.870  29.646  1.00  0.00     0.023 A 
ATOM     82  C   UNL A   1      45.518  34.162  30.844  1.00  0.00     0.012 A 
ATOM     83  C   UNL A   1      44.841  34.811  28.599  1.00  0.00     0.148 A 
ATOM     84  C   UNL A   1      46.177  35.380  31.003  1.00  0.00     0.002 A 
ATOM     85  C   UNL A   1      45.530  36.007  28.751  1.00  0.00     0.091 A 
ATOM     86  F   UNL A   1      44.168  34.520  27.475  1.00  0.00    -0.205 F 
ATOM     87  C   UNL A   1      46.192  36.298  29.955  1.00  0.00     0.022 A 
BRANCH  85  88
ATOM     88  S   UNL A   1      45.669  37.211  27.424  1.00  0.00     0.127 S 
ATOM     89  O   UNL A   1      44.306  37.734  27.351  1.00  0.00    -0.237 OA
ATOM     90  O   UNL A   1      46.655  38.152  27.956  1.00  0.00    -0.237 OA
ATOM     91  O   UNL A   1      46.118  36.466  26.255  1.00  0.00    -0.744 OA
ENDBRANCH  85  88
ENDBRANCH  58  81
ENDBRANCH  32  33
ENDBRANCH  25  27
ENDBRANCH  24  25
ENDBRANCH  23  24
ENDBRANCH   1  23
TORSDOF 19
ENDMDL
