MODEL 1
REMARK VINA RESULT:     -11.1      0.000      0.000
REMARK SMILES COc1ccccc1-c1nnc(SCCC(=O)OCCOC(=O)c2ccc(-c3c4nc(c(-c5cccc(S(=O)(=O)[O-])c5F)c5ccc([nH]5)c(-c5cccc(S(=O)(=O)[O-])c5F)c5nc(c(-c6cccc(S(=O)(=O)[O-])c6F)c6ccc3[nH]6)C=C5)C=C4)cc2)o1
REMARK SMILES IDX 19 1 18 2 16 3 17 4 15 5 14 6 13 7 12 8 9 9 10 10 87 11
REMARK SMILES IDX 11 12 8 13 3 14 4 15 5 16 7 17 6 18 2 19 1 20 20 21 21 22
REMARK SMILES IDX 22 23 23 24 24 25 25 26 86 27 26 28 85 29 27 30 28 31 29 32
REMARK SMILES IDX 79 33 30 34 84 35 78 36 80 37 31 38 83 39 77 40 76 41 32 43
REMARK SMILES IDX 64 44 44 45 63 46 45 47 48 48 62 49 81 50 46 51 47 52 61 54
REMARK SMILES IDX 82 55 49 56 33 57 34 58 42 59 35 60 37 61 43 62 36 63 38 64
REMARK SMILES IDX 39 65 40 66 41 67 65 68 66 69 74 70 67 71 69 72 75 73 68 74
REMARK SMILES IDX 70 75 71 76 72 77 73 78 50 79 51 80 59 81 52 82 54 83 60 84
REMARK SMILES IDX 53 85 55 86 56 87 57 88 58 89
REMARK H PARENT 80 42 48 53
REMARK Flexibility Score: inf
ROOT
ATOM      1  C   UNL A   1      32.264  29.933  25.386  1.00  0.00     0.274 C 
ENDROOT
BRANCH   1   2
ATOM      2  O   UNL A   1      31.086  29.205  25.023  1.00  0.00    -0.462 OA
BRANCH   2   3
ATOM      3  C   UNL A   1      30.551  29.436  23.810  1.00  0.00     0.306 C 
ATOM      4  O   UNL A   1      29.634  30.214  23.587  1.00  0.00    -0.252 OA
BRANCH   3   5
ATOM      5  C   UNL A   1      31.255  28.643  22.739  1.00  0.00     0.134 C 
BRANCH   5   6
ATOM      6  C   UNL A   1      30.618  27.298  22.378  1.00  0.00     0.091 C 
BRANCH   6   7
ATOM      7  S   UNL A   1      30.793  25.962  23.596  1.00  0.00    -0.065 SA
BRANCH   7   8
ATOM      8  C   UNL A   1      32.202  25.011  23.214  1.00  0.00     0.276 A 
ATOM      9  C   UNL A   1      33.916  23.714  23.213  1.00  0.00     0.252 A 
ATOM     10  N   UNL A   1      33.819  24.196  21.995  1.00  0.00    -0.107 NA
ATOM     11  O   UNL A   1      32.949  24.227  24.059  1.00  0.00    -0.411 OA
ATOM     12  N   UNL A   1      32.716  25.029  21.997  1.00  0.00    -0.101 NA
BRANCH   9  13
ATOM     13  C   UNL A   1      34.779  22.670  23.754  1.00  0.00     0.081 A 
ATOM     14  C   UNL A   1      34.323  21.545  24.471  1.00  0.00     0.131 A 
ATOM     15  C   UNL A   1      35.268  20.696  25.088  1.00  0.00     0.047 A 
ATOM     16  C   UNL A   1      36.640  20.915  24.976  1.00  0.00     0.004 A 
ATOM     17  C   UNL A   1      36.178  22.838  23.601  1.00  0.00     0.018 A 
ATOM     18  C   UNL A   1      37.098  21.972  24.205  1.00  0.00     0.001 A 
BRANCH  14  19
ATOM     19  O   UNL A   1      33.058  21.062  24.650  1.00  0.00    -0.496 OA
ATOM     20  C   UNL A   1      32.657  19.741  24.331  1.00  0.00     0.278 C 
ENDBRANCH  14  19
ENDBRANCH   9  13
ENDBRANCH   7   8
ENDBRANCH   6   7
ENDBRANCH   5   6
ENDBRANCH   3   5
ENDBRANCH   2   3
ENDBRANCH   1   2
BRANCH   1  21
ATOM     21  C   UNL A   1      31.855  31.038  26.358  1.00  0.00     0.275 C 
BRANCH  21  22
ATOM     22  O   UNL A   1      32.745  31.065  27.459  1.00  0.00    -0.458 OA
BRANCH  22  23
ATOM     23  C   UNL A   1      33.476  32.198  27.548  1.00  0.00     0.338 C 
ATOM     24  O   UNL A   1      33.120  33.354  27.501  1.00  0.00    -0.246 OA
BRANCH  23  25
ATOM     25  C   UNL A   1      34.762  31.712  28.025  1.00  0.00     0.060 A 
ATOM     26  C   UNL A   1      34.907  30.347  28.284  1.00  0.00     0.016 A 
ATOM     27  C   UNL A   1      35.823  32.618  28.105  1.00  0.00     0.016 A 
ATOM     28  C   UNL A   1      36.129  29.892  28.737  1.00  0.00     0.010 A 
ATOM     29  C   UNL A   1      37.050  32.157  28.518  1.00  0.00     0.010 A 
ATOM     30  C   UNL A   1      37.169  30.816  28.904  1.00  0.00    -0.014 A 
BRANCH  30  31
ATOM     31  C   UNL A   1      38.332  30.452  29.712  1.00  0.00     0.031 A 
ATOM     32  C   UNL A   1      39.296  29.472  29.114  1.00  0.00     0.074 A 
ATOM     33  C   UNL A   1      38.452  30.967  30.941  1.00  0.00     0.049 A 
ATOM     34  N   UNL A   1      40.339  28.912  29.653  1.00  0.00    -0.248 NA
ATOM     35  C   UNL A   1      39.028  29.035  27.727  1.00  0.00     0.031 C 
ATOM     36  C   UNL A   1      37.514  31.906  31.560  1.00  0.00     0.029 A 
ATOM     37  N   UNL A   1      39.399  30.749  31.895  1.00  0.00    -0.354 N 
ATOM     38  C   UNL A   1      40.823  28.030  28.695  1.00  0.00     0.074 A 
ATOM     39  C   UNL A   1      39.947  28.100  27.551  1.00  0.00     0.031 C 
ATOM     40  C   UNL A   1      37.930  32.174  32.807  1.00  0.00     0.029 A 
ATOM     41  C   UNL A   1      39.136  31.401  33.074  1.00  0.00     0.049 A 
ATOM     42  H   UNL A   1      40.192  30.182  31.755  1.00  0.00     0.167 HD
ATOM     43  C   UNL A   1      41.920  27.245  28.770  1.00  0.00     0.034 A 
ATOM     44  C   UNL A   1      39.805  31.345  34.238  1.00  0.00     0.034 A 
ATOM     45  C   UNL A   1      42.771  27.232  29.925  1.00  0.00     0.049 A 
ATOM     46  C   UNL A   1      41.038  30.487  34.282  1.00  0.00     0.074 A 
ATOM     47  C   UNL A   1      43.942  26.532  30.130  1.00  0.00     0.029 A 
ATOM     48  N   UNL A   1      42.527  27.963  31.082  1.00  0.00    -0.354 N 
ATOM     49  N   UNL A   1      41.553  29.732  33.338  1.00  0.00    -0.248 NA
ATOM     50  C   UNL A   1      41.804  30.500  35.531  1.00  0.00     0.031 C 
ATOM     51  C   UNL A   1      44.391  26.818  31.424  1.00  0.00     0.029 A 
ATOM     52  C   UNL A   1      43.521  27.728  32.011  1.00  0.00     0.049 A 
ATOM     53  H   UNL A   1      41.757  28.561  31.219  1.00  0.00     0.167 HD
ATOM     54  C   UNL A   1      42.721  29.200  33.867  1.00  0.00     0.074 A 
ATOM     55  C   UNL A   1      42.848  29.751  35.205  1.00  0.00     0.031 C 
ATOM     56  C   UNL A   1      43.605  28.329  33.317  1.00  0.00     0.034 A 
BRANCH  43  57
ATOM     57  C   UNL A   1      42.247  26.375  27.585  1.00  0.00     0.023 A 
ATOM     58  C   UNL A   1      42.959  26.911  26.490  1.00  0.00     0.012 A 
ATOM     59  C   UNL A   1      41.862  25.021  27.557  1.00  0.00     0.148 A 
ATOM     60  C   UNL A   1      43.251  26.125  25.376  1.00  0.00     0.002 A 
ATOM     61  C   UNL A   1      42.201  24.230  26.465  1.00  0.00     0.091 A 
ATOM     62  F   UNL A   1      41.158  24.537  28.590  1.00  0.00    -0.205 F 
ATOM     63  C   UNL A   1      42.882  24.783  25.368  1.00  0.00     0.022 A 
BRANCH  61  64
ATOM     64  S   UNL A   1      41.836  22.474  26.388  1.00  0.00     0.127 S 
ATOM     65  O   UNL A   1      42.563  22.073  25.184  1.00  0.00    -0.237 OA
ATOM     66  O   UNL A   1      42.416  21.988  27.640  1.00  0.00    -0.237 OA
ATOM     67  O   UNL A   1      40.387  22.365  26.303  1.00  0.00    -0.744 OA
ENDBRANCH  61  64
ENDBRANCH  43  57
BRANCH  44  68
ATOM     68  C   UNL A   1      39.350  32.154  35.399  1.00  0.00     0.023 A 
ATOM     69  C   UNL A   1      38.517  31.568  36.369  1.00  0.00     0.012 A 
ATOM     70  C   UNL A   1      39.785  33.482  35.577  1.00  0.00     0.148 A 
ATOM     71  C   UNL A   1      38.095  32.300  37.480  1.00  0.00     0.002 A 
ATOM     72  C   UNL A   1      39.406  34.189  36.713  1.00  0.00     0.091 A 
ATOM     73  F   UNL A   1      40.579  34.023  34.641  1.00  0.00    -0.205 F 
ATOM     74  C   UNL A   1      38.547  33.605  37.656  1.00  0.00     0.022 A 
BRANCH  72  75
ATOM     75  S   UNL A   1      40.048  35.824  37.087  1.00  0.00     0.127 S 
ATOM     76  O   UNL A   1      39.351  36.140  38.331  1.00  0.00    -0.237 OA
ATOM     77  O   UNL A   1      41.480  35.562  37.230  1.00  0.00    -0.237 OA
ATOM     78  O   UNL A   1      39.702  36.653  35.940  1.00  0.00    -0.744 OA
ENDBRANCH  72  75
ENDBRANCH  44  68
BRANCH  56  79
ATOM     79  C   UNL A   1      44.789  27.955  34.164  1.00  0.00     0.023 A 
ATOM     80  C   UNL A   1      45.961  28.734  34.114  1.00  0.00     0.012 A 
ATOM     81  C   UNL A   1      44.714  26.859  35.044  1.00  0.00     0.148 A 
ATOM     82  C   UNL A   1      47.064  28.394  34.894  1.00  0.00     0.002 A 
ATOM     83  C   UNL A   1      45.794  26.564  35.861  1.00  0.00     0.091 A 
ATOM     84  F   UNL A   1      43.590  26.125  35.059  1.00  0.00    -0.205 F 
ATOM     85  C   UNL A   1      46.976  27.317  35.774  1.00  0.00     0.022 A 
BRANCH  83  86
ATOM     86  S   UNL A   1      45.728  25.269  37.100  1.00  0.00     0.127 S 
ATOM     87  O   UNL A   1      44.589  25.693  37.913  1.00  0.00    -0.237 OA
ATOM     88  O   UNL A   1      45.489  24.075  36.288  1.00  0.00    -0.237 OA
ATOM     89  O   UNL A   1      47.020  25.291  37.773  1.00  0.00    -0.744 OA
ENDBRANCH  83  86
ENDBRANCH  56  79
ENDBRANCH  30  31
ENDBRANCH  23  25
ENDBRANCH  22  23
ENDBRANCH  21  22
ENDBRANCH   1  21
TORSDOF 19
ENDMDL
MODEL 2
REMARK VINA RESULT:     -11.1      4.249     10.430
REMARK SMILES COc1ccccc1-c1nnc(SCCC(=O)OCCOC(=O)c2ccc(-c3c4nc(c(-c5cccc(S(=O)(=O)[O-])c5F)c5ccc([nH]5)c(-c5cccc(S(=O)(=O)[O-])c5F)c5nc(c(-c6cccc(S(=O)(=O)[O-])c6F)c6ccc3[nH]6)C=C5)C=C4)cc2)o1
REMARK SMILES IDX 19 1 18 2 16 3 17 4 15 5 14 6 13 7 12 8 9 9 10 10 87 11
REMARK SMILES IDX 11 12 8 13 3 14 4 15 5 16 7 17 6 18 2 19 1 20 20 21 21 22
REMARK SMILES IDX 22 23 23 24 24 25 25 26 86 27 26 28 85 29 27 30 28 31 29 32
REMARK SMILES IDX 79 33 30 34 84 35 78 36 80 37 31 38 83 39 77 40 76 41 32 43
REMARK SMILES IDX 64 44 44 45 63 46 45 47 48 48 62 49 81 50 46 51 47 52 61 54
REMARK SMILES IDX 82 55 49 56 33 57 34 58 42 59 35 60 37 61 43 62 36 63 38 64
REMARK SMILES IDX 39 65 40 66 41 67 65 68 66 69 74 70 67 71 69 72 75 73 68 74
REMARK SMILES IDX 70 75 71 76 72 77 73 78 50 79 51 80 59 81 52 82 54 83 60 84
REMARK SMILES IDX 53 85 55 86 56 87 57 88 58 89
REMARK H PARENT 80 42 48 53
REMARK Flexibility Score: inf
ROOT
ATOM      1  C   UNL A   1      33.899  35.129  29.023  1.00  0.00     0.274 C 
ENDROOT
BRANCH   1   2
ATOM      2  O   UNL A   1      32.757  35.192  29.884  1.00  0.00    -0.462 OA
BRANCH   2   3
ATOM      3  C   UNL A   1      32.864  35.902  31.022  1.00  0.00     0.306 C 
ATOM      4  O   UNL A   1      32.072  36.759  31.389  1.00  0.00    -0.252 OA
BRANCH   3   5
ATOM      5  C   UNL A   1      34.069  35.478  31.823  1.00  0.00     0.134 C 
BRANCH   5   6
ATOM      6  C   UNL A   1      33.886  34.231  32.692  1.00  0.00     0.091 C 
BRANCH   6   7
ATOM      7  S   UNL A   1      34.984  34.073  34.130  1.00  0.00    -0.065 SA
BRANCH   7   8
ATOM      8  C   UNL A   1      36.633  34.324  33.629  1.00  0.00     0.276 A 
ATOM      9  C   UNL A   1      38.508  34.458  32.586  1.00  0.00     0.252 A 
ATOM     10  N   UNL A   1      38.737  34.877  33.810  1.00  0.00    -0.107 NA
ATOM     11  O   UNL A   1      37.200  34.042  32.410  1.00  0.00    -0.411 OA
ATOM     12  N   UNL A   1      37.531  34.791  34.479  1.00  0.00    -0.101 NA
BRANCH   9  13
ATOM     13  C   UNL A   1      39.359  34.479  31.402  1.00  0.00     0.081 A 
ATOM     14  C   UNL A   1      40.748  34.241  31.409  1.00  0.00     0.131 A 
ATOM     15  C   UNL A   1      41.487  34.456  30.225  1.00  0.00     0.047 A 
ATOM     16  C   UNL A   1      40.877  34.859  29.038  1.00  0.00     0.004 A 
ATOM     17  C   UNL A   1      38.750  34.826  30.170  1.00  0.00     0.018 A 
ATOM     18  C   UNL A   1      39.500  35.016  29.002  1.00  0.00     0.001 A 
BRANCH  14  19
ATOM     19  O   UNL A   1      41.560  33.761  32.397  1.00  0.00    -0.496 OA
ATOM     20  C   UNL A   1      42.885  33.304  32.189  1.00  0.00     0.278 C 
ENDBRANCH  14  19
ENDBRANCH   9  13
ENDBRANCH   7   8
ENDBRANCH   6   7
ENDBRANCH   5   6
ENDBRANCH   3   5
ENDBRANCH   2   3
ENDBRANCH   1   2
BRANCH   1  21
ATOM     21  C   UNL A   1      33.704  33.956  28.064  1.00  0.00     0.275 C 
BRANCH  21  22
ATOM     22  O   UNL A   1      34.816  33.084  28.136  1.00  0.00    -0.458 OA
BRANCH  22  23
ATOM     23  C   UNL A   1      34.504  31.779  27.978  1.00  0.00     0.338 C 
ATOM     24  O   UNL A   1      33.556  31.272  27.421  1.00  0.00    -0.246 OA
BRANCH  23  25
ATOM     25  C   UNL A   1      35.735  31.106  28.366  1.00  0.00     0.060 A 
ATOM     26  C   UNL A   1      35.739  29.711  28.443  1.00  0.00     0.016 A 
ATOM     27  C   UNL A   1      36.883  31.881  28.546  1.00  0.00     0.016 A 
ATOM     28  C   UNL A   1      36.910  29.079  28.813  1.00  0.00     0.010 A 
ATOM     29  C   UNL A   1      38.057  31.248  28.876  1.00  0.00     0.010 A 
ATOM     30  C   UNL A   1      38.040  29.863  29.082  1.00  0.00    -0.014 A 
BRANCH  30  31
ATOM     31  C   UNL A   1      39.161  29.280  29.816  1.00  0.00     0.031 A 
ATOM     32  C   UNL A   1      39.440  29.832  31.182  1.00  0.00     0.074 A 
ATOM     33  C   UNL A   1      39.899  28.332  29.225  1.00  0.00     0.049 A 
ATOM     34  N   UNL A   1      40.424  29.566  31.991  1.00  0.00    -0.248 NA
ATOM     35  C   UNL A   1      38.499  30.849  31.694  1.00  0.00     0.031 C 
ATOM     36  C   UNL A   1      39.666  27.794  27.883  1.00  0.00     0.029 A 
ATOM     37  N   UNL A   1      41.008  27.680  29.669  1.00  0.00    -0.354 N 
ATOM     38  C   UNL A   1      40.247  30.410  33.080  1.00  0.00     0.074 A 
ATOM     39  C   UNL A   1      39.082  31.220  32.823  1.00  0.00     0.031 C 
ATOM     40  C   UNL A   1      40.621  26.893  27.607  1.00  0.00     0.029 A 
ATOM     41  C   UNL A   1      41.541  26.825  28.736  1.00  0.00     0.049 A 
ATOM     42  H   UNL A   1      41.390  27.807  30.568  1.00  0.00     0.167 HD
ATOM     43  C   UNL A   1      40.992  30.478  34.204  1.00  0.00     0.034 A 
ATOM     44  C   UNL A   1      42.665  26.094  28.805  1.00  0.00     0.034 A 
ATOM     45  C   UNL A   1      42.130  29.630  34.419  1.00  0.00     0.049 A 
ATOM     46  C   UNL A   1      43.458  26.168  30.080  1.00  0.00     0.074 A 
ATOM     47  C   UNL A   1      42.951  29.546  35.525  1.00  0.00     0.029 A 
ATOM     48  N   UNL A   1      42.606  28.713  33.488  1.00  0.00    -0.354 N 
ATOM     49  N   UNL A   1      43.230  26.892  31.152  1.00  0.00    -0.248 NA
ATOM     50  C   UNL A   1      44.636  25.302  30.172  1.00  0.00     0.031 C 
ATOM     51  C   UNL A   1      43.942  28.597  35.250  1.00  0.00     0.029 A 
ATOM     52  C   UNL A   1      43.715  28.062  33.989  1.00  0.00     0.049 A 
ATOM     53  H   UNL A   1      42.209  28.553  32.602  1.00  0.00     0.167 HD
ATOM     54  C   UNL A   1      44.219  26.548  32.063  1.00  0.00     0.074 A 
ATOM     55  C   UNL A   1      45.027  25.527  31.419  1.00  0.00     0.031 C 
ATOM     56  C   UNL A   1      44.459  27.032  33.308  1.00  0.00     0.034 A 
BRANCH  43  57
ATOM     57  C   UNL A   1      40.589  31.476  35.258  1.00  0.00     0.023 A 
ATOM     58  C   UNL A   1      41.329  32.666  35.424  1.00  0.00     0.012 A 
ATOM     59  C   UNL A   1      39.468  31.244  36.078  1.00  0.00     0.148 A 
ATOM     60  C   UNL A   1      40.982  33.590  36.409  1.00  0.00     0.002 A 
ATOM     61  C   UNL A   1      39.098  32.193  37.024  1.00  0.00     0.091 A 
ATOM     62  F   UNL A   1      38.796  30.093  35.930  1.00  0.00    -0.205 F 
ATOM     63  C   UNL A   1      39.860  33.359  37.201  1.00  0.00     0.022 A 
BRANCH  61  64
ATOM     64  S   UNL A   1      37.630  32.025  38.045  1.00  0.00     0.127 S 
ATOM     65  O   UNL A   1      37.270  30.625  37.818  1.00  0.00    -0.237 OA
ATOM     66  O   UNL A   1      38.155  32.310  39.380  1.00  0.00    -0.237 OA
ATOM     67  O   UNL A   1      36.674  33.001  37.543  1.00  0.00    -0.744 OA
ENDBRANCH  61  64
ENDBRANCH  43  57
BRANCH  44  68
ATOM     68  C   UNL A   1      43.052  25.214  27.671  1.00  0.00     0.023 A 
ATOM     69  C   UNL A   1      44.082  25.617  26.801  1.00  0.00     0.012 A 
ATOM     70  C   UNL A   1      42.447  23.956  27.485  1.00  0.00     0.148 A 
ATOM     71  C   UNL A   1      44.479  24.798  25.742  1.00  0.00     0.002 A 
ATOM     72  C   UNL A   1      42.884  23.122  26.462  1.00  0.00     0.091 A 
ATOM     73  F   UNL A   1      41.468  23.591  28.325  1.00  0.00    -0.205 F 
ATOM     74  C   UNL A   1      43.888  23.548  25.579  1.00  0.00     0.022 A 
BRANCH  72  75
ATOM     75  S   UNL A   1      42.272  21.444  26.262  1.00  0.00     0.127 S 
ATOM     76  O   UNL A   1      40.888  21.679  25.860  1.00  0.00    -0.237 OA
ATOM     77  O   UNL A   1      43.143  20.927  25.206  1.00  0.00    -0.237 OA
ATOM     78  O   UNL A   1      42.456  20.803  27.557  1.00  0.00    -0.744 OA
ENDBRANCH  72  75
ENDBRANCH  44  68
BRANCH  56  79
ATOM     79  C   UNL A   1      45.623  26.433  34.046  1.00  0.00     0.023 A 
ATOM     80  C   UNL A   1      46.899  27.017  33.936  1.00  0.00     0.012 A 
ATOM     81  C   UNL A   1      45.433  25.320  34.887  1.00  0.00     0.148 A 
ATOM     82  C   UNL A   1      47.985  26.468  34.614  1.00  0.00     0.002 A 
ATOM     83  C   UNL A   1      46.505  24.816  35.606  1.00  0.00     0.091 A 
ATOM     84  F   UNL A   1      44.210  24.774  34.961  1.00  0.00    -0.205 F 
ATOM     85  C   UNL A   1      47.785  25.376  35.457  1.00  0.00     0.022 A 
BRANCH  83  86
ATOM     86  S   UNL A   1      46.318  23.488  36.796  1.00  0.00     0.127 S 
ATOM     87  O   UNL A   1      47.650  23.438  37.397  1.00  0.00    -0.237 OA
ATOM     88  O   UNL A   1      45.269  24.005  37.675  1.00  0.00    -0.237 OA
ATOM     89  O   UNL A   1      45.935  22.311  36.028  1.00  0.00    -0.744 OA
ENDBRANCH  83  86
ENDBRANCH  56  79
ENDBRANCH  30  31
ENDBRANCH  23  25
ENDBRANCH  22  23
ENDBRANCH  21  22
ENDBRANCH   1  21
TORSDOF 19
ENDMDL
MODEL 3
REMARK VINA RESULT:     -11.0      1.586      2.119
REMARK SMILES COc1ccccc1-c1nnc(SCCC(=O)OCCOC(=O)c2ccc(-c3c4nc(c(-c5cccc(S(=O)(=O)[O-])c5F)c5ccc([nH]5)c(-c5cccc(S(=O)(=O)[O-])c5F)c5nc(c(-c6cccc(S(=O)(=O)[O-])c6F)c6ccc3[nH]6)C=C5)C=C4)cc2)o1
REMARK SMILES IDX 19 1 18 2 16 3 17 4 15 5 14 6 13 7 12 8 9 9 10 10 87 11
REMARK SMILES IDX 11 12 8 13 3 14 4 15 5 16 7 17 6 18 2 19 1 20 20 21 21 22
REMARK SMILES IDX 22 23 23 24 24 25 25 26 86 27 26 28 85 29 27 30 28 31 29 32
REMARK SMILES IDX 79 33 30 34 84 35 78 36 80 37 31 38 83 39 77 40 76 41 32 43
REMARK SMILES IDX 64 44 44 45 63 46 45 47 48 48 62 49 81 50 46 51 47 52 61 54
REMARK SMILES IDX 82 55 49 56 33 57 34 58 42 59 35 60 37 61 43 62 36 63 38 64
REMARK SMILES IDX 39 65 40 66 41 67 65 68 66 69 74 70 67 71 69 72 75 73 68 74
REMARK SMILES IDX 70 75 71 76 72 77 73 78 50 79 51 80 59 81 52 82 54 83 60 84
REMARK SMILES IDX 53 85 55 86 56 87 57 88 58 89
REMARK H PARENT 80 42 48 53
REMARK Flexibility Score: inf
ROOT
ATOM      1  C   UNL A   1      32.150  29.776  24.996  1.00  0.00     0.274 C 
ENDROOT
BRANCH   1   2
ATOM      2  O   UNL A   1      31.022  28.915  24.800  1.00  0.00    -0.462 OA
BRANCH   2   3
ATOM      3  C   UNL A   1      30.659  28.632  23.536  1.00  0.00     0.306 C 
ATOM      4  O   UNL A   1      30.405  29.464  22.677  1.00  0.00    -0.252 OA
BRANCH   3   5
ATOM      5  C   UNL A   1      30.644  27.144  23.290  1.00  0.00     0.134 C 
BRANCH   5   6
ATOM      6  C   UNL A   1      31.391  26.669  22.040  1.00  0.00     0.091 C 
BRANCH   6   7
ATOM      7  S   UNL A   1      33.204  26.767  22.089  1.00  0.00    -0.065 SA
BRANCH   7   8
ATOM      8  C   UNL A   1      33.803  25.771  23.387  1.00  0.00     0.276 A 
ATOM      9  C   UNL A   1      34.635  24.226  24.629  1.00  0.00     0.252 A 
ATOM     10  N   UNL A   1      34.278  25.197  25.439  1.00  0.00    -0.107 NA
ATOM     11  O   UNL A   1      34.318  24.500  23.311  1.00  0.00    -0.411 OA
ATOM     12  N   UNL A   1      33.744  26.190  24.640  1.00  0.00    -0.101 NA
BRANCH   9  13
ATOM     13  C   UNL A   1      35.394  23.008  24.886  1.00  0.00     0.081 A 
ATOM     14  C   UNL A   1      36.780  22.966  25.143  1.00  0.00     0.131 A 
ATOM     15  C   UNL A   1      37.427  21.713  25.208  1.00  0.00     0.047 A 
ATOM     16  C   UNL A   1      36.731  20.514  25.065  1.00  0.00     0.004 A 
ATOM     17  C   UNL A   1      34.695  21.778  24.808  1.00  0.00     0.018 A 
ATOM     18  C   UNL A   1      35.355  20.545  24.895  1.00  0.00     0.001 A 
BRANCH  14  19
ATOM     19  O   UNL A   1      37.662  23.974  25.407  1.00  0.00    -0.496 OA
ATOM     20  C   UNL A   1      38.266  24.194  26.670  1.00  0.00     0.278 C 
ENDBRANCH  14  19
ENDBRANCH   9  13
ENDBRANCH   7   8
ENDBRANCH   6   7
ENDBRANCH   5   6
ENDBRANCH   3   5
ENDBRANCH   2   3
ENDBRANCH   1   2
BRANCH   1  21
ATOM     21  C   UNL A   1      31.791  30.784  26.087  1.00  0.00     0.275 C 
BRANCH  21  22
ATOM     22  O   UNL A   1      32.726  30.700  27.147  1.00  0.00    -0.458 OA
BRANCH  22  23
ATOM     23  C   UNL A   1      33.354  31.865  27.419  1.00  0.00     0.338 C 
ATOM     24  O   UNL A   1      32.904  32.985  27.506  1.00  0.00    -0.246 OA
BRANCH  23  25
ATOM     25  C   UNL A   1      34.658  31.423  27.889  1.00  0.00     0.060 A 
ATOM     26  C   UNL A   1      34.848  30.064  28.154  1.00  0.00     0.016 A 
ATOM     27  C   UNL A   1      35.690  32.362  27.958  1.00  0.00     0.016 A 
ATOM     28  C   UNL A   1      36.087  29.651  28.601  1.00  0.00     0.010 A 
ATOM     29  C   UNL A   1      36.934  31.943  28.365  1.00  0.00     0.010 A 
ATOM     30  C   UNL A   1      37.099  30.608  28.757  1.00  0.00    -0.014 A 
BRANCH  30  31
ATOM     31  C   UNL A   1      38.278  30.285  29.558  1.00  0.00     0.031 A 
ATOM     32  C   UNL A   1      39.257  29.316  28.967  1.00  0.00     0.074 A 
ATOM     33  C   UNL A   1      38.398  30.824  30.777  1.00  0.00     0.049 A 
ATOM     34  N   UNL A   1      40.319  28.791  29.505  1.00  0.00    -0.248 NA
ATOM     35  C   UNL A   1      38.985  28.849  27.592  1.00  0.00     0.031 C 
ATOM     36  C   UNL A   1      37.444  31.751  31.390  1.00  0.00     0.029 A 
ATOM     37  N   UNL A   1      39.359  30.645  31.725  1.00  0.00    -0.354 N 
ATOM     38  C   UNL A   1      40.814  27.903  28.557  1.00  0.00     0.074 A 
ATOM     39  C   UNL A   1      39.925  27.933  27.422  1.00  0.00     0.031 C 
ATOM     40  C   UNL A   1      37.867  32.052  32.627  1.00  0.00     0.029 A 
ATOM     41  C   UNL A   1      39.094  31.312  32.895  1.00  0.00     0.049 A 
ATOM     42  H   UNL A   1      40.163  30.093  31.586  1.00  0.00     0.167 HD
ATOM     43  C   UNL A   1      41.929  27.145  28.635  1.00  0.00     0.034 A 
ATOM     44  C   UNL A   1      39.775  31.291  34.052  1.00  0.00     0.034 A 
ATOM     45  C   UNL A   1      42.792  27.172  29.781  1.00  0.00     0.049 A 
ATOM     46  C   UNL A   1      41.028  30.462  34.098  1.00  0.00     0.074 A 
ATOM     47  C   UNL A   1      43.981  26.503  29.985  1.00  0.00     0.029 A 
ATOM     48  N   UNL A   1      42.542  27.918  30.927  1.00  0.00    -0.354 N 
ATOM     49  N   UNL A   1      41.551  29.703  33.163  1.00  0.00    -0.248 NA
ATOM     50  C   UNL A   1      41.806  30.515  35.339  1.00  0.00     0.031 C 
ATOM     51  C   UNL A   1      44.437  26.822  31.269  1.00  0.00     0.029 A 
ATOM     52  C   UNL A   1      43.551  27.721  31.849  1.00  0.00     0.049 A 
ATOM     53  H   UNL A   1      41.761  28.500  31.062  1.00  0.00     0.167 HD
ATOM     54  C   UNL A   1      42.736  29.208  33.688  1.00  0.00     0.074 A 
ATOM     55  C   UNL A   1      42.864  29.785  35.015  1.00  0.00     0.031 C 
ATOM     56  C   UNL A   1      43.635  28.348  33.144  1.00  0.00     0.034 A 
BRANCH  43  57
ATOM     57  C   UNL A   1      42.264  26.262  27.461  1.00  0.00     0.023 A 
ATOM     58  C   UNL A   1      42.843  26.819  26.301  1.00  0.00     0.012 A 
ATOM     59  C   UNL A   1      42.019  24.877  27.510  1.00  0.00     0.148 A 
ATOM     60  C   UNL A   1      43.139  26.019  25.198  1.00  0.00     0.002 A 
ATOM     61  C   UNL A   1      42.364  24.077  26.425  1.00  0.00     0.091 A 
ATOM     62  F   UNL A   1      41.439  24.369  28.606  1.00  0.00    -0.205 F 
ATOM     63  C   UNL A   1      42.910  24.648  25.264  1.00  0.00     0.022 A 
BRANCH  61  64
ATOM     64  S   UNL A   1      42.176  22.291  26.437  1.00  0.00     0.127 S 
ATOM     65  O   UNL A   1      40.748  22.142  26.157  1.00  0.00    -0.237 OA
ATOM     66  O   UNL A   1      43.057  21.887  25.342  1.00  0.00    -0.237 OA
ATOM     67  O   UNL A   1      42.600  21.849  27.757  1.00  0.00    -0.744 OA
ENDBRANCH  61  64
ENDBRANCH  43  57
BRANCH  44  68
ATOM     68  C   UNL A   1      39.314  32.110  35.204  1.00  0.00     0.023 A 
ATOM     69  C   UNL A   1      39.479  33.507  35.171  1.00  0.00     0.012 A 
ATOM     70  C   UNL A   1      38.660  31.519  36.303  1.00  0.00     0.148 A 
ATOM     71  C   UNL A   1      39.034  34.300  36.230  1.00  0.00     0.002 A 
ATOM     72  C   UNL A   1      38.170  32.320  37.329  1.00  0.00     0.091 A 
ATOM     73  F   UNL A   1      38.512  30.187  36.315  1.00  0.00    -0.205 F 
ATOM     74  C   UNL A   1      38.371  33.708  37.302  1.00  0.00     0.022 A 
BRANCH  72  75
ATOM     75  S   UNL A   1      37.189  31.658  38.680  1.00  0.00     0.127 S 
ATOM     76  O   UNL A   1      38.106  31.794  39.808  1.00  0.00    -0.237 OA
ATOM     77  O   UNL A   1      36.045  32.570  38.700  1.00  0.00    -0.237 OA
ATOM     78  O   UNL A   1      36.859  30.293  38.293  1.00  0.00    -0.744 OA
ENDBRANCH  72  75
ENDBRANCH  44  68
BRANCH  56  79
ATOM     79  C   UNL A   1      44.835  28.016  33.985  1.00  0.00     0.023 A 
ATOM     80  C   UNL A   1      45.995  28.809  33.895  1.00  0.00     0.012 A 
ATOM     81  C   UNL A   1      44.788  26.946  34.898  1.00  0.00     0.148 A 
ATOM     82  C   UNL A   1      47.114  28.508  34.668  1.00  0.00     0.002 A 
ATOM     83  C   UNL A   1      45.884  26.690  35.707  1.00  0.00     0.091 A 
ATOM     84  F   UNL A   1      43.676  26.197  34.951  1.00  0.00    -0.205 F 
ATOM     85  C   UNL A   1      47.054  27.457  35.582  1.00  0.00     0.022 A 
BRANCH  83  86
ATOM     86  S   UNL A   1      45.854  25.432  36.986  1.00  0.00     0.127 S 
ATOM     87  O   UNL A   1      45.727  24.209  36.195  1.00  0.00    -0.237 OA
ATOM     88  O   UNL A   1      47.157  25.612  37.627  1.00  0.00    -0.237 OA
ATOM     89  O   UNL A   1      44.714  25.749  37.836  1.00  0.00    -0.744 OA
ENDBRANCH  83  86
ENDBRANCH  56  79
ENDBRANCH  30  31
ENDBRANCH  23  25
ENDBRANCH  22  23
ENDBRANCH  21  22
ENDBRANCH   1  21
TORSDOF 19
ENDMDL
