MODEL 1
REMARK VINA RESULT:     -11.9      0.000      0.000
REMARK SMILES O=C(CSc1nc(O)cc(=O)[nH]1)Nc1cccc(C(=O)OCCOC(=O)c2ccc(-c3c4nc(c(-c5cccc(S(=O)(=O)[O-])c5F)c5ccc([nH]5)c(-c5cccc(S(=O)(=O)[O-])c5F)c5nc(c(-c6cccc(S(=O)(=O)[O-])c6F)c6ccc3[nH]6)C=C5)C=C4)cc2)c1
REMARK SMILES IDX 22 1 21 2 19 3 20 4 18 5 14 6 15 7 90 8 16 9 17 10 13 11
REMARK SMILES IDX 1 12 2 13 3 15 4 16 5 17 6 18 12 19 7 20 10 21 9 23 11 24
REMARK SMILES IDX 8 25 23 27 24 28 25 29 26 30 27 31 28 32 89 33 29 34 88 35
REMARK SMILES IDX 30 36 31 37 32 38 82 39 33 40 87 41 81 42 83 43 34 44 86 45
REMARK SMILES IDX 80 46 79 47 35 49 67 50 47 51 66 52 48 53 51 54 65 55 84 56
REMARK SMILES IDX 49 57 50 58 64 60 85 61 52 62 36 63 37 64 45 65 38 66 40 67
REMARK SMILES IDX 46 68 39 69 41 70 42 71 43 72 44 73 68 74 69 75 77 76 70 77
REMARK SMILES IDX 72 78 78 79 71 80 73 81 74 82 75 83 76 84 53 85 54 86 62 87
REMARK SMILES IDX 55 88 57 89 63 90 56 91 58 92 59 93 60 94 61 95
REMARK H PARENT 13 14 12 22 8 26 83 48 51 59
REMARK Flexibility Score: inf
ROOT
ATOM      1  C   UNL A   1      36.117  19.886  24.973  1.00  0.00     0.275 C 
ENDROOT
BRANCH   1   2
ATOM      2  O   UNL A   1      35.735  21.212  24.554  1.00  0.00    -0.458 OA
BRANCH   2   3
ATOM      3  C   UNL A   1      35.058  21.964  25.458  1.00  0.00     0.338 C 
ATOM      4  O   UNL A   1      34.964  21.752  26.657  1.00  0.00    -0.246 OA
BRANCH   3   5
ATOM      5  C   UNL A   1      34.516  23.182  24.807  1.00  0.00     0.062 A 
ATOM      6  C   UNL A   1      33.638  25.429  24.933  1.00  0.00     0.042 A 
ATOM      7  C   UNL A   1      33.384  25.408  23.557  1.00  0.00     0.026 A 
ATOM      8  C   UNL A   1      34.146  24.292  25.566  1.00  0.00     0.041 A 
ATOM      9  C   UNL A   1      33.787  24.317  22.792  1.00  0.00     0.003 A 
ATOM     10  C   UNL A   1      34.406  23.235  23.413  1.00  0.00     0.016 A 
BRANCH   6  11
ATOM     11  N   UNL A   1      33.404  26.635  25.615  1.00  0.00    -0.325 N 
ATOM     12  O   UNL A   1      31.174  26.328  26.213  1.00  0.00    -0.274 OA
ATOM     13  C   UNL A   1      32.201  27.000  26.190  1.00  0.00     0.234 C 
ATOM     14  H   UNL A   1      34.154  27.269  25.689  1.00  0.00     0.169 HD
BRANCH  13  15
ATOM     15  C   UNL A   1      32.203  28.381  26.807  1.00  0.00     0.178 C 
BRANCH  15  16
ATOM     16  S   UNL A   1      32.739  29.681  25.670  1.00  0.00    -0.078 SA
BRANCH  16  17
ATOM     17  C   UNL A   1      31.613  29.492  24.361  1.00  0.00     0.172 A 
ATOM     18  N   UNL A   1      31.785  28.552  23.493  1.00  0.00    -0.189 NA
ATOM     19  N   UNL A   1      30.550  30.335  24.390  1.00  0.00    -0.301 N 
ATOM     20  C   UNL A   1      30.803  28.422  22.553  1.00  0.00     0.218 A 
ATOM     21  C   UNL A   1      29.539  30.232  23.483  1.00  0.00     0.255 A 
ATOM     22  H   UNL A   1      30.509  31.037  25.080  1.00  0.00     0.172 HD
ATOM     23  C   UNL A   1      29.705  29.177  22.479  1.00  0.00     0.139 A 
ATOM     24  O   UNL A   1      28.544  30.944  23.517  1.00  0.00    -0.269 OA
BRANCH  20  25
ATOM     25  O   UNL A   1      30.979  27.407  21.649  1.00  0.00    -0.493 OA
ATOM     26  H   UNL A   1      31.406  26.615  21.912  1.00  0.00     0.295 HD
ENDBRANCH  20  25
ENDBRANCH  16  17
ENDBRANCH  15  16
ENDBRANCH  13  15
ENDBRANCH   6  11
ENDBRANCH   3   5
ENDBRANCH   2   3
ENDBRANCH   1   2
BRANCH   1  27
ATOM     27  C   UNL A   1      37.637  19.710  24.959  1.00  0.00     0.275 C 
BRANCH  27  28
ATOM     28  O   UNL A   1      38.291  20.930  25.346  1.00  0.00    -0.458 OA
BRANCH  28  29
ATOM     29  C   UNL A   1      39.410  20.770  26.088  1.00  0.00     0.338 C 
ATOM     30  O   UNL A   1      40.087  19.761  26.204  1.00  0.00    -0.246 OA
BRANCH  29  31
ATOM     31  C   UNL A   1      39.807  22.056  26.673  1.00  0.00     0.060 A 
ATOM     32  C   UNL A   1      39.142  23.189  26.223  1.00  0.00     0.016 A 
ATOM     33  C   UNL A   1      40.918  22.182  27.498  1.00  0.00     0.016 A 
ATOM     34  C   UNL A   1      39.653  24.457  26.470  1.00  0.00     0.010 A 
ATOM     35  C   UNL A   1      41.361  23.463  27.852  1.00  0.00     0.010 A 
ATOM     36  C   UNL A   1      40.768  24.617  27.301  1.00  0.00    -0.014 A 
BRANCH  36  37
ATOM     37  C   UNL A   1      41.323  25.978  27.555  1.00  0.00     0.031 A 
ATOM     38  C   UNL A   1      42.697  26.343  27.051  1.00  0.00     0.074 A 
ATOM     39  C   UNL A   1      40.601  26.895  28.233  1.00  0.00     0.049 A 
ATOM     40  N   UNL A   1      43.417  27.406  27.305  1.00  0.00    -0.248 NA
ATOM     41  C   UNL A   1      43.356  25.378  26.155  1.00  0.00     0.031 C 
ATOM     42  C   UNL A   1      39.247  26.693  28.757  1.00  0.00     0.029 A 
ATOM     43  N   UNL A   1      40.910  28.179  28.614  1.00  0.00    -0.354 N 
ATOM     44  C   UNL A   1      44.639  27.201  26.673  1.00  0.00     0.074 A 
ATOM     45  C   UNL A   1      44.562  25.913  26.018  1.00  0.00     0.031 C 
ATOM     46  C   UNL A   1      38.838  27.812  29.371  1.00  0.00     0.029 A 
ATOM     47  C   UNL A   1      39.928  28.778  29.370  1.00  0.00     0.049 A 
ATOM     48  H   UNL A   1      41.752  28.628  28.369  1.00  0.00     0.167 HD
ATOM     49  C   UNL A   1      45.724  28.012  26.635  1.00  0.00     0.034 A 
ATOM     50  C   UNL A   1      39.918  29.948  30.039  1.00  0.00     0.034 A 
ATOM     51  C   UNL A   1      45.773  29.319  27.237  1.00  0.00     0.049 A 
ATOM     52  C   UNL A   1      41.139  30.823  29.994  1.00  0.00     0.074 A 
ATOM     53  C   UNL A   1      46.809  30.237  27.215  1.00  0.00     0.029 A 
ATOM     54  N   UNL A   1      44.746  29.896  27.967  1.00  0.00    -0.354 N 
ATOM     55  N   UNL A   1      42.267  30.633  29.355  1.00  0.00    -0.248 NA
ATOM     56  C   UNL A   1      41.081  32.079  30.752  1.00  0.00     0.031 C 
ATOM     57  C   UNL A   1      46.419  31.355  27.959  1.00  0.00     0.029 A 
ATOM     58  C   UNL A   1      45.125  31.152  28.410  1.00  0.00     0.049 A 
ATOM     59  H   UNL A   1      43.874  29.474  28.146  1.00  0.00     0.167 HD
ATOM     60  C   UNL A   1      43.041  31.759  29.605  1.00  0.00     0.074 A 
ATOM     61  C   UNL A   1      42.242  32.636  30.438  1.00  0.00     0.031 C 
ATOM     62  C   UNL A   1      44.302  32.036  29.195  1.00  0.00     0.034 A 
BRANCH  49  63
ATOM     63  C   UNL A   1      46.953  27.512  25.917  1.00  0.00     0.023 A 
ATOM     64  C   UNL A   1      47.882  26.691  26.587  1.00  0.00     0.012 A 
ATOM     65  C   UNL A   1      47.163  27.822  24.557  1.00  0.00     0.148 A 
ATOM     66  C   UNL A   1      49.020  26.222  25.929  1.00  0.00     0.002 A 
ATOM     67  C   UNL A   1      48.272  27.309  23.895  1.00  0.00     0.091 A 
ATOM     68  F   UNL A   1      46.279  28.618  23.939  1.00  0.00    -0.205 F 
ATOM     69  C   UNL A   1      49.209  26.522  24.584  1.00  0.00     0.022 A 
BRANCH  67  70
ATOM     70  S   UNL A   1      48.562  27.569  22.141  1.00  0.00     0.127 S 
ATOM     71  O   UNL A   1      48.840  26.209  21.683  1.00  0.00    -0.237 OA
ATOM     72  O   UNL A   1      47.277  28.111  21.696  1.00  0.00    -0.237 OA
ATOM     73  O   UNL A   1      49.678  28.500  22.050  1.00  0.00    -0.744 OA
ENDBRANCH  67  70
ENDBRANCH  49  63
BRANCH  50  74
ATOM     74  C   UNL A   1      38.709  30.356  30.809  1.00  0.00     0.023 A 
ATOM     75  C   UNL A   1      38.619  30.043  32.179  1.00  0.00     0.012 A 
ATOM     76  C   UNL A   1      37.661  31.075  30.200  1.00  0.00     0.148 A 
ATOM     77  C   UNL A   1      37.496  30.414  32.921  1.00  0.00     0.002 A 
ATOM     78  C   UNL A   1      36.576  31.495  30.958  1.00  0.00     0.091 A 
ATOM     79  F   UNL A   1      37.757  31.350  28.891  1.00  0.00    -0.205 F 
ATOM     80  C   UNL A   1      36.483  31.151  32.315  1.00  0.00     0.022 A 
BRANCH  78  81
ATOM     81  S   UNL A   1      35.290  32.561  30.295  1.00  0.00     0.127 S 
ATOM     82  O   UNL A   1      34.356  32.633  31.415  1.00  0.00    -0.237 OA
ATOM     83  O   UNL A   1      36.029  33.795  30.029  1.00  0.00    -0.237 OA
ATOM     84  O   UNL A   1      34.796  31.887  29.102  1.00  0.00    -0.744 OA
ENDBRANCH  78  81
ENDBRANCH  50  74
BRANCH  62  85
ATOM     85  C   UNL A   1      44.886  33.367  29.592  1.00  0.00     0.023 A 
ATOM     86  C   UNL A   1      45.658  33.481  30.765  1.00  0.00     0.012 A 
ATOM     87  C   UNL A   1      44.720  34.494  28.761  1.00  0.00     0.148 A 
ATOM     88  C   UNL A   1      46.224  34.704  31.125  1.00  0.00     0.002 A 
ATOM     89  C   UNL A   1      45.333  35.694  29.097  1.00  0.00     0.091 A 
ATOM     90  F   UNL A   1      43.967  34.369  27.658  1.00  0.00    -0.205 F 
ATOM     91  C   UNL A   1      46.073  35.805  30.285  1.00  0.00     0.022 A 
BRANCH  89  92
ATOM     92  S   UNL A   1      45.276  37.135  28.028  1.00  0.00     0.127 S 
ATOM     93  O   UNL A   1      46.163  38.062  28.730  1.00  0.00    -0.237 OA
ATOM     94  O   UNL A   1      45.813  36.610  26.772  1.00  0.00    -0.237 OA
ATOM     95  O   UNL A   1      43.878  37.539  27.966  1.00  0.00    -0.744 OA
ENDBRANCH  89  92
ENDBRANCH  62  85
ENDBRANCH  36  37
ENDBRANCH  29  31
ENDBRANCH  28  29
ENDBRANCH  27  28
ENDBRANCH   1  27
TORSDOF 19
ENDMDL
MODEL 2
REMARK VINA RESULT:     -11.6      1.348      1.594
REMARK SMILES O=C(CSc1nc(O)cc(=O)[nH]1)Nc1cccc(C(=O)OCCOC(=O)c2ccc(-c3c4nc(c(-c5cccc(S(=O)(=O)[O-])c5F)c5ccc([nH]5)c(-c5cccc(S(=O)(=O)[O-])c5F)c5nc(c(-c6cccc(S(=O)(=O)[O-])c6F)c6ccc3[nH]6)C=C5)C=C4)cc2)c1
REMARK SMILES IDX 22 1 21 2 19 3 20 4 18 5 14 6 15 7 90 8 16 9 17 10 13 11
REMARK SMILES IDX 1 12 2 13 3 15 4 16 5 17 6 18 12 19 7 20 10 21 9 23 11 24
REMARK SMILES IDX 8 25 23 27 24 28 25 29 26 30 27 31 28 32 89 33 29 34 88 35
REMARK SMILES IDX 30 36 31 37 32 38 82 39 33 40 87 41 81 42 83 43 34 44 86 45
REMARK SMILES IDX 80 46 79 47 35 49 67 50 47 51 66 52 48 53 51 54 65 55 84 56
REMARK SMILES IDX 49 57 50 58 64 60 85 61 52 62 36 63 37 64 45 65 38 66 40 67
REMARK SMILES IDX 46 68 39 69 41 70 42 71 43 72 44 73 68 74 69 75 77 76 70 77
REMARK SMILES IDX 72 78 78 79 71 80 73 81 74 82 75 83 76 84 53 85 54 86 62 87
REMARK SMILES IDX 55 88 57 89 63 90 56 91 58 92 59 93 60 94 61 95
REMARK H PARENT 13 14 12 22 8 26 83 48 51 59
REMARK Flexibility Score: inf
ROOT
ATOM      1  C   UNL A   1      35.971  19.986  25.000  1.00  0.00     0.275 C 
ENDROOT
BRANCH   1   2
ATOM      2  O   UNL A   1      35.426  21.114  25.715  1.00  0.00    -0.458 OA
BRANCH   2   3
ATOM      3  C   UNL A   1      34.077  21.260  25.684  1.00  0.00     0.338 C 
ATOM      4  O   UNL A   1      33.254  20.531  26.216  1.00  0.00    -0.246 OA
BRANCH   3   5
ATOM      5  C   UNL A   1      33.714  22.521  24.993  1.00  0.00     0.062 A 
ATOM      6  C   UNL A   1      33.102  24.857  25.046  1.00  0.00     0.042 A 
ATOM      7  C   UNL A   1      32.912  24.840  23.660  1.00  0.00     0.026 A 
ATOM      8  C   UNL A   1      33.442  23.680  25.718  1.00  0.00     0.041 A 
ATOM      9  C   UNL A   1      33.219  23.696  22.930  1.00  0.00     0.003 A 
ATOM     10  C   UNL A   1      33.675  22.560  23.594  1.00  0.00     0.016 A 
BRANCH   6  11
ATOM     11  N   UNL A   1      32.981  26.095  25.701  1.00  0.00    -0.325 N 
ATOM     12  O   UNL A   1      30.786  25.927  26.464  1.00  0.00    -0.274 OA
ATOM     13  C   UNL A   1      31.843  26.542  26.345  1.00  0.00     0.234 C 
ATOM     14  H   UNL A   1      33.766  26.688  25.700  1.00  0.00     0.169 HD
BRANCH  13  15
ATOM     15  C   UNL A   1      31.961  27.939  26.913  1.00  0.00     0.178 C 
BRANCH  15  16
ATOM     16  S   UNL A   1      32.744  29.114  25.783  1.00  0.00    -0.078 SA
BRANCH  16  17
ATOM     17  C   UNL A   1      31.667  29.066  24.420  1.00  0.00     0.172 A 
ATOM     18  N   UNL A   1      31.821  28.166  23.508  1.00  0.00    -0.189 NA
ATOM     19  N   UNL A   1      30.655  29.970  24.454  1.00  0.00    -0.301 N 
ATOM     20  C   UNL A   1      30.876  28.148  22.523  1.00  0.00     0.218 A 
ATOM     21  C   UNL A   1      29.681  29.978  23.503  1.00  0.00     0.255 A 
ATOM     22  H   UNL A   1      30.625  30.634  25.181  1.00  0.00     0.172 HD
ATOM     23  C   UNL A   1      29.828  28.972  22.447  1.00  0.00     0.139 A 
ATOM     24  O   UNL A   1      28.728  30.747  23.537  1.00  0.00    -0.269 OA
BRANCH  20  25
ATOM     25  O   UNL A   1      31.031  27.176  21.570  1.00  0.00    -0.493 OA
ATOM     26  H   UNL A   1      31.300  26.313  21.821  1.00  0.00     0.295 HD
ENDBRANCH  20  25
ENDBRANCH  16  17
ENDBRANCH  15  16
ENDBRANCH  13  15
ENDBRANCH   6  11
ENDBRANCH   3   5
ENDBRANCH   2   3
ENDBRANCH   1   2
BRANCH   1  27
ATOM     27  C   UNL A   1      37.501  20.017  24.988  1.00  0.00     0.275 C 
BRANCH  27  28
ATOM     28  O   UNL A   1      37.990  21.156  25.715  1.00  0.00    -0.458 OA
BRANCH  28  29
ATOM     29  C   UNL A   1      39.252  21.038  26.184  1.00  0.00     0.338 C 
ATOM     30  O   UNL A   1      39.993  20.074  26.090  1.00  0.00    -0.246 OA
BRANCH  29  31
ATOM     31  C   UNL A   1      39.696  22.320  26.745  1.00  0.00     0.060 A 
ATOM     32  C   UNL A   1      39.031  23.462  26.320  1.00  0.00     0.016 A 
ATOM     33  C   UNL A   1      40.844  22.430  27.520  1.00  0.00     0.016 A 
ATOM     34  C   UNL A   1      39.574  24.722  26.538  1.00  0.00     0.010 A 
ATOM     35  C   UNL A   1      41.325  23.705  27.847  1.00  0.00     0.010 A 
ATOM     36  C   UNL A   1      40.727  24.867  27.318  1.00  0.00    -0.014 A 
BRANCH  36  37
ATOM     37  C   UNL A   1      41.315  26.219  27.541  1.00  0.00     0.031 A 
ATOM     38  C   UNL A   1      42.690  26.545  27.012  1.00  0.00     0.074 A 
ATOM     39  C   UNL A   1      40.624  27.164  28.212  1.00  0.00     0.049 A 
ATOM     40  N   UNL A   1      43.437  27.595  27.238  1.00  0.00    -0.248 NA
ATOM     41  C   UNL A   1      43.316  25.550  26.125  1.00  0.00     0.031 C 
ATOM     42  C   UNL A   1      39.273  27.001  28.757  1.00  0.00     0.029 A 
ATOM     43  N   UNL A   1      40.966  28.447  28.567  1.00  0.00    -0.354 N 
ATOM     44  C   UNL A   1      44.645  27.352  26.593  1.00  0.00     0.074 A 
ATOM     45  C   UNL A   1      44.531  26.055  25.962  1.00  0.00     0.031 C 
ATOM     46  C   UNL A   1      38.897  28.139  29.357  1.00  0.00     0.029 A 
ATOM     47  C   UNL A   1      40.008  29.080  29.325  1.00  0.00     0.049 A 
ATOM     48  H   UNL A   1      41.814  28.872  28.303  1.00  0.00     0.167 HD
ATOM     49  C   UNL A   1      45.748  28.137  26.527  1.00  0.00     0.034 A 
ATOM     50  C   UNL A   1      40.034  30.262  29.973  1.00  0.00     0.034 A 
ATOM     51  C   UNL A   1      45.834  29.453  27.105  1.00  0.00     0.049 A 
ATOM     52  C   UNL A   1      41.273  31.108  29.897  1.00  0.00     0.074 A 
ATOM     53  C   UNL A   1      46.890  30.347  27.053  1.00  0.00     0.029 A 
ATOM     54  N   UNL A   1      44.830  30.065  27.839  1.00  0.00    -0.354 N 
ATOM     55  N   UNL A   1      42.387  30.881  29.246  1.00  0.00    -0.248 NA
ATOM     56  C   UNL A   1      41.253  32.378  30.634  1.00  0.00     0.031 C 
ATOM     57  C   UNL A   1      46.535  31.486  27.783  1.00  0.00     0.029 A 
ATOM     58  C   UNL A   1      45.243  31.320  28.254  1.00  0.00     0.049 A 
ATOM     59  H   UNL A   1      43.951  29.666  28.036  1.00  0.00     0.167 HD
ATOM     60  C   UNL A   1      43.189  31.994  29.467  1.00  0.00     0.074 A 
ATOM     61  C   UNL A   1      42.422  32.904  30.294  1.00  0.00     0.031 C 
ATOM     62  C   UNL A   1      44.451  32.236  29.035  1.00  0.00     0.034 A 
BRANCH  49  63
ATOM     63  C   UNL A   1      46.955  27.598  25.802  1.00  0.00     0.023 A 
ATOM     64  C   UNL A   1      47.109  27.819  24.419  1.00  0.00     0.012 A 
ATOM     65  C   UNL A   1      47.964  26.907  26.505  1.00  0.00     0.148 A 
ATOM     66  C   UNL A   1      48.225  27.326  23.739  1.00  0.00     0.002 A 
ATOM     67  C   UNL A   1      49.096  26.464  25.832  1.00  0.00     0.091 A 
ATOM     68  F   UNL A   1      47.794  26.691  27.817  1.00  0.00    -0.205 F 
ATOM     69  C   UNL A   1      49.221  26.659  24.447  1.00  0.00     0.022 A 
BRANCH  67  70
ATOM     70  S   UNL A   1      50.473  25.668  26.668  1.00  0.00     0.127 S 
ATOM     71  O   UNL A   1      51.414  25.473  25.566  1.00  0.00    -0.237 OA
ATOM     72  O   UNL A   1      50.873  26.687  27.638  1.00  0.00    -0.237 OA
ATOM     73  O   UNL A   1      49.937  24.447  27.254  1.00  0.00    -0.744 OA
ENDBRANCH  67  70
ENDBRANCH  49  63
BRANCH  50  74
ATOM     74  C   UNL A   1      38.844  30.710  30.752  1.00  0.00     0.023 A 
ATOM     75  C   UNL A   1      38.822  30.534  32.149  1.00  0.00     0.012 A 
ATOM     76  C   UNL A   1      37.749  31.332  30.122  1.00  0.00     0.148 A 
ATOM     77  C   UNL A   1      37.719  30.946  32.900  1.00  0.00     0.002 A 
ATOM     78  C   UNL A   1      36.682  31.795  30.882  1.00  0.00     0.091 A 
ATOM     79  F   UNL A   1      37.780  31.475  28.789  1.00  0.00    -0.205 F 
ATOM     80  C   UNL A   1      36.657  31.587  32.269  1.00  0.00     0.022 A 
BRANCH  78  81
ATOM     81  S   UNL A   1      35.334  32.749  30.174  1.00  0.00     0.127 S 
ATOM     82  O   UNL A   1      34.350  32.722  31.253  1.00  0.00    -0.237 OA
ATOM     83  O   UNL A   1      35.969  34.048  29.952  1.00  0.00    -0.237 OA
ATOM     84  O   UNL A   1      34.954  32.050  28.954  1.00  0.00    -0.744 OA
ENDBRANCH  78  81
ENDBRANCH  50  74
BRANCH  62  85
ATOM     85  C   UNL A   1      45.070  33.560  29.400  1.00  0.00     0.023 A 
ATOM     86  C   UNL A   1      45.855  33.678  30.564  1.00  0.00     0.012 A 
ATOM     87  C   UNL A   1      44.921  34.674  28.550  1.00  0.00     0.148 A 
ATOM     88  C   UNL A   1      46.454  34.893  30.895  1.00  0.00     0.002 A 
ATOM     89  C   UNL A   1      45.566  35.866  28.857  1.00  0.00     0.091 A 
ATOM     90  F   UNL A   1      44.154  34.546  27.457  1.00  0.00    -0.205 F 
ATOM     91  C   UNL A   1      46.319  35.982  30.036  1.00  0.00     0.022 A 
BRANCH  89  92
ATOM     92  S   UNL A   1      45.532  37.288  27.761  1.00  0.00     0.127 S 
ATOM     93  O   UNL A   1      44.098  37.558  27.668  1.00  0.00    -0.237 OA
ATOM     94  O   UNL A   1      46.292  38.282  28.521  1.00  0.00    -0.237 OA
ATOM     95  O   UNL A   1      46.167  36.859  26.522  1.00  0.00    -0.744 OA
ENDBRANCH  89  92
ENDBRANCH  62  85
ENDBRANCH  36  37
ENDBRANCH  29  31
ENDBRANCH  28  29
ENDBRANCH  27  28
ENDBRANCH   1  27
TORSDOF 19
ENDMDL
MODEL 3
REMARK VINA RESULT:     -11.6      5.426      8.701
REMARK SMILES O=C(CSc1nc(O)cc(=O)[nH]1)Nc1cccc(C(=O)OCCOC(=O)c2ccc(-c3c4nc(c(-c5cccc(S(=O)(=O)[O-])c5F)c5ccc([nH]5)c(-c5cccc(S(=O)(=O)[O-])c5F)c5nc(c(-c6cccc(S(=O)(=O)[O-])c6F)c6ccc3[nH]6)C=C5)C=C4)cc2)c1
REMARK SMILES IDX 22 1 21 2 19 3 20 4 18 5 14 6 15 7 90 8 16 9 17 10 13 11
REMARK SMILES IDX 1 12 2 13 3 15 4 16 5 17 6 18 12 19 7 20 10 21 9 23 11 24
REMARK SMILES IDX 8 25 23 27 24 28 25 29 26 30 27 31 28 32 89 33 29 34 88 35
REMARK SMILES IDX 30 36 31 37 32 38 82 39 33 40 87 41 81 42 83 43 34 44 86 45
REMARK SMILES IDX 80 46 79 47 35 49 67 50 47 51 66 52 48 53 51 54 65 55 84 56
REMARK SMILES IDX 49 57 50 58 64 60 85 61 52 62 36 63 37 64 45 65 38 66 40 67
REMARK SMILES IDX 46 68 39 69 41 70 42 71 43 72 44 73 68 74 69 75 77 76 70 77
REMARK SMILES IDX 72 78 78 79 71 80 73 81 74 82 75 83 76 84 53 85 54 86 62 87
REMARK SMILES IDX 55 88 57 89 63 90 56 91 58 92 59 93 60 94 61 95
REMARK H PARENT 13 14 12 22 8 26 83 48 51 59
REMARK Flexibility Score: inf
ROOT
ATOM      1  C   UNL A   1      31.718  30.231  26.022  1.00  0.00     0.275 C 
ENDROOT
BRANCH   1   2
ATOM      2  O   UNL A   1      32.910  29.760  25.361  1.00  0.00    -0.458 OA
BRANCH   2   3
ATOM      3  C   UNL A   1      33.373  28.540  25.736  1.00  0.00     0.338 C 
ATOM      4  O   UNL A   1      33.648  28.184  26.872  1.00  0.00    -0.246 OA
BRANCH   3   5
ATOM      5  C   UNL A   1      33.399  27.621  24.572  1.00  0.00     0.062 A 
ATOM      6  C   UNL A   1      33.381  25.393  23.641  1.00  0.00     0.042 A 
ATOM      7  C   UNL A   1      33.578  25.924  22.361  1.00  0.00     0.026 A 
ATOM      8  C   UNL A   1      33.355  26.240  24.751  1.00  0.00     0.041 A 
ATOM      9  C   UNL A   1      33.584  27.303  22.175  1.00  0.00     0.003 A 
ATOM     10  C   UNL A   1      33.435  28.145  23.274  1.00  0.00     0.016 A 
BRANCH   6  11
ATOM     11  N   UNL A   1      33.172  24.006  23.740  1.00  0.00    -0.325 N 
ATOM     12  O   UNL A   1      35.092  23.398  24.910  1.00  0.00    -0.274 OA
ATOM     13  C   UNL A   1      34.036  23.116  24.349  1.00  0.00     0.234 C 
ATOM     14  H   UNL A   1      32.347  23.641  23.345  1.00  0.00     0.169 HD
BRANCH  13  15
ATOM     15  C   UNL A   1      33.601  21.670  24.259  1.00  0.00     0.178 C 
BRANCH  15  16
ATOM     16  S   UNL A   1      34.739  20.521  25.068  1.00  0.00    -0.078 SA
BRANCH  16  17
ATOM     17  C   UNL A   1      34.149  18.986  24.506  1.00  0.00     0.172 A 
ATOM     18  N   UNL A   1      33.194  18.939  23.639  1.00  0.00    -0.189 NA
ATOM     19  N   UNL A   1      34.813  17.903  24.985  1.00  0.00    -0.301 N 
ATOM     20  C   UNL A   1      32.857  17.695  23.189  1.00  0.00     0.218 A 
ATOM     21  C   UNL A   1      34.523  16.645  24.552  1.00  0.00     0.255 A 
ATOM     22  H   UNL A   1      35.519  18.031  25.660  1.00  0.00     0.172 HD
ATOM     23  C   UNL A   1      33.438  16.556  23.570  1.00  0.00     0.139 A 
ATOM     24  O   UNL A   1      35.141  15.657  24.927  1.00  0.00    -0.269 OA
BRANCH  20  25
ATOM     25  O   UNL A   1      31.859  17.655  22.251  1.00  0.00    -0.493 OA
ATOM     26  H   UNL A   1      31.401  18.439  22.021  1.00  0.00     0.295 HD
ENDBRANCH  20  25
ENDBRANCH  16  17
ENDBRANCH  15  16
ENDBRANCH  13  15
ENDBRANCH   6  11
ENDBRANCH   3   5
ENDBRANCH   2   3
ENDBRANCH   1   2
BRANCH   1  27
ATOM     27  C   UNL A   1      31.918  31.632  26.603  1.00  0.00     0.275 C 
BRANCH  27  28
ATOM     28  O   UNL A   1      32.839  31.597  27.705  1.00  0.00    -0.458 OA
BRANCH  28  29
ATOM     29  C   UNL A   1      33.712  32.628  27.757  1.00  0.00     0.338 C 
ATOM     30  O   UNL A   1      33.464  33.817  27.645  1.00  0.00    -0.246 OA
BRANCH  29  31
ATOM     31  C   UNL A   1      35.049  32.131  28.102  1.00  0.00     0.060 A 
ATOM     32  C   UNL A   1      35.144  30.816  28.539  1.00  0.00     0.016 A 
ATOM     33  C   UNL A   1      36.154  32.971  28.175  1.00  0.00     0.016 A 
ATOM     34  C   UNL A   1      36.288  30.363  29.183  1.00  0.00     0.010 A 
ATOM     35  C   UNL A   1      37.351  32.476  28.711  1.00  0.00     0.010 A 
ATOM     36  C   UNL A   1      37.419  31.183  29.269  1.00  0.00    -0.014 A 
BRANCH  36  37
ATOM     37  C   UNL A   1      38.642  30.699  29.971  1.00  0.00     0.031 A 
ATOM     38  C   UNL A   1      39.554  29.699  29.304  1.00  0.00     0.074 A 
ATOM     39  C   UNL A   1      38.948  31.153  31.205  1.00  0.00     0.049 A 
ATOM     40  N   UNL A   1      40.567  29.038  29.806  1.00  0.00    -0.248 NA
ATOM     41  C   UNL A   1      39.281  29.387  27.891  1.00  0.00     0.031 C 
ATOM     42  C   UNL A   1      38.174  32.141  31.962  1.00  0.00     0.029 A 
ATOM     43  N   UNL A   1      39.982  30.831  32.050  1.00  0.00    -0.354 N 
ATOM     44  C   UNL A   1      40.997  28.177  28.802  1.00  0.00     0.074 A 
ATOM     45  C   UNL A   1      40.139  28.402  27.659  1.00  0.00     0.031 C 
ATOM     46  C   UNL A   1      38.768  32.358  33.144  1.00  0.00     0.029 A 
ATOM     47  C   UNL A   1      39.907  31.460  33.273  1.00  0.00     0.049 A 
ATOM     48  H   UNL A   1      40.708  30.213  31.805  1.00  0.00     0.167 HD
ATOM     49  C   UNL A   1      42.016  27.284  28.825  1.00  0.00     0.034 A 
ATOM     50  C   UNL A   1      40.634  31.296  34.396  1.00  0.00     0.034 A 
ATOM     51  C   UNL A   1      42.906  27.109  29.943  1.00  0.00     0.049 A 
ATOM     52  C   UNL A   1      41.749  30.290  34.402  1.00  0.00     0.074 A 
ATOM     53  C   UNL A   1      43.998  26.264  30.049  1.00  0.00     0.029 A 
ATOM     54  N   UNL A   1      42.810  27.787  31.149  1.00  0.00    -0.354 N 
ATOM     55  N   UNL A   1      42.169  29.519  33.430  1.00  0.00    -0.248 NA
ATOM     56  C   UNL A   1      42.499  30.141  35.656  1.00  0.00     0.031 C 
ATOM     57  C   UNL A   1      44.541  26.409  31.329  1.00  0.00     0.029 A 
ATOM     58  C   UNL A   1      43.814  27.374  32.008  1.00  0.00     0.049 A 
ATOM     59  H   UNL A   1      42.126  28.463  31.364  1.00  0.00     0.167 HD
ATOM     60  C   UNL A   1      43.253  28.817  33.943  1.00  0.00     0.074 A 
ATOM     61  C   UNL A   1      43.437  29.272  35.306  1.00  0.00     0.031 C 
ATOM     62  C   UNL A   1      44.018  27.871  33.344  1.00  0.00     0.034 A 
BRANCH  49  63
ATOM     63  C   UNL A   1      42.231  26.426  27.604  1.00  0.00     0.023 A 
ATOM     64  C   UNL A   1      42.881  26.954  26.471  1.00  0.00     0.012 A 
ATOM     65  C   UNL A   1      41.824  25.076  27.597  1.00  0.00     0.148 A 
ATOM     66  C   UNL A   1      43.086  26.167  25.337  1.00  0.00     0.002 A 
ATOM     67  C   UNL A   1      42.077  24.283  26.483  1.00  0.00     0.091 A 
ATOM     68  F   UNL A   1      41.192  24.593  28.676  1.00  0.00    -0.205 F 
ATOM     69  C   UNL A   1      42.694  24.831  25.347  1.00  0.00     0.022 A 
BRANCH  67  70
ATOM     70  S   UNL A   1      41.686  22.530  26.430  1.00  0.00     0.127 S 
ATOM     71  O   UNL A   1      40.226  22.556  26.365  1.00  0.00    -0.237 OA
ATOM     72  O   UNL A   1      42.344  22.107  25.194  1.00  0.00    -0.237 OA
ATOM     73  O   UNL A   1      42.247  21.955  27.645  1.00  0.00    -0.744 OA
ENDBRANCH  67  70
ENDBRANCH  49  63
BRANCH  50  74
ATOM     74  C   UNL A   1      40.324  32.107  35.608  1.00  0.00     0.023 A 
ATOM     75  C   UNL A   1      41.146  33.200  35.941  1.00  0.00     0.012 A 
ATOM     76  C   UNL A   1      39.206  31.818  36.416  1.00  0.00     0.148 A 
ATOM     77  C   UNL A   1      40.876  33.974  37.072  1.00  0.00     0.002 A 
ATOM     78  C   UNL A   1      38.907  32.629  37.503  1.00  0.00     0.091 A 
ATOM     79  F   UNL A   1      38.444  30.763  36.092  1.00  0.00    -0.205 F 
ATOM     80  C   UNL A   1      39.751  33.697  37.844  1.00  0.00     0.022 A 
BRANCH  78  81
ATOM     81  S   UNL A   1      37.408  32.430  38.473  1.00  0.00     0.127 S 
ATOM     82  O   UNL A   1      36.402  33.012  37.589  1.00  0.00    -0.237 OA
ATOM     83  O   UNL A   1      37.335  30.976  38.618  1.00  0.00    -0.237 OA
ATOM     84  O   UNL A   1      37.646  33.147  39.718  1.00  0.00    -0.744 OA
ENDBRANCH  78  81
ENDBRANCH  50  74
BRANCH  62  85
ATOM     85  C   UNL A   1      45.164  27.299  34.137  1.00  0.00     0.023 A 
ATOM     86  C   UNL A   1      46.417  27.942  34.137  1.00  0.00     0.012 A 
ATOM     87  C   UNL A   1      44.974  26.152  34.935  1.00  0.00     0.148 A 
ATOM     88  C   UNL A   1      47.475  27.432  34.890  1.00  0.00     0.002 A 
ATOM     89  C   UNL A   1      46.016  25.683  35.725  1.00  0.00     0.091 A 
ATOM     90  F   UNL A   1      43.779  25.544  34.906  1.00  0.00    -0.205 F 
ATOM     91  C   UNL A   1      47.270  26.312  35.693  1.00  0.00     0.022 A 
BRANCH  89  92
ATOM     92  S   UNL A   1      45.816  24.309  36.863  1.00  0.00     0.127 S 
ATOM     93  O   UNL A   1      44.381  24.046  36.764  1.00  0.00    -0.237 OA
ATOM     94  O   UNL A   1      46.667  23.282  36.261  1.00  0.00    -0.237 OA
ATOM     95  O   UNL A   1      46.272  24.788  38.161  1.00  0.00    -0.744 OA
ENDBRANCH  89  92
ENDBRANCH  62  85
ENDBRANCH  36  37
ENDBRANCH  29  31
ENDBRANCH  28  29
ENDBRANCH  27  28
ENDBRANCH   1  27
TORSDOF 19
ENDMDL
