MODEL 1
REMARK VINA RESULT:     -12.6      0.000      0.000
REMARK SMILES CC(C)(NC(=O)NC[C@]1(C)CCCO1)C(C)(C)C(=O)OCCOC(=O)c1ccc(-c2c3nc(c(-c4cccc(S(=O)(=O)[O-])c4F)c4ccc([nH]4)c(-c4cccc(S(=O)(=O)[O-])c4F)c4nc(c(-c5cccc(S(=O)(=O)[O-])c5F)c5ccc2[nH]5)C=C4)C=C3)cc1
REMARK SMILES IDX 21 1 20 2 18 3 19 4 15 5 16 6 17 7 2 8 1 9 3 10 4 11 5 12
REMARK SMILES IDX 6 14 7 15 8 17 9 18 11 19 14 20 10 21 12 22 13 23 22 24
REMARK SMILES IDX 23 25 24 26 25 27 26 28 27 29 88 30 28 31 87 32 29 33 30 34
REMARK SMILES IDX 31 35 81 36 32 37 86 38 80 39 82 40 33 41 85 42 79 43 78 44
REMARK SMILES IDX 34 46 66 47 46 48 65 49 47 50 50 51 64 52 83 53 48 54 49 55
REMARK SMILES IDX 63 57 84 58 51 59 35 60 36 61 44 62 37 63 39 64 45 65 38 66
REMARK SMILES IDX 40 67 41 68 42 69 43 70 67 71 68 72 76 73 69 74 71 75 77 76
REMARK SMILES IDX 70 77 72 78 73 79 74 80 75 81 52 82 53 83 61 84 54 85 56 86
REMARK SMILES IDX 62 87 55 88 57 89 58 90 59 91 60 92
REMARK H PARENT 4 13 7 16 82 45 50 56
REMARK Flexibility Score: inf
ROOT
ATOM      1  C   UNL A   1      31.902  27.202  26.681  1.00  0.00     0.274 C 
ENDROOT
BRANCH   1   2
ATOM      2  O   UNL A   1      32.401  25.929  26.090  1.00  0.00    -0.462 OA
BRANCH   2   3
ATOM      3  C   UNL A   1      32.980  25.828  24.878  1.00  0.00     0.313 C 
ATOM      4  O   UNL A   1      34.082  26.349  24.789  1.00  0.00    -0.252 OA
BRANCH   3   5
ATOM      5  C   UNL A   1      32.186  25.218  23.496  1.00  0.00     0.085 C 
ATOM      6  C   UNL A   1      32.588  25.140  21.972  1.00  0.00     0.026 C 
ATOM      7  C   UNL A   1      30.733  25.712  23.436  1.00  0.00     0.026 C 
BRANCH   5   8
ATOM      8  C   UNL A   1      32.290  23.719  23.891  1.00  0.00     0.052 C 
ATOM      9  C   UNL A   1      32.127  22.625  22.796  1.00  0.00     0.035 C 
ATOM     10  C   UNL A   1      31.106  23.322  24.857  1.00  0.00     0.035 C 
BRANCH   8  11
ATOM     11  N   UNL A   1      33.702  23.599  24.416  1.00  0.00    -0.332 N 
ATOM     12  C   UNL A   1      34.424  22.686  25.116  1.00  0.00     0.315 C 
ATOM     13  H   UNL A   1      34.241  24.391  24.191  1.00  0.00     0.165 HD
ATOM     14  O   UNL A   1      35.534  23.086  25.503  1.00  0.00    -0.249 OA
ATOM     15  N   UNL A   1      34.170  21.395  25.448  1.00  0.00    -0.335 N 
ATOM     16  H   UNL A   1      35.032  21.139  25.849  1.00  0.00     0.165 HD
BRANCH  15  17
ATOM     17  C   UNL A   1      33.347  20.009  25.602  1.00  0.00     0.152 C 
BRANCH  17  18
ATOM     18  C   UNL A   1      33.204  18.417  24.889  1.00  0.00     0.083 C 
ATOM     19  C   UNL A   1      32.426  17.106  25.302  1.00  0.00     0.039 C 
ATOM     20  O   UNL A   1      34.506  17.898  24.479  1.00  0.00    -0.373 OA
ATOM     21  C   UNL A   1      32.525  18.784  23.531  1.00  0.00     0.044 C 
ATOM     22  C   UNL A   1      33.422  15.973  25.266  1.00  0.00     0.031 C 
ATOM     23  C   UNL A   1      34.435  16.473  24.287  1.00  0.00     0.161 C 
ENDBRANCH  17  18
ENDBRANCH  15  17
ENDBRANCH   8  11
ENDBRANCH   5   8
ENDBRANCH   3   5
ENDBRANCH   2   3
ENDBRANCH   1   2
BRANCH   1  24
ATOM     24  C   UNL A   1      31.791  28.453  25.754  1.00  0.00     0.275 C 
BRANCH  24  25
ATOM     25  O   UNL A   1      32.959  29.271  25.896  1.00  0.00    -0.458 OA
BRANCH  25  26
ATOM     26  C   UNL A   1      32.925  30.426  26.611  1.00  0.00     0.338 C 
ATOM     27  O   UNL A   1      31.961  31.140  26.802  1.00  0.00    -0.246 OA
BRANCH  26  28
ATOM     28  C   UNL A   1      34.259  30.555  27.270  1.00  0.00     0.060 A 
ATOM     29  C   UNL A   1      34.865  29.372  27.653  1.00  0.00     0.016 A 
ATOM     30  C   UNL A   1      34.864  31.746  27.655  1.00  0.00     0.016 A 
ATOM     31  C   UNL A   1      35.888  29.341  28.573  1.00  0.00     0.010 A 
ATOM     32  C   UNL A   1      36.089  31.701  28.369  1.00  0.00     0.010 A 
ATOM     33  C   UNL A   1      36.619  30.481  28.844  1.00  0.00    -0.014 A 
BRANCH  33  34
ATOM     34  C   UNL A   1      37.923  30.320  29.559  1.00  0.00     0.031 A 
ATOM     35  C   UNL A   1      39.029  29.512  28.948  1.00  0.00     0.074 A 
ATOM     36  C   UNL A   1      38.148  30.910  30.761  1.00  0.00     0.049 A 
ATOM     37  N   UNL A   1      40.065  28.967  29.529  1.00  0.00    -0.248 NA
ATOM     38  C   UNL A   1      38.959  29.277  27.498  1.00  0.00     0.031 C 
ATOM     39  C   UNL A   1      37.236  31.815  31.473  1.00  0.00     0.029 A 
ATOM     40  N   UNL A   1      39.231  30.835  31.611  1.00  0.00    -0.354 N 
ATOM     41  C   UNL A   1      40.700  28.222  28.546  1.00  0.00     0.074 A 
ATOM     42  C   UNL A   1      39.966  28.432  27.315  1.00  0.00     0.031 C 
ATOM     43  C   UNL A   1      37.811  32.254  32.598  1.00  0.00     0.029 A 
ATOM     44  C   UNL A   1      39.045  31.518  32.796  1.00  0.00     0.049 A 
ATOM     45  H   UNL A   1      40.056  30.343  31.395  1.00  0.00     0.167 HD
ATOM     46  C   UNL A   1      41.784  27.422  28.672  1.00  0.00     0.034 A 
ATOM     47  C   UNL A   1      39.711  31.485  33.965  1.00  0.00     0.034 A 
ATOM     48  C   UNL A   1      42.560  27.298  29.878  1.00  0.00     0.049 A 
ATOM     49  C   UNL A   1      40.879  30.560  34.099  1.00  0.00     0.074 A 
ATOM     50  C   UNL A   1      43.671  26.507  30.109  1.00  0.00     0.029 A 
ATOM     51  N   UNL A   1      42.324  28.004  31.049  1.00  0.00    -0.354 N 
ATOM     52  N   UNL A   1      41.427  29.791  33.191  1.00  0.00    -0.248 NA
ATOM     53  C   UNL A   1      41.514  30.485  35.421  1.00  0.00     0.031 C 
ATOM     54  C   UNL A   1      44.103  26.729  31.422  1.00  0.00     0.029 A 
ATOM     55  C   UNL A   1      43.272  27.674  32.002  1.00  0.00     0.049 A 
ATOM     56  H   UNL A   1      41.589  28.647  31.182  1.00  0.00     0.167 HD
ATOM     57  C   UNL A   1      42.482  29.151  33.827  1.00  0.00     0.074 A 
ATOM     58  C   UNL A   1      42.514  29.647  35.188  1.00  0.00     0.031 C 
ATOM     59  C   UNL A   1      43.329  28.217  33.333  1.00  0.00     0.034 A 
BRANCH  46  60
ATOM     60  C   UNL A   1      42.183  26.593  27.483  1.00  0.00     0.023 A 
ATOM     61  C   UNL A   1      42.934  27.162  26.437  1.00  0.00     0.012 A 
ATOM     62  C   UNL A   1      41.852  25.223  27.434  1.00  0.00     0.148 A 
ATOM     63  C   UNL A   1      43.328  26.385  25.347  1.00  0.00     0.002 A 
ATOM     64  C   UNL A   1      42.284  24.447  26.367  1.00  0.00     0.091 A 
ATOM     65  F   UNL A   1      41.112  24.708  28.426  1.00  0.00    -0.205 F 
ATOM     66  C   UNL A   1      43.014  25.028  25.317  1.00  0.00     0.022 A 
BRANCH  64  67
ATOM     67  S   UNL A   1      41.994  22.677  26.285  1.00  0.00     0.127 S 
ATOM     68  O   UNL A   1      40.533  22.618  26.251  1.00  0.00    -0.237 OA
ATOM     69  O   UNL A   1      42.647  22.313  25.027  1.00  0.00    -0.237 OA
ATOM     70  O   UNL A   1      42.618  22.113  27.474  1.00  0.00    -0.744 OA
ENDBRANCH  64  67
ENDBRANCH  46  60
BRANCH  47  71
ATOM     71  C   UNL A   1      39.234  32.301  35.121  1.00  0.00     0.023 A 
ATOM     72  C   UNL A   1      38.308  31.747  36.023  1.00  0.00     0.012 A 
ATOM     73  C   UNL A   1      39.724  33.603  35.355  1.00  0.00     0.148 A 
ATOM     74  C   UNL A   1      37.867  32.479  37.128  1.00  0.00     0.002 A 
ATOM     75  C   UNL A   1      39.337  34.297  36.495  1.00  0.00     0.091 A 
ATOM     76  F   UNL A   1      40.584  34.130  34.472  1.00  0.00    -0.205 F 
ATOM     77  C   UNL A   1      38.394  33.745  37.373  1.00  0.00     0.022 A 
BRANCH  75  78
ATOM     78  S   UNL A   1      40.090  35.862  36.964  1.00  0.00     0.127 S 
ATOM     79  O   UNL A   1      41.500  35.497  37.061  1.00  0.00    -0.237 OA
ATOM     80  O   UNL A   1      39.751  36.717  35.826  1.00  0.00    -0.237 OA
ATOM     81  O   UNL A   1      39.442  36.246  38.212  1.00  0.00    -0.744 OA
ENDBRANCH  75  78
ENDBRANCH  47  71
BRANCH  59  82
ATOM     82  C   UNL A   1      44.397  27.702  34.257  1.00  0.00     0.023 A 
ATOM     83  C   UNL A   1      45.594  28.427  34.414  1.00  0.00     0.012 A 
ATOM     84  C   UNL A   1      44.191  26.530  35.009  1.00  0.00     0.148 A 
ATOM     85  C   UNL A   1      46.583  27.978  35.288  1.00  0.00     0.002 A 
ATOM     86  C   UNL A   1      45.161  26.113  35.910  1.00  0.00     0.091 A 
ATOM     87  F   UNL A   1      43.054  25.843  34.823  1.00  0.00    -0.205 F 
ATOM     88  C   UNL A   1      46.362  26.829  36.044  1.00  0.00     0.022 A 
BRANCH  86  89
ATOM     89  S   UNL A   1      44.923  24.694  36.986  1.00  0.00     0.127 S 
ATOM     90  O   UNL A   1      46.274  24.478  37.499  1.00  0.00    -0.237 OA
ATOM     91  O   UNL A   1      43.970  25.207  37.972  1.00  0.00    -0.237 OA
ATOM     92  O   UNL A   1      44.397  23.633  36.137  1.00  0.00    -0.744 OA
ENDBRANCH  86  89
ENDBRANCH  59  82
ENDBRANCH  33  34
ENDBRANCH  26  28
ENDBRANCH  25  26
ENDBRANCH  24  25
ENDBRANCH   1  24
TORSDOF 18
ENDMDL
MODEL 2
REMARK VINA RESULT:     -12.6      1.423      1.742
REMARK SMILES CC(C)(NC(=O)NC[C@]1(C)CCCO1)C(C)(C)C(=O)OCCOC(=O)c1ccc(-c2c3nc(c(-c4cccc(S(=O)(=O)[O-])c4F)c4ccc([nH]4)c(-c4cccc(S(=O)(=O)[O-])c4F)c4nc(c(-c5cccc(S(=O)(=O)[O-])c5F)c5ccc2[nH]5)C=C4)C=C3)cc1
REMARK SMILES IDX 21 1 20 2 18 3 19 4 15 5 16 6 17 7 2 8 1 9 3 10 4 11 5 12
REMARK SMILES IDX 6 14 7 15 8 17 9 18 11 19 14 20 10 21 12 22 13 23 22 24
REMARK SMILES IDX 23 25 24 26 25 27 26 28 27 29 88 30 28 31 87 32 29 33 30 34
REMARK SMILES IDX 31 35 81 36 32 37 86 38 80 39 82 40 33 41 85 42 79 43 78 44
REMARK SMILES IDX 34 46 66 47 46 48 65 49 47 50 50 51 64 52 83 53 48 54 49 55
REMARK SMILES IDX 63 57 84 58 51 59 35 60 36 61 44 62 37 63 39 64 45 65 38 66
REMARK SMILES IDX 40 67 41 68 42 69 43 70 67 71 68 72 76 73 69 74 71 75 77 76
REMARK SMILES IDX 70 77 72 78 73 79 74 80 75 81 52 82 53 83 61 84 54 85 56 86
REMARK SMILES IDX 62 87 55 88 57 89 58 90 59 91 60 92
REMARK H PARENT 4 13 7 16 82 45 50 56
REMARK Flexibility Score: inf
ROOT
ATOM      1  C   UNL A   1      32.297  27.950  24.409  1.00  0.00     0.274 C 
ENDROOT
BRANCH   1   2
ATOM      2  O   UNL A   1      32.114  26.569  24.937  1.00  0.00    -0.462 OA
BRANCH   2   3
ATOM      3  C   UNL A   1      33.077  25.628  24.958  1.00  0.00     0.313 C 
ATOM      4  O   UNL A   1      33.880  25.732  25.873  1.00  0.00    -0.252 OA
BRANCH   3   5
ATOM      5  C   UNL A   1      33.316  24.491  23.708  1.00  0.00     0.085 C 
ATOM      6  C   UNL A   1      34.313  23.280  23.533  1.00  0.00     0.026 C 
ATOM      7  C   UNL A   1      33.388  25.185  22.340  1.00  0.00     0.026 C 
BRANCH   5   8
ATOM      8  C   UNL A   1      31.980  23.726  23.919  1.00  0.00     0.052 C 
ATOM      9  C   UNL A   1      31.826  22.283  23.355  1.00  0.00     0.035 C 
ATOM     10  C   UNL A   1      30.806  24.450  23.151  1.00  0.00     0.035 C 
BRANCH   8  11
ATOM     11  N   UNL A   1      31.880  23.616  25.423  1.00  0.00    -0.332 N 
ATOM     12  C   UNL A   1      32.147  22.676  26.367  1.00  0.00     0.315 C 
ATOM     13  H   UNL A   1      31.529  24.443  25.825  1.00  0.00     0.165 HD
ATOM     14  O   UNL A   1      31.730  22.949  27.505  1.00  0.00    -0.249 OA
ATOM     15  N   UNL A   1      32.819  21.499  26.306  1.00  0.00    -0.335 N 
ATOM     16  H   UNL A   1      32.835  21.250  27.259  1.00  0.00     0.165 HD
BRANCH  15  17
ATOM     17  C   UNL A   1      33.612  20.244  25.658  1.00  0.00     0.152 C 
BRANCH  17  18
ATOM     18  C   UNL A   1      33.338  18.641  25.012  1.00  0.00     0.083 C 
ATOM     19  C   UNL A   1      32.611  17.354  25.569  1.00  0.00     0.039 C 
ATOM     20  O   UNL A   1      34.554  18.088  24.423  1.00  0.00    -0.373 OA
ATOM     21  C   UNL A   1      32.467  18.992  23.764  1.00  0.00     0.044 C 
ATOM     22  C   UNL A   1      33.572  16.202  25.409  1.00  0.00     0.031 C 
ATOM     23  C   UNL A   1      34.432  16.662  24.277  1.00  0.00     0.161 C 
ENDBRANCH  17  18
ENDBRANCH  15  17
ENDBRANCH   8  11
ENDBRANCH   5   8
ENDBRANCH   3   5
ENDBRANCH   2   3
ENDBRANCH   1   2
BRANCH   1  24
ATOM     24  C   UNL A   1      31.980  29.151  25.355  1.00  0.00     0.275 C 
BRANCH  24  25
ATOM     25  O   UNL A   1      33.186  29.615  25.974  1.00  0.00    -0.458 OA
BRANCH  25  26
ATOM     26  C   UNL A   1      33.172  30.660  26.844  1.00  0.00     0.338 C 
ATOM     27  O   UNL A   1      32.211  31.324  27.174  1.00  0.00    -0.246 OA
BRANCH  26  28
ATOM     28  C   UNL A   1      34.533  30.718  27.456  1.00  0.00     0.060 A 
ATOM     29  C   UNL A   1      35.049  29.516  27.907  1.00  0.00     0.016 A 
ATOM     30  C   UNL A   1      35.249  31.876  27.737  1.00  0.00     0.016 A 
ATOM     31  C   UNL A   1      36.096  29.462  28.799  1.00  0.00     0.010 A 
ATOM     32  C   UNL A   1      36.489  31.775  28.420  1.00  0.00     0.010 A 
ATOM     33  C   UNL A   1      36.929  30.550  28.967  1.00  0.00    -0.014 A 
BRANCH  33  34
ATOM     34  C   UNL A   1      38.238  30.327  29.658  1.00  0.00     0.031 A 
ATOM     35  C   UNL A   1      39.297  29.478  29.020  1.00  0.00     0.074 A 
ATOM     36  C   UNL A   1      38.509  30.896  30.860  1.00  0.00     0.049 A 
ATOM     37  N   UNL A   1      40.319  28.884  29.578  1.00  0.00    -0.248 NA
ATOM     38  C   UNL A   1      39.191  29.259  27.569  1.00  0.00     0.031 C 
ATOM     39  C   UNL A   1      37.650  31.832  31.596  1.00  0.00     0.029 A 
ATOM     40  N   UNL A   1      39.603  30.767  31.690  1.00  0.00    -0.354 N 
ATOM     41  C   UNL A   1      40.903  28.121  28.577  1.00  0.00     0.074 A 
ATOM     42  C   UNL A   1      40.157  28.373  27.361  1.00  0.00     0.031 C 
ATOM     43  C   UNL A   1      38.263  32.237  32.713  1.00  0.00     0.029 A 
ATOM     44  C   UNL A   1      39.467  31.447  32.883  1.00  0.00     0.049 A 
ATOM     45  H   UNL A   1      40.402  30.242  31.455  1.00  0.00     0.167 HD
ATOM     46  C   UNL A   1      41.954  27.274  28.677  1.00  0.00     0.034 A 
ATOM     47  C   UNL A   1      40.152  31.375  34.039  1.00  0.00     0.034 A 
ATOM     48  C   UNL A   1      42.745  27.107  29.868  1.00  0.00     0.049 A 
ATOM     49  C   UNL A   1      41.282  30.399  34.145  1.00  0.00     0.074 A 
ATOM     50  C   UNL A   1      43.825  26.266  30.072  1.00  0.00     0.029 A 
ATOM     51  N   UNL A   1      42.561  27.811  31.048  1.00  0.00    -0.354 N 
ATOM     52  N   UNL A   1      41.780  29.616  33.221  1.00  0.00    -0.248 NA
ATOM     53  C   UNL A   1      41.937  30.286  35.454  1.00  0.00     0.031 C 
ATOM     54  C   UNL A   1      44.290  26.458  31.378  1.00  0.00     0.029 A 
ATOM     55  C   UNL A   1      43.511  27.432  31.981  1.00  0.00     0.049 A 
ATOM     56  H   UNL A   1      41.857  28.484  31.200  1.00  0.00     0.167 HD
ATOM     57  C   UNL A   1      42.817  28.926  33.832  1.00  0.00     0.074 A 
ATOM     58  C   UNL A   1      42.896  29.407  35.196  1.00  0.00     0.031 C 
ATOM     59  C   UNL A   1      43.615  27.961  33.315  1.00  0.00     0.034 A 
BRANCH  46  60
ATOM     60  C   UNL A   1      42.296  26.439  27.474  1.00  0.00     0.023 A 
ATOM     61  C   UNL A   1      43.061  26.982  26.424  1.00  0.00     0.012 A 
ATOM     62  C   UNL A   1      41.895  25.089  27.415  1.00  0.00     0.148 A 
ATOM     63  C   UNL A   1      43.401  26.198  25.321  1.00  0.00     0.002 A 
ATOM     64  C   UNL A   1      42.275  24.303  26.335  1.00  0.00     0.091 A 
ATOM     65  F   UNL A   1      41.144  24.600  28.412  1.00  0.00    -0.205 F 
ATOM     66  C   UNL A   1      43.019  24.859  25.281  1.00  0.00     0.022 A 
BRANCH  64  67
ATOM     67  S   UNL A   1      41.895  22.551  26.238  1.00  0.00     0.127 S 
ATOM     68  O   UNL A   1      42.609  22.160  25.023  1.00  0.00    -0.237 OA
ATOM     69  O   UNL A   1      42.478  22.038  27.479  1.00  0.00    -0.237 OA
ATOM     70  O   UNL A   1      40.443  22.459  26.171  1.00  0.00    -0.744 OA
ENDBRANCH  64  67
ENDBRANCH  46  60
BRANCH  47  71
ATOM     71  C   UNL A   1      39.731  32.201  35.210  1.00  0.00     0.023 A 
ATOM     72  C   UNL A   1      40.061  33.568  35.246  1.00  0.00     0.012 A 
ATOM     73  C   UNL A   1      38.972  31.652  36.264  1.00  0.00     0.148 A 
ATOM     74  C   UNL A   1      39.655  34.369  36.316  1.00  0.00     0.002 A 
ATOM     75  C   UNL A   1      38.512  32.469  37.290  1.00  0.00     0.091 A 
ATOM     76  F   UNL A   1      38.691  30.341  36.233  1.00  0.00    -0.205 F 
ATOM     77  C   UNL A   1      38.868  33.825  37.327  1.00  0.00     0.022 A 
BRANCH  75  78
ATOM     78  S   UNL A   1      37.362  31.879  38.540  1.00  0.00     0.127 S 
ATOM     79  O   UNL A   1      38.134  32.060  39.766  1.00  0.00    -0.237 OA
ATOM     80  O   UNL A   1      36.235  32.800  38.378  1.00  0.00    -0.237 OA
ATOM     81  O   UNL A   1      37.062  30.501  38.172  1.00  0.00    -0.744 OA
ENDBRANCH  75  78
ENDBRANCH  47  71
BRANCH  59  82
ATOM     82  C   UNL A   1      44.676  27.392  34.215  1.00  0.00     0.023 A 
ATOM     83  C   UNL A   1      45.931  28.026  34.302  1.00  0.00     0.012 A 
ATOM     84  C   UNL A   1      44.410  26.265  35.014  1.00  0.00     0.148 A 
ATOM     85  C   UNL A   1      46.917  27.528  35.153  1.00  0.00     0.002 A 
ATOM     86  C   UNL A   1      45.380  25.800  35.892  1.00  0.00     0.091 A 
ATOM     87  F   UNL A   1      43.217  25.663  34.895  1.00  0.00    -0.205 F 
ATOM     88  C   UNL A   1      46.638  26.424  35.955  1.00  0.00     0.022 A 
BRANCH  86  89
ATOM     89  S   UNL A   1      45.077  24.439  37.024  1.00  0.00     0.127 S 
ATOM     90  O   UNL A   1      46.366  24.321  37.701  1.00  0.00    -0.237 OA
ATOM     91  O   UNL A   1      43.994  24.963  37.858  1.00  0.00    -0.237 OA
ATOM     92  O   UNL A   1      44.698  23.305  36.191  1.00  0.00    -0.744 OA
ENDBRANCH  86  89
ENDBRANCH  59  82
ENDBRANCH  33  34
ENDBRANCH  26  28
ENDBRANCH  25  26
ENDBRANCH  24  25
ENDBRANCH   1  24
TORSDOF 18
ENDMDL
MODEL 3
REMARK VINA RESULT:     -12.2      2.395      4.509
REMARK SMILES CC(C)(NC(=O)NC[C@]1(C)CCCO1)C(C)(C)C(=O)OCCOC(=O)c1ccc(-c2c3nc(c(-c4cccc(S(=O)(=O)[O-])c4F)c4ccc([nH]4)c(-c4cccc(S(=O)(=O)[O-])c4F)c4nc(c(-c5cccc(S(=O)(=O)[O-])c5F)c5ccc2[nH]5)C=C4)C=C3)cc1
REMARK SMILES IDX 21 1 20 2 18 3 19 4 15 5 16 6 17 7 2 8 1 9 3 10 4 11 5 12
REMARK SMILES IDX 6 14 7 15 8 17 9 18 11 19 14 20 10 21 12 22 13 23 22 24
REMARK SMILES IDX 23 25 24 26 25 27 26 28 27 29 88 30 28 31 87 32 29 33 30 34
REMARK SMILES IDX 31 35 81 36 32 37 86 38 80 39 82 40 33 41 85 42 79 43 78 44
REMARK SMILES IDX 34 46 66 47 46 48 65 49 47 50 50 51 64 52 83 53 48 54 49 55
REMARK SMILES IDX 63 57 84 58 51 59 35 60 36 61 44 62 37 63 39 64 45 65 38 66
REMARK SMILES IDX 40 67 41 68 42 69 43 70 67 71 68 72 76 73 69 74 71 75 77 76
REMARK SMILES IDX 70 77 72 78 73 79 74 80 75 81 52 82 53 83 61 84 54 85 56 86
REMARK SMILES IDX 62 87 55 88 57 89 58 90 59 91 60 92
REMARK H PARENT 4 13 7 16 82 45 50 56
REMARK Flexibility Score: inf
ROOT
ATOM      1  C   UNL A   1      31.503  28.434  26.294  1.00  0.00     0.274 C 
ENDROOT
BRANCH   1   2
ATOM      2  O   UNL A   1      31.148  27.304  25.390  1.00  0.00    -0.462 OA
BRANCH   2   3
ATOM      3  C   UNL A   1      31.279  26.002  25.711  1.00  0.00     0.313 C 
ATOM      4  O   UNL A   1      30.440  25.578  26.493  1.00  0.00    -0.252 OA
BRANCH   3   5
ATOM      5  C   UNL A   1      32.614  25.044  25.255  1.00  0.00     0.085 C 
ATOM      6  C   UNL A   1      33.059  23.575  25.623  1.00  0.00     0.026 C 
ATOM      7  C   UNL A   1      33.926  25.833  25.380  1.00  0.00     0.026 C 
BRANCH   5   8
ATOM      8  C   UNL A   1      32.179  24.843  23.776  1.00  0.00     0.052 C 
ATOM      9  C   UNL A   1      30.679  25.003  23.390  1.00  0.00     0.035 C 
ATOM     10  C   UNL A   1      32.421  23.347  23.331  1.00  0.00     0.035 C 
BRANCH   8  11
ATOM     11  N   UNL A   1      32.933  25.930  23.045  1.00  0.00    -0.332 N 
ATOM     12  C   UNL A   1      32.627  27.089  22.406  1.00  0.00     0.315 C 
ATOM     13  H   UNL A   1      33.901  25.751  23.027  1.00  0.00     0.165 HD
ATOM     14  O   UNL A   1      33.565  27.594  21.767  1.00  0.00    -0.249 OA
ATOM     15  N   UNL A   1      31.486  27.823  22.361  1.00  0.00    -0.335 N 
ATOM     16  H   UNL A   1      31.801  28.616  21.870  1.00  0.00     0.165 HD
BRANCH  15  17
ATOM     17  C   UNL A   1      29.935  28.219  22.604  1.00  0.00     0.152 C 
BRANCH  17  18
ATOM     18  C   UNL A   1      28.840  29.580  22.502  1.00  0.00     0.083 C 
ATOM     19  C   UNL A   1      28.286  30.442  21.300  1.00  0.00     0.039 C 
ATOM     20  O   UNL A   1      29.158  30.597  23.500  1.00  0.00    -0.373 OA
ATOM     21  C   UNL A   1      27.536  28.928  23.063  1.00  0.00     0.044 C 
ATOM     22  C   UNL A   1      28.512  31.890  21.655  1.00  0.00     0.031 C 
ATOM     23  C   UNL A   1      28.542  31.849  23.149  1.00  0.00     0.161 C 
ENDBRANCH  17  18
ENDBRANCH  15  17
ENDBRANCH   8  11
ENDBRANCH   5   8
ENDBRANCH   3   5
ENDBRANCH   2   3
ENDBRANCH   1   2
BRANCH   1  24
ATOM     24  C   UNL A   1      31.515  29.878  25.699  1.00  0.00     0.275 C 
BRANCH  24  25
ATOM     25  O   UNL A   1      32.807  30.470  25.885  1.00  0.00    -0.458 OA
BRANCH  25  26
ATOM     26  C   UNL A   1      33.027  31.380  26.870  1.00  0.00     0.338 C 
ATOM     27  O   UNL A   1      32.308  32.306  27.186  1.00  0.00    -0.246 OA
BRANCH  26  28
ATOM     28  C   UNL A   1      34.237  30.914  27.613  1.00  0.00     0.060 A 
ATOM     29  C   UNL A   1      35.048  31.905  28.136  1.00  0.00     0.016 A 
ATOM     30  C   UNL A   1      34.684  29.601  27.695  1.00  0.00     0.016 A 
ATOM     31  C   UNL A   1      36.349  31.659  28.513  1.00  0.00     0.010 A 
ATOM     32  C   UNL A   1      35.914  29.328  28.349  1.00  0.00     0.010 A 
ATOM     33  C   UNL A   1      36.770  30.369  28.768  1.00  0.00    -0.014 A 
BRANCH  33  34
ATOM     34  C   UNL A   1      38.058  30.190  29.510  1.00  0.00     0.031 A 
ATOM     35  C   UNL A   1      39.170  29.380  28.913  1.00  0.00     0.074 A 
ATOM     36  C   UNL A   1      38.262  30.766  30.722  1.00  0.00     0.049 A 
ATOM     37  N   UNL A   1      40.189  28.820  29.510  1.00  0.00    -0.248 NA
ATOM     38  C   UNL A   1      39.129  29.161  27.459  1.00  0.00     0.031 C 
ATOM     39  C   UNL A   1      37.342  31.670  31.425  1.00  0.00     0.029 A 
ATOM     40  N   UNL A   1      39.326  30.672  31.594  1.00  0.00    -0.354 N 
ATOM     41  C   UNL A   1      40.839  28.081  28.532  1.00  0.00     0.074 A 
ATOM     42  C   UNL A   1      40.132  28.310  27.289  1.00  0.00     0.031 C 
ATOM     43  C   UNL A   1      37.896  32.093  32.566  1.00  0.00     0.029 A 
ATOM     44  C   UNL A   1      39.120  31.344  32.781  1.00  0.00     0.049 A 
ATOM     45  H   UNL A   1      40.151  30.176  31.390  1.00  0.00     0.167 HD
ATOM     46  C   UNL A   1      41.914  27.271  28.673  1.00  0.00     0.034 A 
ATOM     47  C   UNL A   1      39.761  31.293  33.964  1.00  0.00     0.034 A 
ATOM     48  C   UNL A   1      42.663  27.128  29.893  1.00  0.00     0.049 A 
ATOM     49  C   UNL A   1      40.919  30.358  34.113  1.00  0.00     0.074 A 
ATOM     50  C   UNL A   1      43.763  26.326  30.139  1.00  0.00     0.029 A 
ATOM     51  N   UNL A   1      42.408  27.823  31.066  1.00  0.00    -0.354 N 
ATOM     52  N   UNL A   1      41.480  29.594  33.209  1.00  0.00    -0.248 NA
ATOM     53  C   UNL A   1      41.526  30.264  35.447  1.00  0.00     0.031 C 
ATOM     54  C   UNL A   1      44.169  26.530  31.463  1.00  0.00     0.029 A 
ATOM     55  C   UNL A   1      43.333  27.475  32.035  1.00  0.00     0.049 A 
ATOM     56  H   UNL A   1      41.676  28.470  31.191  1.00  0.00     0.167 HD
ATOM     57  C   UNL A   1      42.516  28.940  33.859  1.00  0.00     0.074 A 
ATOM     58  C   UNL A   1      42.524  29.420  35.226  1.00  0.00     0.031 C 
ATOM     59  C   UNL A   1      43.367  28.004  33.373  1.00  0.00     0.034 A 
BRANCH  46  60
ATOM     60  C   UNL A   1      42.331  26.451  27.483  1.00  0.00     0.023 A 
ATOM     61  C   UNL A   1      43.124  27.021  26.469  1.00  0.00     0.012 A 
ATOM     62  C   UNL A   1      41.975  25.090  27.404  1.00  0.00     0.148 A 
ATOM     63  C   UNL A   1      43.534  26.251  25.378  1.00  0.00     0.002 A 
ATOM     64  C   UNL A   1      42.424  24.320  26.338  1.00  0.00     0.091 A 
ATOM     65  F   UNL A   1      41.196  24.575  28.366  1.00  0.00    -0.205 F 
ATOM     66  C   UNL A   1      43.195  24.902  25.319  1.00  0.00     0.022 A 
BRANCH  64  67
ATOM     67  S   UNL A   1      42.101  22.557  26.221  1.00  0.00     0.127 S 
ATOM     68  O   UNL A   1      42.804  22.210  24.987  1.00  0.00    -0.237 OA
ATOM     69  O   UNL A   1      42.725  22.046  27.442  1.00  0.00    -0.237 OA
ATOM     70  O   UNL A   1      40.652  22.417  26.180  1.00  0.00    -0.744 OA
ENDBRANCH  64  67
ENDBRANCH  46  60
BRANCH  47  71
ATOM     71  C   UNL A   1      39.266  32.102  35.119  1.00  0.00     0.023 A 
ATOM     72  C   UNL A   1      38.374  31.520  36.038  1.00  0.00     0.012 A 
ATOM     73  C   UNL A   1      39.707  33.424  35.335  1.00  0.00     0.148 A 
ATOM     74  C   UNL A   1      37.919  32.244  37.141  1.00  0.00     0.002 A 
ATOM     75  C   UNL A   1      39.306  34.114  36.473  1.00  0.00     0.091 A 
ATOM     76  F   UNL A   1      40.533  33.977  34.435  1.00  0.00    -0.205 F 
ATOM     77  C   UNL A   1      38.397  33.532  37.368  1.00  0.00     0.022 A 
BRANCH  75  78
ATOM     78  S   UNL A   1      40.001  35.711  36.917  1.00  0.00     0.127 S 
ATOM     79  O   UNL A   1      39.339  35.982  38.191  1.00  0.00    -0.237 OA
ATOM     80  O   UNL A   1      41.429  35.406  37.016  1.00  0.00    -0.237 OA
ATOM     81  O   UNL A   1      39.658  36.604  35.817  1.00  0.00    -0.744 OA
ENDBRANCH  75  78
ENDBRANCH  47  71
BRANCH  59  82
ATOM     82  C   UNL A   1      44.411  27.470  34.314  1.00  0.00     0.023 A 
ATOM     83  C   UNL A   1      44.152  26.299  35.053  1.00  0.00     0.012 A 
ATOM     84  C   UNL A   1      45.666  28.098  34.423  1.00  0.00     0.148 A 
ATOM     85  C   UNL A   1      45.120  25.776  35.909  1.00  0.00     0.002 A 
ATOM     86  C   UNL A   1      46.641  27.546  35.242  1.00  0.00     0.091 A 
ATOM     87  F   UNL A   1      45.880  29.226  33.729  1.00  0.00    -0.205 F 
ATOM     88  C   UNL A   1      46.366  26.391  35.995  1.00  0.00     0.022 A 
BRANCH  86  89
ATOM     89  S   UNL A   1      48.301  28.223  35.347  1.00  0.00     0.127 S 
ATOM     90  O   UNL A   1      48.991  27.202  36.132  1.00  0.00    -0.237 OA
ATOM     91  O   UNL A   1      48.702  28.285  33.940  1.00  0.00    -0.237 OA
ATOM     92  O   UNL A   1      48.162  29.523  35.990  1.00  0.00    -0.744 OA
ENDBRANCH  86  89
ENDBRANCH  59  82
ENDBRANCH  33  34
ENDBRANCH  26  28
ENDBRANCH  25  26
ENDBRANCH  24  25
ENDBRANCH   1  24
TORSDOF 18
ENDMDL
