MODEL 1
REMARK VINA RESULT:     -12.2      0.000      0.000
REMARK SMILES COc1cccc([C@H]2CC(c3ccc(S(C)(=O)=O)cc3)=NN2c2ccc(C(=O)OCCOC(=O)c3ccc(-c4c5nc(c(-c6cccc(S(=O)(=O)[O-])c6F)c6ccc([nH]6)c(-c6cccc(S(=O)(=O)[O-])c6F)c6nc(c(-c7cccc(S(=O)(=O)[O-])c7F)c7ccc4[nH]7)C=C6)C=C5)cc3)cc2)c1
REMARK SMILES IDX 30 1 29 2 27 3 28 4 26 5 23 6 24 7 99 8 25 9 98 10 22 11
REMARK SMILES IDX 8 12 9 13 10 14 21 15 7 16 3 17 4 18 100 19 5 20 6 21 2 22
REMARK SMILES IDX 1 23 11 24 12 25 20 26 13 27 19 28 14 29 15 30 16 31 17 32
REMARK SMILES IDX 18 33 31 34 32 35 33 36 34 37 35 38 36 39 97 40 37 41 96 42
REMARK SMILES IDX 38 43 39 44 40 45 90 46 41 47 95 48 89 49 91 50 42 51 94 52
REMARK SMILES IDX 88 53 87 54 43 56 75 57 55 58 74 59 56 60 59 61 73 62 92 63
REMARK SMILES IDX 57 64 58 65 72 67 93 68 60 69 44 70 45 71 53 72 46 73 48 74
REMARK SMILES IDX 54 75 47 76 49 77 50 78 51 79 52 80 76 81 77 82 85 83 78 84
REMARK SMILES IDX 80 85 86 86 79 87 81 88 82 89 83 90 84 91 61 92 62 93 70 94
REMARK SMILES IDX 63 95 65 96 71 97 64 98 66 99 67 100 68 101 69 102
REMARK H PARENT 91 55 59 66
REMARK Flexibility Score: inf
ROOT
ATOM      1  C   UNL A   1      31.459  29.845  25.622  1.00  0.00     0.275 C 
ENDROOT
BRANCH   1   2
ATOM      2  O   UNL A   1      32.304  28.672  25.619  1.00  0.00    -0.458 OA
BRANCH   2   3
ATOM      3  C   UNL A   1      31.896  27.669  26.434  1.00  0.00     0.338 C 
ATOM      4  O   UNL A   1      31.013  27.734  27.276  1.00  0.00    -0.246 OA
BRANCH   3   5
ATOM      5  C   UNL A   1      32.628  26.414  26.157  1.00  0.00     0.060 A 
ATOM      6  C   UNL A   1      34.070  24.005  25.943  1.00  0.00     0.060 A 
ATOM      7  C   UNL A   1      32.784  24.020  26.482  1.00  0.00     0.029 A 
ATOM      8  C   UNL A   1      34.606  25.212  25.464  1.00  0.00     0.029 A 
ATOM      9  C   UNL A   1      32.092  25.215  26.628  1.00  0.00     0.018 A 
ATOM     10  C   UNL A   1      33.881  26.412  25.546  1.00  0.00     0.018 A 
BRANCH   6  11
ATOM     11  N   UNL A   1      34.803  22.824  25.950  1.00  0.00    -0.257 N 
ATOM     12  C   UNL A   1      34.312  21.589  25.328  1.00  0.00     0.144 C 
ATOM     13  C   UNL A   1      35.585  20.741  25.204  1.00  0.00     0.091 C 
ATOM     14  C   UNL A   1      36.614  21.732  25.666  1.00  0.00     0.071 C 
ATOM     15  N   UNL A   1      36.160  22.878  26.062  1.00  0.00    -0.176 NA
BRANCH  12  16
ATOM     16  C   UNL A   1      33.596  21.802  23.997  1.00  0.00    -0.019 A 
ATOM     17  C   UNL A   1      33.174  23.062  21.949  1.00  0.00     0.119 A 
ATOM     18  C   UNL A   1      32.202  22.130  21.583  1.00  0.00     0.046 A 
ATOM     19  C   UNL A   1      33.855  22.907  23.160  1.00  0.00     0.052 A 
ATOM     20  C   UNL A   1      31.919  21.042  22.403  1.00  0.00     0.004 A 
ATOM     21  C   UNL A   1      32.613  20.877  23.601  1.00  0.00     0.006 A 
BRANCH  17  22
ATOM     22  O   UNL A   1      33.337  24.083  21.054  1.00  0.00    -0.497 OA
ATOM     23  C   UNL A   1      32.914  25.376  21.466  1.00  0.00     0.278 C 
ENDBRANCH  17  22
ENDBRANCH  12  16
BRANCH  14  24
ATOM     24  C   UNL A   1      38.037  21.372  25.750  1.00  0.00    -0.002 A 
ATOM     25  C   UNL A   1      38.933  22.344  26.212  1.00  0.00     0.011 A 
ATOM     26  C   UNL A   1      38.482  20.090  25.420  1.00  0.00     0.011 A 
ATOM     27  C   UNL A   1      40.277  22.021  26.389  1.00  0.00     0.021 A 
ATOM     28  C   UNL A   1      39.835  19.772  25.570  1.00  0.00     0.021 A 
ATOM     29  C   UNL A   1      40.722  20.736  26.065  1.00  0.00     0.067 A 
BRANCH  29  30
ATOM     30  S   UNL A   1      42.424  20.317  26.362  1.00  0.00     0.175 S 
ATOM     31  C   UNL A   1      42.494  18.559  26.144  1.00  0.00     0.163 C 
ATOM     32  O   UNL A   1      43.192  20.943  25.302  1.00  0.00    -0.224 OA
ATOM     33  O   UNL A   1      42.712  20.609  27.754  1.00  0.00    -0.224 OA
ENDBRANCH  29  30
ENDBRANCH  14  24
ENDBRANCH   6  11
ENDBRANCH   3   5
ENDBRANCH   2   3
ENDBRANCH   1   2
BRANCH   1  34
ATOM     34  C   UNL A   1      32.005  30.941  26.539  1.00  0.00     0.275 C 
BRANCH  34  35
ATOM     35  O   UNL A   1      33.426  30.811  26.708  1.00  0.00    -0.458 OA
BRANCH  35  36
ATOM     36  C   UNL A   1      33.998  31.759  27.484  1.00  0.00     0.338 C 
ATOM     37  O   UNL A   1      33.553  32.862  27.754  1.00  0.00    -0.246 OA
BRANCH  36  38
ATOM     38  C   UNL A   1      35.267  31.269  28.041  1.00  0.00     0.060 A 
ATOM     39  C   UNL A   1      35.362  29.929  28.392  1.00  0.00     0.016 A 
ATOM     40  C   UNL A   1      36.276  32.157  28.401  1.00  0.00     0.016 A 
ATOM     41  C   UNL A   1      36.370  29.501  29.250  1.00  0.00     0.010 A 
ATOM     42  C   UNL A   1      37.373  31.688  29.134  1.00  0.00     0.010 A 
ATOM     43  C   UNL A   1      37.409  30.366  29.618  1.00  0.00    -0.014 A 
BRANCH  43  44
ATOM     44  C   UNL A   1      38.521  29.901  30.500  1.00  0.00     0.031 A 
ATOM     45  C   UNL A   1      38.675  30.462  31.893  1.00  0.00     0.074 A 
ATOM     46  C   UNL A   1      39.419  29.001  30.046  1.00  0.00     0.049 A 
ATOM     47  N   UNL A   1      39.686  30.361  32.719  1.00  0.00    -0.248 NA
ATOM     48  C   UNL A   1      37.555  31.259  32.422  1.00  0.00     0.031 C 
ATOM     49  C   UNL A   1      39.388  28.357  28.730  1.00  0.00     0.029 A 
ATOM     50  N   UNL A   1      40.551  28.486  30.633  1.00  0.00    -0.354 N 
ATOM     51  C   UNL A   1      39.364  31.152  33.818  1.00  0.00     0.074 A 
ATOM     52  C   UNL A   1      38.056  31.713  33.562  1.00  0.00     0.031 C 
ATOM     53  C   UNL A   1      40.434  27.528  28.615  1.00  0.00     0.029 A 
ATOM     54  C   UNL A   1      41.267  27.655  29.802  1.00  0.00     0.049 A 
ATOM     55  H   UNL A   1      40.822  28.691  31.557  1.00  0.00     0.167 HD
ATOM     56  C   UNL A   1      40.090  31.384  34.939  1.00  0.00     0.034 A 
ATOM     57  C   UNL A   1      42.488  27.101  29.941  1.00  0.00     0.034 A 
ATOM     58  C   UNL A   1      41.358  30.760  35.221  1.00  0.00     0.049 A 
ATOM     59  C   UNL A   1      43.270  27.369  31.194  1.00  0.00     0.074 A 
ATOM     60  C   UNL A   1      42.147  30.888  36.351  1.00  0.00     0.029 A 
ATOM     61  N   UNL A   1      42.015  29.883  34.371  1.00  0.00    -0.354 N 
ATOM     62  N   UNL A   1      42.932  28.085  32.237  1.00  0.00    -0.248 NA
ATOM     63  C   UNL A   1      44.595  26.742  31.295  1.00  0.00     0.031 C 
ATOM     64  C   UNL A   1      43.292  30.105  36.175  1.00  0.00     0.029 A 
ATOM     65  C   UNL A   1      43.202  29.464  34.950  1.00  0.00     0.049 A 
ATOM     66  H   UNL A   1      41.687  29.601  33.488  1.00  0.00     0.167 HD
ATOM     67  C   UNL A   1      43.987  27.971  33.134  1.00  0.00     0.074 A 
ATOM     68  C   UNL A   1      44.966  27.099  32.517  1.00  0.00     0.031 C 
ATOM     69  C   UNL A   1      44.138  28.549  34.350  1.00  0.00     0.034 A 
BRANCH  56  70
ATOM     70  C   UNL A   1      39.532  32.343  35.961  1.00  0.00     0.023 A 
ATOM     71  C   UNL A   1      38.607  31.892  36.923  1.00  0.00     0.012 A 
ATOM     72  C   UNL A   1      39.979  33.679  36.011  1.00  0.00     0.148 A 
ATOM     73  C   UNL A   1      38.109  32.761  37.895  1.00  0.00     0.002 A 
ATOM     74  C   UNL A   1      39.513  34.528  37.010  1.00  0.00     0.091 A 
ATOM     75  F   UNL A   1      40.848  34.099  35.080  1.00  0.00    -0.205 F 
ATOM     76  C   UNL A   1      38.569  34.074  37.944  1.00  0.00     0.022 A 
BRANCH  74  77
ATOM     77  S   UNL A   1      40.109  36.212  37.209  1.00  0.00     0.127 S 
ATOM     78  O   UNL A   1      41.531  35.994  37.466  1.00  0.00    -0.237 OA
ATOM     79  O   UNL A   1      39.809  36.801  35.903  1.00  0.00    -0.237 OA
ATOM     80  O   UNL A   1      39.353  36.777  38.317  1.00  0.00    -0.744 OA
ENDBRANCH  74  77
ENDBRANCH  56  70
BRANCH  57  81
ATOM     81  C   UNL A   1      43.038  26.238  28.856  1.00  0.00     0.023 A 
ATOM     82  C   UNL A   1      42.602  24.904  28.743  1.00  0.00     0.012 A 
ATOM     83  C   UNL A   1      43.953  26.744  27.909  1.00  0.00     0.148 A 
ATOM     84  C   UNL A   1      43.081  24.084  27.721  1.00  0.00     0.002 A 
ATOM     85  C   UNL A   1      44.377  25.940  26.858  1.00  0.00     0.091 A 
ATOM     86  F   UNL A   1      44.372  28.010  28.044  1.00  0.00    -0.205 F 
ATOM     87  C   UNL A   1      43.957  24.604  26.772  1.00  0.00     0.022 A 
BRANCH  85  88
ATOM     88  S   UNL A   1      45.389  26.573  25.515  1.00  0.00     0.127 S 
ATOM     89  O   UNL A   1      44.552  27.650  24.993  1.00  0.00    -0.237 OA
ATOM     90  O   UNL A   1      46.591  27.015  26.223  1.00  0.00    -0.237 OA
ATOM     91  O   UNL A   1      45.602  25.444  24.620  1.00  0.00    -0.744 OA
ENDBRANCH  85  88
ENDBRANCH  57  81
BRANCH  69  92
ATOM     92  C   UNL A   1      45.383  28.216  35.127  1.00  0.00     0.023 A 
ATOM     93  C   UNL A   1      46.524  29.033  35.017  1.00  0.00     0.012 A 
ATOM     94  C   UNL A   1      45.393  27.126  36.021  1.00  0.00     0.148 A 
ATOM     95  C   UNL A   1      47.668  28.755  35.763  1.00  0.00     0.002 A 
ATOM     96  C   UNL A   1      46.519  26.885  36.798  1.00  0.00     0.091 A 
ATOM     97  F   UNL A   1      44.303  26.348  36.094  1.00  0.00    -0.205 F 
ATOM     98  C   UNL A   1      47.661  27.690  36.662  1.00  0.00     0.022 A 
BRANCH  96  99
ATOM     99  S   UNL A   1      46.564  25.597  38.048  1.00  0.00     0.127 S 
ATOM    100  O   UNL A   1      47.932  25.718  38.551  1.00  0.00    -0.237 OA
ATOM    101  O   UNL A   1      45.529  26.035  38.984  1.00  0.00    -0.237 OA
ATOM    102  O   UNL A   1      46.263  24.352  37.353  1.00  0.00    -0.744 OA
ENDBRANCH  96  99
ENDBRANCH  69  92
ENDBRANCH  43  44
ENDBRANCH  36  38
ENDBRANCH  35  36
ENDBRANCH  34  35
ENDBRANCH   1  34
TORSDOF 19
ENDMDL
MODEL 2
REMARK VINA RESULT:     -12.1      1.332      7.226
REMARK SMILES COc1cccc([C@H]2CC(c3ccc(S(C)(=O)=O)cc3)=NN2c2ccc(C(=O)OCCOC(=O)c3ccc(-c4c5nc(c(-c6cccc(S(=O)(=O)[O-])c6F)c6ccc([nH]6)c(-c6cccc(S(=O)(=O)[O-])c6F)c6nc(c(-c7cccc(S(=O)(=O)[O-])c7F)c7ccc4[nH]7)C=C6)C=C5)cc3)cc2)c1
REMARK SMILES IDX 30 1 29 2 27 3 28 4 26 5 23 6 24 7 99 8 25 9 98 10 22 11
REMARK SMILES IDX 8 12 9 13 10 14 21 15 7 16 3 17 4 18 100 19 5 20 6 21 2 22
REMARK SMILES IDX 1 23 11 24 12 25 20 26 13 27 19 28 14 29 15 30 16 31 17 32
REMARK SMILES IDX 18 33 31 34 32 35 33 36 34 37 35 38 36 39 97 40 37 41 96 42
REMARK SMILES IDX 38 43 39 44 40 45 90 46 41 47 95 48 89 49 91 50 42 51 94 52
REMARK SMILES IDX 88 53 87 54 43 56 75 57 55 58 74 59 56 60 59 61 73 62 92 63
REMARK SMILES IDX 57 64 58 65 72 67 93 68 60 69 44 70 45 71 53 72 46 73 48 74
REMARK SMILES IDX 54 75 47 76 49 77 50 78 51 79 52 80 76 81 77 82 85 83 78 84
REMARK SMILES IDX 80 85 86 86 79 87 81 88 82 89 83 90 84 91 61 92 62 93 70 94
REMARK SMILES IDX 63 95 65 96 71 97 64 98 66 99 67 100 68 101 69 102
REMARK H PARENT 91 55 59 66
REMARK Flexibility Score: inf
ROOT
ATOM      1  C   UNL A   1      31.912  29.236  27.052  1.00  0.00     0.275 C 
ENDROOT
BRANCH   1   2
ATOM      2  O   UNL A   1      32.305  28.530  25.854  1.00  0.00    -0.458 OA
BRANCH   2   3
ATOM      3  C   UNL A   1      31.611  27.394  25.603  1.00  0.00     0.338 C 
ATOM      4  O   UNL A   1      30.465  27.324  25.182  1.00  0.00    -0.246 OA
BRANCH   3   5
ATOM      5  C   UNL A   1      32.431  26.190  25.854  1.00  0.00     0.060 A 
ATOM      6  C   UNL A   1      33.996  23.854  26.018  1.00  0.00     0.060 A 
ATOM      7  C   UNL A   1      34.539  25.043  25.529  1.00  0.00     0.029 A 
ATOM      8  C   UNL A   1      32.668  23.866  26.473  1.00  0.00     0.029 A 
ATOM      9  C   UNL A   1      33.753  26.181  25.407  1.00  0.00     0.018 A 
ATOM     10  C   UNL A   1      31.890  25.034  26.417  1.00  0.00     0.018 A 
BRANCH   6  11
ATOM     11  N   UNL A   1      34.755  22.689  25.985  1.00  0.00    -0.257 N 
ATOM     12  C   UNL A   1      34.293  21.470  25.313  1.00  0.00     0.144 C 
ATOM     13  C   UNL A   1      35.585  20.654  25.166  1.00  0.00     0.091 C 
ATOM     14  C   UNL A   1      36.590  21.649  25.673  1.00  0.00     0.071 C 
ATOM     15  N   UNL A   1      36.109  22.768  26.109  1.00  0.00    -0.176 NA
BRANCH  12  16
ATOM     16  C   UNL A   1      33.581  21.717  23.987  1.00  0.00    -0.019 A 
ATOM     17  C   UNL A   1      33.194  23.009  21.951  1.00  0.00     0.119 A 
ATOM     18  C   UNL A   1      32.190  22.113  21.581  1.00  0.00     0.046 A 
ATOM     19  C   UNL A   1      33.873  22.821  23.159  1.00  0.00     0.052 A 
ATOM     20  C   UNL A   1      31.875  21.027  22.392  1.00  0.00     0.004 A 
ATOM     21  C   UNL A   1      32.567  20.829  23.586  1.00  0.00     0.006 A 
BRANCH  17  22
ATOM     22  O   UNL A   1      33.389  24.032  21.066  1.00  0.00    -0.497 OA
ATOM     23  C   UNL A   1      32.936  25.320  21.458  1.00  0.00     0.278 C 
ENDBRANCH  17  22
ENDBRANCH  12  16
BRANCH  14  24
ATOM     24  C   UNL A   1      38.020  21.316  25.752  1.00  0.00    -0.002 A 
ATOM     25  C   UNL A   1      38.902  22.314  26.183  1.00  0.00     0.011 A 
ATOM     26  C   UNL A   1      38.485  20.034  25.448  1.00  0.00     0.011 A 
ATOM     27  C   UNL A   1      40.253  22.019  26.355  1.00  0.00     0.021 A 
ATOM     28  C   UNL A   1      39.844  19.743  25.594  1.00  0.00     0.021 A 
ATOM     29  C   UNL A   1      40.718  20.734  26.057  1.00  0.00     0.067 A 
BRANCH  29  30
ATOM     30  S   UNL A   1      42.430  20.353  26.349  1.00  0.00     0.175 S 
ATOM     31  C   UNL A   1      42.509  18.583  26.278  1.00  0.00     0.163 C 
ATOM     32  O   UNL A   1      43.169  20.893  25.223  1.00  0.00    -0.224 OA
ATOM     33  O   UNL A   1      42.747  20.763  27.704  1.00  0.00    -0.224 OA
ENDBRANCH  29  30
ENDBRANCH  14  24
ENDBRANCH   6  11
ENDBRANCH   3   5
ENDBRANCH   2   3
ENDBRANCH   1   2
BRANCH   1  34
ATOM     34  C   UNL A   1      32.059  30.751  26.898  1.00  0.00     0.275 C 
BRANCH  34  35
ATOM     35  O   UNL A   1      33.432  31.117  26.678  1.00  0.00    -0.458 OA
BRANCH  35  36
ATOM     36  C   UNL A   1      33.904  32.083  27.495  1.00  0.00     0.338 C 
ATOM     37  O   UNL A   1      33.337  33.109  27.832  1.00  0.00    -0.246 OA
BRANCH  36  38
ATOM     38  C   UNL A   1      35.233  31.719  28.006  1.00  0.00     0.060 A 
ATOM     39  C   UNL A   1      35.418  30.442  28.520  1.00  0.00     0.016 A 
ATOM     40  C   UNL A   1      36.224  32.683  28.163  1.00  0.00     0.016 A 
ATOM     41  C   UNL A   1      36.507  30.170  29.342  1.00  0.00     0.010 A 
ATOM     42  C   UNL A   1      37.394  32.357  28.859  1.00  0.00     0.010 A 
ATOM     43  C   UNL A   1      37.529  31.114  29.507  1.00  0.00    -0.014 A 
BRANCH  43  44
ATOM     44  C   UNL A   1      38.726  30.812  30.348  1.00  0.00     0.031 A 
ATOM     45  C   UNL A   1      39.771  29.835  29.866  1.00  0.00     0.074 A 
ATOM     46  C   UNL A   1      38.866  31.384  31.563  1.00  0.00     0.049 A 
ATOM     47  N   UNL A   1      40.748  29.274  30.531  1.00  0.00    -0.248 NA
ATOM     48  C   UNL A   1      39.695  29.415  28.456  1.00  0.00     0.031 C 
ATOM     49  C   UNL A   1      37.948  32.362  32.154  1.00  0.00     0.029 A 
ATOM     50  N   UNL A   1      39.823  31.210  32.534  1.00  0.00    -0.354 N 
ATOM     51  C   UNL A   1      41.344  28.373  29.652  1.00  0.00     0.074 A 
ATOM     52  C   UNL A   1      40.627  28.474  28.400  1.00  0.00     0.031 C 
ATOM     53  C   UNL A   1      38.390  32.711  33.369  1.00  0.00     0.029 A 
ATOM     54  C   UNL A   1      39.563  31.910  33.690  1.00  0.00     0.049 A 
ATOM     55  H   UNL A   1      40.618  30.641  32.414  1.00  0.00     0.167 HD
ATOM     56  C   UNL A   1      42.393  27.543  29.869  1.00  0.00     0.034 A 
ATOM     57  C   UNL A   1      40.155  31.873  34.901  1.00  0.00     0.034 A 
ATOM     58  C   UNL A   1      43.150  27.505  31.094  1.00  0.00     0.049 A 
ATOM     59  C   UNL A   1      41.318  30.949  35.113  1.00  0.00     0.074 A 
ATOM     60  C   UNL A   1      44.263  26.738  31.394  1.00  0.00     0.029 A 
ATOM     61  N   UNL A   1      42.880  28.273  32.216  1.00  0.00    -0.354 N 
ATOM     62  N   UNL A   1      41.890  30.136  34.260  1.00  0.00    -0.248 NA
ATOM     63  C   UNL A   1      41.927  30.947  36.450  1.00  0.00     0.031 C 
ATOM     64  C   UNL A   1      44.652  27.027  32.705  1.00  0.00     0.029 A 
ATOM     65  C   UNL A   1      43.803  27.996  33.212  1.00  0.00     0.049 A 
ATOM     66  H   UNL A   1      42.142  28.918  32.294  1.00  0.00     0.167 HD
ATOM     67  C   UNL A   1      42.946  29.548  34.944  1.00  0.00     0.074 A 
ATOM     68  C   UNL A   1      42.946  30.115  36.278  1.00  0.00     0.031 C 
ATOM     69  C   UNL A   1      43.826  28.612  34.514  1.00  0.00     0.034 A 
BRANCH  56  70
ATOM     70  C   UNL A   1      42.804  26.612  28.755  1.00  0.00     0.023 A 
ATOM     71  C   UNL A   1      42.067  25.437  28.508  1.00  0.00     0.012 A 
ATOM     72  C   UNL A   1      43.882  26.938  27.907  1.00  0.00     0.148 A 
ATOM     73  C   UNL A   1      42.416  24.585  27.459  1.00  0.00     0.002 A 
ATOM     74  C   UNL A   1      44.197  26.108  26.837  1.00  0.00     0.091 A 
ATOM     75  F   UNL A   1      44.584  28.052  28.164  1.00  0.00    -0.205 F 
ATOM     76  C   UNL A   1      43.473  24.925  26.619  1.00  0.00     0.022 A 
BRANCH  74  77
ATOM     77  S   UNL A   1      45.486  26.502  25.648  1.00  0.00     0.127 S 
ATOM     78  O   UNL A   1      45.468  25.319  24.790  1.00  0.00    -0.237 OA
ATOM     79  O   UNL A   1      44.965  27.718  25.021  1.00  0.00    -0.237 OA
ATOM     80  O   UNL A   1      46.702  26.695  26.424  1.00  0.00    -0.744 OA
ENDBRANCH  74  77
ENDBRANCH  56  70
BRANCH  57  81
ATOM     81  C   UNL A   1      39.647  32.744  36.000  1.00  0.00     0.023 A 
ATOM     82  C   UNL A   1      39.987  34.110  36.015  1.00  0.00     0.012 A 
ATOM     83  C   UNL A   1      38.794  32.237  37.002  1.00  0.00     0.148 A 
ATOM     84  C   UNL A   1      39.504  34.951  37.018  1.00  0.00     0.002 A 
ATOM     85  C   UNL A   1      38.267  33.093  37.961  1.00  0.00     0.091 A 
ATOM     86  F   UNL A   1      38.498  30.930  36.983  1.00  0.00    -0.205 F 
ATOM     87  C   UNL A   1      38.635  34.447  37.982  1.00  0.00     0.022 A 
BRANCH  85  88
ATOM     88  S   UNL A   1      37.030  32.558  39.149  1.00  0.00     0.127 S 
ATOM     89  O   UNL A   1      35.791  32.764  38.403  1.00  0.00    -0.237 OA
ATOM     90  O   UNL A   1      37.397  31.157  39.358  1.00  0.00    -0.237 OA
ATOM     91  O   UNL A   1      37.215  33.407  40.317  1.00  0.00    -0.744 OA
ENDBRANCH  85  88
ENDBRANCH  57  81
BRANCH  69  92
ATOM     92  C   UNL A   1      44.902  28.177  35.471  1.00  0.00     0.023 A 
ATOM     93  C   UNL A   1      46.186  28.750  35.398  1.00  0.00     0.012 A 
ATOM     94  C   UNL A   1      44.613  27.247  36.490  1.00  0.00     0.148 A 
ATOM     95  C   UNL A   1      47.177  28.382  36.306  1.00  0.00     0.002 A 
ATOM     96  C   UNL A   1      45.591  26.923  37.421  1.00  0.00     0.091 A 
ATOM     97  F   UNL A   1      43.390  26.698  36.528  1.00  0.00    -0.205 F 
ATOM     98  C   UNL A   1      46.877  27.479  37.324  1.00  0.00     0.022 A 
BRANCH  96  99
ATOM     99  S   UNL A   1      45.265  25.845  38.820  1.00  0.00     0.127 S 
ATOM    100  O   UNL A   1      44.960  24.578  38.156  1.00  0.00    -0.237 OA
ATOM    101  O   UNL A   1      46.542  25.867  39.534  1.00  0.00    -0.237 OA
ATOM    102  O   UNL A   1      44.157  26.453  39.546  1.00  0.00    -0.744 OA
ENDBRANCH  96  99
ENDBRANCH  69  92
ENDBRANCH  43  44
ENDBRANCH  36  38
ENDBRANCH  35  36
ENDBRANCH  34  35
ENDBRANCH   1  34
TORSDOF 19
ENDMDL
MODEL 3
REMARK VINA RESULT:     -11.6      1.168      7.216
REMARK SMILES COc1cccc([C@H]2CC(c3ccc(S(C)(=O)=O)cc3)=NN2c2ccc(C(=O)OCCOC(=O)c3ccc(-c4c5nc(c(-c6cccc(S(=O)(=O)[O-])c6F)c6ccc([nH]6)c(-c6cccc(S(=O)(=O)[O-])c6F)c6nc(c(-c7cccc(S(=O)(=O)[O-])c7F)c7ccc4[nH]7)C=C6)C=C5)cc3)cc2)c1
REMARK SMILES IDX 30 1 29 2 27 3 28 4 26 5 23 6 24 7 99 8 25 9 98 10 22 11
REMARK SMILES IDX 8 12 9 13 10 14 21 15 7 16 3 17 4 18 100 19 5 20 6 21 2 22
REMARK SMILES IDX 1 23 11 24 12 25 20 26 13 27 19 28 14 29 15 30 16 31 17 32
REMARK SMILES IDX 18 33 31 34 32 35 33 36 34 37 35 38 36 39 97 40 37 41 96 42
REMARK SMILES IDX 38 43 39 44 40 45 90 46 41 47 95 48 89 49 91 50 42 51 94 52
REMARK SMILES IDX 88 53 87 54 43 56 75 57 55 58 74 59 56 60 59 61 73 62 92 63
REMARK SMILES IDX 57 64 58 65 72 67 93 68 60 69 44 70 45 71 53 72 46 73 48 74
REMARK SMILES IDX 54 75 47 76 49 77 50 78 51 79 52 80 76 81 77 82 85 83 78 84
REMARK SMILES IDX 80 85 86 86 79 87 81 88 82 89 83 90 84 91 61 92 62 93 70 94
REMARK SMILES IDX 63 95 65 96 71 97 64 98 66 99 67 100 68 101 69 102
REMARK H PARENT 91 55 59 66
REMARK Flexibility Score: inf
ROOT
ATOM      1  C   UNL A   1      31.675  29.754  25.676  1.00  0.00     0.275 C 
ENDROOT
BRANCH   1   2
ATOM      2  O   UNL A   1      32.509  28.574  25.708  1.00  0.00    -0.458 OA
BRANCH   2   3
ATOM      3  C   UNL A   1      32.046  27.564  26.484  1.00  0.00     0.338 C 
ATOM      4  O   UNL A   1      31.151  27.641  27.314  1.00  0.00    -0.246 OA
BRANCH   3   5
ATOM      5  C   UNL A   1      32.727  26.289  26.178  1.00  0.00     0.060 A 
ATOM      6  C   UNL A   1      34.069  23.827  25.909  1.00  0.00     0.060 A 
ATOM      7  C   UNL A   1      32.776  23.881  26.430  1.00  0.00     0.029 A 
ATOM      8  C   UNL A   1      34.663  25.024  25.477  1.00  0.00     0.029 A 
ATOM      9  C   UNL A   1      32.133  25.100  26.604  1.00  0.00     0.018 A 
ATOM     10  C   UNL A   1      33.989  26.251  25.586  1.00  0.00     0.018 A 
BRANCH   6  11
ATOM     11  N   UNL A   1      34.751  22.616  25.890  1.00  0.00    -0.257 N 
ATOM     12  C   UNL A   1      34.209  21.419  25.237  1.00  0.00     0.144 C 
ATOM     13  C   UNL A   1      35.445  20.520  25.096  1.00  0.00     0.091 C 
ATOM     14  C   UNL A   1      36.514  21.455  25.585  1.00  0.00     0.071 C 
ATOM     15  N   UNL A   1      36.108  22.609  26.007  1.00  0.00    -0.176 NA
BRANCH  12  16
ATOM     16  C   UNL A   1      33.508  21.693  23.910  1.00  0.00    -0.019 A 
ATOM     17  C   UNL A   1      33.150  23.018  21.890  1.00  0.00     0.119 A 
ATOM     18  C   UNL A   1      32.138  22.140  21.501  1.00  0.00     0.046 A 
ATOM     19  C   UNL A   1      33.820  22.805  23.098  1.00  0.00     0.052 A 
ATOM     20  C   UNL A   1      31.804  21.047  22.295  1.00  0.00     0.004 A 
ATOM     21  C   UNL A   1      32.486  20.824  23.490  1.00  0.00     0.006 A 
BRANCH  17  22
ATOM     22  O   UNL A   1      33.363  24.051  21.019  1.00  0.00    -0.497 OA
ATOM     23  C   UNL A   1      32.726  25.285  21.314  1.00  0.00     0.278 C 
ENDBRANCH  17  22
ENDBRANCH  12  16
BRANCH  14  24
ATOM     24  C   UNL A   1      37.920  21.032  25.664  1.00  0.00    -0.002 A 
ATOM     25  C   UNL A   1      38.869  21.983  26.058  1.00  0.00     0.011 A 
ATOM     26  C   UNL A   1      38.298  19.714  25.395  1.00  0.00     0.011 A 
ATOM     27  C   UNL A   1      40.200  21.606  26.229  1.00  0.00     0.021 A 
ATOM     28  C   UNL A   1      39.637  19.340  25.540  1.00  0.00     0.021 A 
ATOM     29  C   UNL A   1      40.578  20.286  25.967  1.00  0.00     0.067 A 
BRANCH  29  30
ATOM     30  S   UNL A   1      42.264  19.802  26.258  1.00  0.00     0.175 S 
ATOM     31  C   UNL A   1      43.171  21.325  26.246  1.00  0.00     0.163 C 
ATOM     32  O   UNL A   1      42.307  19.250  27.600  1.00  0.00    -0.224 OA
ATOM     33  O   UNL A   1      42.697  19.012  25.121  1.00  0.00    -0.224 OA
ENDBRANCH  29  30
ENDBRANCH  14  24
ENDBRANCH   6  11
ENDBRANCH   3   5
ENDBRANCH   2   3
ENDBRANCH   1   2
BRANCH   1  34
ATOM     34  C   UNL A   1      32.105  30.788  26.718  1.00  0.00     0.275 C 
BRANCH  34  35
ATOM     35  O   UNL A   1      33.529  30.765  26.910  1.00  0.00    -0.458 OA
BRANCH  35  36
ATOM     36  C   UNL A   1      34.031  31.820  27.590  1.00  0.00     0.338 C 
ATOM     37  O   UNL A   1      33.486  32.889  27.805  1.00  0.00    -0.246 OA
BRANCH  36  38
ATOM     38  C   UNL A   1      35.366  31.502  28.117  1.00  0.00     0.060 A 
ATOM     39  C   UNL A   1      35.609  30.212  28.572  1.00  0.00     0.016 A 
ATOM     40  C   UNL A   1      36.298  32.509  28.348  1.00  0.00     0.016 A 
ATOM     41  C   UNL A   1      36.691  29.957  29.408  1.00  0.00     0.010 A 
ATOM     42  C   UNL A   1      37.468  32.211  29.057  1.00  0.00     0.010 A 
ATOM     43  C   UNL A   1      37.655  30.945  29.646  1.00  0.00    -0.014 A 
BRANCH  43  44
ATOM     44  C   UNL A   1      38.847  30.666  30.503  1.00  0.00     0.031 A 
ATOM     45  C   UNL A   1      39.943  29.753  30.011  1.00  0.00     0.074 A 
ATOM     46  C   UNL A   1      38.936  31.200  31.740  1.00  0.00     0.049 A 
ATOM     47  N   UNL A   1      40.931  29.212  30.678  1.00  0.00    -0.248 NA
ATOM     48  C   UNL A   1      39.915  29.380  28.587  1.00  0.00     0.031 C 
ATOM     49  C   UNL A   1      37.964  32.116  32.344  1.00  0.00     0.029 A 
ATOM     50  N   UNL A   1      39.880  31.033  32.725  1.00  0.00    -0.354 N 
ATOM     51  C   UNL A   1      41.583  28.369  29.782  1.00  0.00     0.074 A 
ATOM     52  C   UNL A   1      40.889  28.483  28.519  1.00  0.00     0.031 C 
ATOM     53  C   UNL A   1      38.365  32.440  33.580  1.00  0.00     0.029 A 
ATOM     54  C   UNL A   1      39.564  31.680  33.900  1.00  0.00     0.049 A 
ATOM     55  H   UNL A   1      40.701  30.503  32.604  1.00  0.00     0.167 HD
ATOM     56  C   UNL A   1      42.664  27.578  29.993  1.00  0.00     0.034 A 
ATOM     57  C   UNL A   1      40.132  31.626  35.121  1.00  0.00     0.034 A 
ATOM     58  C   UNL A   1      43.396  27.530  31.233  1.00  0.00     0.049 A 
ATOM     59  C   UNL A   1      41.331  30.746  35.327  1.00  0.00     0.074 A 
ATOM     60  C   UNL A   1      44.535  26.801  31.531  1.00  0.00     0.029 A 
ATOM     61  N   UNL A   1      43.069  28.244  32.375  1.00  0.00    -0.354 N 
ATOM     62  N   UNL A   1      41.956  29.990  34.459  1.00  0.00    -0.248 NA
ATOM     63  C   UNL A   1      41.911  30.723  36.676  1.00  0.00     0.031 C 
ATOM     64  C   UNL A   1      44.884  27.060  32.860  1.00  0.00     0.029 A 
ATOM     65  C   UNL A   1      43.982  27.973  33.381  1.00  0.00     0.049 A 
ATOM     66  H   UNL A   1      42.301  28.854  32.459  1.00  0.00     0.167 HD
ATOM     67  C   UNL A   1      43.022  29.424  35.146  1.00  0.00     0.074 A 
ATOM     68  C   UNL A   1      42.969  29.942  36.499  1.00  0.00     0.031 C 
ATOM     69  C   UNL A   1      43.951  28.543  34.703  1.00  0.00     0.034 A 
BRANCH  56  70
ATOM     70  C   UNL A   1      43.138  26.706  28.858  1.00  0.00     0.023 A 
ATOM     71  C   UNL A   1      42.544  25.448  28.637  1.00  0.00     0.012 A 
ATOM     72  C   UNL A   1      44.128  27.165  27.964  1.00  0.00     0.148 A 
ATOM     73  C   UNL A   1      42.951  24.646  27.569  1.00  0.00     0.002 A 
ATOM     74  C   UNL A   1      44.496  26.381  26.877  1.00  0.00     0.091 A 
ATOM     75  F   UNL A   1      44.695  28.358  28.196  1.00  0.00    -0.205 F 
ATOM     76  C   UNL A   1      43.918  25.116  26.685  1.00  0.00     0.022 A 
BRANCH  74  77
ATOM     77  S   UNL A   1      45.671  26.934  25.634  1.00  0.00     0.127 S 
ATOM     78  O   UNL A   1      45.005  28.122  25.105  1.00  0.00    -0.237 OA
ATOM     79  O   UNL A   1      46.863  27.211  26.438  1.00  0.00    -0.237 OA
ATOM     80  O   UNL A   1      45.816  25.828  24.698  1.00  0.00    -0.744 OA
ENDBRANCH  74  77
ENDBRANCH  56  70
BRANCH  57  81
ATOM     81  C   UNL A   1      39.564  32.433  36.238  1.00  0.00     0.023 A 
ATOM     82  C   UNL A   1      38.503  31.910  37.001  1.00  0.00     0.012 A 
ATOM     83  C   UNL A   1      40.099  33.693  36.578  1.00  0.00     0.148 A 
ATOM     84  C   UNL A   1      37.971  32.634  38.068  1.00  0.00     0.002 A 
ATOM     85  C   UNL A   1      39.606  34.380  37.681  1.00  0.00     0.091 A 
ATOM     86  F   UNL A   1      41.096  34.184  35.828  1.00  0.00    -0.205 F 
ATOM     87  C   UNL A   1      38.530  33.861  38.417  1.00  0.00     0.022 A 
BRANCH  85  88
ATOM     88  S   UNL A   1      40.361  35.894  38.284  1.00  0.00     0.127 S 
ATOM     89  O   UNL A   1      41.779  35.636  38.047  1.00  0.00    -0.237 OA
ATOM     90  O   UNL A   1      39.764  36.902  37.406  1.00  0.00    -0.237 OA
ATOM     91  O   UNL A   1      39.961  36.003  39.680  1.00  0.00    -0.744 OA
ENDBRANCH  85  88
ENDBRANCH  57  81
BRANCH  69  92
ATOM     92  C   UNL A   1      45.025  28.121  35.669  1.00  0.00     0.023 A 
ATOM     93  C   UNL A   1      44.785  27.072  36.577  1.00  0.00     0.012 A 
ATOM     94  C   UNL A   1      46.298  28.724  35.625  1.00  0.00     0.148 A 
ATOM     95  C   UNL A   1      45.787  26.649  37.449  1.00  0.00     0.002 A 
ATOM     96  C   UNL A   1      47.306  28.263  36.461  1.00  0.00     0.091 A 
ATOM     97  F   UNL A   1      46.498  29.736  34.767  1.00  0.00    -0.205 F 
ATOM     98  C   UNL A   1      47.050  27.235  37.383  1.00  0.00     0.022 A 
BRANCH  96  99
ATOM     99  S   UNL A   1      48.986  28.893  36.378  1.00  0.00     0.127 S 
ATOM    100  O   UNL A   1      49.671  28.047  37.354  1.00  0.00    -0.237 OA
ATOM    101  O   UNL A   1      49.347  28.630  34.984  1.00  0.00    -0.237 OA
ATOM    102  O   UNL A   1      48.903  30.306  36.724  1.00  0.00    -0.744 OA
ENDBRANCH  96  99
ENDBRANCH  69  92
ENDBRANCH  43  44
ENDBRANCH  36  38
ENDBRANCH  35  36
ENDBRANCH  34  35
ENDBRANCH   1  34
TORSDOF 19
ENDMDL
