MODEL 1
REMARK VINA RESULT:     -11.2      0.000      0.000
REMARK SMILES C[C@H](c1ccoc1)[NH+]1CC[NH+]([C@@H](C)C(=O)OCCOC(=O)c2ccc(-c3c4nc(c(-c5cccc(S(=O)(=O)[O-])c5F)c5ccc([nH]5)c(-c5cccc(S(=O)(=O)[O-])c5F)c5nc(c(-c6cccc(S(=O)(=O)[O-])c6F)c6ccc3[nH]6)C=C5)C=C4)cc2)CC1
REMARK SMILES IDX 17 1 16 2 14 3 15 4 12 5 13 6 11 7 8 8 9 9 86 10 10 12 85 13
REMARK SMILES IDX 2 15 1 16 3 17 4 18 7 19 5 20 6 21 18 22 19 23 20 24 21 25
REMARK SMILES IDX 22 26 23 27 84 28 24 29 83 30 25 31 26 32 27 33 77 34 28 35
REMARK SMILES IDX 82 36 76 37 78 38 29 39 81 40 75 41 74 42 30 44 62 45 42 46
REMARK SMILES IDX 61 47 43 48 46 49 60 50 79 51 44 52 45 53 59 55 80 56 47 57
REMARK SMILES IDX 31 58 32 59 40 60 33 61 35 62 41 63 34 64 36 65 37 66 38 67
REMARK SMILES IDX 39 68 63 69 64 70 72 71 65 72 67 73 73 74 66 75 68 76 69 77
REMARK SMILES IDX 70 78 71 79 48 80 49 81 57 82 50 83 52 84 58 85 51 86 53 87
REMARK SMILES IDX 54 88 55 89 56 90
REMARK H PARENT 8 11 11 14 78 43 46 54
REMARK Flexibility Score: inf
ROOT
ATOM      1  C   UNL A   1      31.456  29.123  25.044  1.00  0.00     0.274 C 
ENDROOT
BRANCH   1   2
ATOM      2  O   UNL A   1      32.207  28.035  25.607  1.00  0.00    -0.458 OA
BRANCH   2   3
ATOM      3  C   UNL A   1      31.550  27.207  26.462  1.00  0.00     0.364 C 
ATOM      4  O   UNL A   1      31.207  27.528  27.596  1.00  0.00    -0.245 OA
BRANCH   3   5
ATOM      5  C   UNL A   1      31.327  25.783  25.908  1.00  0.00     0.292 C 
ATOM      6  C   UNL A   1      29.829  25.518  25.830  1.00  0.00     0.088 C 
BRANCH   5   7
ATOM      7  N   UNL A   1      32.198  24.759  26.536  1.00  0.00    -0.314 N 
ATOM      8  N   UNL A   1      32.778  22.182  25.053  1.00  0.00    -0.320 N 
ATOM      9  C   UNL A   1      31.542  22.398  25.813  1.00  0.00     0.325 C 
ATOM     10  C   UNL A   1      33.443  23.450  24.722  1.00  0.00     0.325 C 
ATOM     11  H   UNL A   1      32.515  21.803  24.143  1.00  0.00     0.348 HD
ATOM     12  C   UNL A   1      31.598  23.475  26.915  1.00  0.00     0.325 C 
ATOM     13  C   UNL A   1      33.468  24.530  25.831  1.00  0.00     0.325 C 
ATOM     14  H   UNL A   1      32.381  25.229  27.423  1.00  0.00     0.349 HD
BRANCH   8  15
ATOM     15  C   UNL A   1      33.618  21.090  25.557  1.00  0.00     0.215 C 
ATOM     16  C   UNL A   1      35.128  21.209  25.345  1.00  0.00     0.081 C 
BRANCH  15  17
ATOM     17  C   UNL A   1      33.055  19.799  25.011  1.00  0.00     0.047 A 
ATOM     18  C   UNL A   1      32.819  18.562  25.683  1.00  0.00     0.052 A 
ATOM     19  C   UNL A   1      32.662  19.569  23.704  1.00  0.00     0.204 A 
ATOM     20  C   UNL A   1      32.327  17.687  24.744  1.00  0.00     0.195 A 
ATOM     21  O   UNL A   1      32.219  18.298  23.538  1.00  0.00    -0.472 OA
ENDBRANCH  15  17
ENDBRANCH   8  15
ENDBRANCH   5   7
ENDBRANCH   3   5
ENDBRANCH   2   3
ENDBRANCH   1   2
BRANCH   1  22
ATOM     22  C   UNL A   1      31.690  30.398  25.854  1.00  0.00     0.275 C 
BRANCH  22  23
ATOM     23  O   UNL A   1      33.057  30.471  26.292  1.00  0.00    -0.458 OA
BRANCH  23  24
ATOM     24  C   UNL A   1      33.386  31.552  27.035  1.00  0.00     0.338 C 
ATOM     25  O   UNL A   1      32.737  32.576  27.192  1.00  0.00    -0.246 OA
BRANCH  24  26
ATOM     26  C   UNL A   1      34.643  31.267  27.743  1.00  0.00     0.060 A 
ATOM     27  C   UNL A   1      34.849  29.980  28.245  1.00  0.00     0.016 A 
ATOM     28  C   UNL A   1      35.604  32.264  27.925  1.00  0.00     0.016 A 
ATOM     29  C   UNL A   1      36.034  29.674  28.913  1.00  0.00     0.010 A 
ATOM     30  C   UNL A   1      36.787  31.957  28.603  1.00  0.00     0.010 A 
ATOM     31  C   UNL A   1      37.012  30.661  29.099  1.00  0.00    -0.014 A 
BRANCH  31  32
ATOM     32  C   UNL A   1      38.267  30.345  29.825  1.00  0.00     0.031 A 
ATOM     33  C   UNL A   1      39.271  29.409  29.218  1.00  0.00     0.074 A 
ATOM     34  C   UNL A   1      38.486  30.877  31.043  1.00  0.00     0.049 A 
ATOM     35  N   UNL A   1      40.382  28.947  29.729  1.00  0.00    -0.248 NA
ATOM     36  C   UNL A   1      38.988  28.929  27.856  1.00  0.00     0.031 C 
ATOM     37  C   UNL A   1      37.585  31.798  31.733  1.00  0.00     0.029 A 
ATOM     38  N   UNL A   1      39.522  30.696  31.924  1.00  0.00    -0.354 N 
ATOM     39  C   UNL A   1      40.914  28.094  28.771  1.00  0.00     0.074 A 
ATOM     40  C   UNL A   1      40.005  28.104  27.644  1.00  0.00     0.031 C 
ATOM     41  C   UNL A   1      38.097  32.088  32.941  1.00  0.00     0.029 A 
ATOM     42  C   UNL A   1      39.341  31.344  33.124  1.00  0.00     0.049 A 
ATOM     43  H   UNL A   1      40.319  30.155  31.718  1.00  0.00     0.167 HD
ATOM     44  C   UNL A   1      42.062  27.376  28.821  1.00  0.00     0.034 A 
ATOM     45  C   UNL A   1      40.077  31.318  34.253  1.00  0.00     0.034 A 
ATOM     46  C   UNL A   1      42.979  27.391  29.930  1.00  0.00     0.049 A 
ATOM     47  C   UNL A   1      41.336  30.493  34.288  1.00  0.00     0.074 A 
ATOM     48  C   UNL A   1      44.193  26.737  30.051  1.00  0.00     0.029 A 
ATOM     49  N   UNL A   1      42.782  28.087  31.112  1.00  0.00    -0.354 N 
ATOM     50  N   UNL A   1      41.881  29.778  33.335  1.00  0.00    -0.248 NA
ATOM     51  C   UNL A   1      42.092  30.489  35.550  1.00  0.00     0.031 C 
ATOM     52  C   UNL A   1      44.721  27.024  31.314  1.00  0.00     0.029 A 
ATOM     53  C   UNL A   1      43.842  27.868  31.975  1.00  0.00     0.049 A 
ATOM     54  H   UNL A   1      42.001  28.654  31.310  1.00  0.00     0.167 HD
ATOM     55  C   UNL A   1      43.051  29.254  33.872  1.00  0.00     0.074 A 
ATOM     56  C   UNL A   1      43.152  29.759  35.226  1.00  0.00     0.031 C 
ATOM     57  C   UNL A   1      43.951  28.412  33.304  1.00  0.00     0.034 A 
BRANCH  44  58
ATOM     58  C   UNL A   1      42.410  26.533  27.624  1.00  0.00     0.023 A 
ATOM     59  C   UNL A   1      43.161  27.095  26.572  1.00  0.00     0.012 A 
ATOM     60  C   UNL A   1      42.046  25.173  27.563  1.00  0.00     0.148 A 
ATOM     61  C   UNL A   1      43.521  26.326  25.467  1.00  0.00     0.002 A 
ATOM     62  C   UNL A   1      42.439  24.404  26.475  1.00  0.00     0.091 A 
ATOM     63  F   UNL A   1      41.311  24.663  28.563  1.00  0.00    -0.205 F 
ATOM     64  C   UNL A   1      43.170  24.979  25.424  1.00  0.00     0.022 A 
BRANCH  62  65
ATOM     65  S   UNL A   1      42.090  22.645  26.360  1.00  0.00     0.127 S 
ATOM     66  O   UNL A   1      40.628  22.635  26.354  1.00  0.00    -0.237 OA
ATOM     67  O   UNL A   1      42.706  22.288  25.082  1.00  0.00    -0.237 OA
ATOM     68  O   UNL A   1      42.717  22.036  27.525  1.00  0.00    -0.744 OA
ENDBRANCH  62  65
ENDBRANCH  44  58
BRANCH  45  69
ATOM     69  C   UNL A   1      39.649  32.118  35.435  1.00  0.00     0.023 A 
ATOM     70  C   UNL A   1      40.001  33.479  35.512  1.00  0.00     0.012 A 
ATOM     71  C   UNL A   1      38.872  31.550  36.464  1.00  0.00     0.148 A 
ATOM     72  C   UNL A   1      39.602  34.256  36.601  1.00  0.00     0.002 A 
ATOM     73  C   UNL A   1      38.431  32.341  37.517  1.00  0.00     0.091 A 
ATOM     74  F   UNL A   1      38.572  30.245  36.387  1.00  0.00    -0.205 F 
ATOM     75  C   UNL A   1      38.805  33.691  37.596  1.00  0.00     0.022 A 
BRANCH  73  76
ATOM     76  S   UNL A   1      37.296  31.726  38.767  1.00  0.00     0.127 S 
ATOM     77  O   UNL A   1      38.101  31.829  39.980  1.00  0.00    -0.237 OA
ATOM     78  O   UNL A   1      36.193  32.684  38.676  1.00  0.00    -0.237 OA
ATOM     79  O   UNL A   1      36.950  30.376  38.345  1.00  0.00    -0.744 OA
ENDBRANCH  73  76
ENDBRANCH  45  69
BRANCH  57  80
ATOM     80  C   UNL A   1      45.129  27.985  34.141  1.00  0.00     0.023 A 
ATOM     81  C   UNL A   1      46.323  28.731  34.087  1.00  0.00     0.012 A 
ATOM     82  C   UNL A   1      45.033  26.896  35.029  1.00  0.00     0.148 A 
ATOM     83  C   UNL A   1      47.413  28.382  34.883  1.00  0.00     0.002 A 
ATOM     84  C   UNL A   1      46.109  26.580  35.851  1.00  0.00     0.091 A 
ATOM     85  F   UNL A   1      43.896  26.185  35.051  1.00  0.00    -0.205 F 
ATOM     86  C   UNL A   1      47.302  27.317  35.773  1.00  0.00     0.022 A 
BRANCH  84  87
ATOM     87  S   UNL A   1      46.024  25.280  37.087  1.00  0.00     0.127 S 
ATOM     88  O   UNL A   1      47.312  25.424  37.763  1.00  0.00    -0.237 OA
ATOM     89  O   UNL A   1      44.867  25.684  37.888  1.00  0.00    -0.237 OA
ATOM     90  O   UNL A   1      45.838  24.038  36.347  1.00  0.00    -0.744 OA
ENDBRANCH  84  87
ENDBRANCH  57  80
ENDBRANCH  31  32
ENDBRANCH  24  26
ENDBRANCH  23  24
ENDBRANCH  22  23
ENDBRANCH   1  22
TORSDOF 17
ENDMDL
MODEL 2
REMARK VINA RESULT:     -11.1      4.254     10.394
REMARK SMILES C[C@H](c1ccoc1)[NH+]1CC[NH+]([C@@H](C)C(=O)OCCOC(=O)c2ccc(-c3c4nc(c(-c5cccc(S(=O)(=O)[O-])c5F)c5ccc([nH]5)c(-c5cccc(S(=O)(=O)[O-])c5F)c5nc(c(-c6cccc(S(=O)(=O)[O-])c6F)c6ccc3[nH]6)C=C5)C=C4)cc2)CC1
REMARK SMILES IDX 17 1 16 2 14 3 15 4 12 5 13 6 11 7 8 8 9 9 86 10 10 12 85 13
REMARK SMILES IDX 2 15 1 16 3 17 4 18 7 19 5 20 6 21 18 22 19 23 20 24 21 25
REMARK SMILES IDX 22 26 23 27 84 28 24 29 83 30 25 31 26 32 27 33 77 34 28 35
REMARK SMILES IDX 82 36 76 37 78 38 29 39 81 40 75 41 74 42 30 44 62 45 42 46
REMARK SMILES IDX 61 47 43 48 46 49 60 50 79 51 44 52 45 53 59 55 80 56 47 57
REMARK SMILES IDX 31 58 32 59 40 60 33 61 35 62 41 63 34 64 36 65 37 66 38 67
REMARK SMILES IDX 39 68 63 69 64 70 72 71 65 72 67 73 73 74 66 75 68 76 69 77
REMARK SMILES IDX 70 78 71 79 48 80 49 81 57 82 50 83 52 84 58 85 51 86 53 87
REMARK SMILES IDX 54 88 55 89 56 90
REMARK H PARENT 8 11 11 14 78 43 46 54
REMARK Flexibility Score: inf
ROOT
ATOM      1  C   UNL A   1      33.733  34.247  28.046  1.00  0.00     0.274 C 
ENDROOT
BRANCH   1   2
ATOM      2  O   UNL A   1      32.904  34.315  29.218  1.00  0.00    -0.458 OA
BRANCH   2   3
ATOM      3  C   UNL A   1      32.950  35.464  29.941  1.00  0.00     0.364 C 
ATOM      4  O   UNL A   1      32.853  36.585  29.450  1.00  0.00    -0.245 OA
BRANCH   3   5
ATOM      5  C   UNL A   1      33.212  35.247  31.447  1.00  0.00     0.292 C 
ATOM      6  C   UNL A   1      32.025  35.791  32.233  1.00  0.00     0.088 C 
BRANCH   5   7
ATOM      7  N   UNL A   1      34.581  35.629  31.873  1.00  0.00    -0.314 N 
ATOM      8  N   UNL A   1      36.104  33.833  33.779  1.00  0.00    -0.320 N 
ATOM      9  C   UNL A   1      35.095  34.796  34.233  1.00  0.00     0.325 C 
ATOM     10  C   UNL A   1      35.958  33.524  32.350  1.00  0.00     0.325 C 
ATOM     11  H   UNL A   1      35.908  32.944  34.239  1.00  0.00     0.348 HD
ATOM     12  C   UNL A   1      34.799  35.973  33.283  1.00  0.00     0.325 C 
ATOM     13  C   UNL A   1      35.635  34.713  31.413  1.00  0.00     0.325 C 
ATOM     14  H   UNL A   1      34.659  36.517  31.377  1.00  0.00     0.349 HD
BRANCH   8  15
ATOM     15  C   UNL A   1      37.459  34.092  34.280  1.00  0.00     0.215 C 
ATOM     16  C   UNL A   1      38.570  34.263  33.242  1.00  0.00     0.081 C 
BRANCH  15  17
ATOM     17  C   UNL A   1      37.776  33.022  35.298  1.00  0.00     0.047 A 
ATOM     18  C   UNL A   1      37.806  31.605  35.137  1.00  0.00     0.052 A 
ATOM     19  C   UNL A   1      38.095  33.232  36.628  1.00  0.00     0.204 A 
ATOM     20  C   UNL A   1      38.118  31.071  36.365  1.00  0.00     0.195 A 
ATOM     21  O   UNL A   1      38.306  32.058  37.275  1.00  0.00    -0.472 OA
ENDBRANCH  15  17
ENDBRANCH   8  15
ENDBRANCH   5   7
ENDBRANCH   3   5
ENDBRANCH   2   3
ENDBRANCH   1   2
BRANCH   1  22
ATOM     22  C   UNL A   1      34.745  33.109  28.183  1.00  0.00     0.275 C 
BRANCH  22  23
ATOM     23  O   UNL A   1      34.073  31.871  28.468  1.00  0.00    -0.458 OA
BRANCH  23  24
ATOM     24  C   UNL A   1      34.418  30.816  27.695  1.00  0.00     0.338 C 
ATOM     25  O   UNL A   1      33.845  30.400  26.698  1.00  0.00    -0.246 OA
BRANCH  24  26
ATOM     26  C   UNL A   1      35.696  30.277  28.184  1.00  0.00     0.060 A 
ATOM     27  C   UNL A   1      35.747  29.750  29.477  1.00  0.00     0.016 A 
ATOM     28  C   UNL A   1      36.839  30.305  27.383  1.00  0.00     0.016 A 
ATOM     29  C   UNL A   1      36.940  29.222  29.969  1.00  0.00     0.010 A 
ATOM     30  C   UNL A   1      38.037  29.784  27.882  1.00  0.00     0.010 A 
ATOM     31  C   UNL A   1      38.095  29.237  29.175  1.00  0.00    -0.014 A 
BRANCH  31  32
ATOM     32  C   UNL A   1      39.372  28.693  29.700  1.00  0.00     0.031 A 
ATOM     33  C   UNL A   1      40.045  29.350  30.870  1.00  0.00     0.074 A 
ATOM     34  C   UNL A   1      39.939  27.627  29.104  1.00  0.00     0.049 A 
ATOM     35  N   UNL A   1      41.199  29.075  31.419  1.00  0.00    -0.248 NA
ATOM     36  C   UNL A   1      39.324  30.463  31.508  1.00  0.00     0.031 C 
ATOM     37  C   UNL A   1      39.379  26.905  27.962  1.00  0.00     0.029 A 
ATOM     38  N   UNL A   1      41.124  26.984  29.360  1.00  0.00    -0.354 N 
ATOM     39  C   UNL A   1      41.364  30.001  32.440  1.00  0.00     0.074 A 
ATOM     40  C   UNL A   1      40.188  30.846  32.438  1.00  0.00     0.031 C 
ATOM     41  C   UNL A   1      40.230  25.930  27.601  1.00  0.00     0.029 A 
ATOM     42  C   UNL A   1      41.410  25.983  28.461  1.00  0.00     0.049 A 
ATOM     43  H   UNL A   1      41.713  27.217  30.114  1.00  0.00     0.167 HD
ATOM     44  C   UNL A   1      42.396  30.129  33.309  1.00  0.00     0.034 A 
ATOM     45  C   UNL A   1      42.509  25.215  28.327  1.00  0.00     0.034 A 
ATOM     46  C   UNL A   1      43.550  29.269  33.328  1.00  0.00     0.049 A 
ATOM     47  C   UNL A   1      43.651  25.393  29.292  1.00  0.00     0.074 A 
ATOM     48  C   UNL A   1      44.622  29.288  34.202  1.00  0.00     0.029 A 
ATOM     49  N   UNL A   1      43.788  28.243  32.427  1.00  0.00    -0.354 N 
ATOM     50  N   UNL A   1      43.743  26.201  30.320  1.00  0.00    -0.248 NA
ATOM     51  C   UNL A   1      44.832  24.540  29.090  1.00  0.00     0.031 C 
ATOM     52  C   UNL A   1      45.518  28.284  33.819  1.00  0.00     0.029 A 
ATOM     53  C   UNL A   1      44.996  27.630  32.714  1.00  0.00     0.049 A 
ATOM     54  H   UNL A   1      43.186  27.987  31.691  1.00  0.00     0.167 HD
ATOM     55  C   UNL A   1      44.981  25.942  30.898  1.00  0.00     0.074 A 
ATOM     56  C   UNL A   1      45.590  24.881  30.124  1.00  0.00     0.031 C 
ATOM     57  C   UNL A   1      45.570  26.545  31.961  1.00  0.00     0.034 A 
BRANCH  44  58
ATOM     58  C   UNL A   1      42.311  31.224  34.337  1.00  0.00     0.023 A 
ATOM     59  C   UNL A   1      41.821  30.932  35.625  1.00  0.00     0.012 A 
ATOM     60  C   UNL A   1      42.766  32.527  34.048  1.00  0.00     0.148 A 
ATOM     61  C   UNL A   1      41.761  31.924  36.603  1.00  0.00     0.002 A 
ATOM     62  C   UNL A   1      42.736  33.500  35.040  1.00  0.00     0.091 A 
ATOM     63  F   UNL A   1      43.205  32.791  32.809  1.00  0.00    -0.205 F 
ATOM     64  C   UNL A   1      42.228  33.203  36.314  1.00  0.00     0.022 A 
BRANCH  62  65
ATOM     65  S   UNL A   1      43.375  35.160  34.781  1.00  0.00     0.127 S 
ATOM     66  O   UNL A   1      42.488  35.657  33.731  1.00  0.00    -0.237 OA
ATOM     67  O   UNL A   1      43.173  35.778  36.092  1.00  0.00    -0.237 OA
ATOM     68  O   UNL A   1      44.771  34.996  34.398  1.00  0.00    -0.744 OA
ENDBRANCH  62  65
ENDBRANCH  44  58
BRANCH  45  69
ATOM     69  C   UNL A   1      42.570  24.190  27.246  1.00  0.00     0.023 A 
ATOM     70  C   UNL A   1      43.260  24.483  26.054  1.00  0.00     0.012 A 
ATOM     71  C   UNL A   1      41.981  22.920  27.405  1.00  0.00     0.148 A 
ATOM     72  C   UNL A   1      43.346  23.537  25.032  1.00  0.00     0.002 A 
ATOM     73  C   UNL A   1      42.118  21.963  26.406  1.00  0.00     0.091 A 
ATOM     74  F   UNL A   1      41.305  22.670  28.535  1.00  0.00    -0.205 F 
ATOM     75  C   UNL A   1      42.788  22.273  25.213  1.00  0.00     0.022 A 
BRANCH  73  76
ATOM     76  S   UNL A   1      41.545  20.273  26.615  1.00  0.00     0.127 S 
ATOM     77  O   UNL A   1      42.274  19.854  27.808  1.00  0.00    -0.237 OA
ATOM     78  O   UNL A   1      40.106  20.460  26.806  1.00  0.00    -0.237 OA
ATOM     79  O   UNL A   1      41.898  19.588  25.379  1.00  0.00    -0.744 OA
ENDBRANCH  73  76
ENDBRANCH  45  69
BRANCH  57  80
ATOM     80  C   UNL A   1      46.944  26.068  32.358  1.00  0.00     0.023 A 
ATOM     81  C   UNL A   1      48.078  26.651  31.757  1.00  0.00     0.012 A 
ATOM     82  C   UNL A   1      47.115  25.103  33.369  1.00  0.00     0.148 A 
ATOM     83  C   UNL A   1      49.361  26.258  32.137  1.00  0.00     0.002 A 
ATOM     84  C   UNL A   1      48.398  24.748  33.773  1.00  0.00     0.091 A 
ATOM     85  F   UNL A   1      46.024  24.546  33.914  1.00  0.00    -0.205 F 
ATOM     86  C   UNL A   1      49.521  25.318  33.152  1.00  0.00     0.022 A 
BRANCH  84  87
ATOM     87  S   UNL A   1      48.696  23.611  35.131  1.00  0.00     0.127 S 
ATOM     88  O   UNL A   1      48.108  22.374  34.619  1.00  0.00    -0.237 OA
ATOM     89  O   UNL A   1      50.157  23.601  35.216  1.00  0.00    -0.237 OA
ATOM     90  O   UNL A   1      48.031  24.191  36.290  1.00  0.00    -0.744 OA
ENDBRANCH  84  87
ENDBRANCH  57  80
ENDBRANCH  31  32
ENDBRANCH  24  26
ENDBRANCH  23  24
ENDBRANCH  22  23
ENDBRANCH   1  22
TORSDOF 17
ENDMDL
MODEL 3
REMARK VINA RESULT:     -11.1      5.257     10.286
REMARK SMILES C[C@H](c1ccoc1)[NH+]1CC[NH+]([C@@H](C)C(=O)OCCOC(=O)c2ccc(-c3c4nc(c(-c5cccc(S(=O)(=O)[O-])c5F)c5ccc([nH]5)c(-c5cccc(S(=O)(=O)[O-])c5F)c5nc(c(-c6cccc(S(=O)(=O)[O-])c6F)c6ccc3[nH]6)C=C5)C=C4)cc2)CC1
REMARK SMILES IDX 17 1 16 2 14 3 15 4 12 5 13 6 11 7 8 8 9 9 86 10 10 12 85 13
REMARK SMILES IDX 2 15 1 16 3 17 4 18 7 19 5 20 6 21 18 22 19 23 20 24 21 25
REMARK SMILES IDX 22 26 23 27 84 28 24 29 83 30 25 31 26 32 27 33 77 34 28 35
REMARK SMILES IDX 82 36 76 37 78 38 29 39 81 40 75 41 74 42 30 44 62 45 42 46
REMARK SMILES IDX 61 47 43 48 46 49 60 50 79 51 44 52 45 53 59 55 80 56 47 57
REMARK SMILES IDX 31 58 32 59 40 60 33 61 35 62 41 63 34 64 36 65 37 66 38 67
REMARK SMILES IDX 39 68 63 69 64 70 72 71 65 72 67 73 73 74 66 75 68 76 69 77
REMARK SMILES IDX 70 78 71 79 48 80 49 81 57 82 50 83 52 84 58 85 51 86 53 87
REMARK SMILES IDX 54 88 55 89 56 90
REMARK H PARENT 8 11 11 14 78 43 46 54
REMARK Flexibility Score: inf
ROOT
ATOM      1  C   UNL A   1      34.514  21.241  25.059  1.00  0.00     0.274 C 
ENDROOT
BRANCH   1   2
ATOM      2  O   UNL A   1      34.089  21.627  23.741  1.00  0.00    -0.458 OA
BRANCH   2   3
ATOM      3  C   UNL A   1      34.227  22.937  23.407  1.00  0.00     0.364 C 
ATOM      4  O   UNL A   1      35.242  23.411  22.907  1.00  0.00    -0.245 OA
BRANCH   3   5
ATOM      5  C   UNL A   1      33.009  23.811  23.781  1.00  0.00     0.292 C 
ATOM      6  C   UNL A   1      31.766  23.221  23.127  1.00  0.00     0.088 C 
BRANCH   5   7
ATOM      7  N   UNL A   1      33.260  25.267  23.645  1.00  0.00    -0.314 N 
ATOM      8  N   UNL A   1      30.916  27.186  23.610  1.00  0.00    -0.320 N 
ATOM      9  C   UNL A   1      31.346  26.438  22.423  1.00  0.00     0.325 C 
ATOM     10  C   UNL A   1      31.420  26.579  24.849  1.00  0.00     0.325 C 
ATOM     11  H   UNL A   1      29.904  27.084  23.686  1.00  0.00     0.348 HD
ATOM     12  C   UNL A   1      32.805  25.940  22.423  1.00  0.00     0.325 C 
ATOM     13  C   UNL A   1      32.878  26.059  24.824  1.00  0.00     0.325 C 
ATOM     14  H   UNL A   1      34.277  25.246  23.563  1.00  0.00     0.349 HD
BRANCH   8  15
ATOM     15  C   UNL A   1      31.022  28.644  23.480  1.00  0.00     0.215 C 
ATOM     16  C   UNL A   1      31.391  29.436  24.736  1.00  0.00     0.081 C 
BRANCH  15  17
ATOM     17  C   UNL A   1      29.746  29.134  22.839  1.00  0.00     0.047 A 
ATOM     18  C   UNL A   1      29.566  30.134  21.837  1.00  0.00     0.052 A 
ATOM     19  C   UNL A   1      28.466  28.693  23.128  1.00  0.00     0.204 A 
ATOM     20  C   UNL A   1      28.213  30.233  21.612  1.00  0.00     0.195 A 
ATOM     21  O   UNL A   1      27.539  29.350  22.389  1.00  0.00    -0.472 OA
ENDBRANCH  15  17
ENDBRANCH   8  15
ENDBRANCH   5   7
ENDBRANCH   3   5
ENDBRANCH   2   3
ENDBRANCH   1   2
BRANCH   1  22
ATOM     22  C   UNL A   1      35.949  20.716  25.016  1.00  0.00     0.275 C 
BRANCH  22  23
ATOM     23  O   UNL A   1      36.814  21.553  25.803  1.00  0.00    -0.458 OA
BRANCH  23  24
ATOM     24  C   UNL A   1      38.132  21.253  25.759  1.00  0.00     0.338 C 
ATOM     25  O   UNL A   1      38.651  20.228  25.341  1.00  0.00    -0.246 OA
BRANCH  24  26
ATOM     26  C   UNL A   1      38.893  22.429  26.208  1.00  0.00     0.060 A 
ATOM     27  C   UNL A   1      38.488  23.693  25.772  1.00  0.00     0.016 A 
ATOM     28  C   UNL A   1      40.006  22.286  27.037  1.00  0.00     0.016 A 
ATOM     29  C   UNL A   1      39.181  24.828  26.187  1.00  0.00     0.010 A 
ATOM     30  C   UNL A   1      40.707  23.426  27.444  1.00  0.00     0.010 A 
ATOM     31  C   UNL A   1      40.298  24.703  27.024  1.00  0.00    -0.014 A 
BRANCH  31  32
ATOM     32  C   UNL A   1      41.051  25.908  27.454  1.00  0.00     0.031 A 
ATOM     33  C   UNL A   1      40.359  26.990  28.231  1.00  0.00     0.074 A 
ATOM     34  C   UNL A   1      42.348  26.040  27.118  1.00  0.00     0.049 A 
ATOM     35  N   UNL A   1      40.820  28.149  28.623  1.00  0.00    -0.248 NA
ATOM     36  C   UNL A   1      38.962  26.735  28.618  1.00  0.00     0.031 C 
ATOM     37  C   UNL A   1      43.127  25.056  26.367  1.00  0.00     0.029 A 
ATOM     38  N   UNL A   1      43.230  27.067  27.342  1.00  0.00    -0.354 N 
ATOM     39  C   UNL A   1      39.765  28.779  29.269  1.00  0.00     0.074 A 
ATOM     40  C   UNL A   1      38.637  27.872  29.220  1.00  0.00     0.031 C 
ATOM     41  C   UNL A   1      44.367  25.535  26.174  1.00  0.00     0.029 A 
ATOM     42  C   UNL A   1      44.458  26.874  26.753  1.00  0.00     0.049 A 
ATOM     43  H   UNL A   1      43.006  27.866  27.872  1.00  0.00     0.167 HD
ATOM     44  C   UNL A   1      39.741  29.998  29.860  1.00  0.00     0.034 A 
ATOM     45  C   UNL A   1      45.525  27.692  26.664  1.00  0.00     0.034 A 
ATOM     46  C   UNL A   1      40.872  30.885  29.933  1.00  0.00     0.049 A 
ATOM     47  C   UNL A   1      45.463  29.051  27.311  1.00  0.00     0.074 A 
ATOM     48  C   UNL A   1      40.958  32.118  30.555  1.00  0.00     0.029 A 
ATOM     49  N   UNL A   1      42.109  30.640  29.359  1.00  0.00    -0.354 N 
ATOM     50  N   UNL A   1      44.495  29.587  28.012  1.00  0.00    -0.248 NA
ATOM     51  C   UNL A   1      46.650  29.908  27.171  1.00  0.00     0.031 C 
ATOM     52  C   UNL A   1      42.244  32.627  30.341  1.00  0.00     0.029 A 
ATOM     53  C   UNL A   1      42.963  31.704  29.598  1.00  0.00     0.049 A 
ATOM     54  H   UNL A   1      42.347  29.829  28.854  1.00  0.00     0.167 HD
ATOM     55  C   UNL A   1      44.959  30.835  28.412  1.00  0.00     0.074 A 
ATOM     56  C   UNL A   1      46.308  30.962  27.900  1.00  0.00     0.031 C 
ATOM     57  C   UNL A   1      44.318  31.799  29.120  1.00  0.00     0.034 A 
BRANCH  44  58
ATOM     58  C   UNL A   1      38.454  30.434  30.505  1.00  0.00     0.023 A 
ATOM     59  C   UNL A   1      38.225  30.145  31.865  1.00  0.00     0.012 A 
ATOM     60  C   UNL A   1      37.497  31.178  29.786  1.00  0.00     0.148 A 
ATOM     61  C   UNL A   1      37.053  30.566  32.493  1.00  0.00     0.002 A 
ATOM     62  C   UNL A   1      36.348  31.624  30.428  1.00  0.00     0.091 A 
ATOM     63  F   UNL A   1      37.722  31.422  28.486  1.00  0.00    -0.205 F 
ATOM     64  C   UNL A   1      36.121  31.314  31.778  1.00  0.00     0.022 A 
BRANCH  62  65
ATOM     65  S   UNL A   1      35.121  32.649  29.608  1.00  0.00     0.127 S 
ATOM     66  O   UNL A   1      34.619  31.740  28.578  1.00  0.00    -0.237 OA
ATOM     67  O   UNL A   1      34.174  32.925  30.689  1.00  0.00    -0.237 OA
ATOM     68  O   UNL A   1      35.838  33.818  29.118  1.00  0.00    -0.744 OA
ENDBRANCH  62  65
ENDBRANCH  44  58
BRANCH  45  69
ATOM     69  C   UNL A   1      46.753  27.236  25.953  1.00  0.00     0.023 A 
ATOM     70  C   UNL A   1      46.873  27.464  24.568  1.00  0.00     0.012 A 
ATOM     71  C   UNL A   1      47.812  26.612  26.641  1.00  0.00     0.148 A 
ATOM     72  C   UNL A   1      48.018  27.061  23.879  1.00  0.00     0.002 A 
ATOM     73  C   UNL A   1      48.972  26.264  25.960  1.00  0.00     0.091 A 
ATOM     74  F   UNL A   1      47.666  26.379  27.954  1.00  0.00    -0.205 F 
ATOM     75  C   UNL A   1      49.072  26.474  24.576  1.00  0.00     0.022 A 
BRANCH  73  76
ATOM     76  S   UNL A   1      50.423  25.627  26.805  1.00  0.00     0.127 S 
ATOM     77  O   UNL A   1      50.778  26.743  27.676  1.00  0.00    -0.237 OA
ATOM     78  O   UNL A   1      49.885  24.454  27.494  1.00  0.00    -0.237 OA
ATOM     79  O   UNL A   1      51.379  25.313  25.751  1.00  0.00    -0.744 OA
ENDBRANCH  73  76
ENDBRANCH  45  69
BRANCH  57  80
ATOM     80  C   UNL A   1      45.067  33.077  29.391  1.00  0.00     0.023 A 
ATOM     81  C   UNL A   1      45.880  33.173  30.538  1.00  0.00     0.012 A 
ATOM     82  C   UNL A   1      45.026  34.151  28.481  1.00  0.00     0.148 A 
ATOM     83  C   UNL A   1      46.618  34.329  30.790  1.00  0.00     0.002 A 
ATOM     84  C   UNL A   1      45.798  35.284  28.716  1.00  0.00     0.091 A 
ATOM     85  F   UNL A   1      44.231  34.050  27.406  1.00  0.00    -0.205 F 
ATOM     86  C   UNL A   1      46.587  35.378  29.874  1.00  0.00     0.022 A 
BRANCH  84  87
ATOM     87  S   UNL A   1      45.886  36.645  27.547  1.00  0.00     0.127 S 
ATOM     88  O   UNL A   1      46.196  35.949  26.300  1.00  0.00    -0.237 OA
ATOM     89  O   UNL A   1      44.534  37.203  27.614  1.00  0.00    -0.237 OA
ATOM     90  O   UNL A   1      46.927  37.533  28.048  1.00  0.00    -0.744 OA
ENDBRANCH  84  87
ENDBRANCH  57  80
ENDBRANCH  31  32
ENDBRANCH  24  26
ENDBRANCH  23  24
ENDBRANCH  22  23
ENDBRANCH   1  22
TORSDOF 17
ENDMDL
