MODEL 1
REMARK VINA RESULT:     -11.2      0.000      0.000
REMARK SMILES [NH3+][C@H](Cc1cc(F)c(F)c(F)c1)C(=O)OCCOC(=O)c1ccc(-c2c3nc(c(-c4cccc(S(=O)(=O)[O-])c4F)c4ccc([nH]4)c(-c4cccc(S(=O)(=O)[O-])c4F)c4nc(c(-c5cccc(S(=O)(=O)[O-])c5F)c5ccc2[nH]5)C=C4)C=C3)cc1
REMARK SMILES IDX 17 1 16 2 15 3 13 4 14 5 2 6 1 7 3 11 4 12 5 13 12 14 6 15
REMARK SMILES IDX 10 16 7 17 8 18 11 19 9 20 18 21 19 22 20 23 21 24 22 25
REMARK SMILES IDX 83 26 23 27 82 28 24 29 25 30 26 31 76 32 27 33 81 34 75 35
REMARK SMILES IDX 77 36 28 37 80 38 74 39 73 40 29 42 61 43 41 44 60 45 42 46
REMARK SMILES IDX 45 47 59 48 78 49 43 50 44 51 58 53 79 54 46 55 30 56 31 57
REMARK SMILES IDX 39 58 32 59 34 60 40 61 33 62 35 63 36 64 37 65 38 66 62 67
REMARK SMILES IDX 63 68 71 69 64 70 66 71 72 72 65 73 67 74 68 75 69 76 70 77
REMARK SMILES IDX 47 78 48 79 56 80 49 81 51 82 57 83 50 84 52 85 53 86 54 87
REMARK SMILES IDX 55 88
REMARK H PARENT 1 8 1 9 1 10 77 41 45 52
REMARK Flexibility Score: inf
ROOT
ATOM      1  C   UNL A   1      44.764  22.553  23.795  1.00  0.00     0.275 C 
ENDROOT
BRANCH   1   2
ATOM      2  C   UNL A   1      44.852  21.201  24.517  1.00  0.00     0.274 C 
BRANCH   2   3
ATOM      3  O   UNL A   1      44.131  21.173  25.767  1.00  0.00    -0.458 OA
BRANCH   3   4
ATOM      4  C   UNL A   1      42.955  20.484  25.740  1.00  0.00     0.365 C 
ATOM      5  O   UNL A   1      42.742  19.512  25.023  1.00  0.00    -0.245 OA
BRANCH   4   6
ATOM      6  C   UNL A   1      41.880  21.094  26.653  1.00  0.00     0.296 C 
BRANCH   6   7
ATOM      7  N   UNL A   1      42.341  21.005  28.059  1.00  0.00    -0.346 N 
ATOM      8  H   UNL A   1      42.620  21.931  28.385  1.00  0.00     0.345 HD
ATOM      9  H   UNL A   1      43.138  20.371  28.115  1.00  0.00     0.345 HD
ATOM     10  H   UNL A   1      41.584  20.652  28.644  1.00  0.00     0.345 HD
ENDBRANCH   6   7
BRANCH   6  11
ATOM     11  C   UNL A   1      40.473  20.495  26.438  1.00  0.00     0.113 C 
BRANCH  11  12
ATOM     12  C   UNL A   1      39.418  21.545  26.148  1.00  0.00    -0.035 A 
ATOM     13  C   UNL A   1      38.294  21.241  25.364  1.00  0.00     0.046 A 
ATOM     14  C   UNL A   1      39.532  22.839  26.683  1.00  0.00     0.046 A 
ATOM     15  C   UNL A   1      37.295  22.193  25.164  1.00  0.00     0.162 A 
ATOM     16  C   UNL A   1      38.528  23.785  26.457  1.00  0.00     0.162 A 
ATOM     17  F   UNL A   1      36.218  21.861  24.438  1.00  0.00    -0.204 F 
ATOM     18  C   UNL A   1      37.405  23.463  25.710  1.00  0.00     0.194 A 
ATOM     19  F   UNL A   1      38.661  25.014  26.973  1.00  0.00    -0.204 F 
ATOM     20  F   UNL A   1      36.438  24.368  25.510  1.00  0.00    -0.200 F 
ENDBRANCH  11  12
ENDBRANCH   6  11
ENDBRANCH   4   6
ENDBRANCH   3   4
ENDBRANCH   2   3
ENDBRANCH   1   2
BRANCH   1  21
ATOM     21  O   UNL A   1      43.912  23.493  24.475  1.00  0.00    -0.458 OA
BRANCH  21  22
ATOM     22  C   UNL A   1      44.554  24.586  24.948  1.00  0.00     0.338 C 
ATOM     23  O   UNL A   1      45.659  24.982  24.612  1.00  0.00    -0.246 OA
BRANCH  22  24
ATOM     24  C   UNL A   1      43.688  25.366  25.849  1.00  0.00     0.060 A 
ATOM     25  C   UNL A   1      44.066  26.687  26.112  1.00  0.00     0.016 A 
ATOM     26  C   UNL A   1      42.611  24.789  26.523  1.00  0.00     0.016 A 
ATOM     27  C   UNL A   1      43.401  27.424  27.086  1.00  0.00     0.010 A 
ATOM     28  C   UNL A   1      41.941  25.533  27.503  1.00  0.00     0.010 A 
ATOM     29  C   UNL A   1      42.359  26.839  27.815  1.00  0.00    -0.014 A 
BRANCH  29  30
ATOM     30  C   UNL A   1      41.806  27.570  28.981  1.00  0.00     0.031 A 
ATOM     31  C   UNL A   1      42.526  27.509  30.300  1.00  0.00     0.074 A 
ATOM     32  C   UNL A   1      40.701  28.326  28.847  1.00  0.00     0.049 A 
ATOM     33  N   UNL A   1      42.239  28.105  31.427  1.00  0.00    -0.248 NA
ATOM     34  C   UNL A   1      43.730  26.664  30.359  1.00  0.00     0.031 C 
ATOM     35  C   UNL A   1      39.923  28.472  27.618  1.00  0.00     0.029 A 
ATOM     36  N   UNL A   1      40.042  29.112  29.759  1.00  0.00    -0.354 N 
ATOM     37  C   UNL A   1      43.199  27.682  32.338  1.00  0.00     0.074 A 
ATOM     38  C   UNL A   1      44.077  26.772  31.634  1.00  0.00     0.031 C 
ATOM     39  C   UNL A   1      38.888  29.297  27.852  1.00  0.00     0.029 A 
ATOM     40  C   UNL A   1      38.919  29.721  29.250  1.00  0.00     0.049 A 
ATOM     41  H   UNL A   1      40.344  29.228  30.688  1.00  0.00     0.167 HD
ATOM     42  C   UNL A   1      43.349  28.031  33.637  1.00  0.00     0.034 A 
ATOM     43  C   UNL A   1      38.021  30.530  29.846  1.00  0.00     0.034 A 
ATOM     44  C   UNL A   1      42.504  28.970  34.324  1.00  0.00     0.049 A 
ATOM     45  C   UNL A   1      38.226  30.918  31.286  1.00  0.00     0.074 A 
ATOM     46  C   UNL A   1      42.599  29.419  35.630  1.00  0.00     0.029 A 
ATOM     47  N   UNL A   1      41.410  29.607  33.760  1.00  0.00    -0.354 N 
ATOM     48  N   UNL A   1      39.203  30.596  32.100  1.00  0.00    -0.248 NA
ATOM     49  C   UNL A   1      37.223  31.815  31.882  1.00  0.00     0.031 C 
ATOM     50  C   UNL A   1      41.557  30.324  35.858  1.00  0.00     0.029 A 
ATOM     51  C   UNL A   1      40.820  30.447  34.690  1.00  0.00     0.049 A 
ATOM     52  H   UNL A   1      41.098  29.482  32.835  1.00  0.00     0.167 HD
ATOM     53  C   UNL A   1      38.955  31.278  33.285  1.00  0.00     0.074 A 
ATOM     54  C   UNL A   1      37.744  32.047  33.079  1.00  0.00     0.031 C 
ATOM     55  C   UNL A   1      39.656  31.260  34.446  1.00  0.00     0.034 A 
BRANCH  42  56
ATOM     56  C   UNL A   1      44.494  27.415  34.396  1.00  0.00     0.023 A 
ATOM     57  C   UNL A   1      45.718  28.108  34.491  1.00  0.00     0.012 A 
ATOM     58  C   UNL A   1      44.346  26.176  35.048  1.00  0.00     0.148 A 
ATOM     59  C   UNL A   1      46.787  27.562  35.202  1.00  0.00     0.002 A 
ATOM     60  C   UNL A   1      45.405  25.658  35.787  1.00  0.00     0.091 A 
ATOM     61  F   UNL A   1      43.184  25.519  34.922  1.00  0.00    -0.205 F 
ATOM     62  C   UNL A   1      46.627  26.345  35.858  1.00  0.00     0.022 A 
BRANCH  60  63
ATOM     63  S   UNL A   1      45.266  24.129  36.719  1.00  0.00     0.127 S 
ATOM     64  O   UNL A   1      46.670  23.796  36.953  1.00  0.00    -0.237 OA
ATOM     65  O   UNL A   1      44.534  24.555  37.912  1.00  0.00    -0.237 OA
ATOM     66  O   UNL A   1      44.534  23.206  35.861  1.00  0.00    -0.744 OA
ENDBRANCH  60  63
ENDBRANCH  42  56
BRANCH  43  67
ATOM     67  C   UNL A   1      36.884  31.085  29.060  1.00  0.00     0.023 A 
ATOM     68  C   UNL A   1      36.825  32.471  28.813  1.00  0.00     0.012 A 
ATOM     69  C   UNL A   1      35.875  30.251  28.539  1.00  0.00     0.148 A 
ATOM     70  C   UNL A   1      35.769  33.019  28.084  1.00  0.00     0.002 A 
ATOM     71  C   UNL A   1      34.854  30.797  27.770  1.00  0.00     0.091 A 
ATOM     72  F   UNL A   1      35.936  28.939  28.803  1.00  0.00    -0.205 F 
ATOM     73  C   UNL A   1      34.790  32.182  27.554  1.00  0.00     0.022 A 
BRANCH  71  74
ATOM     74  S   UNL A   1      33.625  29.777  26.949  1.00  0.00     0.127 S 
ATOM     75  O   UNL A   1      33.174  28.915  28.038  1.00  0.00    -0.237 OA
ATOM     76  O   UNL A   1      32.647  30.772  26.507  1.00  0.00    -0.237 OA
ATOM     77  O   UNL A   1      34.333  29.113  25.862  1.00  0.00    -0.744 OA
ENDBRANCH  71  74
ENDBRANCH  43  67
BRANCH  55  78
ATOM     78  C   UNL A   1      39.163  32.124  35.576  1.00  0.00     0.023 A 
ATOM     79  C   UNL A   1      38.225  31.609  36.492  1.00  0.00     0.012 A 
ATOM     80  C   UNL A   1      39.682  33.419  35.772  1.00  0.00     0.148 A 
ATOM     81  C   UNL A   1      37.788  32.381  37.569  1.00  0.00     0.002 A 
ATOM     82  C   UNL A   1      39.274  34.166  36.872  1.00  0.00     0.091 A 
ATOM     83  F   UNL A   1      40.556  33.904  34.878  1.00  0.00    -0.205 F 
ATOM     84  C   UNL A   1      38.321  33.653  37.765  1.00  0.00     0.022 A 
BRANCH  82  85
ATOM     85  S   UNL A   1      39.987  35.773  37.241  1.00  0.00     0.127 S 
ATOM     86  O   UNL A   1      39.347  36.101  38.513  1.00  0.00    -0.237 OA
ATOM     87  O   UNL A   1      41.416  35.474  37.337  1.00  0.00    -0.237 OA
ATOM     88  O   UNL A   1      39.632  36.625  36.113  1.00  0.00    -0.744 OA
ENDBRANCH  82  85
ENDBRANCH  55  78
ENDBRANCH  29  30
ENDBRANCH  22  24
ENDBRANCH  21  22
ENDBRANCH   1  21
TORSDOF 17
ENDMDL
MODEL 2
REMARK VINA RESULT:     -11.2      5.214      7.442
REMARK SMILES [NH3+][C@H](Cc1cc(F)c(F)c(F)c1)C(=O)OCCOC(=O)c1ccc(-c2c3nc(c(-c4cccc(S(=O)(=O)[O-])c4F)c4ccc([nH]4)c(-c4cccc(S(=O)(=O)[O-])c4F)c4nc(c(-c5cccc(S(=O)(=O)[O-])c5F)c5ccc2[nH]5)C=C4)C=C3)cc1
REMARK SMILES IDX 17 1 16 2 15 3 13 4 14 5 2 6 1 7 3 11 4 12 5 13 12 14 6 15
REMARK SMILES IDX 10 16 7 17 8 18 11 19 9 20 18 21 19 22 20 23 21 24 22 25
REMARK SMILES IDX 83 26 23 27 82 28 24 29 25 30 26 31 76 32 27 33 81 34 75 35
REMARK SMILES IDX 77 36 28 37 80 38 74 39 73 40 29 42 61 43 41 44 60 45 42 46
REMARK SMILES IDX 45 47 59 48 78 49 43 50 44 51 58 53 79 54 46 55 30 56 31 57
REMARK SMILES IDX 39 58 32 59 34 60 40 61 33 62 35 63 36 64 37 65 38 66 62 67
REMARK SMILES IDX 63 68 71 69 64 70 66 71 72 72 65 73 67 74 68 75 69 76 70 77
REMARK SMILES IDX 47 78 48 79 56 80 49 81 51 82 57 83 50 84 52 85 53 86 54 87
REMARK SMILES IDX 55 88
REMARK H PARENT 1 8 1 9 1 10 77 41 45 52
REMARK Flexibility Score: inf
ROOT
ATOM      1  C   UNL A   1      37.685  19.926  24.835  1.00  0.00     0.275 C 
ENDROOT
BRANCH   1   2
ATOM      2  C   UNL A   1      36.155  19.992  24.931  1.00  0.00     0.274 C 
BRANCH   2   3
ATOM      3  O   UNL A   1      35.679  21.119  25.697  1.00  0.00    -0.458 OA
BRANCH   3   4
ATOM      4  C   UNL A   1      34.636  21.797  25.137  1.00  0.00     0.365 C 
ATOM      5  O   UNL A   1      34.696  22.393  24.067  1.00  0.00    -0.245 OA
BRANCH   4   6
ATOM      6  C   UNL A   1      33.380  21.804  26.023  1.00  0.00     0.296 C 
BRANCH   6   7
ATOM      7  N   UNL A   1      33.719  21.207  27.337  1.00  0.00    -0.346 N 
ATOM      8  H   UNL A   1      33.143  21.634  28.063  1.00  0.00     0.345 HD
ATOM      9  H   UNL A   1      34.704  21.376  27.542  1.00  0.00     0.345 HD
ATOM     10  H   UNL A   1      33.545  20.203  27.310  1.00  0.00     0.345 HD
ENDBRANCH   6   7
BRANCH   6  11
ATOM     11  C   UNL A   1      32.151  21.147  25.359  1.00  0.00     0.113 C 
BRANCH  11  12
ATOM     12  C   UNL A   1      32.438  19.757  24.822  1.00  0.00    -0.035 A 
ATOM     13  C   UNL A   1      32.357  19.483  23.448  1.00  0.00     0.046 A 
ATOM     14  C   UNL A   1      32.819  18.720  25.690  1.00  0.00     0.046 A 
ATOM     15  C   UNL A   1      32.694  18.222  22.958  1.00  0.00     0.162 A 
ATOM     16  C   UNL A   1      33.136  17.457  25.183  1.00  0.00     0.162 A 
ATOM     17  F   UNL A   1      32.638  18.002  21.638  1.00  0.00    -0.204 F 
ATOM     18  C   UNL A   1      33.087  17.209  23.819  1.00  0.00     0.194 A 
ATOM     19  F   UNL A   1      33.492  16.483  26.030  1.00  0.00    -0.204 F 
ATOM     20  F   UNL A   1      33.407  16.000  23.336  1.00  0.00    -0.200 F 
ENDBRANCH  11  12
ENDBRANCH   6  11
ENDBRANCH   4   6
ENDBRANCH   3   4
ENDBRANCH   2   3
ENDBRANCH   1   2
BRANCH   1  21
ATOM     21  O   UNL A   1      38.325  21.127  25.302  1.00  0.00    -0.458 OA
BRANCH  21  22
ATOM     22  C   UNL A   1      39.413  20.914  26.077  1.00  0.00     0.338 C 
ATOM     23  O   UNL A   1      40.072  19.889  26.138  1.00  0.00    -0.246 OA
BRANCH  22  24
ATOM     24  C   UNL A   1      39.825  22.147  26.769  1.00  0.00     0.060 A 
ATOM     25  C   UNL A   1      39.220  23.341  26.361  1.00  0.00     0.016 A 
ATOM     26  C   UNL A   1      40.864  22.162  27.701  1.00  0.00     0.016 A 
ATOM     27  C   UNL A   1      39.684  24.560  26.842  1.00  0.00     0.010 A 
ATOM     28  C   UNL A   1      41.330  23.391  28.186  1.00  0.00     0.010 A 
ATOM     29  C   UNL A   1      40.766  24.596  27.728  1.00  0.00    -0.014 A 
BRANCH  29  30
ATOM     30  C   UNL A   1      41.371  25.908  28.064  1.00  0.00     0.031 A 
ATOM     31  C   UNL A   1      42.768  26.218  27.602  1.00  0.00     0.074 A 
ATOM     32  C   UNL A   1      40.656  26.834  28.729  1.00  0.00     0.049 A 
ATOM     33  N   UNL A   1      43.464  27.315  27.751  1.00  0.00    -0.248 NA
ATOM     34  C   UNL A   1      43.477  25.152  26.877  1.00  0.00     0.031 C 
ATOM     35  C   UNL A   1      39.291  26.654  29.220  1.00  0.00     0.029 A 
ATOM     36  N   UNL A   1      40.985  28.113  29.108  1.00  0.00    -0.354 N 
ATOM     37  C   UNL A   1      44.702  27.062  27.173  1.00  0.00     0.074 A 
ATOM     38  C   UNL A   1      44.665  25.703  26.675  1.00  0.00     0.031 C 
ATOM     39  C   UNL A   1      38.897  27.782  29.838  1.00  0.00     0.029 A 
ATOM     40  C   UNL A   1      39.988  28.754  29.803  1.00  0.00     0.049 A 
ATOM     41  H   UNL A   1      41.852  28.529  28.900  1.00  0.00     0.167 HD
ATOM     42  C   UNL A   1      45.767  27.888  27.050  1.00  0.00     0.034 A 
ATOM     43  C   UNL A   1      39.959  29.986  30.348  1.00  0.00     0.034 A 
ATOM     44  C   UNL A   1      45.786  29.252  27.505  1.00  0.00     0.049 A 
ATOM     45  C   UNL A   1      41.150  30.891  30.178  1.00  0.00     0.074 A 
ATOM     46  C   UNL A   1      46.805  30.183  27.391  1.00  0.00     0.029 A 
ATOM     47  N   UNL A   1      44.738  29.883  28.156  1.00  0.00    -0.354 N 
ATOM     48  N   UNL A   1      42.270  30.672  29.531  1.00  0.00    -0.248 NA
ATOM     49  C   UNL A   1      41.059  32.229  30.782  1.00  0.00     0.031 C 
ATOM     50  C   UNL A   1      46.374  31.376  27.982  1.00  0.00     0.029 A 
ATOM     51  C   UNL A   1      45.083  31.191  28.452  1.00  0.00     0.049 A 
ATOM     52  H   UNL A   1      43.876  29.463  28.377  1.00  0.00     0.167 HD
ATOM     53  C   UNL A   1      42.997  31.855  29.615  1.00  0.00     0.074 A 
ATOM     54  C   UNL A   1      42.184  32.793  30.361  1.00  0.00     0.031 C 
ATOM     55  C   UNL A   1      44.234  32.134  29.133  1.00  0.00     0.034 A 
BRANCH  42  56
ATOM     56  C   UNL A   1      46.994  27.347  26.368  1.00  0.00     0.023 A 
ATOM     57  C   UNL A   1      47.186  27.584  24.992  1.00  0.00     0.012 A 
ATOM     58  C   UNL A   1      47.974  26.643  27.093  1.00  0.00     0.148 A 
ATOM     59  C   UNL A   1      48.324  27.105  24.342  1.00  0.00     0.002 A 
ATOM     60  C   UNL A   1      49.123  26.201  26.446  1.00  0.00     0.091 A 
ATOM     61  F   UNL A   1      47.759  26.402  28.394  1.00  0.00    -0.205 F 
ATOM     62  C   UNL A   1      49.296  26.424  25.070  1.00  0.00     0.022 A 
BRANCH  60  63
ATOM     63  S   UNL A   1      50.458  25.375  27.319  1.00  0.00     0.127 S 
ATOM     64  O   UNL A   1      49.766  24.225  27.897  1.00  0.00    -0.237 OA
ATOM     65  O   UNL A   1      51.385  25.046  26.235  1.00  0.00    -0.237 OA
ATOM     66  O   UNL A   1      50.970  26.348  28.274  1.00  0.00    -0.744 OA
ENDBRANCH  60  63
ENDBRANCH  42  56
BRANCH  43  67
ATOM     67  C   UNL A   1      38.732  30.461  31.047  1.00  0.00     0.023 A 
ATOM     68  C   UNL A   1      38.614  30.277  32.438  1.00  0.00     0.012 A 
ATOM     69  C   UNL A   1      37.695  31.111  30.350  1.00  0.00     0.148 A 
ATOM     70  C   UNL A   1      37.474  30.707  33.119  1.00  0.00     0.002 A 
ATOM     71  C   UNL A   1      36.585  31.584  31.041  1.00  0.00     0.091 A 
ATOM     72  F   UNL A   1      37.815  31.257  29.023  1.00  0.00    -0.205 F 
ATOM     73  C   UNL A   1      36.466  31.369  32.423  1.00  0.00     0.022 A 
BRANCH  71  74
ATOM     74  S   UNL A   1      35.302  32.553  30.243  1.00  0.00     0.127 S 
ATOM     75  O   UNL A   1      34.341  32.732  31.329  1.00  0.00    -0.237 OA
ATOM     76  O   UNL A   1      36.027  33.764  29.858  1.00  0.00    -0.237 OA
ATOM     77  O   UNL A   1      34.849  31.746  29.117  1.00  0.00    -0.744 OA
ENDBRANCH  71  74
ENDBRANCH  43  67
BRANCH  55  78
ATOM     78  C   UNL A   1      44.774  33.522  29.355  1.00  0.00     0.023 A 
ATOM     79  C   UNL A   1      45.461  33.822  30.548  1.00  0.00     0.012 A 
ATOM     80  C   UNL A   1      44.665  34.507  28.354  1.00  0.00     0.148 A 
ATOM     81  C   UNL A   1      46.004  35.090  30.753  1.00  0.00     0.002 A 
ATOM     82  C   UNL A   1      45.247  35.755  28.547  1.00  0.00     0.091 A 
ATOM     83  F   UNL A   1      43.988  34.214  27.234  1.00  0.00    -0.205 F 
ATOM     84  C   UNL A   1      45.908  36.051  29.750  1.00  0.00     0.022 A 
BRANCH  82  85
ATOM     85  S   UNL A   1      45.245  37.010  27.262  1.00  0.00     0.127 S 
ATOM     86  O   UNL A   1      45.889  38.134  27.939  1.00  0.00    -0.237 OA
ATOM     87  O   UNL A   1      46.051  36.391  26.210  1.00  0.00    -0.237 OA
ATOM     88  O   UNL A   1      43.845  37.201  26.906  1.00  0.00    -0.744 OA
ENDBRANCH  82  85
ENDBRANCH  55  78
ENDBRANCH  29  30
ENDBRANCH  22  24
ENDBRANCH  21  22
ENDBRANCH   1  21
TORSDOF 17
ENDMDL
MODEL 3
REMARK VINA RESULT:     -11.0      4.283     10.304
REMARK SMILES [NH3+][C@H](Cc1cc(F)c(F)c(F)c1)C(=O)OCCOC(=O)c1ccc(-c2c3nc(c(-c4cccc(S(=O)(=O)[O-])c4F)c4ccc([nH]4)c(-c4cccc(S(=O)(=O)[O-])c4F)c4nc(c(-c5cccc(S(=O)(=O)[O-])c5F)c5ccc2[nH]5)C=C4)C=C3)cc1
REMARK SMILES IDX 17 1 16 2 15 3 13 4 14 5 2 6 1 7 3 11 4 12 5 13 12 14 6 15
REMARK SMILES IDX 10 16 7 17 8 18 11 19 9 20 18 21 19 22 20 23 21 24 22 25
REMARK SMILES IDX 83 26 23 27 82 28 24 29 25 30 26 31 76 32 27 33 81 34 75 35
REMARK SMILES IDX 77 36 28 37 80 38 74 39 73 40 29 42 61 43 41 44 60 45 42 46
REMARK SMILES IDX 45 47 59 48 78 49 43 50 44 51 58 53 79 54 46 55 30 56 31 57
REMARK SMILES IDX 39 58 32 59 34 60 40 61 33 62 35 63 36 64 37 65 38 66 62 67
REMARK SMILES IDX 63 68 71 69 64 70 66 71 72 72 65 73 67 74 68 75 69 76 70 77
REMARK SMILES IDX 47 78 48 79 56 80 49 81 51 82 57 83 50 84 52 85 53 86 54 87
REMARK SMILES IDX 55 88
REMARK H PARENT 1 8 1 9 1 10 77 41 45 52
REMARK Flexibility Score: inf
ROOT
ATOM      1  C   UNL A   1      32.235  30.608  26.085  1.00  0.00     0.275 C 
ENDROOT
BRANCH   1   2
ATOM      2  C   UNL A   1      33.004  29.464  25.411  1.00  0.00     0.274 C 
BRANCH   2   3
ATOM      3  O   UNL A   1      32.563  29.194  24.064  1.00  0.00    -0.458 OA
BRANCH   3   4
ATOM      4  C   UNL A   1      31.486  28.363  23.966  1.00  0.00     0.365 C 
ATOM      5  O   UNL A   1      31.224  27.475  24.771  1.00  0.00    -0.245 OA
BRANCH   4   6
ATOM      6  C   UNL A   1      30.660  28.599  22.691  1.00  0.00     0.296 C 
BRANCH   6   7
ATOM      7  N   UNL A   1      31.317  29.655  21.885  1.00  0.00    -0.346 N 
ATOM      8  H   UNL A   1      32.330  29.555  21.953  1.00  0.00     0.345 HD
ATOM      9  H   UNL A   1      31.042  30.572  22.239  1.00  0.00     0.345 HD
ATOM     10  H   UNL A   1      31.031  29.567  20.911  1.00  0.00     0.345 HD
ENDBRANCH   6   7
BRANCH   6  11
ATOM     11  C   UNL A   1      29.168  28.886  22.966  1.00  0.00     0.113 C 
BRANCH  11  12
ATOM     12  C   UNL A   1      28.705  30.215  22.399  1.00  0.00    -0.035 A 
ATOM     13  C   UNL A   1      28.829  31.399  23.142  1.00  0.00     0.046 A 
ATOM     14  C   UNL A   1      28.166  30.290  21.104  1.00  0.00     0.046 A 
ATOM     15  C   UNL A   1      28.468  32.624  22.583  1.00  0.00     0.162 A 
ATOM     16  C   UNL A   1      27.793  31.525  20.567  1.00  0.00     0.162 A 
ATOM     17  F   UNL A   1      28.630  33.741  23.306  1.00  0.00    -0.204 F 
ATOM     18  C   UNL A   1      27.954  32.693  21.297  1.00  0.00     0.194 A 
ATOM     19  F   UNL A   1      27.277  31.573  19.332  1.00  0.00    -0.204 F 
ATOM     20  F   UNL A   1      27.610  33.877  20.772  1.00  0.00    -0.200 F 
ENDBRANCH  11  12
ENDBRANCH   6  11
ENDBRANCH   4   6
ENDBRANCH   3   4
ENDBRANCH   2   3
ENDBRANCH   1   2
BRANCH   1  21
ATOM     21  O   UNL A   1      32.643  30.827  27.448  1.00  0.00    -0.458 OA
BRANCH  21  22
ATOM     22  C   UNL A   1      33.472  31.882  27.618  1.00  0.00     0.338 C 
ATOM     23  O   UNL A   1      33.154  33.060  27.637  1.00  0.00    -0.246 OA
BRANCH  22  24
ATOM     24  C   UNL A   1      34.842  31.440  27.933  1.00  0.00     0.060 A 
ATOM     25  C   UNL A   1      35.016  30.093  28.271  1.00  0.00     0.016 A 
ATOM     26  C   UNL A   1      35.908  32.336  28.023  1.00  0.00     0.016 A 
ATOM     27  C   UNL A   1      36.242  29.645  28.750  1.00  0.00     0.010 A 
ATOM     28  C   UNL A   1      37.143  31.883  28.505  1.00  0.00     0.010 A 
ATOM     29  C   UNL A   1      37.303  30.545  28.906  1.00  0.00    -0.014 A 
BRANCH  29  30
ATOM     30  C   UNL A   1      38.527  30.089  29.607  1.00  0.00     0.031 A 
ATOM     31  C   UNL A   1      38.807  30.580  31.001  1.00  0.00     0.074 A 
ATOM     32  C   UNL A   1      39.354  29.202  29.023  1.00  0.00     0.049 A 
ATOM     33  N   UNL A   1      39.792  30.274  31.803  1.00  0.00    -0.248 NA
ATOM     34  C   UNL A   1      37.850  31.544  31.567  1.00  0.00     0.031 C 
ATOM     35  C   UNL A   1      39.184  28.647  27.681  1.00  0.00     0.029 A 
ATOM     36  N   UNL A   1      40.504  28.614  29.488  1.00  0.00    -0.354 N 
ATOM     37  C   UNL A   1      39.598  31.032  32.952  1.00  0.00     0.074 A 
ATOM     38  C   UNL A   1      38.401  31.818  32.741  1.00  0.00     0.031 C 
ATOM     39  C   UNL A   1      40.196  27.799  27.428  1.00  0.00     0.029 A 
ATOM     40  C   UNL A   1      41.094  27.766  28.581  1.00  0.00     0.049 A 
ATOM     41  H   UNL A   1      40.871  28.784  30.385  1.00  0.00     0.167 HD
ATOM     42  C   UNL A   1      40.335  31.058  34.086  1.00  0.00     0.034 A 
ATOM     43  C   UNL A   1      42.228  27.045  28.672  1.00  0.00     0.034 A 
ATOM     44  C   UNL A   1      41.498  30.243  34.313  1.00  0.00     0.049 A 
ATOM     45  C   UNL A   1      43.017  27.078  29.954  1.00  0.00     0.074 A 
ATOM     46  C   UNL A   1      42.291  30.169  35.445  1.00  0.00     0.029 A 
ATOM     47  N   UNL A   1      42.033  29.357  33.391  1.00  0.00    -0.354 N 
ATOM     48  N   UNL A   1      42.756  27.716  31.070  1.00  0.00    -0.248 NA
ATOM     49  C   UNL A   1      44.240  26.261  30.003  1.00  0.00     0.031 C 
ATOM     50  C   UNL A   1      43.311  29.243  35.205  1.00  0.00     0.029 A 
ATOM     51  C   UNL A   1      43.145  28.730  33.927  1.00  0.00     0.049 A 
ATOM     52  H   UNL A   1      41.676  29.196  32.489  1.00  0.00     0.167 HD
ATOM     53  C   UNL A   1      43.756  27.347  31.964  1.00  0.00     0.074 A 
ATOM     54  C   UNL A   1      44.618  26.415  31.265  1.00  0.00     0.031 C 
ATOM     55  C   UNL A   1      43.952  27.753  33.243  1.00  0.00     0.034 A 
BRANCH  42  56
ATOM     56  C   UNL A   1      39.887  31.981  35.187  1.00  0.00     0.023 A 
ATOM     57  C   UNL A   1      40.302  33.328  35.178  1.00  0.00     0.012 A 
ATOM     58  C   UNL A   1      39.023  31.530  36.203  1.00  0.00     0.148 A 
ATOM     59  C   UNL A   1      39.887  34.205  36.180  1.00  0.00     0.002 A 
ATOM     60  C   UNL A   1      38.582  32.420  37.177  1.00  0.00     0.091 A 
ATOM     61  F   UNL A   1      38.661  30.239  36.210  1.00  0.00    -0.205 F 
ATOM     62  C   UNL A   1      39.019  33.754  37.172  1.00  0.00     0.022 A 
BRANCH  60  63
ATOM     63  S   UNL A   1      37.411  31.943  38.452  1.00  0.00     0.127 S 
ATOM     64  O   UNL A   1      38.200  32.138  39.667  1.00  0.00    -0.237 OA
ATOM     65  O   UNL A   1      36.331  32.914  38.265  1.00  0.00    -0.237 OA
ATOM     66  O   UNL A   1      37.039  30.566  38.155  1.00  0.00    -0.744 OA
ENDBRANCH  60  63
ENDBRANCH  42  56
BRANCH  43  67
ATOM     67  C   UNL A   1      42.649  26.174  27.539  1.00  0.00     0.023 A 
ATOM     68  C   UNL A   1      43.527  26.686  26.563  1.00  0.00     0.012 A 
ATOM     69  C   UNL A   1      42.205  24.842  27.431  1.00  0.00     0.148 A 
ATOM     70  C   UNL A   1      43.934  25.896  25.487  1.00  0.00     0.002 A 
ATOM     71  C   UNL A   1      42.654  24.044  26.385  1.00  0.00     0.091 A 
ATOM     72  F   UNL A   1      41.352  24.380  28.356  1.00  0.00    -0.205 F 
ATOM     73  C   UNL A   1      43.507  24.574  25.404  1.00  0.00     0.022 A 
BRANCH  71  74
ATOM     74  S   UNL A   1      42.251  22.298  26.272  1.00  0.00     0.127 S 
ATOM     75  O   UNL A   1      42.769  21.788  27.539  1.00  0.00    -0.237 OA
ATOM     76  O   UNL A   1      40.792  22.326  26.171  1.00  0.00    -0.237 OA
ATOM     77  O   UNL A   1      42.924  21.821  25.071  1.00  0.00    -0.744 OA
ENDBRANCH  71  74
ENDBRANCH  43  67
BRANCH  55  78
ATOM     78  C   UNL A   1      45.119  27.167  33.992  1.00  0.00     0.023 A 
ATOM     79  C   UNL A   1      46.372  27.810  33.948  1.00  0.00     0.012 A 
ATOM     80  C   UNL A   1      44.958  26.021  34.796  1.00  0.00     0.148 A 
ATOM     81  C   UNL A   1      47.454  27.304  34.669  1.00  0.00     0.002 A 
ATOM     82  C   UNL A   1      46.029  25.549  35.547  1.00  0.00     0.091 A 
ATOM     83  F   UNL A   1      43.766  25.407  34.809  1.00  0.00    -0.205 F 
ATOM     84  C   UNL A   1      47.279  26.182  35.476  1.00  0.00     0.022 A 
BRANCH  82  85
ATOM     85  S   UNL A   1      45.853  24.167  36.680  1.00  0.00     0.127 S 
ATOM     86  O   UNL A   1      45.703  23.041  35.761  1.00  0.00    -0.237 OA
ATOM     87  O   UNL A   1      47.121  24.191  37.411  1.00  0.00    -0.237 OA
ATOM     88  O   UNL A   1      44.689  24.479  37.499  1.00  0.00    -0.744 OA
ENDBRANCH  82  85
ENDBRANCH  55  78
ENDBRANCH  29  30
ENDBRANCH  22  24
ENDBRANCH  21  22
ENDBRANCH   1  21
TORSDOF 17
ENDMDL
