MODEL 1
REMARK VINA RESULT:     -12.6      0.000      0.000
REMARK SMILES Cc1ccc(C)c(Oc2cccc(F)c2C(=O)OCCOC(=O)c2ccc(-c3c4nc(c(-c5cccc(S(=O)(=O)[O-])c5F)c5ccc([nH]5)c(-c5cccc(S(=O)(=O)[O-])c5F)c5nc(c(-c6cccc(S(=O)(=O)[O-])c6F)c6ccc3[nH]6)C=C5)C=C4)cc2)c1
REMARK SMILES IDX 20 1 19 2 18 3 16 4 17 5 15 6 9 7 10 8 11 9 13 10 12 11
REMARK SMILES IDX 14 12 8 13 7 14 1 15 2 16 3 17 87 18 4 19 5 20 6 21 21 22
REMARK SMILES IDX 22 23 23 24 24 25 25 26 86 27 26 28 85 29 27 30 28 31 29 32
REMARK SMILES IDX 79 33 30 34 84 35 78 36 80 37 31 38 83 39 77 40 76 41 32 43
REMARK SMILES IDX 64 44 44 45 63 46 45 47 48 48 62 49 81 50 46 51 47 52 61 54
REMARK SMILES IDX 82 55 49 56 33 57 34 58 42 59 35 60 37 61 43 62 36 63 38 64
REMARK SMILES IDX 39 65 40 66 41 67 65 68 66 69 74 70 67 71 69 72 75 73 68 74
REMARK SMILES IDX 70 75 71 76 72 77 73 78 50 79 51 80 59 81 52 82 54 83 60 84
REMARK SMILES IDX 53 85 55 86 56 87 57 88 58 89
REMARK H PARENT 80 42 48 53
REMARK Flexibility Score: inf
ROOT
ATOM      1  C   UNL A   1      33.367  30.490  27.200  1.00  0.00     0.275 C 
ENDROOT
BRANCH   1   2
ATOM      2  C   UNL A   1      33.342  29.444  26.082  1.00  0.00     0.275 C 
BRANCH   2   3
ATOM      3  O   UNL A   1      33.751  28.189  26.654  1.00  0.00    -0.458 OA
BRANCH   3   4
ATOM      4  C   UNL A   1      32.970  26.961  26.299  1.00  0.00     0.345 C 
ATOM      5  O   UNL A   1      31.830  27.326  26.697  1.00  0.00    -0.246 OA
BRANCH   4   6
ATOM      6  C   UNL A   1      33.716  25.188  25.297  1.00  0.00     0.138 A 
ATOM      7  C   UNL A   1      33.720  24.742  23.769  1.00  0.00     0.144 A 
ATOM      8  C   UNL A   1      34.636  23.835  23.094  1.00  0.00     0.048 A 
ATOM      9  C   UNL A   1      35.537  23.055  23.756  1.00  0.00     0.007 A 
ATOM     10  C   UNL A   1      34.605  24.020  25.821  1.00  0.00     0.141 A 
ATOM     11  C   UNL A   1      35.463  23.105  25.116  1.00  0.00     0.040 A 
ATOM     12  F   UNL A   1      34.697  23.660  27.119  1.00  0.00    -0.206 F 
BRANCH   7  13
ATOM     13  O   UNL A   1      32.948  25.295  22.717  1.00  0.00    -0.456 OA
BRANCH  13  14
ATOM     14  C   UNL A   1      31.947  26.228  22.945  1.00  0.00     0.130 A 
ATOM     15  C   UNL A   1      28.270  26.694  23.877  1.00  0.00     0.044 C 
ATOM     16  C   UNL A   1      29.701  26.982  23.525  1.00  0.00    -0.047 A 
ATOM     17  C   UNL A   1      30.125  28.309  23.420  1.00  0.00     0.004 A 
ATOM     18  C   UNL A   1      30.630  25.944  23.330  1.00  0.00     0.050 A 
ATOM     19  C   UNL A   1      31.431  28.600  23.032  1.00  0.00     0.007 A 
ATOM     20  C   UNL A   1      32.333  27.569  22.741  1.00  0.00    -0.008 A 
ATOM     21  C   UNL A   1      33.712  27.945  22.270  1.00  0.00     0.048 C 
ENDBRANCH  13  14
ENDBRANCH   7  13
ENDBRANCH   4   6
ENDBRANCH   3   4
ENDBRANCH   2   3
ENDBRANCH   1   2
BRANCH   1  22
ATOM     22  O   UNL A   1      34.653  31.148  27.371  1.00  0.00    -0.458 OA
BRANCH  22  23
ATOM     23  C   UNL A   1      34.715  32.187  28.246  1.00  0.00     0.338 C 
ATOM     24  O   UNL A   1      34.051  33.205  28.199  1.00  0.00    -0.246 OA
BRANCH  23  25
ATOM     25  C   UNL A   1      35.814  31.980  29.200  1.00  0.00     0.060 A 
ATOM     26  C   UNL A   1      37.388  32.845  28.885  1.00  0.00     0.016 A 
ATOM     27  C   UNL A   1      35.814  30.368  30.000  1.00  0.00     0.016 A 
ATOM     28  C   UNL A   1      38.984  32.087  29.396  1.00  0.00     0.010 A 
ATOM     29  C   UNL A   1      37.413  29.525  30.288  1.00  0.00     0.010 A 
ATOM     30  C   UNL A   1      38.997  30.379  29.985  1.00  0.00    -0.014 A 
BRANCH  30  31
ATOM     31  C   UNL A   1      40.197  29.500  29.867  1.00  0.00     0.031 A 
ATOM     32  C   UNL A   1      40.594  28.965  31.184  1.00  0.00     0.074 A 
ATOM     33  C   UNL A   1      40.742  28.888  28.777  1.00  0.00     0.049 A 
ATOM     34  N   UNL A   1      41.440  29.482  32.016  1.00  0.00    -0.248 NA
ATOM     35  C   UNL A   1      39.805  27.850  31.729  1.00  0.00     0.031 C 
ATOM     36  C   UNL A   1      40.270  28.902  27.390  1.00  0.00     0.029 A 
ATOM     37  N   UNL A   1      41.795  27.987  28.705  1.00  0.00    -0.354 N 
ATOM     38  C   UNL A   1      41.413  28.596  33.083  1.00  0.00     0.074 A 
ATOM     39  C   UNL A   1      40.149  27.914  33.017  1.00  0.00     0.031 C 
ATOM     40  C   UNL A   1      40.864  27.907  26.684  1.00  0.00     0.029 A 
ATOM     41  C   UNL A   1      41.862  27.252  27.510  1.00  0.00     0.049 A 
ATOM     42  H   UNL A   1      42.445  27.870  29.437  1.00  0.00     0.167 HD
ATOM     43  C   UNL A   1      42.550  28.111  33.653  1.00  0.00     0.034 A 
ATOM     44  C   UNL A   1      42.652  26.175  27.227  1.00  0.00     0.034 A 
ATOM     45  C   UNL A   1      43.727  28.709  33.095  1.00  0.00     0.049 A 
ATOM     46  C   UNL A   1      43.787  26.192  28.171  1.00  0.00     0.074 A 
ATOM     47  C   UNL A   1      44.355  29.932  33.120  1.00  0.00     0.029 A 
ATOM     48  N   UNL A   1      44.233  28.008  32.035  1.00  0.00    -0.354 N 
ATOM     49  N   UNL A   1      44.763  27.051  28.114  1.00  0.00    -0.248 NA
ATOM     50  C   UNL A   1      43.772  25.323  29.343  1.00  0.00     0.031 C 
ATOM     51  C   UNL A   1      45.197  29.975  31.973  1.00  0.00     0.029 A 
ATOM     52  C   UNL A   1      45.081  28.771  31.283  1.00  0.00     0.049 A 
ATOM     53  H   UNL A   1      44.014  27.067  31.838  1.00  0.00     0.167 HD
ATOM     54  C   UNL A   1      45.169  27.151  29.427  1.00  0.00     0.074 A 
ATOM     55  C   UNL A   1      44.696  25.941  30.080  1.00  0.00     0.031 C 
ATOM     56  C   UNL A   1      45.471  28.368  29.949  1.00  0.00     0.034 A 
BRANCH  43  57
ATOM     57  C   UNL A   1      42.637  26.795  34.385  1.00  0.00     0.023 A 
ATOM     58  C   UNL A   1      41.486  26.347  35.057  1.00  0.00     0.012 A 
ATOM     59  C   UNL A   1      43.824  26.059  34.589  1.00  0.00     0.148 A 
ATOM     60  C   UNL A   1      41.505  25.185  35.836  1.00  0.00     0.002 A 
ATOM     61  C   UNL A   1      43.810  24.837  35.245  1.00  0.00     0.091 A 
ATOM     62  F   UNL A   1      45.008  26.600  34.279  1.00  0.00    -0.205 F 
ATOM     63  C   UNL A   1      42.656  24.403  35.894  1.00  0.00     0.022 A 
BRANCH  61  64
ATOM     64  S   UNL A   1      45.239  23.750  35.211  1.00  0.00     0.127 S 
ATOM     65  O   UNL A   1      44.694  22.521  35.778  1.00  0.00    -0.237 OA
ATOM     66  O   UNL A   1      45.539  23.695  33.780  1.00  0.00    -0.237 OA
ATOM     67  O   UNL A   1      46.256  24.432  36.002  1.00  0.00    -0.744 OA
ENDBRANCH  61  64
ENDBRANCH  43  57
BRANCH  44  68
ATOM     68  C   UNL A   1      42.562  25.009  26.294  1.00  0.00     0.023 A 
ATOM     69  C   UNL A   1      43.581  24.832  25.319  1.00  0.00     0.012 A 
ATOM     70  C   UNL A   1      41.740  23.904  26.578  1.00  0.00     0.148 A 
ATOM     71  C   UNL A   1      43.844  23.584  24.742  1.00  0.00     0.002 A 
ATOM     72  C   UNL A   1      42.010  22.658  26.004  1.00  0.00     0.091 A 
ATOM     73  F   UNL A   1      40.759  24.049  27.478  1.00  0.00    -0.205 F 
ATOM     74  C   UNL A   1      43.074  22.489  25.105  1.00  0.00     0.022 A 
BRANCH  72  75
ATOM     75  S   UNL A   1      41.101  21.176  26.464  1.00  0.00     0.127 S 
ATOM     76  O   UNL A   1      39.746  21.491  26.013  1.00  0.00    -0.237 OA
ATOM     77  O   UNL A   1      41.784  20.151  25.680  1.00  0.00    -0.237 OA
ATOM     78  O   UNL A   1      41.239  21.065  27.911  1.00  0.00    -0.744 OA
ENDBRANCH  72  75
ENDBRANCH  44  68
BRANCH  56  79
ATOM     79  C   UNL A   1      46.049  29.404  29.035  1.00  0.00     0.023 A 
ATOM     80  C   UNL A   1      47.411  29.471  28.690  1.00  0.00     0.012 A 
ATOM     81  C   UNL A   1      45.140  30.276  28.413  1.00  0.00     0.148 A 
ATOM     82  C   UNL A   1      47.856  30.393  27.738  1.00  0.00     0.002 A 
ATOM     83  C   UNL A   1      45.572  31.141  27.421  1.00  0.00     0.091 A 
ATOM     84  F   UNL A   1      43.854  30.227  28.793  1.00  0.00    -0.205 F 
ATOM     85  C   UNL A   1      46.933  31.211  27.086  1.00  0.00     0.022 A 
BRANCH  83  86
ATOM     86  S   UNL A   1      44.406  32.094  26.449  1.00  0.00     0.127 S 
ATOM     87  O   UNL A   1      45.235  32.549  25.335  1.00  0.00    -0.237 OA
ATOM     88  O   UNL A   1      43.401  31.091  26.096  1.00  0.00    -0.237 OA
ATOM     89  O   UNL A   1      43.912  33.144  27.332  1.00  0.00    -0.744 OA
ENDBRANCH  83  86
ENDBRANCH  56  79
ENDBRANCH  30  31
ENDBRANCH  23  25
ENDBRANCH  22  23
ENDBRANCH   1  22
TORSDOF 16
ENDMDL
MODEL 2
REMARK VINA RESULT:     -12.4      1.853      3.227
REMARK SMILES Cc1ccc(C)c(Oc2cccc(F)c2C(=O)OCCOC(=O)c2ccc(-c3c4nc(c(-c5cccc(S(=O)(=O)[O-])c5F)c5ccc([nH]5)c(-c5cccc(S(=O)(=O)[O-])c5F)c5nc(c(-c6cccc(S(=O)(=O)[O-])c6F)c6ccc3[nH]6)C=C5)C=C4)cc2)c1
REMARK SMILES IDX 20 1 19 2 18 3 16 4 17 5 15 6 9 7 10 8 11 9 13 10 12 11
REMARK SMILES IDX 14 12 8 13 7 14 1 15 2 16 3 17 87 18 4 19 5 20 6 21 21 22
REMARK SMILES IDX 22 23 23 24 24 25 25 26 86 27 26 28 85 29 27 30 28 31 29 32
REMARK SMILES IDX 79 33 30 34 84 35 78 36 80 37 31 38 83 39 77 40 76 41 32 43
REMARK SMILES IDX 64 44 44 45 63 46 45 47 48 48 62 49 81 50 46 51 47 52 61 54
REMARK SMILES IDX 82 55 49 56 33 57 34 58 42 59 35 60 37 61 43 62 36 63 38 64
REMARK SMILES IDX 39 65 40 66 41 67 65 68 66 69 74 70 67 71 69 72 75 73 68 74
REMARK SMILES IDX 70 75 71 76 72 77 73 78 50 79 51 80 59 81 52 82 54 83 60 84
REMARK SMILES IDX 53 85 55 86 56 87 57 88 58 89
REMARK H PARENT 80 42 48 53
REMARK Flexibility Score: inf
ROOT
ATOM      1  C   UNL A   1      33.479  31.913  27.689  1.00  0.00     0.275 C 
ENDROOT
BRANCH   1   2
ATOM      2  C   UNL A   1      33.414  30.450  27.241  1.00  0.00     0.275 C 
BRANCH   2   3
ATOM      3  O   UNL A   1      32.090  30.213  26.730  1.00  0.00    -0.458 OA
BRANCH   3   4
ATOM      4  C   UNL A   1      31.952  29.734  25.317  1.00  0.00     0.345 C 
ATOM      5  O   UNL A   1      33.022  29.073  25.224  1.00  0.00    -0.246 OA
BRANCH   4   6
ATOM      6  C   UNL A   1      30.279  30.084  23.982  1.00  0.00     0.138 A 
ATOM      7  C   UNL A   1      29.537  29.152  22.927  1.00  0.00     0.144 A 
ATOM      8  C   UNL A   1      28.168  29.244  22.443  1.00  0.00     0.048 A 
ATOM      9  C   UNL A   1      27.358  30.312  22.695  1.00  0.00     0.007 A 
ATOM     10  C   UNL A   1      29.282  31.279  23.888  1.00  0.00     0.141 A 
ATOM     11  C   UNL A   1      27.948  31.348  23.356  1.00  0.00     0.040 A 
ATOM     12  F   UNL A   1      29.555  32.530  24.319  1.00  0.00    -0.206 F 
BRANCH   7  13
ATOM     13  O   UNL A   1      30.006  27.925  22.394  1.00  0.00    -0.456 OA
BRANCH  13  14
ATOM     14  C   UNL A   1      30.674  26.988  23.170  1.00  0.00     0.130 A 
ATOM     15  C   UNL A   1      34.080  25.448  23.961  1.00  0.00     0.044 C 
ATOM     16  C   UNL A   1      32.612  25.762  23.999  1.00  0.00    -0.047 A 
ATOM     17  C   UNL A   1      31.790  25.082  24.901  1.00  0.00     0.004 A 
ATOM     18  C   UNL A   1      32.054  26.748  23.165  1.00  0.00     0.050 A 
ATOM     19  C   UNL A   1      30.417  25.311  24.909  1.00  0.00     0.007 A 
ATOM     20  C   UNL A   1      29.842  26.221  24.013  1.00  0.00    -0.008 A 
ATOM     21  C   UNL A   1      28.346  26.382  24.029  1.00  0.00     0.048 C 
ENDBRANCH  13  14
ENDBRANCH   7  13
ENDBRANCH   4   6
ENDBRANCH   3   4
ENDBRANCH   2   3
ENDBRANCH   1   2
BRANCH   1  22
ATOM     22  O   UNL A   1      34.379  32.154  28.805  1.00  0.00    -0.458 OA
BRANCH  22  23
ATOM     23  C   UNL A   1      35.633  32.599  28.517  1.00  0.00     0.338 C 
ATOM     24  O   UNL A   1      35.961  33.229  27.530  1.00  0.00    -0.246 OA
BRANCH  23  25
ATOM     25  C   UNL A   1      36.590  32.089  29.509  1.00  0.00     0.060 A 
ATOM     26  C   UNL A   1      38.096  33.068  29.820  1.00  0.00     0.016 A 
ATOM     27  C   UNL A   1      36.635  30.294  29.648  1.00  0.00     0.016 A 
ATOM     28  C   UNL A   1      39.665  32.236  30.295  1.00  0.00     0.010 A 
ATOM     29  C   UNL A   1      38.250  29.468  29.888  1.00  0.00     0.010 A 
ATOM     30  C   UNL A   1      39.765  30.434  30.208  1.00  0.00    -0.014 A 
BRANCH  30  31
ATOM     31  C   UNL A   1      41.054  29.713  29.993  1.00  0.00     0.031 A 
ATOM     32  C   UNL A   1      41.627  29.256  31.273  1.00  0.00     0.074 A 
ATOM     33  C   UNL A   1      41.578  29.156  28.864  1.00  0.00     0.049 A 
ATOM     34  N   UNL A   1      42.467  29.891  32.027  1.00  0.00    -0.248 NA
ATOM     35  C   UNL A   1      41.036  28.059  31.892  1.00  0.00     0.031 C 
ATOM     36  C   UNL A   1      40.993  29.085  27.523  1.00  0.00     0.029 A 
ATOM     37  N   UNL A   1      42.728  28.394  28.708  1.00  0.00    -0.354 N 
ATOM     38  C   UNL A   1      42.644  29.027  33.098  1.00  0.00     0.074 A 
ATOM     39  C   UNL A   1      41.477  28.189  33.145  1.00  0.00     0.031 C 
ATOM     40  C   UNL A   1      41.647  28.161  26.775  1.00  0.00     0.029 A 
ATOM     41  C   UNL A   1      42.788  27.653  27.516  1.00  0.00     0.049 A 
ATOM     42  H   UNL A   1      43.447  28.375  29.381  1.00  0.00     0.167 HD
ATOM     43  C   UNL A   1      43.877  28.701  33.570  1.00  0.00     0.034 A 
ATOM     44  C   UNL A   1      43.682  26.681  27.173  1.00  0.00     0.034 A 
ATOM     45  C   UNL A   1      44.917  29.434  32.909  1.00  0.00     0.049 A 
ATOM     46  C   UNL A   1      44.881  26.858  28.015  1.00  0.00     0.074 A 
ATOM     47  C   UNL A   1      45.383  30.727  32.872  1.00  0.00     0.029 A 
ATOM     48  N   UNL A   1      45.417  28.784  31.814  1.00  0.00    -0.354 N 
ATOM     49  N   UNL A   1      45.731  27.833  27.869  1.00  0.00    -0.248 NA
ATOM     50  C   UNL A   1      45.078  26.016  29.190  1.00  0.00     0.031 C 
ATOM     51  C   UNL A   1      46.112  30.857  31.656  1.00  0.00     0.029 A 
ATOM     52  C   UNL A   1      46.093  29.636  30.986  1.00  0.00     0.049 A 
ATOM     53  H   UNL A   1      45.304  27.820  31.643  1.00  0.00     0.167 HD
ATOM     54  C   UNL A   1      46.231  28.007  29.140  1.00  0.00     0.074 A 
ATOM     55  C   UNL A   1      45.974  26.759  29.840  1.00  0.00     0.031 C 
ATOM     56  C   UNL A   1      46.417  29.262  29.627  1.00  0.00     0.034 A 
BRANCH  43  57
ATOM     57  C   UNL A   1      44.194  27.420  34.301  1.00  0.00     0.023 A 
ATOM     58  C   UNL A   1      44.785  27.525  35.573  1.00  0.00     0.012 A 
ATOM     59  C   UNL A   1      44.100  26.125  33.744  1.00  0.00     0.148 A 
ATOM     60  C   UNL A   1      45.195  26.389  36.279  1.00  0.00     0.002 A 
ATOM     61  C   UNL A   1      44.378  24.995  34.498  1.00  0.00     0.091 A 
ATOM     62  F   UNL A   1      43.880  25.977  32.432  1.00  0.00    -0.205 F 
ATOM     63  C   UNL A   1      44.950  25.120  35.762  1.00  0.00     0.022 A 
BRANCH  61  64
ATOM     64  S   UNL A   1      43.939  23.356  33.909  1.00  0.00     0.127 S 
ATOM     65  O   UNL A   1      42.566  23.226  34.382  1.00  0.00    -0.237 OA
ATOM     66  O   UNL A   1      44.085  23.511  32.460  1.00  0.00    -0.237 OA
ATOM     67  O   UNL A   1      44.919  22.460  34.509  1.00  0.00    -0.744 OA
ENDBRANCH  61  64
ENDBRANCH  43  57
BRANCH  44  68
ATOM     68  C   UNL A   1      43.663  25.496  26.258  1.00  0.00     0.023 A 
ATOM     69  C   UNL A   1      44.755  25.301  25.369  1.00  0.00     0.012 A 
ATOM     70  C   UNL A   1      42.820  24.397  26.500  1.00  0.00     0.148 A 
ATOM     71  C   UNL A   1      45.060  24.041  24.839  1.00  0.00     0.002 A 
ATOM     72  C   UNL A   1      43.132  23.140  25.974  1.00  0.00     0.091 A 
ATOM     73  F   UNL A   1      41.773  24.559  27.318  1.00  0.00    -0.205 F 
ATOM     74  C   UNL A   1      44.263  22.954  25.163  1.00  0.00     0.022 A 
BRANCH  72  75
ATOM     75  S   UNL A   1      42.189  21.666  26.391  1.00  0.00     0.127 S 
ATOM     76  O   UNL A   1      40.833  22.045  25.993  1.00  0.00    -0.237 OA
ATOM     77  O   UNL A   1      42.818  20.659  25.542  1.00  0.00    -0.237 OA
ATOM     78  O   UNL A   1      42.363  21.485  27.827  1.00  0.00    -0.744 OA
ENDBRANCH  72  75
ENDBRANCH  44  68
BRANCH  56  79
ATOM     79  C   UNL A   1      46.778  30.347  28.658  1.00  0.00     0.023 A 
ATOM     80  C   UNL A   1      48.083  30.568  28.182  1.00  0.00     0.012 A 
ATOM     81  C   UNL A   1      45.717  31.099  28.128  1.00  0.00     0.148 A 
ATOM     82  C   UNL A   1      48.322  31.524  27.190  1.00  0.00     0.002 A 
ATOM     83  C   UNL A   1      45.946  31.996  27.097  1.00  0.00     0.091 A 
ATOM     84  F   UNL A   1      44.489  30.905  28.632  1.00  0.00    -0.205 F 
ATOM     85  C   UNL A   1      47.250  32.220  26.630  1.00  0.00     0.022 A 
BRANCH  83  86
ATOM     86  S   UNL A   1      44.587  32.794  26.243  1.00  0.00     0.127 S 
ATOM     87  O   UNL A   1      45.275  33.500  25.165  1.00  0.00    -0.237 OA
ATOM     88  O   UNL A   1      43.778  31.653  25.811  1.00  0.00    -0.237 OA
ATOM     89  O   UNL A   1      43.935  33.643  27.233  1.00  0.00    -0.744 OA
ENDBRANCH  83  86
ENDBRANCH  56  79
ENDBRANCH  30  31
ENDBRANCH  23  25
ENDBRANCH  22  23
ENDBRANCH   1  22
TORSDOF 16
ENDMDL
MODEL 3
REMARK VINA RESULT:     -12.3      2.968      7.552
REMARK SMILES Cc1ccc(C)c(Oc2cccc(F)c2C(=O)OCCOC(=O)c2ccc(-c3c4nc(c(-c5cccc(S(=O)(=O)[O-])c5F)c5ccc([nH]5)c(-c5cccc(S(=O)(=O)[O-])c5F)c5nc(c(-c6cccc(S(=O)(=O)[O-])c6F)c6ccc3[nH]6)C=C5)C=C4)cc2)c1
REMARK SMILES IDX 20 1 19 2 18 3 16 4 17 5 15 6 9 7 10 8 11 9 13 10 12 11
REMARK SMILES IDX 14 12 8 13 7 14 1 15 2 16 3 17 87 18 4 19 5 20 6 21 21 22
REMARK SMILES IDX 22 23 23 24 24 25 25 26 86 27 26 28 85 29 27 30 28 31 29 32
REMARK SMILES IDX 79 33 30 34 84 35 78 36 80 37 31 38 83 39 77 40 76 41 32 43
REMARK SMILES IDX 64 44 44 45 63 46 45 47 48 48 62 49 81 50 46 51 47 52 61 54
REMARK SMILES IDX 82 55 49 56 33 57 34 58 42 59 35 60 37 61 43 62 36 63 38 64
REMARK SMILES IDX 39 65 40 66 41 67 65 68 66 69 74 70 67 71 69 72 75 73 68 74
REMARK SMILES IDX 70 75 71 76 72 77 73 78 50 79 51 80 59 81 52 82 54 83 60 84
REMARK SMILES IDX 53 85 55 86 56 87 57 88 58 89
REMARK H PARENT 80 42 48 53
REMARK Flexibility Score: inf
ROOT
ATOM      1  C   UNL A   1      34.454  30.353  27.237  1.00  0.00     0.275 C 
ENDROOT
BRANCH   1   2
ATOM      2  C   UNL A   1      33.003  29.867  27.195  1.00  0.00     0.275 C 
BRANCH   2   3
ATOM      3  O   UNL A   1      32.988  28.509  27.671  1.00  0.00    -0.458 OA
BRANCH   3   4
ATOM      4  C   UNL A   1      32.440  27.448  26.765  1.00  0.00     0.345 C 
ATOM      5  O   UNL A   1      31.475  27.057  27.476  1.00  0.00    -0.246 OA
BRANCH   4   6
ATOM      6  C   UNL A   1      33.158  26.927  24.786  1.00  0.00     0.138 A 
ATOM      7  C   UNL A   1      33.351  25.529  24.050  1.00  0.00     0.144 A 
ATOM      8  C   UNL A   1      33.347  25.251  22.621  1.00  0.00     0.048 A 
ATOM      9  C   UNL A   1      33.374  26.229  21.671  1.00  0.00     0.007 A 
ATOM     10  C   UNL A   1      33.468  27.820  23.547  1.00  0.00     0.141 A 
ATOM     11  C   UNL A   1      33.505  27.500  22.145  1.00  0.00     0.040 A 
ATOM     12  F   UNL A   1      33.784  29.132  23.617  1.00  0.00    -0.206 F 
BRANCH   7  13
ATOM     13  O   UNL A   1      33.370  24.245  24.648  1.00  0.00    -0.456 OA
BRANCH  13  14
ATOM     14  C   UNL A   1      34.554  23.593  24.964  1.00  0.00     0.130 A 
ATOM     15  C   UNL A   1      38.120  24.049  26.259  1.00  0.00     0.044 C 
ATOM     16  C   UNL A   1      36.853  23.418  25.759  1.00  0.00    -0.047 A 
ATOM     17  C   UNL A   1      36.800  22.032  25.591  1.00  0.00     0.004 A 
ATOM     18  C   UNL A   1      35.709  24.190  25.485  1.00  0.00     0.050 A 
ATOM     19  C   UNL A   1      35.658  21.431  25.069  1.00  0.00     0.007 A 
ATOM     20  C   UNL A   1      34.550  22.207  24.702  1.00  0.00    -0.008 A 
ATOM     21  C   UNL A   1      33.367  21.508  24.088  1.00  0.00     0.048 C 
ENDBRANCH  13  14
ENDBRANCH   7  13
ENDBRANCH   4   6
ENDBRANCH   3   4
ENDBRANCH   2   3
ENDBRANCH   1   2
BRANCH   1  22
ATOM     22  O   UNL A   1      34.820  31.029  28.472  1.00  0.00    -0.458 OA
BRANCH  22  23
ATOM     23  C   UNL A   1      36.146  31.172  28.741  1.00  0.00     0.338 C 
ATOM     24  O   UNL A   1      36.712  32.211  29.023  1.00  0.00    -0.246 OA
BRANCH  23  25
ATOM     25  C   UNL A   1      36.850  29.903  28.507  1.00  0.00     0.060 A 
ATOM     26  C   UNL A   1      37.330  28.915  29.962  1.00  0.00     0.016 A 
ATOM     27  C   UNL A   1      37.866  29.876  27.021  1.00  0.00     0.016 A 
ATOM     28  C   UNL A   1      38.844  27.873  29.920  1.00  0.00     0.010 A 
ATOM     29  C   UNL A   1      39.486  29.026  27.075  1.00  0.00     0.010 A 
ATOM     30  C   UNL A   1      39.978  28.027  28.521  1.00  0.00    -0.014 A 
BRANCH  30  31
ATOM     31  C   UNL A   1      41.434  27.720  28.634  1.00  0.00     0.031 A 
ATOM     32  C   UNL A   1      41.762  26.451  27.956  1.00  0.00     0.074 A 
ATOM     33  C   UNL A   1      42.488  28.528  28.945  1.00  0.00     0.049 A 
ATOM     34  N   UNL A   1      41.789  25.267  28.481  1.00  0.00    -0.248 NA
ATOM     35  C   UNL A   1      41.858  26.470  26.489  1.00  0.00     0.031 C 
ATOM     36  C   UNL A   1      42.484  29.963  29.236  1.00  0.00     0.029 A 
ATOM     37  N   UNL A   1      43.847  28.247  28.938  1.00  0.00    -0.354 N 
ATOM     38  C   UNL A   1      42.127  24.455  27.408  1.00  0.00     0.074 A 
ATOM     39  C   UNL A   1      41.744  25.168  26.219  1.00  0.00     0.031 C 
ATOM     40  C   UNL A   1      43.743  30.461  29.150  1.00  0.00     0.029 A 
ATOM     41  C   UNL A   1      44.683  29.376  28.929  1.00  0.00     0.049 A 
ATOM     42  H   UNL A   1      44.199  27.327  28.938  1.00  0.00     0.167 HD
ATOM     43  C   UNL A   1      43.104  23.513  27.491  1.00  0.00     0.034 A 
ATOM     44  C   UNL A   1      46.032  29.424  28.729  1.00  0.00     0.034 A 
ATOM     45  C   UNL A   1      43.634  23.403  28.818  1.00  0.00     0.049 A 
ATOM     46  C   UNL A   1      46.575  28.082  29.020  1.00  0.00     0.074 A 
ATOM     47  C   UNL A   1      43.218  22.935  30.042  1.00  0.00     0.029 A 
ATOM     48  N   UNL A   1      44.715  24.214  29.032  1.00  0.00    -0.354 N 
ATOM     49  N   UNL A   1      46.668  27.582  30.218  1.00  0.00    -0.248 NA
ATOM     50  C   UNL A   1      46.884  27.169  27.924  1.00  0.00     0.031 C 
ATOM     51  C   UNL A   1      44.039  23.572  31.016  1.00  0.00     0.029 A 
ATOM     52  C   UNL A   1      44.951  24.399  30.365  1.00  0.00     0.049 A 
ATOM     53  H   UNL A   1      45.258  24.614  28.313  1.00  0.00     0.167 HD
ATOM     54  C   UNL A   1      46.567  26.226  30.000  1.00  0.00     0.074 A 
ATOM     55  C   UNL A   1      46.918  26.022  28.604  1.00  0.00     0.031 C 
ATOM     56  C   UNL A   1      45.812  25.463  30.834  1.00  0.00     0.034 A 
BRANCH  43  57
ATOM     57  C   UNL A   1      43.895  23.006  26.310  1.00  0.00     0.023 A 
ATOM     58  C   UNL A   1      44.620  23.948  25.558  1.00  0.00     0.012 A 
ATOM     59  C   UNL A   1      43.834  21.691  25.799  1.00  0.00     0.148 A 
ATOM     60  C   UNL A   1      45.305  23.578  24.395  1.00  0.00     0.002 A 
ATOM     61  C   UNL A   1      44.622  21.296  24.728  1.00  0.00     0.091 A 
ATOM     62  F   UNL A   1      42.904  20.841  26.251  1.00  0.00    -0.205 F 
ATOM     63  C   UNL A   1      45.345  22.243  24.005  1.00  0.00     0.022 A 
BRANCH  61  64
ATOM     64  S   UNL A   1      44.799  19.562  24.296  1.00  0.00     0.127 S 
ATOM     65  O   UNL A   1      44.437  19.568  22.883  1.00  0.00    -0.237 OA
ATOM     66  O   UNL A   1      46.218  19.329  24.573  1.00  0.00    -0.237 OA
ATOM     67  O   UNL A   1      43.897  18.852  25.193  1.00  0.00    -0.744 OA
ENDBRANCH  61  64
ENDBRANCH  43  57
BRANCH  44  68
ATOM     68  C   UNL A   1      46.993  30.450  28.218  1.00  0.00     0.023 A 
ATOM     69  C   UNL A   1      46.707  31.104  26.989  1.00  0.00     0.012 A 
ATOM     70  C   UNL A   1      47.945  31.049  29.063  1.00  0.00     0.148 A 
ATOM     71  C   UNL A   1      47.254  32.353  26.670  1.00  0.00     0.002 A 
ATOM     72  C   UNL A   1      48.483  32.299  28.744  1.00  0.00     0.091 A 
ATOM     73  F   UNL A   1      48.247  30.444  30.218  1.00  0.00    -0.205 F 
ATOM     74  C   UNL A   1      48.123  32.964  27.562  1.00  0.00     0.022 A 
BRANCH  72  75
ATOM     75  S   UNL A   1      49.568  33.189  29.870  1.00  0.00     0.127 S 
ATOM     76  O   UNL A   1      49.906  34.383  29.094  1.00  0.00    -0.237 OA
ATOM     77  O   UNL A   1      48.687  33.427  31.008  1.00  0.00    -0.237 OA
ATOM     78  O   UNL A   1      50.695  32.296  30.114  1.00  0.00    -0.744 OA
ENDBRANCH  72  75
ENDBRANCH  44  68
BRANCH  56  79
ATOM     79  C   UNL A   1      45.714  25.875  32.271  1.00  0.00     0.023 A 
ATOM     80  C   UNL A   1      46.705  25.605  33.232  1.00  0.00     0.012 A 
ATOM     81  C   UNL A   1      44.613  26.671  32.626  1.00  0.00     0.148 A 
ATOM     82  C   UNL A   1      46.597  26.126  34.525  1.00  0.00     0.002 A 
ATOM     83  C   UNL A   1      44.543  27.241  33.887  1.00  0.00     0.091 A 
ATOM     84  F   UNL A   1      43.656  26.875  31.707  1.00  0.00    -0.205 F 
ATOM     85  C   UNL A   1      45.529  26.963  34.845  1.00  0.00     0.022 A 
BRANCH  83  86
ATOM     86  S   UNL A   1      43.277  28.445  34.291  1.00  0.00     0.127 S 
ATOM     87  O   UNL A   1      43.826  29.075  35.490  1.00  0.00    -0.237 OA
ATOM     88  O   UNL A   1      43.266  29.297  33.101  1.00  0.00    -0.237 OA
ATOM     89  O   UNL A   1      42.049  27.684  34.489  1.00  0.00    -0.744 OA
ENDBRANCH  83  86
ENDBRANCH  56  79
ENDBRANCH  30  31
ENDBRANCH  23  25
ENDBRANCH  22  23
ENDBRANCH   1  22
TORSDOF 16
ENDMDL
