MODEL 1
REMARK VINA RESULT:     -12.4      0.000      0.000
REMARK SMILES C[C@@H](C(=O)OCCOC(=O)c1ccc(-c2c3nc(c(-c4cccc(S(=O)(=O)[O-])c4F)c4ccc([nH]4)c(-c4cccc(S(=O)(=O)[O-])c4F)c4nc(c(-c5cccc(S(=O)(=O)[O-])c5F)c5ccc2[nH]5)C=C4)C=C3)cc1)S(=O)(=O)N[C@@]12C[C@@H]3C[C@@](C)(C[C@@](C)(C3)C1)C2
REMARK SMILES IDX 6 1 5 2 3 3 4 4 2 5 1 6 74 7 75 8 76 9 77 10 78 12 79 13
REMARK SMILES IDX 88 14 89 15 80 16 85 17 82 18 87 19 81 20 84 21 86 22 83 23
REMARK SMILES IDX 7 24 8 25 9 26 10 27 11 28 12 29 73 30 13 31 72 32 14 33
REMARK SMILES IDX 15 34 16 35 66 36 17 37 71 38 65 39 67 40 18 41 70 42 64 43
REMARK SMILES IDX 63 44 19 46 51 47 31 48 50 49 32 50 35 51 49 52 68 53 33 54
REMARK SMILES IDX 34 55 48 57 69 58 36 59 20 60 21 61 29 62 22 63 24 64 30 65
REMARK SMILES IDX 23 66 25 67 26 68 27 69 28 70 52 71 53 72 61 73 54 74 56 75
REMARK SMILES IDX 62 76 55 77 57 78 58 79 59 80 60 81 37 82 38 83 46 84 39 85
REMARK SMILES IDX 41 86 47 87 40 88 42 89 43 90 44 91 45 92
REMARK H PARENT 77 11 67 45 35 56
REMARK Flexibility Score: inf
ROOT
ATOM      1  C   UNL A   1      32.052  28.386  25.028  1.00  0.00     0.274 C 
ENDROOT
BRANCH   1   2
ATOM      2  O   UNL A   1      31.080  27.862  24.096  1.00  0.00    -0.461 OA
BRANCH   2   3
ATOM      3  C   UNL A   1      31.482  27.746  22.794  1.00  0.00     0.325 C 
ATOM      4  O   UNL A   1      30.734  27.917  21.840  1.00  0.00    -0.251 OA
BRANCH   3   5
ATOM      5  C   UNL A   1      32.875  27.204  22.670  1.00  0.00     0.230 C 
ATOM      6  C   UNL A   1      33.894  28.188  22.117  1.00  0.00     0.039 C 
BRANCH   5   7
ATOM      7  S   UNL A   1      32.932  25.564  21.965  1.00  0.00     0.225 S 
ATOM      8  O   UNL A   1      31.776  24.840  22.457  1.00  0.00    -0.212 OA
ATOM      9  O   UNL A   1      33.119  25.705  20.540  1.00  0.00    -0.212 OA
BRANCH   7  10
ATOM     10  N   UNL A   1      34.315  24.778  22.475  1.00  0.00    -0.208 NA
ATOM     11  H   UNL A   1      34.985  25.520  22.681  1.00  0.00     0.141 HD
BRANCH  10  12
ATOM     12  C   UNL A   1      34.407  23.838  23.626  1.00  0.00     0.034 C 
ATOM     13  C   UNL A   1      34.138  24.577  24.937  1.00  0.00     0.027 C 
ATOM     14  C   UNL A   1      33.479  22.613  23.479  1.00  0.00     0.030 C 
ATOM     15  C   UNL A   1      35.860  23.281  23.667  1.00  0.00     0.030 C 
ATOM     16  C   UNL A   1      34.312  23.647  26.137  1.00  0.00    -0.008 C 
ATOM     17  C   UNL A   1      33.624  21.673  24.704  1.00  0.00    -0.030 C 
ATOM     18  C   UNL A   1      36.067  22.340  24.879  1.00  0.00    -0.030 C 
ATOM     19  C   UNL A   1      33.328  22.476  25.992  1.00  0.00     0.010 C 
ATOM     20  C   UNL A   1      35.755  23.129  26.169  1.00  0.00     0.010 C 
ATOM     21  C   UNL A   1      35.079  21.159  24.772  1.00  0.00     0.013 C 
ATOM     22  C   UNL A   1      32.651  20.494  24.587  1.00  0.00     0.011 C 
ATOM     23  C   UNL A   1      37.508  21.819  24.920  1.00  0.00     0.011 C 
ENDBRANCH  10  12
ENDBRANCH   7  10
ENDBRANCH   5   7
ENDBRANCH   3   5
ENDBRANCH   2   3
ENDBRANCH   1   2
BRANCH   1  24
ATOM     24  C   UNL A   1      31.686  29.791  25.487  1.00  0.00     0.275 C 
BRANCH  24  25
ATOM     25  O   UNL A   1      32.166  29.984  26.824  1.00  0.00    -0.458 OA
BRANCH  25  26
ATOM     26  C   UNL A   1      32.776  31.166  27.059  1.00  0.00     0.338 C 
ATOM     27  O   UNL A   1      32.289  32.280  26.941  1.00  0.00    -0.246 OA
BRANCH  26  28
ATOM     28  C   UNL A   1      34.154  30.937  27.530  1.00  0.00     0.060 A 
ATOM     29  C   UNL A   1      34.620  29.642  27.738  1.00  0.00     0.016 A 
ATOM     30  C   UNL A   1      34.936  32.025  27.915  1.00  0.00     0.016 A 
ATOM     31  C   UNL A   1      35.802  29.431  28.446  1.00  0.00     0.010 A 
ATOM     32  C   UNL A   1      36.185  31.807  28.507  1.00  0.00     0.010 A 
ATOM     33  C   UNL A   1      36.618  30.507  28.826  1.00  0.00    -0.014 A 
BRANCH  33  34
ATOM     34  C   UNL A   1      37.905  30.279  29.553  1.00  0.00     0.031 A 
ATOM     35  C   UNL A   1      38.990  29.416  28.952  1.00  0.00     0.074 A 
ATOM     36  C   UNL A   1      38.108  30.828  30.769  1.00  0.00     0.049 A 
ATOM     37  N   UNL A   1      40.072  28.939  29.514  1.00  0.00    -0.248 NA
ATOM     38  C   UNL A   1      38.833  29.022  27.541  1.00  0.00     0.031 C 
ATOM     39  C   UNL A   1      37.164  31.695  31.477  1.00  0.00     0.029 A 
ATOM     40  N   UNL A   1      39.172  30.729  31.635  1.00  0.00    -0.354 N 
ATOM     41  C   UNL A   1      40.678  28.130  28.558  1.00  0.00     0.074 A 
ATOM     42  C   UNL A   1      39.852  28.191  27.372  1.00  0.00     0.031 C 
ATOM     43  C   UNL A   1      37.700  32.077  32.644  1.00  0.00     0.029 A 
ATOM     44  C   UNL A   1      38.976  31.398  32.822  1.00  0.00     0.049 A 
ATOM     45  H   UNL A   1      39.995  30.230  31.425  1.00  0.00     0.167 HD
ATOM     46  C   UNL A   1      41.818  27.404  28.657  1.00  0.00     0.034 A 
ATOM     47  C   UNL A   1      39.700  31.422  33.958  1.00  0.00     0.034 A 
ATOM     48  C   UNL A   1      42.683  27.401  29.809  1.00  0.00     0.049 A 
ATOM     49  C   UNL A   1      40.964  30.618  34.040  1.00  0.00     0.074 A 
ATOM     50  C   UNL A   1      43.876  26.722  29.986  1.00  0.00     0.029 A 
ATOM     51  N   UNL A   1      42.461  28.124  30.970  1.00  0.00    -0.354 N 
ATOM     52  N   UNL A   1      41.526  29.872  33.121  1.00  0.00    -0.248 NA
ATOM     53  C   UNL A   1      41.697  30.662  35.313  1.00  0.00     0.031 C 
ATOM     54  C   UNL A   1      44.371  27.026  31.259  1.00  0.00     0.029 A 
ATOM     55  C   UNL A   1      43.493  27.907  31.869  1.00  0.00     0.049 A 
ATOM     56  H   UNL A   1      41.683  28.706  31.134  1.00  0.00     0.167 HD
ATOM     57  C   UNL A   1      42.682  29.363  33.700  1.00  0.00     0.074 A 
ATOM     58  C   UNL A   1      42.757  29.915  35.038  1.00  0.00     0.031 C 
ATOM     59  C   UNL A   1      43.582  28.494  33.180  1.00  0.00     0.034 A 
BRANCH  46  60
ATOM     60  C   UNL A   1      42.223  26.560  27.476  1.00  0.00     0.023 A 
ATOM     61  C   UNL A   1      42.977  27.130  26.433  1.00  0.00     0.012 A 
ATOM     62  C   UNL A   1      41.922  25.183  27.438  1.00  0.00     0.148 A 
ATOM     63  C   UNL A   1      43.407  26.349  25.359  1.00  0.00     0.002 A 
ATOM     64  C   UNL A   1      42.386  24.403  26.385  1.00  0.00     0.091 A 
ATOM     65  F   UNL A   1      41.182  24.662  28.429  1.00  0.00    -0.205 F 
ATOM     66  C   UNL A   1      43.122  24.986  25.341  1.00  0.00     0.022 A 
BRANCH  64  67
ATOM     67  S   UNL A   1      42.132  22.625  26.316  1.00  0.00     0.127 S 
ATOM     68  O   UNL A   1      42.801  22.184  27.539  1.00  0.00    -0.237 OA
ATOM     69  O   UNL A   1      40.673  22.518  26.348  1.00  0.00    -0.237 OA
ATOM     70  O   UNL A   1      42.743  22.184  25.070  1.00  0.00    -0.744 OA
ENDBRANCH  64  67
ENDBRANCH  46  60
BRANCH  47  71
ATOM     71  C   UNL A   1      39.221  32.237  35.111  1.00  0.00     0.023 A 
ATOM     72  C   UNL A   1      38.364  31.657  36.065  1.00  0.00     0.012 A 
ATOM     73  C   UNL A   1      39.678  33.555  35.311  1.00  0.00     0.148 A 
ATOM     74  C   UNL A   1      37.966  32.377  37.192  1.00  0.00     0.002 A 
ATOM     75  C   UNL A   1      39.337  34.239  36.470  1.00  0.00     0.091 A 
ATOM     76  F   UNL A   1      40.467  34.104  34.376  1.00  0.00    -0.205 F 
ATOM     77  C   UNL A   1      38.468  33.659  37.406  1.00  0.00     0.022 A 
BRANCH  75  78
ATOM     78  S   UNL A   1      40.089  35.816  36.891  1.00  0.00     0.127 S 
ATOM     79  O   UNL A   1      39.459  36.117  38.173  1.00  0.00    -0.237 OA
ATOM     80  O   UNL A   1      41.509  35.471  36.969  1.00  0.00    -0.237 OA
ATOM     81  O   UNL A   1      39.756  36.708  35.788  1.00  0.00    -0.744 OA
ENDBRANCH  75  78
ENDBRANCH  47  71
BRANCH  59  82
ATOM     82  C   UNL A   1      44.739  28.093  34.055  1.00  0.00     0.023 A 
ATOM     83  C   UNL A   1      45.919  28.863  34.040  1.00  0.00     0.012 A 
ATOM     84  C   UNL A   1      44.640  26.994  34.929  1.00  0.00     0.148 A 
ATOM     85  C   UNL A   1      46.995  28.526  34.858  1.00  0.00     0.002 A 
ATOM     86  C   UNL A   1      45.702  26.687  35.771  1.00  0.00     0.091 A 
ATOM     87  F   UNL A   1      43.517  26.262  34.913  1.00  0.00    -0.205 F 
ATOM     88  C   UNL A   1      46.883  27.445  35.731  1.00  0.00     0.022 A 
BRANCH  86  89
ATOM     89  S   UNL A   1      45.613  25.363  36.982  1.00  0.00     0.127 S 
ATOM     90  O   UNL A   1      46.831  25.585  37.757  1.00  0.00    -0.237 OA
ATOM     91  O   UNL A   1      44.372  25.672  37.694  1.00  0.00    -0.237 OA
ATOM     92  O   UNL A   1      45.571  24.126  36.215  1.00  0.00    -0.744 OA
ENDBRANCH  86  89
ENDBRANCH  59  82
ENDBRANCH  33  34
ENDBRANCH  26  28
ENDBRANCH  25  26
ENDBRANCH  24  25
ENDBRANCH   1  24
TORSDOF 17
ENDMDL
MODEL 2
REMARK VINA RESULT:     -12.3      4.721      9.900
REMARK SMILES C[C@@H](C(=O)OCCOC(=O)c1ccc(-c2c3nc(c(-c4cccc(S(=O)(=O)[O-])c4F)c4ccc([nH]4)c(-c4cccc(S(=O)(=O)[O-])c4F)c4nc(c(-c5cccc(S(=O)(=O)[O-])c5F)c5ccc2[nH]5)C=C4)C=C3)cc1)S(=O)(=O)N[C@@]12C[C@@H]3C[C@@](C)(C[C@@](C)(C3)C1)C2
REMARK SMILES IDX 6 1 5 2 3 3 4 4 2 5 1 6 74 7 75 8 76 9 77 10 78 12 79 13
REMARK SMILES IDX 88 14 89 15 80 16 85 17 82 18 87 19 81 20 84 21 86 22 83 23
REMARK SMILES IDX 7 24 8 25 9 26 10 27 11 28 12 29 73 30 13 31 72 32 14 33
REMARK SMILES IDX 15 34 16 35 66 36 17 37 71 38 65 39 67 40 18 41 70 42 64 43
REMARK SMILES IDX 63 44 19 46 51 47 31 48 50 49 32 50 35 51 49 52 68 53 33 54
REMARK SMILES IDX 34 55 48 57 69 58 36 59 20 60 21 61 29 62 22 63 24 64 30 65
REMARK SMILES IDX 23 66 25 67 26 68 27 69 28 70 52 71 53 72 61 73 54 74 56 75
REMARK SMILES IDX 62 76 55 77 57 78 58 79 59 80 60 81 37 82 38 83 46 84 39 85
REMARK SMILES IDX 41 86 47 87 40 88 42 89 43 90 44 91 45 92
REMARK H PARENT 77 11 67 45 35 56
REMARK Flexibility Score: inf
ROOT
ATOM      1  C   UNL A   1      34.909  21.022  24.397  1.00  0.00     0.274 C 
ENDROOT
BRANCH   1   2
ATOM      2  O   UNL A   1      34.362  22.100  25.189  1.00  0.00    -0.461 OA
BRANCH   2   3
ATOM      3  C   UNL A   1      33.142  21.877  25.765  1.00  0.00     0.325 C 
ATOM      4  O   UNL A   1      32.362  21.016  25.379  1.00  0.00    -0.251 OA
BRANCH   3   5
ATOM      5  C   UNL A   1      32.791  22.918  26.786  1.00  0.00     0.230 C 
ATOM      6  C   UNL A   1      33.031  22.502  28.229  1.00  0.00     0.039 C 
BRANCH   5   7
ATOM      7  S   UNL A   1      31.224  23.714  26.469  1.00  0.00     0.225 S 
ATOM      8  O   UNL A   1      30.983  23.645  25.040  1.00  0.00    -0.212 OA
ATOM      9  O   UNL A   1      30.252  23.145  27.373  1.00  0.00    -0.212 OA
BRANCH   7  10
ATOM     10  N   UNL A   1      31.304  25.319  26.924  1.00  0.00    -0.208 NA
ATOM     11  H   UNL A   1      31.943  25.341  27.718  1.00  0.00     0.141 HD
BRANCH  10  12
ATOM     12  C   UNL A   1      31.723  26.450  26.051  1.00  0.00     0.034 C 
ATOM     13  C   UNL A   1      33.155  26.235  25.556  1.00  0.00     0.027 C 
ATOM     14  C   UNL A   1      30.759  26.692  24.870  1.00  0.00     0.030 C 
ATOM     15  C   UNL A   1      31.692  27.748  26.911  1.00  0.00     0.030 C 
ATOM     16  C   UNL A   1      33.634  27.427  24.728  1.00  0.00    -0.008 C 
ATOM     17  C   UNL A   1      31.247  27.882  24.004  1.00  0.00    -0.030 C 
ATOM     18  C   UNL A   1      32.182  28.972  26.098  1.00  0.00    -0.030 C 
ATOM     19  C   UNL A   1      32.691  27.597  23.527  1.00  0.00     0.010 C 
ATOM     20  C   UNL A   1      33.615  28.687  25.601  1.00  0.00     0.010 C 
ATOM     21  C   UNL A   1      31.263  29.160  24.871  1.00  0.00     0.013 C 
ATOM     22  C   UNL A   1      30.325  28.074  22.796  1.00  0.00     0.011 C 
ATOM     23  C   UNL A   1      32.168  30.236  26.964  1.00  0.00     0.011 C 
ENDBRANCH  10  12
ENDBRANCH   7  10
ENDBRANCH   5   7
ENDBRANCH   3   5
ENDBRANCH   2   3
ENDBRANCH   1   2
BRANCH   1  24
ATOM     24  C   UNL A   1      36.162  20.439  25.037  1.00  0.00     0.275 C 
BRANCH  24  25
ATOM     25  O   UNL A   1      36.886  21.490  25.690  1.00  0.00    -0.458 OA
BRANCH  25  26
ATOM     26  C   UNL A   1      38.224  21.322  25.758  1.00  0.00     0.338 C 
ATOM     27  O   UNL A   1      38.867  20.373  25.338  1.00  0.00    -0.246 OA
BRANCH  26  28
ATOM     28  C   UNL A   1      38.847  22.492  26.403  1.00  0.00     0.060 A 
ATOM     29  C   UNL A   1      38.364  23.774  26.152  1.00  0.00     0.016 A 
ATOM     30  C   UNL A   1      40.019  22.325  27.140  1.00  0.00     0.016 A 
ATOM     31  C   UNL A   1      39.116  24.887  26.523  1.00  0.00     0.010 A 
ATOM     32  C   UNL A   1      40.700  23.448  27.623  1.00  0.00     0.010 A 
ATOM     33  C   UNL A   1      40.286  24.748  27.283  1.00  0.00    -0.014 A 
BRANCH  33  34
ATOM     34  C   UNL A   1      41.073  25.945  27.712  1.00  0.00     0.031 A 
ATOM     35  C   UNL A   1      40.446  27.013  28.578  1.00  0.00     0.074 A 
ATOM     36  C   UNL A   1      42.354  26.098  27.313  1.00  0.00     0.049 A 
ATOM     37  N   UNL A   1      40.896  28.206  28.875  1.00  0.00    -0.248 NA
ATOM     38  C   UNL A   1      39.135  26.709  29.178  1.00  0.00     0.031 C 
ATOM     39  C   UNL A   1      43.104  25.152  26.487  1.00  0.00     0.029 A 
ATOM     40  N   UNL A   1      43.250  27.116  27.540  1.00  0.00    -0.354 N 
ATOM     41  C   UNL A   1      39.896  28.821  29.622  1.00  0.00     0.074 A 
ATOM     42  C   UNL A   1      38.818  27.863  29.749  1.00  0.00     0.031 C 
ATOM     43  C   UNL A   1      44.350  25.610  26.307  1.00  0.00     0.029 A 
ATOM     44  C   UNL A   1      44.458  26.932  26.907  1.00  0.00     0.049 A 
ATOM     45  H   UNL A   1      43.048  27.900  28.101  1.00  0.00     0.167 HD
ATOM     46  C   UNL A   1      39.876  30.066  30.155  1.00  0.00     0.034 A 
ATOM     47  C   UNL A   1      45.520  27.750  26.763  1.00  0.00     0.034 A 
ATOM     48  C   UNL A   1      40.977  30.994  30.096  1.00  0.00     0.049 A 
ATOM     49  C   UNL A   1      45.479  29.120  27.372  1.00  0.00     0.074 A 
ATOM     50  C   UNL A   1      41.058  32.265  30.637  1.00  0.00     0.029 A 
ATOM     51  N   UNL A   1      42.191  30.746  29.477  1.00  0.00    -0.354 N 
ATOM     52  N   UNL A   1      44.531  29.675  28.085  1.00  0.00    -0.248 NA
ATOM     53  C   UNL A   1      46.655  29.976  27.159  1.00  0.00     0.031 C 
ATOM     54  C   UNL A   1      42.320  32.791  30.336  1.00  0.00     0.029 A 
ATOM     55  C   UNL A   1      43.029  31.840  29.622  1.00  0.00     0.049 A 
ATOM     56  H   UNL A   1      42.425  29.914  29.005  1.00  0.00     0.167 HD
ATOM     57  C   UNL A   1      44.996  30.942  28.414  1.00  0.00     0.074 A 
ATOM     58  C   UNL A   1      46.327  31.059  27.851  1.00  0.00     0.031 C 
ATOM     59  C   UNL A   1      44.366  31.930  29.096  1.00  0.00     0.034 A 
BRANCH  46  60
ATOM     60  C   UNL A   1      38.629  30.505  30.879  1.00  0.00     0.023 A 
ATOM     61  C   UNL A   1      38.519  30.308  32.269  1.00  0.00     0.012 A 
ATOM     62  C   UNL A   1      37.600  31.182  30.193  1.00  0.00     0.148 A 
ATOM     63  C   UNL A   1      37.395  30.758  32.962  1.00  0.00     0.002 A 
ATOM     64  C   UNL A   1      36.501  31.662  30.897  1.00  0.00     0.091 A 
ATOM     65  F   UNL A   1      37.710  31.340  28.866  1.00  0.00    -0.205 F 
ATOM     66  C   UNL A   1      36.393  31.444  32.280  1.00  0.00     0.022 A 
BRANCH  64  67
ATOM     67  S   UNL A   1      35.198  32.622  30.115  1.00  0.00     0.127 S 
ATOM     68  O   UNL A   1      34.284  32.846  31.233  1.00  0.00    -0.237 OA
ATOM     69  O   UNL A   1      35.918  33.817  29.668  1.00  0.00    -0.237 OA
ATOM     70  O   UNL A   1      34.683  31.790  29.037  1.00  0.00    -0.744 OA
ENDBRANCH  64  67
ENDBRANCH  46  60
BRANCH  47  71
ATOM     71  C   UNL A   1      46.706  27.277  25.993  1.00  0.00     0.023 A 
ATOM     72  C   UNL A   1      46.812  27.582  24.623  1.00  0.00     0.012 A 
ATOM     73  C   UNL A   1      47.765  26.600  26.630  1.00  0.00     0.148 A 
ATOM     74  C   UNL A   1      47.950  27.216  23.902  1.00  0.00     0.002 A 
ATOM     75  C   UNL A   1      48.924  26.304  25.923  1.00  0.00     0.091 A 
ATOM     76  F   UNL A   1      47.633  26.288  27.927  1.00  0.00    -0.205 F 
ATOM     77  C   UNL A   1      49.013  26.597  24.554  1.00  0.00     0.022 A 
BRANCH  75  78
ATOM     78  S   UNL A   1      50.394  25.672  26.742  1.00  0.00     0.127 S 
ATOM     79  O   UNL A   1      51.319  25.519  25.623  1.00  0.00    -0.237 OA
ATOM     80  O   UNL A   1      50.722  26.756  27.669  1.00  0.00    -0.237 OA
ATOM     81  O   UNL A   1      49.970  24.441  27.396  1.00  0.00    -0.744 OA
ENDBRANCH  75  78
ENDBRANCH  47  71
BRANCH  59  82
ATOM     82  C   UNL A   1      45.113  33.223  29.284  1.00  0.00     0.023 A 
ATOM     83  C   UNL A   1      45.991  33.363  30.377  1.00  0.00     0.012 A 
ATOM     84  C   UNL A   1      44.988  34.273  28.356  1.00  0.00     0.148 A 
ATOM     85  C   UNL A   1      46.712  34.542  30.560  1.00  0.00     0.002 A 
ATOM     86  C   UNL A   1      45.739  35.431  28.522  1.00  0.00     0.091 A 
ATOM     87  F   UNL A   1      44.130  34.128  27.335  1.00  0.00    -0.205 F 
ATOM     88  C   UNL A   1      46.593  35.571  29.628  1.00  0.00     0.022 A 
BRANCH  86  89
ATOM     89  S   UNL A   1      45.709  36.772  27.328  1.00  0.00     0.127 S 
ATOM     90  O   UNL A   1      46.152  36.097  26.110  1.00  0.00    -0.237 OA
ATOM     91  O   UNL A   1      44.299  37.163  27.330  1.00  0.00    -0.237 OA
ATOM     92  O   UNL A   1      46.614  37.788  27.848  1.00  0.00    -0.744 OA
ENDBRANCH  86  89
ENDBRANCH  59  82
ENDBRANCH  33  34
ENDBRANCH  26  28
ENDBRANCH  25  26
ENDBRANCH  24  25
ENDBRANCH   1  24
TORSDOF 17
ENDMDL
MODEL 3
REMARK VINA RESULT:     -12.0      5.112      9.917
REMARK SMILES C[C@@H](C(=O)OCCOC(=O)c1ccc(-c2c3nc(c(-c4cccc(S(=O)(=O)[O-])c4F)c4ccc([nH]4)c(-c4cccc(S(=O)(=O)[O-])c4F)c4nc(c(-c5cccc(S(=O)(=O)[O-])c5F)c5ccc2[nH]5)C=C4)C=C3)cc1)S(=O)(=O)N[C@@]12C[C@@H]3C[C@@](C)(C[C@@](C)(C3)C1)C2
REMARK SMILES IDX 6 1 5 2 3 3 4 4 2 5 1 6 74 7 75 8 76 9 77 10 78 12 79 13
REMARK SMILES IDX 88 14 89 15 80 16 85 17 82 18 87 19 81 20 84 21 86 22 83 23
REMARK SMILES IDX 7 24 8 25 9 26 10 27 11 28 12 29 73 30 13 31 72 32 14 33
REMARK SMILES IDX 15 34 16 35 66 36 17 37 71 38 65 39 67 40 18 41 70 42 64 43
REMARK SMILES IDX 63 44 19 46 51 47 31 48 50 49 32 50 35 51 49 52 68 53 33 54
REMARK SMILES IDX 34 55 48 57 69 58 36 59 20 60 21 61 29 62 22 63 24 64 30 65
REMARK SMILES IDX 23 66 25 67 26 68 27 69 28 70 52 71 53 72 61 73 54 74 56 75
REMARK SMILES IDX 62 76 55 77 57 78 58 79 59 80 60 81 37 82 38 83 46 84 39 85
REMARK SMILES IDX 41 86 47 87 40 88 42 89 43 90 44 91 45 92
REMARK H PARENT 77 11 67 45 35 56
REMARK Flexibility Score: inf
ROOT
ATOM      1  C   UNL A   1      35.253  20.959  24.454  1.00  0.00     0.274 C 
ENDROOT
BRANCH   1   2
ATOM      2  O   UNL A   1      34.098  21.407  25.198  1.00  0.00    -0.461 OA
BRANCH   2   3
ATOM      3  C   UNL A   1      33.765  22.727  25.075  1.00  0.00     0.325 C 
ATOM      4  O   UNL A   1      34.079  23.414  24.111  1.00  0.00    -0.251 OA
BRANCH   3   5
ATOM      5  C   UNL A   1      33.146  23.282  26.323  1.00  0.00     0.230 C 
ATOM      6  C   UNL A   1      33.406  22.466  27.580  1.00  0.00     0.039 C 
BRANCH   5   7
ATOM      7  S   UNL A   1      31.458  23.817  26.093  1.00  0.00     0.225 S 
ATOM      8  O   UNL A   1      30.661  22.636  25.820  1.00  0.00    -0.212 OA
ATOM      9  O   UNL A   1      31.107  24.657  27.214  1.00  0.00    -0.212 OA
BRANCH   7  10
ATOM     10  N   UNL A   1      31.365  24.844  24.778  1.00  0.00    -0.208 NA
ATOM     11  H   UNL A   1      30.382  24.842  24.506  1.00  0.00     0.141 HD
BRANCH  10  12
ATOM     12  C   UNL A   1      31.774  26.275  24.763  1.00  0.00     0.034 C 
ATOM     13  C   UNL A   1      30.547  27.175  24.612  1.00  0.00     0.027 C 
ATOM     14  C   UNL A   1      32.608  26.678  25.998  1.00  0.00     0.030 C 
ATOM     15  C   UNL A   1      32.694  26.491  23.526  1.00  0.00     0.030 C 
ATOM     16  C   UNL A   1      30.953  28.645  24.508  1.00  0.00    -0.008 C 
ATOM     17  C   UNL A   1      33.006  28.175  25.919  1.00  0.00    -0.030 C 
ATOM     18  C   UNL A   1      33.116  27.975  23.391  1.00  0.00    -0.030 C 
ATOM     19  C   UNL A   1      31.723  29.029  25.780  1.00  0.00     0.010 C 
ATOM     20  C   UNL A   1      31.840  28.836  23.271  1.00  0.00     0.010 C 
ATOM     21  C   UNL A   1      33.879  28.398  24.665  1.00  0.00     0.013 C 
ATOM     22  C   UNL A   1      33.774  28.587  27.179  1.00  0.00     0.011 C 
ATOM     23  C   UNL A   1      34.001  28.176  22.156  1.00  0.00     0.011 C 
ENDBRANCH  10  12
ENDBRANCH   7  10
ENDBRANCH   5   7
ENDBRANCH   3   5
ENDBRANCH   2   3
ENDBRANCH   1   2
BRANCH   1  24
ATOM     24  C   UNL A   1      36.409  20.603  25.378  1.00  0.00     0.275 C 
BRANCH  24  25
ATOM     25  O   UNL A   1      37.475  21.541  25.175  1.00  0.00    -0.458 OA
BRANCH  25  26
ATOM     26  C   UNL A   1      38.648  21.228  25.768  1.00  0.00     0.338 C 
ATOM     27  O   UNL A   1      39.207  20.143  25.762  1.00  0.00    -0.246 OA
BRANCH  26  28
ATOM     28  C   UNL A   1      39.213  22.421  26.426  1.00  0.00     0.060 A 
ATOM     29  C   UNL A   1      38.711  23.687  26.139  1.00  0.00     0.016 A 
ATOM     30  C   UNL A   1      40.354  22.291  27.217  1.00  0.00     0.016 A 
ATOM     31  C   UNL A   1      39.418  24.823  26.529  1.00  0.00     0.010 A 
ATOM     32  C   UNL A   1      40.985  23.434  27.717  1.00  0.00     0.010 A 
ATOM     33  C   UNL A   1      40.556  24.720  27.343  1.00  0.00    -0.014 A 
BRANCH  33  34
ATOM     34  C   UNL A   1      41.293  25.941  27.793  1.00  0.00     0.031 A 
ATOM     35  C   UNL A   1      40.607  26.995  28.631  1.00  0.00     0.074 A 
ATOM     36  C   UNL A   1      42.583  26.128  27.438  1.00  0.00     0.049 A 
ATOM     37  N   UNL A   1      41.013  28.201  28.936  1.00  0.00    -0.248 NA
ATOM     38  C   UNL A   1      39.285  26.657  29.186  1.00  0.00     0.031 C 
ATOM     39  C   UNL A   1      43.388  25.199  26.644  1.00  0.00     0.029 A 
ATOM     40  N   UNL A   1      43.442  27.172  27.690  1.00  0.00    -0.354 N 
ATOM     41  C   UNL A   1      39.971  28.791  29.644  1.00  0.00     0.074 A 
ATOM     42  C   UNL A   1      38.916  27.804  29.739  1.00  0.00     0.031 C 
ATOM     43  C   UNL A   1      44.626  25.691  26.505  1.00  0.00     0.029 A 
ATOM     44  C   UNL A   1      44.676  27.019  27.101  1.00  0.00     0.049 A 
ATOM     45  H   UNL A   1      43.198  27.952  28.240  1.00  0.00     0.167 HD
ATOM     46  C   UNL A   1      39.897  30.038  30.169  1.00  0.00     0.034 A 
ATOM     47  C   UNL A   1      45.720  27.865  26.991  1.00  0.00     0.034 A 
ATOM     48  C   UNL A   1      40.973  30.996  30.145  1.00  0.00     0.049 A 
ATOM     49  C   UNL A   1      45.619  29.237  27.590  1.00  0.00     0.074 A 
ATOM     50  C   UNL A   1      41.000  32.271  30.681  1.00  0.00     0.029 A 
ATOM     51  N   UNL A   1      42.215  30.779  29.570  1.00  0.00    -0.354 N 
ATOM     52  N   UNL A   1      44.631  29.768  28.266  1.00  0.00    -0.248 NA
ATOM     53  C   UNL A   1      46.777  30.124  27.414  1.00  0.00     0.031 C 
ATOM     54  C   UNL A   1      42.256  32.830  30.422  1.00  0.00     0.029 A 
ATOM     55  C   UNL A   1      43.017  31.896  29.738  1.00  0.00     0.049 A 
ATOM     56  H   UNL A   1      42.489  29.952  29.110  1.00  0.00     0.167 HD
ATOM     57  C   UNL A   1      45.049  31.049  28.605  1.00  0.00     0.074 A 
ATOM     58  C   UNL A   1      46.395  31.200  28.087  1.00  0.00     0.031 C 
ATOM     59  C   UNL A   1      44.368  32.021  29.258  1.00  0.00     0.034 A 
BRANCH  46  60
ATOM     60  C   UNL A   1      38.614  30.445  30.847  1.00  0.00     0.023 A 
ATOM     61  C   UNL A   1      38.454  30.235  32.230  1.00  0.00     0.012 A 
ATOM     62  C   UNL A   1      37.598  31.106  30.126  1.00  0.00     0.148 A 
ATOM     63  C   UNL A   1      37.294  30.656  32.882  1.00  0.00     0.002 A 
ATOM     64  C   UNL A   1      36.462  31.557  30.790  1.00  0.00     0.091 A 
ATOM     65  F   UNL A   1      37.757  31.276  28.805  1.00  0.00    -0.205 F 
ATOM     66  C   UNL A   1      36.305  31.326  32.166  1.00  0.00     0.022 A 
BRANCH  64  67
ATOM     67  S   UNL A   1      35.172  32.496  29.963  1.00  0.00     0.127 S 
ATOM     68  O   UNL A   1      34.226  32.722  31.055  1.00  0.00    -0.237 OA
ATOM     69  O   UNL A   1      35.891  33.693  29.523  1.00  0.00    -0.237 OA
ATOM     70  O   UNL A   1      34.693  31.647  28.881  1.00  0.00    -0.744 OA
ENDBRANCH  64  67
ENDBRANCH  46  60
BRANCH  47  71
ATOM     71  C   UNL A   1      46.945  27.422  26.265  1.00  0.00     0.023 A 
ATOM     72  C   UNL A   1      47.832  26.521  26.883  1.00  0.00     0.012 A 
ATOM     73  C   UNL A   1      47.189  27.824  24.937  1.00  0.00     0.148 A 
ATOM     74  C   UNL A   1      48.942  26.034  26.193  1.00  0.00     0.002 A 
ATOM     75  C   UNL A   1      48.256  27.279  24.233  1.00  0.00     0.091 A 
ATOM     76  F   UNL A   1      46.353  28.709  24.375  1.00  0.00    -0.205 F 
ATOM     77  C   UNL A   1      49.143  26.395  24.863  1.00  0.00     0.022 A 
BRANCH  75  78
ATOM     78  S   UNL A   1      48.466  27.563  22.470  1.00  0.00     0.127 S 
ATOM     79  O   UNL A   1      48.617  26.203  21.963  1.00  0.00    -0.237 OA
ATOM     80  O   UNL A   1      47.208  28.219  22.110  1.00  0.00    -0.237 OA
ATOM     81  O   UNL A   1      49.636  28.424  22.356  1.00  0.00    -0.744 OA
ENDBRANCH  75  78
ENDBRANCH  47  71
BRANCH  59  82
ATOM     82  C   UNL A   1      45.071  33.336  29.466  1.00  0.00     0.023 A 
ATOM     83  C   UNL A   1      45.816  33.546  30.643  1.00  0.00     0.012 A 
ATOM     84  C   UNL A   1      45.042  34.337  28.477  1.00  0.00     0.148 A 
ATOM     85  C   UNL A   1      46.495  34.745  30.848  1.00  0.00     0.002 A 
ATOM     86  C   UNL A   1      45.754  35.515  28.670  1.00  0.00     0.091 A 
ATOM     87  F   UNL A   1      44.309  34.127  27.373  1.00  0.00    -0.205 F 
ATOM     88  C   UNL A   1      46.473  35.725  29.858  1.00  0.00     0.022 A 
BRANCH  86  89
ATOM     89  S   UNL A   1      45.845  36.796  27.414  1.00  0.00     0.127 S 
ATOM     90  O   UNL A   1      46.942  37.624  27.910  1.00  0.00    -0.237 OA
ATOM     91  O   UNL A   1      46.157  36.030  26.206  1.00  0.00    -0.237 OA
ATOM     92  O   UNL A   1      44.534  37.432  27.398  1.00  0.00    -0.744 OA
ENDBRANCH  86  89
ENDBRANCH  59  82
ENDBRANCH  33  34
ENDBRANCH  26  28
ENDBRANCH  25  26
ENDBRANCH  24  25
ENDBRANCH   1  24
TORSDOF 17
ENDMDL
