MODEL 1
REMARK VINA RESULT:     -12.2      0.000      0.000
REMARK SMILES CC[NH+]1CC[NH+]([C@@H]2CC(=O)N(c3ccc(C(=O)OCCOC(=O)c4ccc(-c5c6nc(c(-c7cccc(S(=O)(=O)[O-])c7F)c7ccc([nH]7)c(-c7cccc(S(=O)(=O)[O-])c7F)c7nc(c(-c8cccc(S(=O)(=O)[O-])c8F)c8ccc5[nH]8)C=C7)C=C6)cc4)cc3)C2=O)CC1
REMARK SMILES IDX 19 1 18 2 16 3 17 4 15 5 12 6 13 7 88 8 14 9 87 10 11 11
REMARK SMILES IDX 7 12 8 13 89 14 9 15 90 16 10 17 6 18 3 19 4 20 92 21 5 23
REMARK SMILES IDX 91 24 2 26 1 27 20 28 21 29 22 30 23 31 24 32 25 33 86 34
REMARK SMILES IDX 26 35 85 36 27 37 28 38 29 39 79 40 30 41 84 42 78 43 80 44
REMARK SMILES IDX 31 45 83 46 77 47 76 48 32 50 64 51 44 52 63 53 45 54 48 55
REMARK SMILES IDX 62 56 81 57 46 58 47 59 61 61 82 62 49 63 33 64 34 65 42 66
REMARK SMILES IDX 35 67 37 68 43 69 36 70 38 71 39 72 40 73 41 74 65 75 66 76
REMARK SMILES IDX 74 77 67 78 69 79 75 80 68 81 70 82 71 83 72 84 73 85 50 86
REMARK SMILES IDX 51 87 59 88 52 89 54 90 60 91 53 92 55 93 56 94 57 95 58 96
REMARK H PARENT 3 22 6 25 80 49 48 60
REMARK Flexibility Score: inf
ROOT
ATOM      1  C   UNL A   1      36.571  19.613  24.948  1.00  0.00     0.275 C 
ENDROOT
BRANCH   1   2
ATOM      2  O   UNL A   1      35.437  20.336  25.472  1.00  0.00    -0.458 OA
BRANCH   2   3
ATOM      3  C   UNL A   1      34.238  20.016  24.926  1.00  0.00     0.338 C 
ATOM      4  O   UNL A   1      33.664  18.946  25.005  1.00  0.00    -0.246 OA
BRANCH   3   5
ATOM      5  C   UNL A   1      33.635  21.194  24.263  1.00  0.00     0.060 A 
ATOM      6  C   UNL A   1      32.455  23.517  23.186  1.00  0.00     0.052 A 
ATOM      7  C   UNL A   1      33.561  23.605  24.033  1.00  0.00     0.028 A 
ATOM      8  C   UNL A   1      31.950  22.243  22.879  1.00  0.00     0.028 A 
ATOM      9  C   UNL A   1      34.106  22.461  24.600  1.00  0.00     0.018 A 
ATOM     10  C   UNL A   1      32.558  21.081  23.385  1.00  0.00     0.018 A 
BRANCH   6  11
ATOM     11  N   UNL A   1      31.830  24.715  22.771  1.00  0.00    -0.245 N 
ATOM     12  C   UNL A   1      31.682  26.926  21.972  1.00  0.00     0.285 C 
ATOM     13  C   UNL A   1      30.450  26.599  22.808  1.00  0.00     0.176 C 
ATOM     14  C   UNL A   1      32.379  25.578  21.847  1.00  0.00     0.292 C 
ATOM     15  C   UNL A   1      30.667  25.202  23.307  1.00  0.00     0.240 C 
ATOM     16  O   UNL A   1      33.274  25.336  21.047  1.00  0.00    -0.267 OA
ATOM     17  O   UNL A   1      29.903  24.659  24.095  1.00  0.00    -0.274 OA
BRANCH  12  18
ATOM     18  N   UNL A   1      32.628  27.990  22.378  1.00  0.00    -0.315 N 
ATOM     19  N   UNL A   1      32.426  28.686  25.296  1.00  0.00    -0.326 N 
ATOM     20  C   UNL A   1      31.680  29.446  24.276  1.00  0.00     0.324 C 
ATOM     21  C   UNL A   1      33.138  27.504  24.782  1.00  0.00     0.324 C 
ATOM     22  H   UNL A   1      31.687  28.333  25.904  1.00  0.00     0.348 HD
ATOM     23  C   UNL A   1      32.029  29.267  22.771  1.00  0.00     0.325 C 
ATOM     24  C   UNL A   1      33.671  27.644  23.351  1.00  0.00     0.325 C 
ATOM     25  H   UNL A   1      33.091  28.103  21.476  1.00  0.00     0.349 HD
BRANCH  19  26
ATOM     26  C   UNL A   1      33.304  29.513  26.127  1.00  0.00     0.259 C 
ATOM     27  C   UNL A   1      34.165  28.625  27.030  1.00  0.00     0.071 C 
ENDBRANCH  19  26
ENDBRANCH  12  18
ENDBRANCH   6  11
ENDBRANCH   3   5
ENDBRANCH   2   3
ENDBRANCH   1   2
BRANCH   1  28
ATOM     28  C   UNL A   1      37.724  20.549  24.581  1.00  0.00     0.275 C 
BRANCH  28  29
ATOM     29  O   UNL A   1      38.049  21.431  25.671  1.00  0.00    -0.458 OA
BRANCH  29  30
ATOM     30  C   UNL A   1      39.290  21.268  26.178  1.00  0.00     0.338 C 
ATOM     31  O   UNL A   1      40.030  20.309  26.026  1.00  0.00    -0.246 OA
BRANCH  30  32
ATOM     32  C   UNL A   1      39.720  22.474  26.895  1.00  0.00     0.060 A 
ATOM     33  C   UNL A   1      39.200  23.689  26.474  1.00  0.00     0.016 A 
ATOM     34  C   UNL A   1      40.783  22.447  27.792  1.00  0.00     0.016 A 
ATOM     35  C   UNL A   1      39.859  24.874  26.776  1.00  0.00     0.010 A 
ATOM     36  C   UNL A   1      41.332  23.657  28.242  1.00  0.00     0.010 A 
ATOM     37  C   UNL A   1      40.918  24.886  27.693  1.00  0.00    -0.014 A 
BRANCH  37  38
ATOM     38  C   UNL A   1      41.568  26.177  28.072  1.00  0.00     0.031 A 
ATOM     39  C   UNL A   1      40.793  27.249  28.798  1.00  0.00     0.074 A 
ATOM     40  C   UNL A   1      42.860  26.401  27.750  1.00  0.00     0.049 A 
ATOM     41  N   UNL A   1      41.130  28.490  29.044  1.00  0.00    -0.248 NA
ATOM     42  C   UNL A   1      39.454  26.889  29.292  1.00  0.00     0.031 C 
ATOM     43  C   UNL A   1      43.737  25.456  27.053  1.00  0.00     0.029 A 
ATOM     44  N   UNL A   1      43.660  27.501  27.948  1.00  0.00    -0.354 N 
ATOM     45  C   UNL A   1      40.022  29.078  29.648  1.00  0.00     0.074 A 
ATOM     46  C   UNL A   1      39.001  28.056  29.729  1.00  0.00     0.031 C 
ATOM     47  C   UNL A   1      44.951  26.000  26.904  1.00  0.00     0.029 A 
ATOM     48  C   UNL A   1      44.912  27.372  27.389  1.00  0.00     0.049 A 
ATOM     49  H   UNL A   1      43.368  28.301  28.440  1.00  0.00     0.167 HD
ATOM     50  C   UNL A   1      39.871  30.347  30.099  1.00  0.00     0.034 A 
ATOM     51  C   UNL A   1      45.904  28.266  27.217  1.00  0.00     0.034 A 
ATOM     52  C   UNL A   1      40.911  31.344  30.064  1.00  0.00     0.049 A 
ATOM     53  C   UNL A   1      45.711  29.668  27.712  1.00  0.00     0.074 A 
ATOM     54  C   UNL A   1      40.875  32.644  30.538  1.00  0.00     0.029 A 
ATOM     55  N   UNL A   1      42.174  31.153  29.524  1.00  0.00    -0.354 N 
ATOM     56  N   UNL A   1      44.675  30.190  28.320  1.00  0.00    -0.248 NA
ATOM     57  C   UNL A   1      46.830  30.599  27.514  1.00  0.00     0.031 C 
ATOM     58  C   UNL A   1      42.103  33.250  30.252  1.00  0.00     0.029 A 
ATOM     59  C   UNL A   1      42.922  32.313  29.641  1.00  0.00     0.049 A 
ATOM     60  H   UNL A   1      42.494  30.315  29.118  1.00  0.00     0.167 HD
ATOM     61  C   UNL A   1      45.023  31.505  28.600  1.00  0.00     0.074 A 
ATOM     62  C   UNL A   1      46.378  31.689  28.118  1.00  0.00     0.031 C 
ATOM     63  C   UNL A   1      44.283  32.474  29.193  1.00  0.00     0.034 A 
BRANCH  50  64
ATOM     64  C   UNL A   1      38.528  30.734  30.676  1.00  0.00     0.023 A 
ATOM     65  C   UNL A   1      38.226  30.451  32.023  1.00  0.00     0.012 A 
ATOM     66  C   UNL A   1      37.575  31.410  29.886  1.00  0.00     0.148 A 
ATOM     67  C   UNL A   1      36.983  30.785  32.560  1.00  0.00     0.002 A 
ATOM     68  C   UNL A   1      36.357  31.786  30.442  1.00  0.00     0.091 A 
ATOM     69  F   UNL A   1      37.869  31.661  28.602  1.00  0.00    -0.205 F 
ATOM     70  C   UNL A   1      36.053  31.459  31.773  1.00  0.00     0.022 A 
BRANCH  68  71
ATOM     71  S   UNL A   1      35.127  32.733  29.536  1.00  0.00     0.127 S 
ATOM     72  O   UNL A   1      35.902  33.901  29.121  1.00  0.00    -0.237 OA
ATOM     73  O   UNL A   1      34.775  31.819  28.449  1.00  0.00    -0.237 OA
ATOM     74  O   UNL A   1      34.049  32.999  30.478  1.00  0.00    -0.744 OA
ENDBRANCH  68  71
ENDBRANCH  50  64
BRANCH  51  75
ATOM     75  C   UNL A   1      47.156  27.849  26.524  1.00  0.00     0.023 A 
ATOM     76  C   UNL A   1      48.192  27.245  27.259  1.00  0.00     0.012 A 
ATOM     77  C   UNL A   1      47.294  27.990  25.128  1.00  0.00     0.148 A 
ATOM     78  C   UNL A   1      49.351  26.804  26.619  1.00  0.00     0.002 A 
ATOM     79  C   UNL A   1      48.422  27.491  24.489  1.00  0.00     0.091 A 
ATOM     80  F   UNL A   1      46.299  28.579  24.448  1.00  0.00    -0.205 F 
ATOM     81  C   UNL A   1      49.460  26.914  25.235  1.00  0.00     0.022 A 
BRANCH  79  82
ATOM     82  S   UNL A   1      48.581  27.455  22.701  1.00  0.00     0.127 S 
ATOM     83  O   UNL A   1      47.379  28.172  22.279  1.00  0.00    -0.237 OA
ATOM     84  O   UNL A   1      49.835  28.182  22.497  1.00  0.00    -0.237 OA
ATOM     85  O   UNL A   1      48.634  26.046  22.335  1.00  0.00    -0.744 OA
ENDBRANCH  79  82
ENDBRANCH  51  75
BRANCH  63  86
ATOM     86  C   UNL A   1      44.938  33.814  29.399  1.00  0.00     0.023 A 
ATOM     87  C   UNL A   1      45.625  34.089  30.598  1.00  0.00     0.012 A 
ATOM     88  C   UNL A   1      44.918  34.782  28.376  1.00  0.00     0.148 A 
ATOM     89  C   UNL A   1      46.251  35.321  30.789  1.00  0.00     0.002 A 
ATOM     90  C   UNL A   1      45.589  35.985  28.552  1.00  0.00     0.091 A 
ATOM     91  F   UNL A   1      44.240  34.508  27.251  1.00  0.00    -0.205 F 
ATOM     92  C   UNL A   1      46.243  36.262  29.763  1.00  0.00     0.022 A 
BRANCH  90  93
ATOM     93  S   UNL A   1      45.715  37.217  27.250  1.00  0.00     0.127 S 
ATOM     94  O   UNL A   1      44.313  37.581  27.049  1.00  0.00    -0.237 OA
ATOM     95  O   UNL A   1      46.529  38.253  27.885  1.00  0.00    -0.237 OA
ATOM     96  O   UNL A   1      46.352  36.550  26.123  1.00  0.00    -0.744 OA
ENDBRANCH  90  93
ENDBRANCH  63  86
ENDBRANCH  37  38
ENDBRANCH  30  32
ENDBRANCH  29  30
ENDBRANCH  28  29
ENDBRANCH   1  28
TORSDOF 17
ENDMDL
MODEL 2
REMARK VINA RESULT:     -12.1      1.654      7.733
REMARK SMILES CC[NH+]1CC[NH+]([C@@H]2CC(=O)N(c3ccc(C(=O)OCCOC(=O)c4ccc(-c5c6nc(c(-c7cccc(S(=O)(=O)[O-])c7F)c7ccc([nH]7)c(-c7cccc(S(=O)(=O)[O-])c7F)c7nc(c(-c8cccc(S(=O)(=O)[O-])c8F)c8ccc5[nH]8)C=C7)C=C6)cc4)cc3)C2=O)CC1
REMARK SMILES IDX 19 1 18 2 16 3 17 4 15 5 12 6 13 7 88 8 14 9 87 10 11 11
REMARK SMILES IDX 7 12 8 13 89 14 9 15 90 16 10 17 6 18 3 19 4 20 92 21 5 23
REMARK SMILES IDX 91 24 2 26 1 27 20 28 21 29 22 30 23 31 24 32 25 33 86 34
REMARK SMILES IDX 26 35 85 36 27 37 28 38 29 39 79 40 30 41 84 42 78 43 80 44
REMARK SMILES IDX 31 45 83 46 77 47 76 48 32 50 64 51 44 52 63 53 45 54 48 55
REMARK SMILES IDX 62 56 81 57 46 58 47 59 61 61 82 62 49 63 33 64 34 65 42 66
REMARK SMILES IDX 35 67 37 68 43 69 36 70 38 71 39 72 40 73 41 74 65 75 66 76
REMARK SMILES IDX 74 77 67 78 69 79 75 80 68 81 70 82 71 83 72 84 73 85 50 86
REMARK SMILES IDX 51 87 59 88 52 89 54 90 60 91 53 92 55 93 56 94 57 95 58 96
REMARK H PARENT 3 22 6 25 80 49 48 60
REMARK Flexibility Score: inf
ROOT
ATOM      1  C   UNL A   1      36.552  19.387  24.645  1.00  0.00     0.275 C 
ENDROOT
BRANCH   1   2
ATOM      2  O   UNL A   1      35.592  20.173  25.383  1.00  0.00    -0.458 OA
BRANCH   2   3
ATOM      3  C   UNL A   1      34.456  20.486  24.713  1.00  0.00     0.338 C 
ATOM      4  O   UNL A   1      33.621  19.707  24.290  1.00  0.00    -0.246 OA
BRANCH   3   5
ATOM      5  C   UNL A   1      34.292  21.954  24.619  1.00  0.00     0.060 A 
ATOM      6  C   UNL A   1      33.924  24.723  24.245  1.00  0.00     0.052 A 
ATOM      7  C   UNL A   1      32.885  23.825  23.993  1.00  0.00     0.028 A 
ATOM      8  C   UNL A   1      35.152  24.213  24.697  1.00  0.00     0.028 A 
ATOM      9  C   UNL A   1      33.088  22.459  24.130  1.00  0.00     0.018 A 
ATOM     10  C   UNL A   1      35.327  22.837  24.919  1.00  0.00     0.018 A 
BRANCH   6  11
ATOM     11  N   UNL A   1      33.724  26.086  23.927  1.00  0.00    -0.245 N 
ATOM     12  C   UNL A   1      32.957  28.295  24.210  1.00  0.00     0.285 C 
ATOM     13  C   UNL A   1      33.120  27.995  22.724  1.00  0.00     0.176 C 
ATOM     14  C   UNL A   1      33.578  27.074  24.876  1.00  0.00     0.292 C 
ATOM     15  C   UNL A   1      33.556  26.562  22.653  1.00  0.00     0.240 C 
ATOM     16  O   UNL A   1      33.884  27.017  26.060  1.00  0.00    -0.267 OA
ATOM     17  O   UNL A   1      33.688  25.967  21.592  1.00  0.00    -0.274 OA
BRANCH  12  18
ATOM     18  N   UNL A   1      31.634  28.615  24.791  1.00  0.00    -0.315 N 
ATOM     19  N   UNL A   1      29.375  28.228  22.844  1.00  0.00    -0.326 N 
ATOM     20  C   UNL A   1      30.010  29.546  23.026  1.00  0.00     0.324 C 
ATOM     21  C   UNL A   1      30.028  27.127  23.574  1.00  0.00     0.324 C 
ATOM     22  H   UNL A   1      29.520  28.039  21.853  1.00  0.00     0.348 HD
ATOM     23  C   UNL A   1      30.955  29.789  24.236  1.00  0.00     0.325 C 
ATOM     24  C   UNL A   1      30.658  27.526  24.914  1.00  0.00     0.325 C 
ATOM     25  H   UNL A   1      31.955  28.832  25.734  1.00  0.00     0.349 HD
BRANCH  19  26
ATOM     26  C   UNL A   1      27.928  28.229  23.072  1.00  0.00     0.259 C 
ATOM     27  C   UNL A   1      27.397  29.665  23.079  1.00  0.00     0.071 C 
ENDBRANCH  19  26
ENDBRANCH  12  18
ENDBRANCH   6  11
ENDBRANCH   3   5
ENDBRANCH   2   3
ENDBRANCH   1   2
BRANCH   1  28
ATOM     28  C   UNL A   1      37.933  20.048  24.623  1.00  0.00     0.275 C 
BRANCH  28  29
ATOM     29  O   UNL A   1      38.139  20.868  25.788  1.00  0.00    -0.458 OA
BRANCH  29  30
ATOM     30  C   UNL A   1      39.390  20.823  26.296  1.00  0.00     0.338 C 
ATOM     31  O   UNL A   1      40.178  19.892  26.237  1.00  0.00    -0.246 OA
BRANCH  30  32
ATOM     32  C   UNL A   1      39.761  22.118  26.877  1.00  0.00     0.060 A 
ATOM     33  C   UNL A   1      39.115  23.246  26.391  1.00  0.00     0.016 A 
ATOM     34  C   UNL A   1      40.876  22.255  27.697  1.00  0.00     0.016 A 
ATOM     35  C   UNL A   1      39.689  24.501  26.546  1.00  0.00     0.010 A 
ATOM     36  C   UNL A   1      41.348  23.540  28.003  1.00  0.00     0.010 A 
ATOM     37  C   UNL A   1      40.799  24.678  27.383  1.00  0.00    -0.014 A 
BRANCH  37  38
ATOM     38  C   UNL A   1      41.360  26.045  27.605  1.00  0.00     0.031 A 
ATOM     39  C   UNL A   1      42.748  26.398  27.126  1.00  0.00     0.074 A 
ATOM     40  C   UNL A   1      40.631  26.976  28.255  1.00  0.00     0.049 A 
ATOM     41  N   UNL A   1      43.466  27.461  27.385  1.00  0.00    -0.248 NA
ATOM     42  C   UNL A   1      43.427  25.419  26.262  1.00  0.00     0.031 C 
ATOM     43  C   UNL A   1      39.273  26.782  28.771  1.00  0.00     0.029 A 
ATOM     44  N   UNL A   1      40.932  28.269  28.612  1.00  0.00    -0.354 N 
ATOM     45  C   UNL A   1      44.703  27.246  26.785  1.00  0.00     0.074 A 
ATOM     46  C   UNL A   1      44.638  25.947  26.149  1.00  0.00     0.031 C 
ATOM     47  C   UNL A   1      38.850  27.912  29.352  1.00  0.00     0.029 A 
ATOM     48  C   UNL A   1      39.942  28.874  29.354  1.00  0.00     0.049 A 
ATOM     49  H   UNL A   1      41.771  28.719  28.362  1.00  0.00     0.167 HD
ATOM     50  C   UNL A   1      45.790  28.055  26.759  1.00  0.00     0.034 A 
ATOM     51  C   UNL A   1      39.924  30.042  30.024  1.00  0.00     0.034 A 
ATOM     52  C   UNL A   1      45.830  29.370  27.348  1.00  0.00     0.049 A 
ATOM     53  C   UNL A   1      41.141  30.916  29.993  1.00  0.00     0.074 A 
ATOM     54  C   UNL A   1      46.866  30.288  27.336  1.00  0.00     0.029 A 
ATOM     55  N   UNL A   1      44.789  29.954  28.055  1.00  0.00    -0.354 N 
ATOM     56  N   UNL A   1      42.282  30.714  29.384  1.00  0.00    -0.248 NA
ATOM     57  C   UNL A   1      41.062  32.186  30.726  1.00  0.00     0.031 C 
ATOM     58  C   UNL A   1      46.465  31.412  28.067  1.00  0.00     0.029 A 
ATOM     59  C   UNL A   1      45.161  31.214  28.495  1.00  0.00     0.049 A 
ATOM     60  H   UNL A   1      43.914  29.535  28.219  1.00  0.00     0.167 HD
ATOM     61  C   UNL A   1      43.051  31.843  29.638  1.00  0.00     0.074 A 
ATOM     62  C   UNL A   1      42.233  32.734  30.436  1.00  0.00     0.031 C 
ATOM     63  C   UNL A   1      44.325  32.108  29.255  1.00  0.00     0.034 A 
BRANCH  50  64
ATOM     64  C   UNL A   1      47.033  27.543  26.067  1.00  0.00     0.023 A 
ATOM     65  C   UNL A   1      47.242  27.805  24.698  1.00  0.00     0.012 A 
ATOM     66  C   UNL A   1      48.013  26.827  26.785  1.00  0.00     0.148 A 
ATOM     67  C   UNL A   1      48.375  27.320  24.044  1.00  0.00     0.002 A 
ATOM     68  C   UNL A   1      49.164  26.391  26.139  1.00  0.00     0.091 A 
ATOM     69  F   UNL A   1      47.796  26.572  28.084  1.00  0.00    -0.205 F 
ATOM     70  C   UNL A   1      49.339  26.622  24.766  1.00  0.00     0.022 A 
BRANCH  68  71
ATOM     71  S   UNL A   1      50.504  25.557  27.000  1.00  0.00     0.127 S 
ATOM     72  O   UNL A   1      50.859  26.544  28.019  1.00  0.00    -0.237 OA
ATOM     73  O   UNL A   1      49.839  24.360  27.517  1.00  0.00    -0.237 OA
ATOM     74  O   UNL A   1      51.527  25.297  25.997  1.00  0.00    -0.744 OA
ENDBRANCH  68  71
ENDBRANCH  50  64
BRANCH  51  75
ATOM     75  C   UNL A   1      38.706  30.427  30.794  1.00  0.00     0.023 A 
ATOM     76  C   UNL A   1      38.621  30.120  32.165  1.00  0.00     0.012 A 
ATOM     77  C   UNL A   1      37.663  31.154  30.185  1.00  0.00     0.148 A 
ATOM     78  C   UNL A   1      37.511  30.515  32.912  1.00  0.00     0.002 A 
ATOM     79  C   UNL A   1      36.592  31.600  30.948  1.00  0.00     0.091 A 
ATOM     80  F   UNL A   1      37.759  31.427  28.876  1.00  0.00    -0.205 F 
ATOM     81  C   UNL A   1      36.505  31.266  32.308  1.00  0.00     0.022 A 
BRANCH  79  82
ATOM     82  S   UNL A   1      35.329  32.696  30.292  1.00  0.00     0.127 S 
ATOM     83  O   UNL A   1      36.047  33.966  30.214  1.00  0.00    -0.237 OA
ATOM     84  O   UNL A   1      35.035  32.073  29.000  1.00  0.00    -0.237 OA
ATOM     85  O   UNL A   1      34.230  32.651  31.246  1.00  0.00    -0.744 OA
ENDBRANCH  79  82
ENDBRANCH  51  75
BRANCH  63  86
ATOM     86  C   UNL A   1      44.901  33.442  29.653  1.00  0.00     0.023 A 
ATOM     87  C   UNL A   1      45.600  33.576  30.869  1.00  0.00     0.012 A 
ATOM     88  C   UNL A   1      44.796  34.550  28.789  1.00  0.00     0.148 A 
ATOM     89  C   UNL A   1      46.153  34.803  31.236  1.00  0.00     0.002 A 
ATOM     90  C   UNL A   1      45.395  35.754  29.136  1.00  0.00     0.091 A 
ATOM     91  F   UNL A   1      44.108  34.406  27.647  1.00  0.00    -0.205 F 
ATOM     92  C   UNL A   1      46.061  35.886  30.365  1.00  0.00     0.022 A 
BRANCH  90  93
ATOM     93  S   UNL A   1      45.412  37.173  28.036  1.00  0.00     0.127 S 
ATOM     94  O   UNL A   1      46.338  38.072  28.724  1.00  0.00    -0.237 OA
ATOM     95  O   UNL A   1      45.930  36.595  26.796  1.00  0.00    -0.237 OA
ATOM     96  O   UNL A   1      44.035  37.640  27.957  1.00  0.00    -0.744 OA
ENDBRANCH  90  93
ENDBRANCH  63  86
ENDBRANCH  37  38
ENDBRANCH  30  32
ENDBRANCH  29  30
ENDBRANCH  28  29
ENDBRANCH   1  28
TORSDOF 17
ENDMDL
MODEL 3
REMARK VINA RESULT:     -12.1      1.436      7.586
REMARK SMILES CC[NH+]1CC[NH+]([C@@H]2CC(=O)N(c3ccc(C(=O)OCCOC(=O)c4ccc(-c5c6nc(c(-c7cccc(S(=O)(=O)[O-])c7F)c7ccc([nH]7)c(-c7cccc(S(=O)(=O)[O-])c7F)c7nc(c(-c8cccc(S(=O)(=O)[O-])c8F)c8ccc5[nH]8)C=C7)C=C6)cc4)cc3)C2=O)CC1
REMARK SMILES IDX 19 1 18 2 16 3 17 4 15 5 12 6 13 7 88 8 14 9 87 10 11 11
REMARK SMILES IDX 7 12 8 13 89 14 9 15 90 16 10 17 6 18 3 19 4 20 92 21 5 23
REMARK SMILES IDX 91 24 2 26 1 27 20 28 21 29 22 30 23 31 24 32 25 33 86 34
REMARK SMILES IDX 26 35 85 36 27 37 28 38 29 39 79 40 30 41 84 42 78 43 80 44
REMARK SMILES IDX 31 45 83 46 77 47 76 48 32 50 64 51 44 52 63 53 45 54 48 55
REMARK SMILES IDX 62 56 81 57 46 58 47 59 61 61 82 62 49 63 33 64 34 65 42 66
REMARK SMILES IDX 35 67 37 68 43 69 36 70 38 71 39 72 40 73 41 74 65 75 66 76
REMARK SMILES IDX 74 77 67 78 69 79 75 80 68 81 70 82 71 83 72 84 73 85 50 86
REMARK SMILES IDX 51 87 59 88 52 89 54 90 60 91 53 92 55 93 56 94 57 95 58 96
REMARK H PARENT 3 22 6 25 80 49 48 60
REMARK Flexibility Score: inf
ROOT
ATOM      1  C   UNL A   1      36.982  19.115  24.998  1.00  0.00     0.275 C 
ENDROOT
BRANCH   1   2
ATOM      2  O   UNL A   1      36.056  20.223  24.998  1.00  0.00    -0.458 OA
BRANCH   2   3
ATOM      3  C   UNL A   1      34.767  19.906  24.722  1.00  0.00     0.338 C 
ATOM      4  O   UNL A   1      34.302  18.789  24.598  1.00  0.00    -0.246 OA
BRANCH   3   5
ATOM      5  C   UNL A   1      33.931  21.126  24.665  1.00  0.00     0.060 A 
ATOM      6  C   UNL A   1      32.373  23.474  24.759  1.00  0.00     0.052 A 
ATOM      7  C   UNL A   1      33.705  23.485  25.175  1.00  0.00     0.028 A 
ATOM      8  C   UNL A   1      31.831  22.267  24.287  1.00  0.00     0.028 A 
ATOM      9  C   UNL A   1      34.452  22.314  25.174  1.00  0.00     0.018 A 
ATOM     10  C   UNL A   1      32.616  21.104  24.205  1.00  0.00     0.018 A 
BRANCH   6  11
ATOM     11  N   UNL A   1      31.604  24.646  24.940  1.00  0.00    -0.245 N 
ATOM     12  C   UNL A   1      30.914  26.870  24.582  1.00  0.00     0.285 C 
ATOM     13  C   UNL A   1      30.555  26.444  26.001  1.00  0.00     0.176 C 
ATOM     14  C   UNL A   1      31.382  25.570  23.942  1.00  0.00     0.292 C 
ATOM     15  C   UNL A   1      31.080  25.046  26.141  1.00  0.00     0.240 C 
ATOM     16  O   UNL A   1      31.524  25.408  22.736  1.00  0.00    -0.267 OA
ATOM     17  O   UNL A   1      31.044  24.433  27.200  1.00  0.00    -0.274 OA
BRANCH  12  18
ATOM     18  N   UNL A   1      31.867  27.974  24.327  1.00  0.00    -0.315 N 
ATOM     19  N   UNL A   1      33.018  29.134  26.851  1.00  0.00    -0.326 N 
ATOM     20  C   UNL A   1      31.831  29.728  26.209  1.00  0.00     0.324 C 
ATOM     21  C   UNL A   1      33.481  27.875  26.241  1.00  0.00     0.324 C 
ATOM     22  H   UNL A   1      32.678  28.892  27.782  1.00  0.00     0.348 HD
ATOM     23  C   UNL A   1      31.441  29.305  24.765  1.00  0.00     0.325 C 
ATOM     24  C   UNL A   1      33.266  27.777  24.726  1.00  0.00     0.325 C 
ATOM     25  H   UNL A   1      31.842  27.934  23.308  1.00  0.00     0.349 HD
BRANCH  19  26
ATOM     26  C   UNL A   1      34.128  30.074  27.032  1.00  0.00     0.259 C 
ATOM     27  C   UNL A   1      35.367  29.332  27.541  1.00  0.00     0.071 C 
ENDBRANCH  19  26
ENDBRANCH  12  18
ENDBRANCH   6  11
ENDBRANCH   3   5
ENDBRANCH   2   3
ENDBRANCH   1   2
BRANCH   1  28
ATOM     28  C   UNL A   1      38.437  19.588  24.964  1.00  0.00     0.275 C 
BRANCH  28  29
ATOM     29  O   UNL A   1      38.628  20.750  25.792  1.00  0.00    -0.458 OA
BRANCH  29  30
ATOM     30  C   UNL A   1      39.775  20.752  26.506  1.00  0.00     0.338 C 
ATOM     31  O   UNL A   1      40.549  19.820  26.663  1.00  0.00    -0.246 OA
BRANCH  30  32
ATOM     32  C   UNL A   1      40.060  22.094  27.026  1.00  0.00     0.060 A 
ATOM     33  C   UNL A   1      39.385  23.161  26.450  1.00  0.00     0.016 A 
ATOM     34  C   UNL A   1      41.131  22.330  27.882  1.00  0.00     0.016 A 
ATOM     35  C   UNL A   1      39.894  24.448  26.555  1.00  0.00     0.010 A 
ATOM     36  C   UNL A   1      41.530  23.651  28.133  1.00  0.00     0.010 A 
ATOM     37  C   UNL A   1      40.957  24.725  27.426  1.00  0.00    -0.014 A 
BRANCH  37  38
ATOM     38  C   UNL A   1      41.445  26.127  27.591  1.00  0.00     0.031 A 
ATOM     39  C   UNL A   1      42.750  26.570  26.974  1.00  0.00     0.074 A 
ATOM     40  C   UNL A   1      40.725  27.011  28.314  1.00  0.00     0.049 A 
ATOM     41  N   UNL A   1      43.418  27.681  27.160  1.00  0.00    -0.248 NA
ATOM     42  C   UNL A   1      43.401  25.634  26.044  1.00  0.00     0.031 C 
ATOM     43  C   UNL A   1      39.443  26.730  28.966  1.00  0.00     0.029 A 
ATOM     44  N   UNL A   1      40.973  28.324  28.641  1.00  0.00    -0.354 N 
ATOM     45  C   UNL A   1      44.599  27.545  26.437  1.00  0.00     0.074 A 
ATOM     46  C   UNL A   1      44.556  26.242  25.810  1.00  0.00     0.031 C 
ATOM     47  C   UNL A   1      39.006  27.831  29.589  1.00  0.00     0.029 A 
ATOM     48  C   UNL A   1      40.025  28.865  29.481  1.00  0.00     0.049 A 
ATOM     49  H   UNL A   1      41.750  28.827  28.307  1.00  0.00     0.167 HD
ATOM     50  C   UNL A   1      45.621  28.426  26.302  1.00  0.00     0.034 A 
ATOM     51  C   UNL A   1      39.997  30.032  30.151  1.00  0.00     0.034 A 
ATOM     52  C   UNL A   1      45.632  29.743  26.886  1.00  0.00     0.049 A 
ATOM     53  C   UNL A   1      41.143  30.986  29.997  1.00  0.00     0.074 A 
ATOM     54  C   UNL A   1      46.597  30.728  26.770  1.00  0.00     0.029 A 
ATOM     55  N   UNL A   1      44.632  30.260  27.695  1.00  0.00    -0.354 N 
ATOM     56  N   UNL A   1      42.227  30.858  29.274  1.00  0.00    -0.248 NA
ATOM     57  C   UNL A   1      41.054  32.252  30.736  1.00  0.00     0.031 C 
ATOM     58  C   UNL A   1      46.198  31.827  27.539  1.00  0.00     0.029 A 
ATOM     59  C   UNL A   1      44.961  31.544  28.097  1.00  0.00     0.049 A 
ATOM     60  H   UNL A   1      43.808  29.784  27.948  1.00  0.00     0.167 HD
ATOM     61  C   UNL A   1      42.941  32.036  29.451  1.00  0.00     0.074 A 
ATOM     62  C   UNL A   1      42.150  32.875  30.329  1.00  0.00     0.031 C 
ATOM     63  C   UNL A   1      44.148  32.385  28.940  1.00  0.00     0.034 A 
BRANCH  50  64
ATOM     64  C   UNL A   1      46.818  27.994  25.486  1.00  0.00     0.023 A 
ATOM     65  C   UNL A   1      46.816  28.149  24.085  1.00  0.00     0.012 A 
ATOM     66  C   UNL A   1      47.963  27.463  26.115  1.00  0.00     0.148 A 
ATOM     67  C   UNL A   1      47.906  27.737  23.320  1.00  0.00     0.002 A 
ATOM     68  C   UNL A   1      49.067  27.100  25.351  1.00  0.00     0.091 A 
ATOM     69  F   UNL A   1      47.948  27.307  27.447  1.00  0.00    -0.205 F 
ATOM     70  C   UNL A   1      49.034  27.221  23.953  1.00  0.00     0.022 A 
BRANCH  68  71
ATOM     71  S   UNL A   1      50.599  26.506  26.080  1.00  0.00     0.127 S 
ATOM     72  O   UNL A   1      51.354  26.104  24.895  1.00  0.00    -0.237 OA
ATOM     73  O   UNL A   1      51.107  27.705  26.747  1.00  0.00    -0.237 OA
ATOM     74  O   UNL A   1      50.223  25.425  26.980  1.00  0.00    -0.744 OA
ENDBRANCH  68  71
ENDBRANCH  50  64
BRANCH  51  75
ATOM     75  C   UNL A   1      38.841  30.339  31.041  1.00  0.00     0.023 A 
ATOM     76  C   UNL A   1      38.865  29.922  32.385  1.00  0.00     0.012 A 
ATOM     77  C   UNL A   1      37.749  31.100  30.576  1.00  0.00     0.148 A 
ATOM     78  C   UNL A   1      37.814  30.242  33.245  1.00  0.00     0.002 A 
ATOM     79  C   UNL A   1      36.738  31.470  31.453  1.00  0.00     0.091 A 
ATOM     80  F   UNL A   1      37.741  31.478  29.290  1.00  0.00    -0.205 F 
ATOM     81  C   UNL A   1      36.759  31.026  32.784  1.00  0.00     0.022 A 
BRANCH  79  82
ATOM     82  S   UNL A   1      35.421  32.599  30.988  1.00  0.00     0.127 S 
ATOM     83  O   UNL A   1      36.102  33.890  31.041  1.00  0.00    -0.237 OA
ATOM     84  O   UNL A   1      35.089  32.131  29.641  1.00  0.00    -0.237 OA
ATOM     85  O   UNL A   1      34.364  32.403  31.971  1.00  0.00    -0.744 OA
ENDBRANCH  79  82
ENDBRANCH  51  75
BRANCH  63  86
ATOM     86  C   UNL A   1      44.670  33.756  29.279  1.00  0.00     0.023 A 
ATOM     87  C   UNL A   1      45.366  33.970  30.486  1.00  0.00     0.012 A 
ATOM     88  C   UNL A   1      44.519  34.821  28.370  1.00  0.00     0.148 A 
ATOM     89  C   UNL A   1      45.869  35.232  30.799  1.00  0.00     0.002 A 
ATOM     90  C   UNL A   1      45.071  36.062  28.664  1.00  0.00     0.091 A 
ATOM     91  F   UNL A   1      43.836  34.602  27.237  1.00  0.00    -0.205 F 
ATOM     92  C   UNL A   1      45.733  36.273  29.884  1.00  0.00     0.022 A 
BRANCH  90  93
ATOM     93  S   UNL A   1      45.028  37.433  27.504  1.00  0.00     0.127 S 
ATOM     94  O   UNL A   1      45.578  38.522  28.311  1.00  0.00    -0.237 OA
ATOM     95  O   UNL A   1      45.909  36.960  26.436  1.00  0.00    -0.237 OA
ATOM     96  O   UNL A   1      43.634  37.590  27.115  1.00  0.00    -0.744 OA
ENDBRANCH  90  93
ENDBRANCH  63  86
ENDBRANCH  37  38
ENDBRANCH  30  32
ENDBRANCH  29  30
ENDBRANCH  28  29
ENDBRANCH   1  28
TORSDOF 17
ENDMDL
