MODEL 1
REMARK VINA RESULT:     -11.2      0.000      0.000
REMARK SMILES CCCCCCNC(=O)Oc1cccc(-c2ccc([C@@H](C)C(=O)OCCOC(=O)c3ccc(-c4c5nc(c(-c6cccc(S(=O)(=O)[O-])c6F)c6ccc([nH]6)c(-c6cccc(S(=O)(=O)[O-])c6F)c6nc(c(-c7cccc(S(=O)(=O)[O-])c7F)c7ccc4[nH]7)C=C6)C=C5)cc3)cc2F)c1
REMARK SMILES IDX 20 1 21 2 19 3 16 4 17 5 94 6 18 7 93 8 95 9 15 10 11 11
REMARK SMILES IDX 12 12 96 13 13 14 14 15 10 16 8 17 7 18 9 20 6 21 5 22 4 23
REMARK SMILES IDX 3 24 2 25 1 26 22 27 23 28 24 29 25 30 26 31 27 32 28 33
REMARK SMILES IDX 29 34 30 35 31 36 92 37 32 38 91 39 33 40 34 41 35 42 85 43
REMARK SMILES IDX 36 44 90 45 84 46 86 47 37 48 89 49 83 50 82 51 38 53 70 54
REMARK SMILES IDX 50 55 69 56 51 57 54 58 68 59 87 60 52 61 53 62 67 64 88 65
REMARK SMILES IDX 55 66 39 67 40 68 48 69 41 70 43 71 49 72 42 73 44 74 45 75
REMARK SMILES IDX 46 76 47 77 71 78 72 79 80 80 73 81 75 82 81 83 74 84 76 85
REMARK SMILES IDX 77 86 78 87 79 88 56 89 57 90 65 91 58 92 60 93 66 94 59 95
REMARK SMILES IDX 61 96 62 97 63 98 64 99
REMARK H PARENT 7 19 86 52 54 63
REMARK Flexibility Score: inf
ROOT
ATOM      1  C   UNL A   1      32.686  19.945  24.300  1.00  0.00     0.126 C 
ATOM      2  C   UNL A   1      32.225  19.254  23.018  1.00  0.00     0.025 C 
ENDROOT
BRANCH   1   3
ATOM      3  C   UNL A   1      32.443  21.448  24.263  1.00  0.00    -0.031 A 
ATOM      4  C   UNL A   1      31.861  24.239  24.200  1.00  0.00     0.018 A 
ATOM      5  C   UNL A   1      32.493  23.598  23.120  1.00  0.00     0.012 A 
ATOM      6  C   UNL A   1      31.563  23.456  25.321  1.00  0.00     0.131 A 
ATOM      7  C   UNL A   1      32.775  22.227  23.148  1.00  0.00     0.005 A 
ATOM      8  C   UNL A   1      31.838  22.088  25.356  1.00  0.00     0.044 A 
ATOM      9  F   UNL A   1      30.948  24.000  26.384  1.00  0.00    -0.206 F 
BRANCH   4  10
ATOM     10  C   UNL A   1      31.478  25.660  24.116  1.00  0.00    -0.012 A 
ATOM     11  C   UNL A   1      31.380  27.908  25.023  1.00  0.00     0.133 A 
ATOM     12  C   UNL A   1      30.641  28.352  23.929  1.00  0.00     0.047 A 
ATOM     13  C   UNL A   1      31.790  26.576  25.134  1.00  0.00     0.056 A 
ATOM     14  C   UNL A   1      30.327  27.457  22.913  1.00  0.00     0.004 A 
ATOM     15  C   UNL A   1      30.741  26.126  23.007  1.00  0.00     0.009 A 
BRANCH  11  16
ATOM     16  O   UNL A   1      31.576  28.828  26.065  1.00  0.00    -0.410 OA
BRANCH  16  17
ATOM     17  C   UNL A   1      31.908  28.325  27.314  1.00  0.00     0.412 C 
ATOM     18  N   UNL A   1      33.208  28.574  27.662  1.00  0.00    -0.321 N 
ATOM     19  H   UNL A   1      33.490  28.274  28.557  1.00  0.00     0.167 HD
ATOM     20  O   UNL A   1      31.168  27.691  28.057  1.00  0.00    -0.224 OA
BRANCH  18  21
ATOM     21  C   UNL A   1      34.214  29.233  26.853  1.00  0.00     0.119 C 
BRANCH  21  22
ATOM     22  C   UNL A   1      35.535  29.420  27.600  1.00  0.00     0.021 C 
BRANCH  22  23
ATOM     23  C   UNL A   1      35.642  30.718  28.410  1.00  0.00     0.002 C 
BRANCH  23  24
ATOM     24  C   UNL A   1      35.057  31.969  27.746  1.00  0.00    -0.000 C 
BRANCH  24  25
ATOM     25  C   UNL A   1      34.824  33.164  28.673  1.00  0.00    -0.003 C 
ATOM     26  C   UNL A   1      34.529  34.457  27.928  1.00  0.00     0.004 C 
ENDBRANCH  24  25
ENDBRANCH  23  24
ENDBRANCH  22  23
ENDBRANCH  21  22
ENDBRANCH  18  21
ENDBRANCH  16  17
ENDBRANCH  11  16
ENDBRANCH   4  10
ENDBRANCH   1   3
BRANCH   1  27
ATOM     27  C   UNL A   1      34.099  19.491  24.649  1.00  0.00     0.313 C 
ATOM     28  O   UNL A   1      34.439  18.314  24.575  1.00  0.00    -0.252 OA
BRANCH  27  29
ATOM     29  O   UNL A   1      34.938  20.506  24.983  1.00  0.00    -0.462 OA
BRANCH  29  30
ATOM     30  C   UNL A   1      36.347  20.201  25.000  1.00  0.00     0.274 C 
BRANCH  30  31
ATOM     31  C   UNL A   1      37.188  21.434  24.656  1.00  0.00     0.275 C 
BRANCH  31  32
ATOM     32  O   UNL A   1      37.620  22.123  25.843  1.00  0.00    -0.458 OA
BRANCH  32  33
ATOM     33  C   UNL A   1      38.900  21.874  26.206  1.00  0.00     0.338 C 
ATOM     34  O   UNL A   1      39.530  20.846  26.021  1.00  0.00    -0.246 OA
BRANCH  33  35
ATOM     35  C   UNL A   1      39.517  23.090  26.752  1.00  0.00     0.060 A 
ATOM     36  C   UNL A   1      39.127  24.313  26.204  1.00  0.00     0.016 A 
ATOM     37  C   UNL A   1      40.546  23.033  27.691  1.00  0.00     0.016 A 
ATOM     38  C   UNL A   1      39.790  25.483  26.553  1.00  0.00     0.010 A 
ATOM     39  C   UNL A   1      41.201  24.216  28.059  1.00  0.00     0.010 A 
ATOM     40  C   UNL A   1      40.848  25.443  27.468  1.00  0.00    -0.014 A 
BRANCH  40  41
ATOM     41  C   UNL A   1      41.610  26.686  27.743  1.00  0.00     0.031 A 
ATOM     42  C   UNL A   1      43.028  26.821  27.260  1.00  0.00     0.074 A 
ATOM     43  C   UNL A   1      41.020  27.703  28.401  1.00  0.00     0.049 A 
ATOM     44  N   UNL A   1      43.854  27.825  27.402  1.00  0.00    -0.248 NA
ATOM     45  C   UNL A   1      43.595  25.678  26.524  1.00  0.00     0.031 C 
ATOM     46  C   UNL A   1      39.654  27.688  28.926  1.00  0.00     0.029 A 
ATOM     47  N   UNL A   1      41.500  28.940  28.752  1.00  0.00    -0.354 N 
ATOM     48  C   UNL A   1      45.050  27.419  26.822  1.00  0.00     0.074 A 
ATOM     49  C   UNL A   1      44.843  26.079  26.320  1.00  0.00     0.031 C 
ATOM     50  C   UNL A   1      39.411  28.854  29.547  1.00  0.00     0.029 A 
ATOM     51  C   UNL A   1      40.609  29.687  29.487  1.00  0.00     0.049 A 
ATOM     52  H   UNL A   1      42.397  29.261  28.503  1.00  0.00     0.167 HD
ATOM     53  C   UNL A   1      46.210  28.108  26.706  1.00  0.00     0.034 A 
ATOM     54  C   UNL A   1      40.749  30.898  30.063  1.00  0.00     0.034 A 
ATOM     55  C   UNL A   1      46.394  29.465  27.145  1.00  0.00     0.049 A 
ATOM     56  C   UNL A   1      42.041  31.649  29.886  1.00  0.00     0.074 A 
ATOM     57  C   UNL A   1      47.506  30.273  26.989  1.00  0.00     0.029 A 
ATOM     58  N   UNL A   1      45.447  30.212  27.826  1.00  0.00    -0.354 N 
ATOM     59  N   UNL A   1      43.110  31.305  29.208  1.00  0.00    -0.248 NA
ATOM     60  C   UNL A   1      42.136  32.971  30.525  1.00  0.00     0.031 C 
ATOM     61  C   UNL A   1      47.239  31.505  27.593  1.00  0.00     0.029 A 
ATOM     62  C   UNL A   1      45.955  31.468  28.112  1.00  0.00     0.049 A 
ATOM     63  H   UNL A   1      44.547  29.897  28.070  1.00  0.00     0.167 HD
ATOM     64  C   UNL A   1      43.992  32.374  29.319  1.00  0.00     0.074 A 
ATOM     65  C   UNL A   1      43.321  33.392  30.101  1.00  0.00     0.031 C 
ATOM     66  C   UNL A   1      45.254  32.494  28.838  1.00  0.00     0.034 A 
BRANCH  53  67
ATOM     67  C   UNL A   1      47.376  27.424  26.046  1.00  0.00     0.023 A 
ATOM     68  C   UNL A   1      47.589  27.586  24.663  1.00  0.00     0.012 A 
ATOM     69  C   UNL A   1      48.313  26.703  26.814  1.00  0.00     0.148 A 
ATOM     70  C   UNL A   1      48.710  27.029  24.050  1.00  0.00     0.002 A 
ATOM     71  C   UNL A   1      49.446  26.181  26.202  1.00  0.00     0.091 A 
ATOM     72  F   UNL A   1      48.079  26.546  28.125  1.00  0.00    -0.205 F 
ATOM     73  C   UNL A   1      49.643  26.338  24.820  1.00  0.00     0.022 A 
BRANCH  71  74
ATOM     74  S   UNL A   1      50.743  25.337  27.115  1.00  0.00     0.127 S 
ATOM     75  O   UNL A   1      51.177  26.381  28.043  1.00  0.00    -0.237 OA
ATOM     76  O   UNL A   1      50.012  24.234  27.740  1.00  0.00    -0.237 OA
ATOM     77  O   UNL A   1      51.733  24.930  26.128  1.00  0.00    -0.744 OA
ENDBRANCH  71  74
ENDBRANCH  53  67
BRANCH  54  78
ATOM     78  C   UNL A   1      39.623  31.491  30.839  1.00  0.00     0.023 A 
ATOM     79  C   UNL A   1      38.607  32.196  30.167  1.00  0.00     0.012 A 
ATOM     80  C   UNL A   1      39.550  31.352  32.239  1.00  0.00     0.148 A 
ATOM     81  C   UNL A   1      37.558  32.781  30.878  1.00  0.00     0.002 A 
ATOM     82  C   UNL A   1      38.472  31.888  32.934  1.00  0.00     0.091 A 
ATOM     83  F   UNL A   1      40.538  30.701  32.870  1.00  0.00    -0.205 F 
ATOM     84  C   UNL A   1      37.484  32.618  32.259  1.00  0.00     0.022 A 
BRANCH  82  85
ATOM     85  S   UNL A   1      38.248  31.596  34.692  1.00  0.00     0.127 S 
ATOM     86  O   UNL A   1      38.228  30.138  34.756  1.00  0.00    -0.237 OA
ATOM     87  O   UNL A   1      39.441  32.222  35.267  1.00  0.00    -0.237 OA
ATOM     88  O   UNL A   1      37.003  32.274  35.033  1.00  0.00    -0.744 OA
ENDBRANCH  82  85
ENDBRANCH  54  78
BRANCH  66  89
ATOM     89  C   UNL A   1      45.993  33.774  29.125  1.00  0.00     0.023 A 
ATOM     90  C   UNL A   1      46.835  33.852  30.251  1.00  0.00     0.012 A 
ATOM     91  C   UNL A   1      45.915  34.870  28.243  1.00  0.00     0.148 A 
ATOM     92  C   UNL A   1      47.566  35.009  30.512  1.00  0.00     0.002 A 
ATOM     93  C   UNL A   1      46.682  36.003  28.484  1.00  0.00     0.091 A 
ATOM     94  F   UNL A   1      45.092  34.785  27.186  1.00  0.00    -0.205 F 
ATOM     95  C   UNL A   1      47.500  36.080  29.623  1.00  0.00     0.022 A 
BRANCH  93  96
ATOM     96  S   UNL A   1      46.726  37.389  27.340  1.00  0.00     0.127 S 
ATOM     97  O   UNL A   1      45.366  37.380  26.806  1.00  0.00    -0.237 OA
ATOM     98  O   UNL A   1      47.028  38.517  28.223  1.00  0.00    -0.237 OA
ATOM     99  O   UNL A   1      47.781  37.078  26.384  1.00  0.00    -0.744 OA
ENDBRANCH  93  96
ENDBRANCH  66  89
ENDBRANCH  40  41
ENDBRANCH  33  35
ENDBRANCH  32  33
ENDBRANCH  31  32
ENDBRANCH  30  31
ENDBRANCH  29  30
ENDBRANCH  27  29
ENDBRANCH   1  27
TORSDOF 23
ENDMDL
MODEL 2
REMARK VINA RESULT:     -11.1      2.694      3.637
REMARK SMILES CCCCCCNC(=O)Oc1cccc(-c2ccc([C@@H](C)C(=O)OCCOC(=O)c3ccc(-c4c5nc(c(-c6cccc(S(=O)(=O)[O-])c6F)c6ccc([nH]6)c(-c6cccc(S(=O)(=O)[O-])c6F)c6nc(c(-c7cccc(S(=O)(=O)[O-])c7F)c7ccc4[nH]7)C=C6)C=C5)cc3)cc2F)c1
REMARK SMILES IDX 20 1 21 2 19 3 16 4 17 5 94 6 18 7 93 8 95 9 15 10 11 11
REMARK SMILES IDX 12 12 96 13 13 14 14 15 10 16 8 17 7 18 9 20 6 21 5 22 4 23
REMARK SMILES IDX 3 24 2 25 1 26 22 27 23 28 24 29 25 30 26 31 27 32 28 33
REMARK SMILES IDX 29 34 30 35 31 36 92 37 32 38 91 39 33 40 34 41 35 42 85 43
REMARK SMILES IDX 36 44 90 45 84 46 86 47 37 48 89 49 83 50 82 51 38 53 70 54
REMARK SMILES IDX 50 55 69 56 51 57 54 58 68 59 87 60 52 61 53 62 67 64 88 65
REMARK SMILES IDX 55 66 39 67 40 68 48 69 41 70 43 71 49 72 42 73 44 74 45 75
REMARK SMILES IDX 46 76 47 77 71 78 72 79 80 80 73 81 75 82 81 83 74 84 76 85
REMARK SMILES IDX 77 86 78 87 79 88 56 89 57 90 65 91 58 92 60 93 66 94 59 95
REMARK SMILES IDX 61 96 62 97 63 98 64 99
REMARK H PARENT 7 19 86 52 54 63
REMARK Flexibility Score: inf
ROOT
ATOM      1  C   UNL A   1      32.805  19.764  24.371  1.00  0.00     0.126 C 
ATOM      2  C   UNL A   1      32.318  18.845  23.251  1.00  0.00     0.025 C 
ENDROOT
BRANCH   1   3
ATOM      3  C   UNL A   1      32.391  21.211  24.149  1.00  0.00    -0.031 A 
ATOM      4  C   UNL A   1      31.495  23.892  23.763  1.00  0.00     0.018 A 
ATOM      5  C   UNL A   1      32.021  23.136  22.702  1.00  0.00     0.012 A 
ATOM      6  C   UNL A   1      31.464  23.285  25.025  1.00  0.00     0.131 A 
ATOM      7  C   UNL A   1      32.457  21.819  22.888  1.00  0.00     0.005 A 
ATOM      8  C   UNL A   1      31.893  21.971  25.219  1.00  0.00     0.044 A 
ATOM      9  F   UNL A   1      30.962  23.944  26.082  1.00  0.00    -0.206 F 
BRANCH   4  10
ATOM     10  C   UNL A   1      30.945  25.240  23.532  1.00  0.00    -0.012 A 
ATOM     11  C   UNL A   1      31.181  27.565  22.880  1.00  0.00     0.133 A 
ATOM     12  C   UNL A   1      29.848  27.820  23.190  1.00  0.00     0.047 A 
ATOM     13  C   UNL A   1      31.740  26.296  23.056  1.00  0.00     0.056 A 
ATOM     14  C   UNL A   1      29.049  26.784  23.660  1.00  0.00     0.004 A 
ATOM     15  C   UNL A   1      29.593  25.509  23.828  1.00  0.00     0.009 A 
BRANCH  11  16
ATOM     16  O   UNL A   1      31.965  28.670  22.511  1.00  0.00    -0.410 OA
BRANCH  16  17
ATOM     17  C   UNL A   1      33.288  28.688  22.925  1.00  0.00     0.412 C 
ATOM     18  N   UNL A   1      33.441  29.149  24.205  1.00  0.00    -0.321 N 
ATOM     19  H   UNL A   1      34.357  29.147  24.567  1.00  0.00     0.167 HD
ATOM     20  O   UNL A   1      34.260  28.368  22.252  1.00  0.00    -0.224 OA
BRANCH  18  21
ATOM     21  C   UNL A   1      32.398  29.640  25.084  1.00  0.00     0.119 C 
BRANCH  21  22
ATOM     22  C   UNL A   1      31.900  28.570  26.055  1.00  0.00     0.021 C 
BRANCH  22  23
ATOM     23  C   UNL A   1      33.003  27.816  26.809  1.00  0.00     0.002 C 
BRANCH  23  24
ATOM     24  C   UNL A   1      33.171  26.338  26.439  1.00  0.00    -0.000 C 
BRANCH  24  25
ATOM     25  C   UNL A   1      34.261  26.033  25.409  1.00  0.00    -0.003 C 
ATOM     26  C   UNL A   1      34.728  24.586  25.436  1.00  0.00     0.004 C 
ENDBRANCH  24  25
ENDBRANCH  23  24
ENDBRANCH  22  23
ENDBRANCH  21  22
ENDBRANCH  18  21
ENDBRANCH  16  17
ENDBRANCH  11  16
ENDBRANCH   4  10
ENDBRANCH   1   3
BRANCH   1  27
ATOM     27  C   UNL A   1      34.285  19.510  24.635  1.00  0.00     0.313 C 
ATOM     28  O   UNL A   1      34.786  18.397  24.504  1.00  0.00    -0.252 OA
BRANCH  27  29
ATOM     29  O   UNL A   1      34.987  20.627  24.963  1.00  0.00    -0.462 OA
BRANCH  29  30
ATOM     30  C   UNL A   1      36.421  20.497  25.016  1.00  0.00     0.274 C 
BRANCH  30  31
ATOM     31  C   UNL A   1      37.109  21.857  24.874  1.00  0.00     0.275 C 
BRANCH  31  32
ATOM     32  O   UNL A   1      37.527  22.370  26.152  1.00  0.00    -0.458 OA
BRANCH  32  33
ATOM     33  C   UNL A   1      38.854  22.615  26.257  1.00  0.00     0.338 C 
ATOM     34  O   UNL A   1      39.766  21.890  25.896  1.00  0.00    -0.246 OA
BRANCH  33  35
ATOM     35  C   UNL A   1      39.080  23.979  26.753  1.00  0.00     0.060 A 
ATOM     36  C   UNL A   1      39.807  24.849  25.940  1.00  0.00     0.016 A 
ATOM     37  C   UNL A   1      38.699  24.365  28.038  1.00  0.00     0.016 A 
ATOM     38  C   UNL A   1      40.201  26.093  26.416  1.00  0.00     0.010 A 
ATOM     39  C   UNL A   1      39.079  25.628  28.511  1.00  0.00     0.010 A 
ATOM     40  C   UNL A   1      39.859  26.486  27.715  1.00  0.00    -0.014 A 
BRANCH  40  41
ATOM     41  C   UNL A   1      40.382  27.772  28.239  1.00  0.00     0.031 A 
ATOM     42  C   UNL A   1      41.866  28.011  28.299  1.00  0.00     0.074 A 
ATOM     43  C   UNL A   1      39.526  28.734  28.636  1.00  0.00     0.049 A 
ATOM     44  N   UNL A   1      42.514  29.065  28.723  1.00  0.00    -0.248 NA
ATOM     45  C   UNL A   1      42.738  26.924  27.822  1.00  0.00     0.031 C 
ATOM     46  C   UNL A   1      38.067  28.616  28.633  1.00  0.00     0.029 A 
ATOM     47  N   UNL A   1      39.759  29.992  29.129  1.00  0.00    -0.354 N 
ATOM     48  C   UNL A   1      43.863  28.752  28.615  1.00  0.00     0.074 A 
ATOM     49  C   UNL A   1      43.944  27.411  28.079  1.00  0.00     0.031 C 
ATOM     50  C   UNL A   1      37.536  29.751  29.118  1.00  0.00     0.029 A 
ATOM     51  C   UNL A   1      38.614  30.663  29.490  1.00  0.00     0.049 A 
ATOM     52  H   UNL A   1      40.661  30.378  29.218  1.00  0.00     0.167 HD
ATOM     53  C   UNL A   1      44.936  29.519  28.921  1.00  0.00     0.034 A 
ATOM     54  C   UNL A   1      38.453  31.868  30.071  1.00  0.00     0.034 A 
ATOM     55  C   UNL A   1      44.855  30.876  29.389  1.00  0.00     0.049 A 
ATOM     56  C   UNL A   1      39.666  32.708  30.367  1.00  0.00     0.074 A 
ATOM     57  C   UNL A   1      45.890  31.761  29.640  1.00  0.00     0.029 A 
ATOM     58  N   UNL A   1      43.677  31.545  29.680  1.00  0.00    -0.354 N 
ATOM     59  N   UNL A   1      40.929  32.450  30.122  1.00  0.00    -0.248 NA
ATOM     60  C   UNL A   1      39.433  34.020  30.991  1.00  0.00     0.031 C 
ATOM     61  C   UNL A   1      45.337  32.959  30.101  1.00  0.00     0.029 A 
ATOM     62  C   UNL A   1      43.959  32.826  30.123  1.00  0.00     0.049 A 
ATOM     63  H   UNL A   1      42.773  31.165  29.585  1.00  0.00     0.167 HD
ATOM     64  C   UNL A   1      41.635  33.574  30.538  1.00  0.00     0.074 A 
ATOM     65  C   UNL A   1      40.658  34.528  31.020  1.00  0.00     0.031 C 
ATOM     66  C   UNL A   1      42.974  33.787  30.543  1.00  0.00     0.034 A 
BRANCH  53  67
ATOM     67  C   UNL A   1      46.306  28.929  28.729  1.00  0.00     0.023 A 
ATOM     68  C   UNL A   1      47.001  28.401  29.835  1.00  0.00     0.012 A 
ATOM     69  C   UNL A   1      46.862  28.810  27.439  1.00  0.00     0.148 A 
ATOM     70  C   UNL A   1      48.235  27.776  29.662  1.00  0.00     0.002 A 
ATOM     71  C   UNL A   1      48.075  28.154  27.270  1.00  0.00     0.091 A 
ATOM     72  F   UNL A   1      46.191  29.337  26.404  1.00  0.00    -0.205 F 
ATOM     73  C   UNL A   1      48.765  27.642  28.381  1.00  0.00     0.022 A 
BRANCH  71  74
ATOM     74  S   UNL A   1      48.808  27.866  25.656  1.00  0.00     0.127 S 
ATOM     75  O   UNL A   1      49.969  28.755  25.697  1.00  0.00    -0.237 OA
ATOM     76  O   UNL A   1      49.132  26.440  25.715  1.00  0.00    -0.237 OA
ATOM     77  O   UNL A   1      47.788  28.220  24.679  1.00  0.00    -0.744 OA
ENDBRANCH  71  74
ENDBRANCH  53  67
BRANCH  54  78
ATOM     78  C   UNL A   1      37.085  32.368  30.387  1.00  0.00     0.023 A 
ATOM     79  C   UNL A   1      36.562  32.200  31.683  1.00  0.00     0.012 A 
ATOM     80  C   UNL A   1      36.302  33.017  29.411  1.00  0.00     0.148 A 
ATOM     81  C   UNL A   1      35.273  32.637  31.992  1.00  0.00     0.002 A 
ATOM     82  C   UNL A   1      35.042  33.501  29.742  1.00  0.00     0.091 A 
ATOM     83  F   UNL A   1      36.802  33.147  28.173  1.00  0.00    -0.205 F 
ATOM     84  C   UNL A   1      34.518  33.297  31.026  1.00  0.00     0.022 A 
BRANCH  82  85
ATOM     85  S   UNL A   1      34.077  34.479  28.585  1.00  0.00     0.127 S 
ATOM     86  O   UNL A   1      34.121  33.655  27.382  1.00  0.00    -0.237 OA
ATOM     87  O   UNL A   1      32.770  34.540  29.242  1.00  0.00    -0.237 OA
ATOM     88  O   UNL A   1      34.761  35.764  28.512  1.00  0.00    -0.744 OA
ENDBRANCH  82  85
ENDBRANCH  54  78
BRANCH  66  89
ATOM     89  C   UNL A   1      43.469  35.108  31.069  1.00  0.00     0.023 A 
ATOM     90  C   UNL A   1      43.883  35.208  32.412  1.00  0.00     0.012 A 
ATOM     91  C   UNL A   1      43.596  36.225  30.221  1.00  0.00     0.148 A 
ATOM     92  C   UNL A   1      44.390  36.407  32.911  1.00  0.00     0.002 A 
ATOM     93  C   UNL A   1      44.145  37.404  30.713  1.00  0.00     0.091 A 
ATOM     94  F   UNL A   1      43.178  36.117  28.951  1.00  0.00    -0.205 F 
ATOM     95  C   UNL A   1      44.532  37.500  32.059  1.00  0.00     0.022 A 
BRANCH  93  96
ATOM     96  S   UNL A   1      44.450  38.829  29.661  1.00  0.00     0.127 S 
ATOM     97  O   UNL A   1      43.091  39.247  29.321  1.00  0.00    -0.237 OA
ATOM     98  O   UNL A   1      45.161  39.738  30.561  1.00  0.00    -0.237 OA
ATOM     99  O   UNL A   1      45.254  38.335  28.550  1.00  0.00    -0.744 OA
ENDBRANCH  93  96
ENDBRANCH  66  89
ENDBRANCH  40  41
ENDBRANCH  33  35
ENDBRANCH  32  33
ENDBRANCH  31  32
ENDBRANCH  30  31
ENDBRANCH  29  30
ENDBRANCH  27  29
ENDBRANCH   1  27
TORSDOF 23
ENDMDL
MODEL 3
REMARK VINA RESULT:     -10.9      4.644     10.320
REMARK SMILES CCCCCCNC(=O)Oc1cccc(-c2ccc([C@@H](C)C(=O)OCCOC(=O)c3ccc(-c4c5nc(c(-c6cccc(S(=O)(=O)[O-])c6F)c6ccc([nH]6)c(-c6cccc(S(=O)(=O)[O-])c6F)c6nc(c(-c7cccc(S(=O)(=O)[O-])c7F)c7ccc4[nH]7)C=C6)C=C5)cc3)cc2F)c1
REMARK SMILES IDX 20 1 21 2 19 3 16 4 17 5 94 6 18 7 93 8 95 9 15 10 11 11
REMARK SMILES IDX 12 12 96 13 13 14 14 15 10 16 8 17 7 18 9 20 6 21 5 22 4 23
REMARK SMILES IDX 3 24 2 25 1 26 22 27 23 28 24 29 25 30 26 31 27 32 28 33
REMARK SMILES IDX 29 34 30 35 31 36 92 37 32 38 91 39 33 40 34 41 35 42 85 43
REMARK SMILES IDX 36 44 90 45 84 46 86 47 37 48 89 49 83 50 82 51 38 53 70 54
REMARK SMILES IDX 50 55 69 56 51 57 54 58 68 59 87 60 52 61 53 62 67 64 88 65
REMARK SMILES IDX 55 66 39 67 40 68 48 69 41 70 43 71 49 72 42 73 44 74 45 75
REMARK SMILES IDX 46 76 47 77 71 78 72 79 80 80 73 81 75 82 81 83 74 84 76 85
REMARK SMILES IDX 77 86 78 87 79 88 56 89 57 90 65 91 58 92 60 93 66 94 59 95
REMARK SMILES IDX 61 96 62 97 63 98 64 99
REMARK H PARENT 7 19 86 52 54 63
REMARK Flexibility Score: inf
ROOT
ATOM      1  C   UNL A   1      33.060  27.680  24.389  1.00  0.00     0.126 C 
ATOM      2  C   UNL A   1      34.100  28.326  23.474  1.00  0.00     0.025 C 
ENDROOT
BRANCH   1   3
ATOM      3  C   UNL A   1      32.872  26.199  24.091  1.00  0.00    -0.031 A 
ATOM      4  C   UNL A   1      32.589  23.397  23.639  1.00  0.00     0.018 A 
ATOM      5  C   UNL A   1      33.273  24.220  22.728  1.00  0.00     0.012 A 
ATOM      6  C   UNL A   1      32.022  24.018  24.758  1.00  0.00     0.131 A 
ATOM      7  C   UNL A   1      33.417  25.595  22.951  1.00  0.00     0.005 A 
ATOM      8  C   UNL A   1      32.163  25.387  24.990  1.00  0.00     0.044 A 
ATOM      9  F   UNL A   1      31.365  23.290  25.677  1.00  0.00    -0.206 F 
BRANCH   4  10
ATOM     10  C   UNL A   1      32.534  21.937  23.444  1.00  0.00    -0.012 A 
ATOM     11  C   UNL A   1      32.978  19.663  24.163  1.00  0.00     0.133 A 
ATOM     12  C   UNL A   1      32.473  19.153  22.969  1.00  0.00     0.047 A 
ATOM     13  C   UNL A   1      33.026  21.038  24.405  1.00  0.00     0.056 A 
ATOM     14  C   UNL A   1      31.981  20.030  22.010  1.00  0.00     0.004 A 
ATOM     15  C   UNL A   1      32.012  21.406  22.246  1.00  0.00     0.009 A 
BRANCH  11  16
ATOM     16  O   UNL A   1      33.556  18.739  25.047  1.00  0.00    -0.410 OA
BRANCH  16  17
ATOM     17  C   UNL A   1      34.695  18.070  24.626  1.00  0.00     0.412 C 
ATOM     18  N   UNL A   1      35.831  18.828  24.732  1.00  0.00    -0.321 N 
ATOM     19  H   UNL A   1      36.677  18.390  24.483  1.00  0.00     0.167 HD
ATOM     20  O   UNL A   1      34.737  16.934  24.168  1.00  0.00    -0.224 OA
BRANCH  18  21
ATOM     21  C   UNL A   1      35.918  20.206  25.172  1.00  0.00     0.119 C 
BRANCH  21  22
ATOM     22  C   UNL A   1      37.067  20.961  24.505  1.00  0.00     0.021 C 
BRANCH  22  23
ATOM     23  C   UNL A   1      36.683  22.314  23.892  1.00  0.00     0.002 C 
BRANCH  23  24
ATOM     24  C   UNL A   1      36.867  23.533  24.802  1.00  0.00    -0.000 C 
BRANCH  24  25
ATOM     25  C   UNL A   1      37.657  23.285  26.089  1.00  0.00    -0.003 C 
ATOM     26  C   UNL A   1      38.656  24.389  26.406  1.00  0.00     0.004 C 
ENDBRANCH  24  25
ENDBRANCH  23  24
ENDBRANCH  22  23
ENDBRANCH  21  22
ENDBRANCH  18  21
ENDBRANCH  16  17
ENDBRANCH  11  16
ENDBRANCH   4  10
ENDBRANCH   1   3
BRANCH   1  27
ATOM     27  C   UNL A   1      31.798  28.535  24.415  1.00  0.00     0.313 C 
ATOM     28  O   UNL A   1      31.472  29.239  23.464  1.00  0.00    -0.252 OA
BRANCH  27  29
ATOM     29  O   UNL A   1      31.059  28.395  25.547  1.00  0.00    -0.462 OA
BRANCH  29  30
ATOM     30  C   UNL A   1      31.668  28.841  26.776  1.00  0.00     0.274 C 
BRANCH  30  31
ATOM     31  C   UNL A   1      31.697  30.369  26.860  1.00  0.00     0.275 C 
BRANCH  31  32
ATOM     32  O   UNL A   1      32.958  30.896  26.408  1.00  0.00    -0.458 OA
BRANCH  32  33
ATOM     33  C   UNL A   1      33.503  31.831  27.220  1.00  0.00     0.338 C 
ATOM     34  O   UNL A   1      32.975  32.853  27.624  1.00  0.00    -0.246 OA
BRANCH  33  35
ATOM     35  C   UNL A   1      34.820  31.383  27.694  1.00  0.00     0.060 A 
ATOM     36  C   UNL A   1      34.989  30.019  27.935  1.00  0.00     0.016 A 
ATOM     37  C   UNL A   1      35.831  32.289  28.016  1.00  0.00     0.016 A 
ATOM     38  C   UNL A   1      36.147  29.551  28.542  1.00  0.00     0.010 A 
ATOM     39  C   UNL A   1      37.008  31.814  28.609  1.00  0.00     0.010 A 
ATOM     40  C   UNL A   1      37.161  30.447  28.904  1.00  0.00    -0.014 A 
BRANCH  40  41
ATOM     41  C   UNL A   1      38.340  29.938  29.647  1.00  0.00     0.031 A 
ATOM     42  C   UNL A   1      38.523  30.291  31.098  1.00  0.00     0.074 A 
ATOM     43  C   UNL A   1      39.230  29.139  29.028  1.00  0.00     0.049 A 
ATOM     44  N   UNL A   1      39.485  29.945  31.914  1.00  0.00    -0.248 NA
ATOM     45  C   UNL A   1      37.494  31.146  31.713  1.00  0.00     0.031 C 
ATOM     46  C   UNL A   1      39.164  28.734  27.623  1.00  0.00     0.029 A 
ATOM     47  N   UNL A   1      40.370  28.536  29.497  1.00  0.00    -0.354 N 
ATOM     48  C   UNL A   1      39.208  30.578  33.120  1.00  0.00     0.074 A 
ATOM     49  C   UNL A   1      37.984  31.326  32.933  1.00  0.00     0.031 C 
ATOM     50  C   UNL A   1      40.227  27.962  27.340  1.00  0.00     0.029 A 
ATOM     51  C   UNL A   1      41.061  27.840  28.533  1.00  0.00     0.049 A 
ATOM     52  H   UNL A   1      40.666  28.597  30.434  1.00  0.00     0.167 HD
ATOM     53  C   UNL A   1      39.903  30.528  34.280  1.00  0.00     0.034 A 
ATOM     54  C   UNL A   1      42.241  27.193  28.598  1.00  0.00     0.034 A 
ATOM     55  C   UNL A   1      41.082  29.730  34.486  1.00  0.00     0.049 A 
ATOM     56  C   UNL A   1      42.971  27.129  29.913  1.00  0.00     0.074 A 
ATOM     57  C   UNL A   1      41.802  29.547  35.653  1.00  0.00     0.029 A 
ATOM     58  N   UNL A   1      41.715  28.986  33.503  1.00  0.00    -0.354 N 
ATOM     59  N   UNL A   1      42.616  27.615  31.079  1.00  0.00    -0.248 NA
ATOM     60  C   UNL A   1      44.248  26.401  29.932  1.00  0.00     0.031 C 
ATOM     61  C   UNL A   1      42.883  28.706  35.372  1.00  0.00     0.029 A 
ATOM     62  C   UNL A   1      42.827  28.354  34.033  1.00  0.00     0.049 A 
ATOM     63  H   UNL A   1      41.418  28.916  32.567  1.00  0.00     0.167 HD
ATOM     64  C   UNL A   1      43.611  27.232  31.971  1.00  0.00     0.074 A 
ATOM     65  C   UNL A   1      44.567  26.445  31.219  1.00  0.00     0.031 C 
ATOM     66  C   UNL A   1      43.736  27.524  33.289  1.00  0.00     0.034 A 
BRANCH  53  67
ATOM     67  C   UNL A   1      39.395  31.332  35.445  1.00  0.00     0.023 A 
ATOM     68  C   UNL A   1      38.356  30.821  36.247  1.00  0.00     0.012 A 
ATOM     69  C   UNL A   1      40.013  32.548  35.802  1.00  0.00     0.148 A 
ATOM     70  C   UNL A   1      37.929  31.513  37.379  1.00  0.00     0.002 A 
ATOM     71  C   UNL A   1      39.607  33.215  36.951  1.00  0.00     0.091 A 
ATOM     72  F   UNL A   1      40.987  33.025  35.013  1.00  0.00    -0.205 F 
ATOM     73  C   UNL A   1      38.561  32.703  37.737  1.00  0.00     0.022 A 
BRANCH  71  74
ATOM     74  S   UNL A   1      40.402  34.714  37.538  1.00  0.00     0.127 S 
ATOM     75  O   UNL A   1      41.775  34.255  37.751  1.00  0.00    -0.237 OA
ATOM     76  O   UNL A   1      40.232  35.619  36.401  1.00  0.00    -0.237 OA
ATOM     77  O   UNL A   1      39.684  35.108  38.743  1.00  0.00    -0.744 OA
ENDBRANCH  71  74
ENDBRANCH  53  67
BRANCH  54  78
ATOM     78  C   UNL A   1      42.796  26.526  27.386  1.00  0.00     0.023 A 
ATOM     79  C   UNL A   1      43.582  27.265  26.482  1.00  0.00     0.012 A 
ATOM     80  C   UNL A   1      42.555  25.162  27.129  1.00  0.00     0.148 A 
ATOM     81  C   UNL A   1      44.089  26.666  25.328  1.00  0.00     0.002 A 
ATOM     82  C   UNL A   1      43.111  24.559  26.008  1.00  0.00     0.091 A 
ATOM     83  F   UNL A   1      41.782  24.477  27.985  1.00  0.00    -0.205 F 
ATOM     84  C   UNL A   1      43.864  25.312  25.096  1.00  0.00     0.022 A 
BRANCH  82  85
ATOM     85  S   UNL A   1      42.972  22.790  25.725  1.00  0.00     0.127 S 
ATOM     86  O   UNL A   1      43.390  22.672  24.332  1.00  0.00    -0.237 OA
ATOM     87  O   UNL A   1      43.919  22.243  26.700  1.00  0.00    -0.237 OA
ATOM     88  O   UNL A   1      41.579  22.469  26.010  1.00  0.00    -0.744 OA
ENDBRANCH  82  85
ENDBRANCH  54  78
BRANCH  66  89
ATOM     89  C   UNL A   1      44.939  26.981  34.014  1.00  0.00     0.023 A 
ATOM     90  C   UNL A   1      46.057  27.811  34.222  1.00  0.00     0.012 A 
ATOM     91  C   UNL A   1      44.932  25.680  34.556  1.00  0.00     0.148 A 
ATOM     92  C   UNL A   1      47.163  27.347  34.932  1.00  0.00     0.002 A 
ATOM     93  C   UNL A   1      46.019  25.240  35.302  1.00  0.00     0.091 A 
ATOM     94  F   UNL A   1      43.866  24.897  34.331  1.00  0.00    -0.205 F 
ATOM     95  C   UNL A   1      47.139  26.067  35.483  1.00  0.00     0.022 A 
BRANCH  93  96
ATOM     96  S   UNL A   1      46.031  23.642  36.123  1.00  0.00     0.127 S 
ATOM     97  O   UNL A   1      46.752  23.945  37.358  1.00  0.00    -0.237 OA
ATOM     98  O   UNL A   1      44.605  23.368  36.302  1.00  0.00    -0.237 OA
ATOM     99  O   UNL A   1      46.706  22.732  35.207  1.00  0.00    -0.744 OA
ENDBRANCH  93  96
ENDBRANCH  66  89
ENDBRANCH  40  41
ENDBRANCH  33  35
ENDBRANCH  32  33
ENDBRANCH  31  32
ENDBRANCH  30  31
ENDBRANCH  29  30
ENDBRANCH  27  29
ENDBRANCH   1  27
TORSDOF 23
ENDMDL
