MODEL 1
REMARK VINA RESULT:     -12.0      0.000      0.000
REMARK SMILES Cc1cc2c(cc1S(=O)(=O)N(C)CC(=O)OCCOC(=O)c1ccc(-c3c4nc(c(-c5cccc(S(=O)(=O)[O-])c5F)c5ccc([nH]5)c(-c5cccc(S(=O)(=O)[O-])c5F)c5nc(c(-c6cccc(S(=O)(=O)[O-])c6F)c6ccc3[nH]6)C=C5)C=C4)cc1)OCC(=O)N2
REMARK SMILES IDX 17 1 16 2 14 3 15 4 13 5 11 6 12 7 8 8 9 9 10 10 7 11 1 12
REMARK SMILES IDX 2 13 3 14 4 15 6 16 5 17 89 18 85 19 87 20 86 22 88 23 18 24
REMARK SMILES IDX 19 25 20 26 21 27 22 28 23 29 84 30 24 31 83 32 25 33 26 34
REMARK SMILES IDX 27 35 77 36 28 37 82 38 76 39 78 40 29 41 81 42 75 43 74 44
REMARK SMILES IDX 30 46 62 47 42 48 61 49 43 50 46 51 60 52 79 53 44 54 45 55
REMARK SMILES IDX 59 57 80 58 47 59 31 60 32 61 40 62 33 63 35 64 41 65 34 66
REMARK SMILES IDX 36 67 37 68 38 69 39 70 63 71 64 72 72 73 65 74 67 75 73 76
REMARK SMILES IDX 66 77 68 78 69 79 70 80 71 81 48 82 49 83 57 84 50 85 52 86
REMARK SMILES IDX 58 87 51 88 53 89 54 90 55 91 56 92
REMARK H PARENT 89 21 78 45 46 56
REMARK Flexibility Score: inf
ROOT
ATOM      1  C   UNL A   1      35.941  22.234  23.938  1.00  0.00     0.274 C 
ENDROOT
BRANCH   1   2
ATOM      2  O   UNL A   1      34.619  22.067  24.513  1.00  0.00    -0.461 OA
BRANCH   2   3
ATOM      3  C   UNL A   1      34.101  23.117  25.208  1.00  0.00     0.321 C 
ATOM      4  O   UNL A   1      34.718  23.712  26.090  1.00  0.00    -0.251 OA
BRANCH   3   5
ATOM      5  C   UNL A   1      32.673  23.482  24.830  1.00  0.00     0.224 C 
BRANCH   5   6
ATOM      6  N   UNL A   1      32.109  24.878  24.822  1.00  0.00    -0.190 NA
ATOM      7  C   UNL A   1      30.759  24.966  25.400  1.00  0.00     0.125 C 
BRANCH   6   8
ATOM      8  S   UNL A   1      32.341  25.741  23.366  1.00  0.00     0.243 S 
ATOM      9  O   UNL A   1      31.398  25.202  22.402  1.00  0.00    -0.207 OA
ATOM     10  O   UNL A   1      33.760  25.881  23.126  1.00  0.00    -0.207 OA
BRANCH   8  11
ATOM     11  C   UNL A   1      31.754  27.411  23.562  1.00  0.00     0.089 A 
ATOM     12  C   UNL A   1      33.122  28.058  25.629  1.00  0.00     0.046 C 
ATOM     13  C   UNL A   1      32.044  28.286  24.613  1.00  0.00    -0.029 A 
ATOM     14  C   UNL A   1      31.264  29.458  24.715  1.00  0.00     0.035 A 
ATOM     15  C   UNL A   1      30.286  29.765  23.759  1.00  0.00     0.084 A 
ATOM     16  C   UNL A   1      30.832  27.774  22.558  1.00  0.00     0.070 A 
ATOM     17  C   UNL A   1      30.094  28.937  22.661  1.00  0.00     0.144 A 
ATOM     18  N   UNL A   1      29.513  30.917  23.894  1.00  0.00    -0.320 N 
ATOM     19  O   UNL A   1      29.222  29.193  21.643  1.00  0.00    -0.482 OA
ATOM     20  C   UNL A   1      28.498  31.205  23.019  1.00  0.00     0.262 C 
ATOM     21  H   UNL A   1      29.700  31.537  24.635  1.00  0.00     0.170 HD
ATOM     22  C   UNL A   1      28.215  30.133  21.967  1.00  0.00     0.329 C 
ATOM     23  O   UNL A   1      27.820  32.222  23.145  1.00  0.00    -0.271 OA
ENDBRANCH   8  11
ENDBRANCH   6   8
ENDBRANCH   5   6
ENDBRANCH   3   5
ENDBRANCH   2   3
ENDBRANCH   1   2
BRANCH   1  24
ATOM     24  C   UNL A   1      36.926  21.171  24.472  1.00  0.00     0.275 C 
BRANCH  24  25
ATOM     25  O   UNL A   1      37.290  21.369  25.861  1.00  0.00    -0.458 OA
BRANCH  25  26
ATOM     26  C   UNL A   1      38.620  21.435  26.034  1.00  0.00     0.338 C 
ATOM     27  O   UNL A   1      39.404  20.541  25.754  1.00  0.00    -0.246 OA
BRANCH  26  28
ATOM     28  C   UNL A   1      39.189  22.699  26.455  1.00  0.00     0.060 A 
ATOM     29  C   UNL A   1      38.600  23.917  26.143  1.00  0.00     0.016 A 
ATOM     30  C   UNL A   1      40.258  22.608  27.362  1.00  0.00     0.016 A 
ATOM     31  C   UNL A   1      39.149  25.073  26.692  1.00  0.00     0.010 A 
ATOM     32  C   UNL A   1      40.770  23.750  27.940  1.00  0.00     0.010 A 
ATOM     33  C   UNL A   1      40.253  24.991  27.562  1.00  0.00    -0.014 A 
BRANCH  33  34
ATOM     34  C   UNL A   1      40.956  26.211  27.996  1.00  0.00     0.031 A 
ATOM     35  C   UNL A   1      42.369  26.427  27.533  1.00  0.00     0.074 A 
ATOM     36  C   UNL A   1      40.325  27.096  28.785  1.00  0.00     0.049 A 
ATOM     37  N   UNL A   1      43.134  27.469  27.708  1.00  0.00    -0.248 NA
ATOM     38  C   UNL A   1      43.014  25.333  26.780  1.00  0.00     0.031 C 
ATOM     39  C   UNL A   1      38.981  26.928  29.342  1.00  0.00     0.029 A 
ATOM     40  N   UNL A   1      40.730  28.319  29.245  1.00  0.00    -0.354 N 
ATOM     41  C   UNL A   1      44.341  27.154  27.098  1.00  0.00     0.074 A 
ATOM     42  C   UNL A   1      44.233  25.812  26.583  1.00  0.00     0.031 C 
ATOM     43  C   UNL A   1      38.658  28.031  30.038  1.00  0.00     0.029 A 
ATOM     44  C   UNL A   1      39.772  28.971  29.982  1.00  0.00     0.049 A 
ATOM     45  H   UNL A   1      41.623  28.695  29.066  1.00  0.00     0.167 HD
ATOM     46  C   UNL A   1      45.427  27.941  26.941  1.00  0.00     0.034 A 
ATOM     47  C   UNL A   1      39.792  30.205  30.524  1.00  0.00     0.034 A 
ATOM     48  C   UNL A   1      45.499  29.291  27.415  1.00  0.00     0.049 A 
ATOM     49  C   UNL A   1      41.006  31.066  30.308  1.00  0.00     0.074 A 
ATOM     50  C   UNL A   1      46.527  30.200  27.254  1.00  0.00     0.029 A 
ATOM     51  N   UNL A   1      44.500  29.926  28.132  1.00  0.00    -0.354 N 
ATOM     52  N   UNL A   1      42.090  30.800  29.620  1.00  0.00    -0.248 NA
ATOM     53  C   UNL A   1      40.990  32.403  30.916  1.00  0.00     0.031 C 
ATOM     54  C   UNL A   1      46.152  31.387  27.884  1.00  0.00     0.029 A 
ATOM     55  C   UNL A   1      44.886  31.219  28.425  1.00  0.00     0.049 A 
ATOM     56  H   UNL A   1      43.643  29.518  28.396  1.00  0.00     0.167 HD
ATOM     57  C   UNL A   1      42.875  31.944  29.690  1.00  0.00     0.074 A 
ATOM     58  C   UNL A   1      42.135  32.911  30.476  1.00  0.00     0.031 C 
ATOM     59  C   UNL A   1      44.102  32.171  29.164  1.00  0.00     0.034 A 
BRANCH  46  60
ATOM     60  C   UNL A   1      46.589  27.410  26.156  1.00  0.00     0.023 A 
ATOM     61  C   UNL A   1      46.667  27.699  24.779  1.00  0.00     0.012 A 
ATOM     62  C   UNL A   1      47.658  26.754  26.793  1.00  0.00     0.148 A 
ATOM     63  C   UNL A   1      47.799  27.351  24.047  1.00  0.00     0.002 A 
ATOM     64  C   UNL A   1      48.797  26.436  26.063  1.00  0.00     0.091 A 
ATOM     65  F   UNL A   1      47.549  26.480  28.101  1.00  0.00    -0.205 F 
ATOM     66  C   UNL A   1      48.869  26.733  24.691  1.00  0.00     0.022 A 
BRANCH  64  67
ATOM     67  S   UNL A   1      50.253  25.688  26.802  1.00  0.00     0.127 S 
ATOM     68  O   UNL A   1      51.142  25.567  25.647  1.00  0.00    -0.237 OA
ATOM     69  O   UNL A   1      50.653  26.702  27.777  1.00  0.00    -0.237 OA
ATOM     70  O   UNL A   1      49.814  24.421  27.371  1.00  0.00    -0.744 OA
ENDBRANCH  64  67
ENDBRANCH  46  60
BRANCH  47  71
ATOM     71  C   UNL A   1      38.590  30.722  31.228  1.00  0.00     0.023 A 
ATOM     72  C   UNL A   1      38.523  30.629  32.631  1.00  0.00     0.012 A 
ATOM     73  C   UNL A   1      37.539  31.344  30.526  1.00  0.00     0.148 A 
ATOM     74  C   UNL A   1      37.422  31.132  33.324  1.00  0.00     0.002 A 
ATOM     75  C   UNL A   1      36.461  31.872  31.225  1.00  0.00     0.091 A 
ATOM     76  F   UNL A   1      37.625  31.415  29.190  1.00  0.00    -0.205 F 
ATOM     77  C   UNL A   1      36.396  31.759  32.623  1.00  0.00     0.022 A 
BRANCH  75  78
ATOM     78  S   UNL A   1      35.132  32.772  30.419  1.00  0.00     0.127 S 
ATOM     79  O   UNL A   1      34.178  32.937  31.514  1.00  0.00    -0.237 OA
ATOM     80  O   UNL A   1      35.809  34.000  30.003  1.00  0.00    -0.237 OA
ATOM     81  O   UNL A   1      34.688  31.924  29.321  1.00  0.00    -0.744 OA
ENDBRANCH  75  78
ENDBRANCH  47  71
BRANCH  59  82
ATOM     82  C   UNL A   1      44.732  33.513  29.397  1.00  0.00     0.023 A 
ATOM     83  C   UNL A   1      45.504  33.716  30.556  1.00  0.00     0.012 A 
ATOM     84  C   UNL A   1      44.685  34.506  28.400  1.00  0.00     0.148 A 
ATOM     85  C   UNL A   1      46.220  34.900  30.723  1.00  0.00     0.002 A 
ATOM     86  C   UNL A   1      45.430  35.666  28.557  1.00  0.00     0.091 A 
ATOM     87  F   UNL A   1      43.941  34.280  27.309  1.00  0.00    -0.205 F 
ATOM     88  C   UNL A   1      46.194  35.866  29.720  1.00  0.00     0.022 A 
BRANCH  86  89
ATOM     89  S   UNL A   1      45.525  36.934  27.289  1.00  0.00     0.127 S 
ATOM     90  O   UNL A   1      46.107  36.192  26.171  1.00  0.00    -0.237 OA
ATOM     91  O   UNL A   1      44.121  37.301  27.114  1.00  0.00    -0.237 OA
ATOM     92  O   UNL A   1      46.368  37.990  27.833  1.00  0.00    -0.744 OA
ENDBRANCH  86  89
ENDBRANCH  59  82
ENDBRANCH  33  34
ENDBRANCH  26  28
ENDBRANCH  25  26
ENDBRANCH  24  25
ENDBRANCH   1  24
TORSDOF 17
ENDMDL
MODEL 2
REMARK VINA RESULT:     -11.8      4.795     10.310
REMARK SMILES Cc1cc2c(cc1S(=O)(=O)N(C)CC(=O)OCCOC(=O)c1ccc(-c3c4nc(c(-c5cccc(S(=O)(=O)[O-])c5F)c5ccc([nH]5)c(-c5cccc(S(=O)(=O)[O-])c5F)c5nc(c(-c6cccc(S(=O)(=O)[O-])c6F)c6ccc3[nH]6)C=C5)C=C4)cc1)OCC(=O)N2
REMARK SMILES IDX 17 1 16 2 14 3 15 4 13 5 11 6 12 7 8 8 9 9 10 10 7 11 1 12
REMARK SMILES IDX 2 13 3 14 4 15 6 16 5 17 89 18 85 19 87 20 86 22 88 23 18 24
REMARK SMILES IDX 19 25 20 26 21 27 22 28 23 29 84 30 24 31 83 32 25 33 26 34
REMARK SMILES IDX 27 35 77 36 28 37 82 38 76 39 78 40 29 41 81 42 75 43 74 44
REMARK SMILES IDX 30 46 62 47 42 48 61 49 43 50 46 51 60 52 79 53 44 54 45 55
REMARK SMILES IDX 59 57 80 58 47 59 31 60 32 61 40 62 33 63 35 64 41 65 34 66
REMARK SMILES IDX 36 67 37 68 38 69 39 70 63 71 64 72 72 73 65 74 67 75 73 76
REMARK SMILES IDX 66 77 68 78 69 79 70 80 71 81 48 82 49 83 57 84 50 85 52 86
REMARK SMILES IDX 58 87 51 88 53 89 54 90 55 91 56 92
REMARK H PARENT 89 21 78 45 46 56
REMARK Flexibility Score: inf
ROOT
ATOM      1  C   UNL A   1      31.028  28.949  24.642  1.00  0.00     0.274 C 
ENDROOT
BRANCH   1   2
ATOM      2  O   UNL A   1      31.936  27.821  24.738  1.00  0.00    -0.461 OA
BRANCH   2   3
ATOM      3  C   UNL A   1      32.723  27.558  23.660  1.00  0.00     0.321 C 
ATOM      4  O   UNL A   1      32.843  28.326  22.707  1.00  0.00    -0.251 OA
BRANCH   3   5
ATOM      5  C   UNL A   1      33.427  26.210  23.707  1.00  0.00     0.224 C 
BRANCH   5   6
ATOM      6  N   UNL A   1      32.749  24.873  23.569  1.00  0.00    -0.190 NA
ATOM      7  C   UNL A   1      31.661  24.868  22.579  1.00  0.00     0.125 C 
BRANCH   6   8
ATOM      8  S   UNL A   1      32.401  24.085  25.045  1.00  0.00     0.243 S 
ATOM      9  O   UNL A   1      31.033  23.604  24.953  1.00  0.00    -0.207 OA
ATOM     10  O   UNL A   1      32.911  24.887  26.135  1.00  0.00    -0.207 OA
BRANCH   8  11
ATOM     11  C   UNL A   1      33.320  22.563  25.142  1.00  0.00     0.089 A 
ATOM     12  C   UNL A   1      35.688  23.542  25.083  1.00  0.00     0.046 C 
ATOM     13  C   UNL A   1      34.706  22.410  25.033  1.00  0.00    -0.029 A 
ATOM     14  C   UNL A   1      35.203  21.100  24.865  1.00  0.00     0.035 A 
ATOM     15  C   UNL A   1      34.345  19.991  24.877  1.00  0.00     0.084 A 
ATOM     16  C   UNL A   1      32.479  21.436  25.244  1.00  0.00     0.070 A 
ATOM     17  C   UNL A   1      32.984  20.159  25.100  1.00  0.00     0.144 A 
ATOM     18  N   UNL A   1      34.857  18.709  24.686  1.00  0.00    -0.320 N 
ATOM     19  O   UNL A   1      32.087  19.137  25.205  1.00  0.00    -0.482 OA
ATOM     20  C   UNL A   1      34.036  17.614  24.616  1.00  0.00     0.262 C 
ATOM     21  H   UNL A   1      35.830  18.588  24.598  1.00  0.00     0.170 HD
ATOM     22  C   UNL A   1      32.538  17.913  24.656  1.00  0.00     0.329 C 
ATOM     23  O   UNL A   1      34.494  16.486  24.446  1.00  0.00    -0.271 OA
ENDBRANCH   8  11
ENDBRANCH   6   8
ENDBRANCH   5   6
ENDBRANCH   3   5
ENDBRANCH   2   3
ENDBRANCH   1   2
BRANCH   1  24
ATOM     24  C   UNL A   1      31.654  30.229  25.241  1.00  0.00     0.275 C 
BRANCH  24  25
ATOM     25  O   UNL A   1      32.986  30.024  25.774  1.00  0.00    -0.458 OA
BRANCH  25  26
ATOM     26  C   UNL A   1      33.279  30.888  26.759  1.00  0.00     0.338 C 
ATOM     27  O   UNL A   1      32.510  31.730  27.199  1.00  0.00    -0.246 OA
BRANCH  26  28
ATOM     28  C   UNL A   1      34.544  30.731  27.447  1.00  0.00     0.060 A 
ATOM     29  C   UNL A   1      35.414  31.794  27.650  1.00  0.00     0.016 A 
ATOM     30  C   UNL A   1      34.744  29.487  28.067  1.00  0.00     0.016 A 
ATOM     31  C   UNL A   1      36.548  31.576  28.427  1.00  0.00     0.010 A 
ATOM     32  C   UNL A   1      35.844  29.287  28.873  1.00  0.00     0.010 A 
ATOM     33  C   UNL A   1      36.780  30.315  29.009  1.00  0.00    -0.014 A 
BRANCH  33  34
ATOM     34  C   UNL A   1      38.062  30.020  29.670  1.00  0.00     0.031 A 
ATOM     35  C   UNL A   1      38.312  30.592  31.037  1.00  0.00     0.074 A 
ATOM     36  C   UNL A   1      38.971  29.252  29.047  1.00  0.00     0.049 A 
ATOM     37  N   UNL A   1      39.319  30.380  31.839  1.00  0.00    -0.248 NA
ATOM     38  C   UNL A   1      37.307  31.530  31.576  1.00  0.00     0.031 C 
ATOM     39  C   UNL A   1      38.841  28.719  27.689  1.00  0.00     0.029 A 
ATOM     40  N   UNL A   1      40.179  28.780  29.480  1.00  0.00    -0.354 N 
ATOM     41  C   UNL A   1      39.072  31.156  32.964  1.00  0.00     0.074 A 
ATOM     42  C   UNL A   1      37.847  31.881  32.734  1.00  0.00     0.031 C 
ATOM     43  C   UNL A   1      39.913  27.956  27.417  1.00  0.00     0.029 A 
ATOM     44  C   UNL A   1      40.803  27.958  28.573  1.00  0.00     0.049 A 
ATOM     45  H   UNL A   1      40.564  29.007  30.358  1.00  0.00     0.167 HD
ATOM     46  C   UNL A   1      39.787  31.217  34.108  1.00  0.00     0.034 A 
ATOM     47  C   UNL A   1      41.953  27.265  28.686  1.00  0.00     0.034 A 
ATOM     48  C   UNL A   1      40.974  30.451  34.339  1.00  0.00     0.049 A 
ATOM     49  C   UNL A   1      42.710  27.333  29.983  1.00  0.00     0.074 A 
ATOM     50  C   UNL A   1      41.741  30.388  35.487  1.00  0.00     0.029 A 
ATOM     51  N   UNL A   1      41.561  29.610  33.409  1.00  0.00    -0.354 N 
ATOM     52  N   UNL A   1      42.397  27.973  31.085  1.00  0.00    -0.248 NA
ATOM     53  C   UNL A   1      43.960  26.565  30.066  1.00  0.00     0.031 C 
ATOM     54  C   UNL A   1      42.801  29.512  35.247  1.00  0.00     0.029 A 
ATOM     55  C   UNL A   1      42.683  29.021  33.955  1.00  0.00     0.049 A 
ATOM     56  H   UNL A   1      41.228  29.455  32.495  1.00  0.00     0.167 HD
ATOM     57  C   UNL A   1      43.397  27.665  31.999  1.00  0.00     0.074 A 
ATOM     58  C   UNL A   1      44.318  26.770  31.327  1.00  0.00     0.031 C 
ATOM     59  C   UNL A   1      43.547  28.094  33.275  1.00  0.00     0.034 A 
BRANCH  46  60
ATOM     60  C   UNL A   1      39.266  32.063  35.232  1.00  0.00     0.023 A 
ATOM     61  C   UNL A   1      38.400  31.479  36.177  1.00  0.00     0.012 A 
ATOM     62  C   UNL A   1      39.736  33.374  35.432  1.00  0.00     0.148 A 
ATOM     63  C   UNL A   1      38.013  32.185  37.313  1.00  0.00     0.002 A 
ATOM     64  C   UNL A   1      39.370  34.063  36.582  1.00  0.00     0.091 A 
ATOM     65  F   UNL A   1      40.549  33.908  34.509  1.00  0.00    -0.205 F 
ATOM     66  C   UNL A   1      38.509  33.470  37.523  1.00  0.00     0.022 A 
BRANCH  64  67
ATOM     67  S   UNL A   1      39.991  35.700  36.980  1.00  0.00     0.127 S 
ATOM     68  O   UNL A   1      39.271  35.998  38.217  1.00  0.00    -0.237 OA
ATOM     69  O   UNL A   1      41.421  35.448  37.152  1.00  0.00    -0.237 OA
ATOM     70  O   UNL A   1      39.643  36.550  35.849  1.00  0.00    -0.744 OA
ENDBRANCH  64  67
ENDBRANCH  46  60
BRANCH  47  71
ATOM     71  C   UNL A   1      42.392  26.377  27.578  1.00  0.00     0.023 A 
ATOM     72  C   UNL A   1      43.266  26.885  26.597  1.00  0.00     0.012 A 
ATOM     73  C   UNL A   1      41.990  25.030  27.513  1.00  0.00     0.148 A 
ATOM     74  C   UNL A   1      43.720  26.070  25.560  1.00  0.00     0.002 A 
ATOM     75  C   UNL A   1      42.473  24.214  26.497  1.00  0.00     0.091 A 
ATOM     76  F   UNL A   1      41.154  24.573  28.456  1.00  0.00    -0.205 F 
ATOM     77  C   UNL A   1      43.330  24.734  25.515  1.00  0.00     0.022 A 
BRANCH  75  78
ATOM     78  S   UNL A   1      42.095  22.461  26.401  1.00  0.00     0.127 S 
ATOM     79  O   UNL A   1      40.640  22.478  26.262  1.00  0.00    -0.237 OA
ATOM     80  O   UNL A   1      42.823  22.060  25.197  1.00  0.00    -0.237 OA
ATOM     81  O   UNL A   1      42.601  21.878  27.637  1.00  0.00    -0.744 OA
ENDBRANCH  75  78
ENDBRANCH  47  71
BRANCH  59  82
ATOM     82  C   UNL A   1      44.735  27.602  34.049  1.00  0.00     0.023 A 
ATOM     83  C   UNL A   1      45.904  28.386  34.083  1.00  0.00     0.012 A 
ATOM     84  C   UNL A   1      44.635  26.454  34.857  1.00  0.00     0.148 A 
ATOM     85  C   UNL A   1      46.965  28.027  34.912  1.00  0.00     0.002 A 
ATOM     86  C   UNL A   1      45.681  26.123  35.707  1.00  0.00     0.091 A 
ATOM     87  F   UNL A   1      43.507  25.731  34.801  1.00  0.00    -0.205 F 
ATOM     88  C   UNL A   1      46.848  26.906  35.732  1.00  0.00     0.022 A 
BRANCH  86  89
ATOM     89  S   UNL A   1      45.596  24.748  36.857  1.00  0.00     0.127 S 
ATOM     90  O   UNL A   1      45.488  23.607  35.947  1.00  0.00    -0.237 OA
ATOM     91  O   UNL A   1      46.875  24.851  37.557  1.00  0.00    -0.237 OA
ATOM     92  O   UNL A   1      44.425  24.986  37.690  1.00  0.00    -0.744 OA
ENDBRANCH  86  89
ENDBRANCH  59  82
ENDBRANCH  33  34
ENDBRANCH  26  28
ENDBRANCH  25  26
ENDBRANCH  24  25
ENDBRANCH   1  24
TORSDOF 17
ENDMDL
MODEL 3
REMARK VINA RESULT:     -11.7      5.073     10.333
REMARK SMILES Cc1cc2c(cc1S(=O)(=O)N(C)CC(=O)OCCOC(=O)c1ccc(-c3c4nc(c(-c5cccc(S(=O)(=O)[O-])c5F)c5ccc([nH]5)c(-c5cccc(S(=O)(=O)[O-])c5F)c5nc(c(-c6cccc(S(=O)(=O)[O-])c6F)c6ccc3[nH]6)C=C5)C=C4)cc1)OCC(=O)N2
REMARK SMILES IDX 17 1 16 2 14 3 15 4 13 5 11 6 12 7 8 8 9 9 10 10 7 11 1 12
REMARK SMILES IDX 2 13 3 14 4 15 6 16 5 17 89 18 85 19 87 20 86 22 88 23 18 24
REMARK SMILES IDX 19 25 20 26 21 27 22 28 23 29 84 30 24 31 83 32 25 33 26 34
REMARK SMILES IDX 27 35 77 36 28 37 82 38 76 39 78 40 29 41 81 42 75 43 74 44
REMARK SMILES IDX 30 46 62 47 42 48 61 49 43 50 46 51 60 52 79 53 44 54 45 55
REMARK SMILES IDX 59 57 80 58 47 59 31 60 32 61 40 62 33 63 35 64 41 65 34 66
REMARK SMILES IDX 36 67 37 68 38 69 39 70 63 71 64 72 72 73 65 74 67 75 73 76
REMARK SMILES IDX 66 77 68 78 69 79 70 80 71 81 48 82 49 83 57 84 50 85 52 86
REMARK SMILES IDX 58 87 51 88 53 89 54 90 55 91 56 92
REMARK H PARENT 89 21 78 45 46 56
REMARK Flexibility Score: inf
ROOT
ATOM      1  C   UNL A   1      31.900  28.952  26.631  1.00  0.00     0.274 C 
ENDROOT
BRANCH   1   2
ATOM      2  O   UNL A   1      31.379  28.754  25.291  1.00  0.00    -0.461 OA
BRANCH   2   3
ATOM      3  C   UNL A   1      32.215  28.200  24.370  1.00  0.00     0.321 C 
ATOM      4  O   UNL A   1      33.307  28.682  24.074  1.00  0.00    -0.251 OA
BRANCH   3   5
ATOM      5  C   UNL A   1      31.675  26.944  23.702  1.00  0.00     0.224 C 
BRANCH   5   6
ATOM      6  N   UNL A   1      32.345  25.596  23.723  1.00  0.00    -0.190 NA
ATOM      7  C   UNL A   1      32.822  25.160  22.402  1.00  0.00     0.125 C 
BRANCH   6   8
ATOM      8  S   UNL A   1      31.535  24.403  24.641  1.00  0.00     0.243 S 
ATOM      9  O   UNL A   1      30.544  23.800  23.767  1.00  0.00    -0.207 OA
ATOM     10  O   UNL A   1      31.246  24.938  25.953  1.00  0.00    -0.207 OA
BRANCH   8  11
ATOM     11  C   UNL A   1      32.635  23.037  24.949  1.00  0.00     0.089 A 
ATOM     12  C   UNL A   1      34.731  24.369  25.582  1.00  0.00     0.046 C 
ATOM     13  C   UNL A   1      34.004  23.106  25.227  1.00  0.00    -0.029 A 
ATOM     14  C   UNL A   1      34.739  21.904  25.168  1.00  0.00     0.035 A 
ATOM     15  C   UNL A   1      34.109  20.679  24.910  1.00  0.00     0.084 A 
ATOM     16  C   UNL A   1      31.998  21.790  24.780  1.00  0.00     0.070 A 
ATOM     17  C   UNL A   1      32.730  20.619  24.748  1.00  0.00     0.144 A 
ATOM     18  N   UNL A   1      34.860  19.507  24.834  1.00  0.00    -0.320 N 
ATOM     19  O   UNL A   1      32.023  19.467  24.570  1.00  0.00    -0.482 OA
ATOM     20  C   UNL A   1      34.285  18.308  24.507  1.00  0.00     0.262 C 
ATOM     21  H   UNL A   1      35.826  19.543  25.018  1.00  0.00     0.170 HD
ATOM     22  C   UNL A   1      32.804  18.370  24.135  1.00  0.00     0.329 C 
ATOM     23  O   UNL A   1      34.953  17.278  24.441  1.00  0.00    -0.271 OA
ENDBRANCH   8  11
ENDBRANCH   6   8
ENDBRANCH   5   6
ENDBRANCH   3   5
ENDBRANCH   2   3
ENDBRANCH   1   2
BRANCH   1  24
ATOM     24  C   UNL A   1      32.124  30.451  26.932  1.00  0.00     0.275 C 
BRANCH  24  25
ATOM     25  O   UNL A   1      33.433  30.930  26.532  1.00  0.00    -0.458 OA
BRANCH  25  26
ATOM     26  C   UNL A   1      34.041  31.624  27.507  1.00  0.00     0.338 C 
ATOM     27  O   UNL A   1      33.585  32.626  28.037  1.00  0.00    -0.246 OA
BRANCH  26  28
ATOM     28  C   UNL A   1      35.259  31.079  28.071  1.00  0.00     0.060 A 
ATOM     29  C   UNL A   1      35.435  29.717  28.278  1.00  0.00     0.016 A 
ATOM     30  C   UNL A   1      36.320  31.990  28.210  1.00  0.00     0.016 A 
ATOM     31  C   UNL A   1      36.682  29.275  28.710  1.00  0.00     0.010 A 
ATOM     32  C   UNL A   1      37.566  31.542  28.593  1.00  0.00     0.010 A 
ATOM     33  C   UNL A   1      37.736  30.190  28.899  1.00  0.00    -0.014 A 
BRANCH  33  34
ATOM     34  C   UNL A   1      38.994  29.762  29.533  1.00  0.00     0.031 A 
ATOM     35  C   UNL A   1      39.343  30.320  30.884  1.00  0.00     0.074 A 
ATOM     36  C   UNL A   1      39.794  28.888  28.899  1.00  0.00     0.049 A 
ATOM     37  N   UNL A   1      40.341  30.006  31.663  1.00  0.00    -0.248 NA
ATOM     38  C   UNL A   1      38.465  31.372  31.433  1.00  0.00     0.031 C 
ATOM     39  C   UNL A   1      39.569  28.356  27.554  1.00  0.00     0.029 A 
ATOM     40  N   UNL A   1      40.953  28.288  29.310  1.00  0.00    -0.354 N 
ATOM     41  C   UNL A   1      40.213  30.819  32.782  1.00  0.00     0.074 A 
ATOM     42  C   UNL A   1      39.071  31.674  32.571  1.00  0.00     0.031 C 
ATOM     43  C   UNL A   1      40.542  27.473  27.267  1.00  0.00     0.029 A 
ATOM     44  C   UNL A   1      41.456  27.390  28.400  1.00  0.00     0.049 A 
ATOM     45  H   UNL A   1      41.385  28.482  30.173  1.00  0.00     0.167 HD
ATOM     46  C   UNL A   1      40.960  30.814  33.906  1.00  0.00     0.034 A 
ATOM     47  C   UNL A   1      42.524  26.574  28.495  1.00  0.00     0.034 A 
ATOM     48  C   UNL A   1      42.060  29.923  34.120  1.00  0.00     0.049 A 
ATOM     49  C   UNL A   1      43.318  26.573  29.772  1.00  0.00     0.074 A 
ATOM     50  C   UNL A   1      42.845  29.789  35.249  1.00  0.00     0.029 A 
ATOM     51  N   UNL A   1      42.524  29.009  33.188  1.00  0.00    -0.354 N 
ATOM     52  N   UNL A   1      43.109  27.258  30.870  1.00  0.00    -0.248 NA
ATOM     53  C   UNL A   1      44.476  25.671  29.835  1.00  0.00     0.031 C 
ATOM     54  C   UNL A   1      43.793  28.796  34.996  1.00  0.00     0.029 A 
ATOM     55  C   UNL A   1      43.587  28.305  33.715  1.00  0.00     0.049 A 
ATOM     56  H   UNL A   1      42.152  28.881  32.286  1.00  0.00     0.167 HD
ATOM     57  C   UNL A   1      44.092  26.852  31.764  1.00  0.00     0.074 A 
ATOM     58  C   UNL A   1      44.888  25.851  31.084  1.00  0.00     0.031 C 
ATOM     59  C   UNL A   1      44.323  27.278  33.029  1.00  0.00     0.034 A 
BRANCH  46  60
ATOM     60  C   UNL A   1      40.568  31.728  35.029  1.00  0.00     0.023 A 
ATOM     61  C   UNL A   1      41.138  33.015  35.088  1.00  0.00     0.012 A 
ATOM     62  C   UNL A   1      39.550  31.373  35.933  1.00  0.00     0.148 A 
ATOM     63  C   UNL A   1      40.693  33.943  36.026  1.00  0.00     0.002 A 
ATOM     64  C   UNL A   1      39.090  32.313  36.847  1.00  0.00     0.091 A 
ATOM     65  F   UNL A   1      39.036  30.137  35.862  1.00  0.00    -0.205 F 
ATOM     66  C   UNL A   1      39.660  33.598  36.895  1.00  0.00     0.022 A 
BRANCH  64  67
ATOM     67  S   UNL A   1      37.730  31.994  37.976  1.00  0.00     0.127 S 
ATOM     68  O   UNL A   1      38.343  32.290  39.270  1.00  0.00    -0.237 OA
ATOM     69  O   UNL A   1      36.734  32.969  37.534  1.00  0.00    -0.237 OA
ATOM     70  O   UNL A   1      37.360  30.598  37.780  1.00  0.00    -0.744 OA
ENDBRANCH  64  67
ENDBRANCH  46  60
BRANCH  47  71
ATOM     71  C   UNL A   1      42.831  25.628  27.391  1.00  0.00     0.023 A 
ATOM     72  C   UNL A   1      43.743  26.015  26.389  1.00  0.00     0.012 A 
ATOM     73  C   UNL A   1      42.266  24.339  27.349  1.00  0.00     0.148 A 
ATOM     74  C   UNL A   1      44.074  25.140  25.355  1.00  0.00     0.002 A 
ATOM     75  C   UNL A   1      42.627  23.460  26.335  1.00  0.00     0.091 A 
ATOM     76  F   UNL A   1      41.398  23.998  28.311  1.00  0.00    -0.205 F 
ATOM     77  C   UNL A   1      43.523  23.862  25.332  1.00  0.00     0.022 A 
BRANCH  75  78
ATOM     78  S   UNL A   1      42.036  21.766  26.267  1.00  0.00     0.127 S 
ATOM     79  O   UNL A   1      42.847  21.212  25.185  1.00  0.00    -0.237 OA
ATOM     80  O   UNL A   1      42.373  21.275  27.603  1.00  0.00    -0.237 OA
ATOM     81  O   UNL A   1      40.607  21.855  25.998  1.00  0.00    -0.744 OA
ENDBRANCH  75  78
ENDBRANCH  47  71
BRANCH  59  82
ATOM     82  C   UNL A   1      45.469  26.666  33.780  1.00  0.00     0.023 A 
ATOM     83  C   UNL A   1      46.729  27.291  33.738  1.00  0.00     0.012 A 
ATOM     84  C   UNL A   1      45.255  25.572  34.641  1.00  0.00     0.148 A 
ATOM     85  C   UNL A   1      47.768  26.829  34.544  1.00  0.00     0.002 A 
ATOM     86  C   UNL A   1      46.284  25.141  35.466  1.00  0.00     0.091 A 
ATOM     87  F   UNL A   1      44.043  25.001  34.656  1.00  0.00    -0.205 F 
ATOM     88  C   UNL A   1      47.542  25.766  35.415  1.00  0.00     0.022 A 
BRANCH  86  89
ATOM     89  S   UNL A   1      46.070  23.833  36.678  1.00  0.00     0.127 S 
ATOM     90  O   UNL A   1      44.801  24.211  37.299  1.00  0.00    -0.237 OA
ATOM     91  O   UNL A   1      46.007  22.640  35.835  1.00  0.00    -0.237 OA
ATOM     92  O   UNL A   1      47.230  23.899  37.556  1.00  0.00    -0.744 OA
ENDBRANCH  86  89
ENDBRANCH  59  82
ENDBRANCH  33  34
ENDBRANCH  26  28
ENDBRANCH  25  26
ENDBRANCH  24  25
ENDBRANCH   1  24
TORSDOF 17
ENDMDL
