MODEL 1
REMARK VINA RESULT:     -11.2      0.000      0.000
REMARK SMILES C[NH+](C)[C@@H]1CC[N@@H+](Cc2ccc(C(=O)OCCOC(=O)c3ccc(-c4c5nc(c(-c6cccc(S(=O)(=O)[O-])c6F)c6ccc([nH]6)c(-c6cccc(S(=O)(=O)[O-])c6F)c6nc(c(-c7cccc(S(=O)(=O)[O-])c7F)c7ccc4[nH]7)C=C6)C=C5)cc3)cn2)C1
REMARK SMILES IDX 16 1 15 2 13 3 14 4 12 5 9 6 10 7 85 8 11 9 84 10 8 11 7 12
REMARK SMILES IDX 4 13 5 14 86 15 6 16 2 18 1 19 3 20 17 22 18 23 19 24 20 25
REMARK SMILES IDX 21 26 22 27 83 28 23 29 82 30 24 31 25 32 26 33 76 34 27 35
REMARK SMILES IDX 81 36 75 37 77 38 28 39 80 40 74 41 73 42 29 44 61 45 41 46
REMARK SMILES IDX 60 47 42 48 45 49 59 50 78 51 43 52 44 53 58 55 79 56 46 57
REMARK SMILES IDX 30 58 31 59 39 60 32 61 34 62 40 63 33 64 35 65 36 66 37 67
REMARK SMILES IDX 38 68 62 69 63 70 71 71 64 72 66 73 72 74 65 75 67 76 68 77
REMARK SMILES IDX 69 78 70 79 47 80 48 81 56 82 49 83 51 84 57 85 50 86 52 87
REMARK SMILES IDX 53 88 54 89 55 90
REMARK H PARENT 7 17 2 21 77 43 45 54
REMARK Flexibility Score: inf
ROOT
ATOM      1  C   UNL A   1      31.579  29.423  24.388  1.00  0.00     0.275 C 
ENDROOT
BRANCH   1   2
ATOM      2  O   UNL A   1      31.944  28.915  23.090  1.00  0.00    -0.458 OA
BRANCH   2   3
ATOM      3  C   UNL A   1      31.219  27.853  22.662  1.00  0.00     0.339 C 
ATOM      4  O   UNL A   1      30.157  27.892  22.070  1.00  0.00    -0.246 OA
BRANCH   3   5
ATOM      5  C   UNL A   1      31.919  26.587  22.942  1.00  0.00     0.078 A 
ATOM      6  C   UNL A   1      33.140  24.288  23.820  1.00  0.00     0.095 A 
ATOM      7  C   UNL A   1      33.821  25.120  22.931  1.00  0.00     0.031 A 
ATOM      8  N   UNL A   1      31.864  24.528  24.201  1.00  0.00    -0.254 NA
ATOM      9  C   UNL A   1      33.197  26.285  22.479  1.00  0.00     0.019 A 
ATOM     10  C   UNL A   1      31.299  25.677  23.784  1.00  0.00     0.127 A 
BRANCH   6  11
ATOM     11  C   UNL A   1      33.858  23.191  24.578  1.00  0.00     0.319 C 
BRANCH  11  12
ATOM     12  N   UNL A   1      33.831  21.847  23.968  1.00  0.00    -0.325 N 
ATOM     13  C   UNL A   1      33.431  19.963  25.493  1.00  0.00     0.245 C 
ATOM     14  C   UNL A   1      32.109  20.422  24.866  1.00  0.00     0.132 C 
ATOM     15  C   UNL A   1      34.502  20.792  24.733  1.00  0.00     0.328 C 
ATOM     16  C   UNL A   1      32.484  21.329  23.702  1.00  0.00     0.269 C 
ATOM     17  H   UNL A   1      34.339  22.032  23.103  1.00  0.00     0.348 HD
BRANCH  13  18
ATOM     18  N   UNL A   1      33.749  18.515  25.452  1.00  0.00    -0.333 N 
ATOM     19  C   UNL A   1      32.530  17.727  25.235  1.00  0.00     0.332 C 
ATOM     20  C   UNL A   1      34.744  18.156  24.443  1.00  0.00     0.332 C 
ATOM     21  H   UNL A   1      34.157  18.299  26.361  1.00  0.00     0.348 HD
ENDBRANCH  13  18
ENDBRANCH  11  12
ENDBRANCH   6  11
ENDBRANCH   3   5
ENDBRANCH   2   3
ENDBRANCH   1   2
BRANCH   1  22
ATOM     22  C   UNL A   1      32.802  29.484  25.301  1.00  0.00     0.275 C 
BRANCH  22  23
ATOM     23  O   UNL A   1      32.431  29.928  26.621  1.00  0.00    -0.458 OA
BRANCH  23  24
ATOM     24  C   UNL A   1      32.962  31.111  27.006  1.00  0.00     0.338 C 
ATOM     25  O   UNL A   1      32.405  32.197  27.036  1.00  0.00    -0.246 OA
BRANCH  24  26
ATOM     26  C   UNL A   1      34.330  30.913  27.509  1.00  0.00     0.060 A 
ATOM     27  C   UNL A   1      34.688  29.641  27.938  1.00  0.00     0.016 A 
ATOM     28  C   UNL A   1      35.191  31.985  27.719  1.00  0.00     0.016 A 
ATOM     29  C   UNL A   1      35.839  29.448  28.691  1.00  0.00     0.010 A 
ATOM     30  C   UNL A   1      36.422  31.761  28.353  1.00  0.00     0.010 A 
ATOM     31  C   UNL A   1      36.749  30.495  28.880  1.00  0.00    -0.014 A 
BRANCH  31  32
ATOM     32  C   UNL A   1      38.038  30.256  29.596  1.00  0.00     0.031 A 
ATOM     33  C   UNL A   1      39.104  29.376  28.995  1.00  0.00     0.074 A 
ATOM     34  C   UNL A   1      38.245  30.808  30.812  1.00  0.00     0.049 A 
ATOM     35  N   UNL A   1      40.189  28.896  29.548  1.00  0.00    -0.248 NA
ATOM     36  C   UNL A   1      38.919  28.966  27.593  1.00  0.00     0.031 C 
ATOM     37  C   UNL A   1      37.311  31.693  31.513  1.00  0.00     0.029 A 
ATOM     38  N   UNL A   1      39.300  30.692  31.686  1.00  0.00    -0.354 N 
ATOM     39  C   UNL A   1      40.772  28.067  28.594  1.00  0.00     0.074 A 
ATOM     40  C   UNL A   1      39.927  28.119  27.421  1.00  0.00     0.031 C 
ATOM     41  C   UNL A   1      37.838  32.056  32.689  1.00  0.00     0.029 A 
ATOM     42  C   UNL A   1      39.094  31.345  32.880  1.00  0.00     0.049 A 
ATOM     43  H   UNL A   1      40.122  30.192  31.478  1.00  0.00     0.167 HD
ATOM     44  C   UNL A   1      41.909  27.334  28.689  1.00  0.00     0.034 A 
ATOM     45  C   UNL A   1      39.794  31.330  34.031  1.00  0.00     0.034 A 
ATOM     46  C   UNL A   1      42.779  27.338  29.836  1.00  0.00     0.049 A 
ATOM     47  C   UNL A   1      41.038  30.496  34.115  1.00  0.00     0.074 A 
ATOM     48  C   UNL A   1      43.982  26.673  30.004  1.00  0.00     0.029 A 
ATOM     49  N   UNL A   1      42.544  28.037  31.010  1.00  0.00    -0.354 N 
ATOM     50  N   UNL A   1      41.600  29.761  33.188  1.00  0.00    -0.248 NA
ATOM     51  C   UNL A   1      41.748  30.494  35.401  1.00  0.00     0.031 C 
ATOM     52  C   UNL A   1      44.456  26.942  31.293  1.00  0.00     0.029 A 
ATOM     53  C   UNL A   1      43.568  27.804  31.915  1.00  0.00     0.049 A 
ATOM     54  H   UNL A   1      41.765  28.613  31.177  1.00  0.00     0.167 HD
ATOM     55  C   UNL A   1      42.741  29.223  33.771  1.00  0.00     0.074 A 
ATOM     56  C   UNL A   1      42.805  29.744  35.121  1.00  0.00     0.031 C 
ATOM     57  C   UNL A   1      43.641  28.358  33.242  1.00  0.00     0.034 A 
BRANCH  44  58
ATOM     58  C   UNL A   1      42.288  26.462  27.517  1.00  0.00     0.023 A 
ATOM     59  C   UNL A   1      43.114  26.969  26.494  1.00  0.00     0.012 A 
ATOM     60  C   UNL A   1      41.877  25.114  27.466  1.00  0.00     0.148 A 
ATOM     61  C   UNL A   1      43.497  26.159  25.422  1.00  0.00     0.002 A 
ATOM     62  C   UNL A   1      42.300  24.301  26.420  1.00  0.00     0.091 A 
ATOM     63  F   UNL A   1      41.079  24.652  28.439  1.00  0.00    -0.205 F 
ATOM     64  C   UNL A   1      43.099  24.825  25.391  1.00  0.00     0.022 A 
BRANCH  62  65
ATOM     65  S   UNL A   1      41.908  22.549  26.332  1.00  0.00     0.127 S 
ATOM     66  O   UNL A   1      42.613  22.149  25.115  1.00  0.00    -0.237 OA
ATOM     67  O   UNL A   1      42.498  22.040  27.572  1.00  0.00    -0.237 OA
ATOM     68  O   UNL A   1      40.457  22.463  26.269  1.00  0.00    -0.744 OA
ENDBRANCH  62  65
ENDBRANCH  44  58
BRANCH  45  69
ATOM     69  C   UNL A   1      39.313  32.119  35.203  1.00  0.00     0.023 A 
ATOM     70  C   UNL A   1      38.448  31.521  36.138  1.00  0.00     0.012 A 
ATOM     71  C   UNL A   1      39.744  33.445  35.417  1.00  0.00     0.148 A 
ATOM     72  C   UNL A   1      38.002  32.234  37.250  1.00  0.00     0.002 A 
ATOM     73  C   UNL A   1      39.350  34.126  36.562  1.00  0.00     0.091 A 
ATOM     74  F   UNL A   1      40.553  34.006  34.506  1.00  0.00    -0.205 F 
ATOM     75  C   UNL A   1      38.464  33.530  37.472  1.00  0.00     0.022 A 
BRANCH  73  76
ATOM     76  S   UNL A   1      40.014  35.737  36.998  1.00  0.00     0.127 S 
ATOM     77  O   UNL A   1      39.621  36.545  35.846  1.00  0.00    -0.237 OA
ATOM     78  O   UNL A   1      39.291  36.037  38.236  1.00  0.00    -0.237 OA
ATOM     79  O   UNL A   1      41.446  35.540  37.174  1.00  0.00    -0.744 OA
ENDBRANCH  73  76
ENDBRANCH  45  69
BRANCH  57  80
ATOM     80  C   UNL A   1      44.793  27.940  34.119  1.00  0.00     0.023 A 
ATOM     81  C   UNL A   1      45.972  28.711  34.140  1.00  0.00     0.012 A 
ATOM     82  C   UNL A   1      44.687  26.814  34.957  1.00  0.00     0.148 A 
ATOM     83  C   UNL A   1      47.043  28.345  34.955  1.00  0.00     0.002 A 
ATOM     84  C   UNL A   1      45.736  26.486  35.806  1.00  0.00     0.091 A 
ATOM     85  F   UNL A   1      43.563  26.083  34.908  1.00  0.00    -0.205 F 
ATOM     86  C   UNL A   1      46.921  27.242  35.796  1.00  0.00     0.022 A 
BRANCH  84  87
ATOM     87  S   UNL A   1      45.637  25.138  36.989  1.00  0.00     0.127 S 
ATOM     88  O   UNL A   1      44.475  25.525  37.786  1.00  0.00    -0.237 OA
ATOM     89  O   UNL A   1      45.423  23.981  36.119  1.00  0.00    -0.237 OA
ATOM     90  O   UNL A   1      46.908  25.133  37.701  1.00  0.00    -0.744 OA
ENDBRANCH  84  87
ENDBRANCH  57  80
ENDBRANCH  31  32
ENDBRANCH  24  26
ENDBRANCH  23  24
ENDBRANCH  22  23
ENDBRANCH   1  22
TORSDOF 17
ENDMDL
MODEL 2
REMARK VINA RESULT:     -11.1      4.991     10.187
REMARK SMILES C[NH+](C)[C@@H]1CC[N@@H+](Cc2ccc(C(=O)OCCOC(=O)c3ccc(-c4c5nc(c(-c6cccc(S(=O)(=O)[O-])c6F)c6ccc([nH]6)c(-c6cccc(S(=O)(=O)[O-])c6F)c6nc(c(-c7cccc(S(=O)(=O)[O-])c7F)c7ccc4[nH]7)C=C6)C=C5)cc3)cn2)C1
REMARK SMILES IDX 16 1 15 2 13 3 14 4 12 5 9 6 10 7 85 8 11 9 84 10 8 11 7 12
REMARK SMILES IDX 4 13 5 14 86 15 6 16 2 18 1 19 3 20 17 22 18 23 19 24 20 25
REMARK SMILES IDX 21 26 22 27 83 28 23 29 82 30 24 31 25 32 26 33 76 34 27 35
REMARK SMILES IDX 81 36 75 37 77 38 28 39 80 40 74 41 73 42 29 44 61 45 41 46
REMARK SMILES IDX 60 47 42 48 45 49 59 50 78 51 43 52 44 53 58 55 79 56 46 57
REMARK SMILES IDX 30 58 31 59 39 60 32 61 34 62 40 63 33 64 35 65 36 66 37 67
REMARK SMILES IDX 38 68 62 69 63 70 71 71 64 72 66 73 72 74 65 75 67 76 68 77
REMARK SMILES IDX 69 78 70 79 47 80 48 81 56 82 49 83 51 84 57 85 50 86 52 87
REMARK SMILES IDX 53 88 54 89 55 90
REMARK H PARENT 7 17 2 21 77 43 45 54
REMARK Flexibility Score: inf
ROOT
ATOM      1  C   UNL A   1      34.590  21.509  25.023  1.00  0.00     0.275 C 
ENDROOT
BRANCH   1   2
ATOM      2  O   UNL A   1      34.106  22.854  24.845  1.00  0.00    -0.458 OA
BRANCH   2   3
ATOM      3  C   UNL A   1      34.538  23.477  23.721  1.00  0.00     0.339 C 
ATOM      4  O   UNL A   1      35.099  22.959  22.775  1.00  0.00    -0.246 OA
BRANCH   3   5
ATOM      5  C   UNL A   1      34.176  24.906  23.736  1.00  0.00     0.078 A 
ATOM      6  C   UNL A   1      33.267  27.481  24.036  1.00  0.00     0.095 A 
ATOM      7  C   UNL A   1      33.366  26.941  22.753  1.00  0.00     0.031 A 
ATOM      8  N   UNL A   1      33.684  26.811  25.135  1.00  0.00    -0.254 NA
ATOM      9  C   UNL A   1      33.835  25.634  22.601  1.00  0.00     0.019 A 
ATOM     10  C   UNL A   1      34.095  25.539  24.967  1.00  0.00     0.127 A 
BRANCH   6  11
ATOM     11  C   UNL A   1      32.490  28.754  24.297  1.00  0.00     0.319 C 
BRANCH  11  12
ATOM     12  N   UNL A   1      31.031  28.606  24.474  1.00  0.00    -0.325 N 
ATOM     13  C   UNL A   1      29.621  29.419  22.634  1.00  0.00     0.245 C 
ATOM     14  C   UNL A   1      29.889  27.918  22.469  1.00  0.00     0.132 C 
ATOM     15  C   UNL A   1      30.223  29.745  24.028  1.00  0.00     0.328 C 
ATOM     16  C   UNL A   1      30.454  27.439  23.798  1.00  0.00     0.269 C 
ATOM     17  H   UNL A   1      30.982  28.515  25.489  1.00  0.00     0.348 HD
BRANCH  13  18
ATOM     18  N   UNL A   1      28.217  29.884  22.537  1.00  0.00    -0.333 N 
ATOM     19  C   UNL A   1      27.305  28.896  23.124  1.00  0.00     0.332 C 
ATOM     20  C   UNL A   1      27.980  31.188  23.156  1.00  0.00     0.332 C 
ATOM     21  H   UNL A   1      28.033  29.992  21.539  1.00  0.00     0.348 HD
ENDBRANCH  13  18
ENDBRANCH  11  12
ENDBRANCH   6  11
ENDBRANCH   3   5
ENDBRANCH   2   3
ENDBRANCH   1   2
BRANCH   1  22
ATOM     22  C   UNL A   1      35.819  21.499  25.930  1.00  0.00     0.275 C 
BRANCH  22  23
ATOM     23  O   UNL A   1      37.012  21.791  25.177  1.00  0.00    -0.458 OA
BRANCH  23  24
ATOM     24  C   UNL A   1      38.168  21.352  25.727  1.00  0.00     0.338 C 
ATOM     25  O   UNL A   1      38.648  20.234  25.644  1.00  0.00    -0.246 OA
BRANCH  24  26
ATOM     26  C   UNL A   1      38.869  22.465  26.386  1.00  0.00     0.060 A 
ATOM     27  C   UNL A   1      38.422  23.756  26.135  1.00  0.00     0.016 A 
ATOM     28  C   UNL A   1      40.047  22.264  27.098  1.00  0.00     0.016 A 
ATOM     29  C   UNL A   1      39.205  24.853  26.473  1.00  0.00     0.010 A 
ATOM     30  C   UNL A   1      40.762  23.375  27.566  1.00  0.00     0.010 A 
ATOM     31  C   UNL A   1      40.370  24.687  27.231  1.00  0.00    -0.014 A 
BRANCH  31  32
ATOM     32  C   UNL A   1      41.150  25.877  27.687  1.00  0.00     0.031 A 
ATOM     33  C   UNL A   1      40.504  26.948  28.527  1.00  0.00     0.074 A 
ATOM     34  C   UNL A   1      42.443  26.015  27.320  1.00  0.00     0.049 A 
ATOM     35  N   UNL A   1      40.955  28.134  28.846  1.00  0.00    -0.248 NA
ATOM     36  C   UNL A   1      39.165  26.657  29.067  1.00  0.00     0.031 C 
ATOM     37  C   UNL A   1      43.207  25.053  26.521  1.00  0.00     0.029 A 
ATOM     38  N   UNL A   1      43.342  27.030  27.553  1.00  0.00    -0.354 N 
ATOM     39  C   UNL A   1      39.932  28.759  29.552  1.00  0.00     0.074 A 
ATOM     40  C   UNL A   1      38.838  27.815  29.626  1.00  0.00     0.031 C 
ATOM     41  C   UNL A   1      44.455  25.507  26.349  1.00  0.00     0.029 A 
ATOM     42  C   UNL A   1      44.554  26.840  26.927  1.00  0.00     0.049 A 
ATOM     43  H   UNL A   1      43.140  27.813  28.113  1.00  0.00     0.167 HD
ATOM     44  C   UNL A   1      39.909  30.004  30.089  1.00  0.00     0.034 A 
ATOM     45  C   UNL A   1      45.609  27.663  26.770  1.00  0.00     0.034 A 
ATOM     46  C   UNL A   1      41.025  30.914  30.068  1.00  0.00     0.049 A 
ATOM     47  C   UNL A   1      45.550  29.041  27.359  1.00  0.00     0.074 A 
ATOM     48  C   UNL A   1      41.117  32.174  30.635  1.00  0.00     0.029 A 
ATOM     49  N   UNL A   1      42.241  30.667  29.447  1.00  0.00    -0.354 N 
ATOM     50  N   UNL A   1      44.596  29.595  28.066  1.00  0.00    -0.248 NA
ATOM     51  C   UNL A   1      46.716  29.906  27.136  1.00  0.00     0.031 C 
ATOM     52  C   UNL A   1      42.377  32.702  30.327  1.00  0.00     0.029 A 
ATOM     53  C   UNL A   1      43.082  31.757  29.600  1.00  0.00     0.049 A 
ATOM     54  H   UNL A   1      42.471  29.839  28.969  1.00  0.00     0.167 HD
ATOM     55  C   UNL A   1      45.052  30.866  28.389  1.00  0.00     0.074 A 
ATOM     56  C   UNL A   1      46.382  30.987  27.827  1.00  0.00     0.031 C 
ATOM     57  C   UNL A   1      44.417  31.852  29.070  1.00  0.00     0.034 A 
BRANCH  44  58
ATOM     58  C   UNL A   1      38.635  30.464  30.757  1.00  0.00     0.023 A 
ATOM     59  C   UNL A   1      38.447  30.263  32.139  1.00  0.00     0.012 A 
ATOM     60  C   UNL A   1      37.652  31.156  30.020  1.00  0.00     0.148 A 
ATOM     61  C   UNL A   1      37.286  30.714  32.770  1.00  0.00     0.002 A 
ATOM     62  C   UNL A   1      36.521  31.643  30.665  1.00  0.00     0.091 A 
ATOM     63  F   UNL A   1      37.841  31.324  28.704  1.00  0.00    -0.205 F 
ATOM     64  C   UNL A   1      36.330  31.412  32.037  1.00  0.00     0.022 A 
BRANCH  62  65
ATOM     65  S   UNL A   1      35.270  32.623  29.825  1.00  0.00     0.127 S 
ATOM     66  O   UNL A   1      34.330  32.897  30.911  1.00  0.00    -0.237 OA
ATOM     67  O   UNL A   1      36.040  33.785  29.378  1.00  0.00    -0.237 OA
ATOM     68  O   UNL A   1      34.755  31.786  28.751  1.00  0.00    -0.744 OA
ENDBRANCH  62  65
ENDBRANCH  44  58
BRANCH  45  69
ATOM     69  C   UNL A   1      46.801  27.202  26.000  1.00  0.00     0.023 A 
ATOM     70  C   UNL A   1      46.848  27.398  24.607  1.00  0.00     0.012 A 
ATOM     71  C   UNL A   1      47.905  26.610  26.648  1.00  0.00     0.148 A 
ATOM     72  C   UNL A   1      47.962  26.993  23.871  1.00  0.00     0.002 A 
ATOM     73  C   UNL A   1      49.037  26.271  25.918  1.00  0.00     0.091 A 
ATOM     74  F   UNL A   1      47.834  26.413  27.973  1.00  0.00    -0.205 F 
ATOM     75  C   UNL A   1      49.062  26.445  24.526  1.00  0.00     0.022 A 
BRANCH  73  76
ATOM     76  S   UNL A   1      50.550  25.699  26.702  1.00  0.00     0.127 S 
ATOM     77  O   UNL A   1      50.838  26.791  27.628  1.00  0.00    -0.237 OA
ATOM     78  O   UNL A   1      50.110  24.454  27.334  1.00  0.00    -0.237 OA
ATOM     79  O   UNL A   1      51.509  25.516  25.621  1.00  0.00    -0.744 OA
ENDBRANCH  73  76
ENDBRANCH  45  69
BRANCH  57  80
ATOM     80  C   UNL A   1      45.166  33.144  29.270  1.00  0.00     0.023 A 
ATOM     81  C   UNL A   1      46.007  33.299  30.391  1.00  0.00     0.012 A 
ATOM     82  C   UNL A   1      45.076  34.182  28.324  1.00  0.00     0.148 A 
ATOM     83  C   UNL A   1      46.717  34.483  30.585  1.00  0.00     0.002 A 
ATOM     84  C   UNL A   1      45.827  35.337  28.496  1.00  0.00     0.091 A 
ATOM     85  F   UNL A   1      44.257  34.021  27.274  1.00  0.00    -0.205 F 
ATOM     86  C   UNL A   1      46.637  35.496  29.633  1.00  0.00     0.022 A 
BRANCH  84  87
ATOM     87  S   UNL A   1      45.860  36.658  27.279  1.00  0.00     0.127 S 
ATOM     88  O   UNL A   1      46.727  37.640  27.927  1.00  0.00    -0.237 OA
ATOM     89  O   UNL A   1      46.454  35.992  26.118  1.00  0.00    -0.237 OA
ATOM     90  O   UNL A   1      44.476  37.073  27.096  1.00  0.00    -0.744 OA
ENDBRANCH  84  87
ENDBRANCH  57  80
ENDBRANCH  31  32
ENDBRANCH  24  26
ENDBRANCH  23  24
ENDBRANCH  22  23
ENDBRANCH   1  22
TORSDOF 17
ENDMDL
MODEL 3
REMARK VINA RESULT:     -11.1      4.948     10.162
REMARK SMILES C[NH+](C)[C@@H]1CC[N@@H+](Cc2ccc(C(=O)OCCOC(=O)c3ccc(-c4c5nc(c(-c6cccc(S(=O)(=O)[O-])c6F)c6ccc([nH]6)c(-c6cccc(S(=O)(=O)[O-])c6F)c6nc(c(-c7cccc(S(=O)(=O)[O-])c7F)c7ccc4[nH]7)C=C6)C=C5)cc3)cn2)C1
REMARK SMILES IDX 16 1 15 2 13 3 14 4 12 5 9 6 10 7 85 8 11 9 84 10 8 11 7 12
REMARK SMILES IDX 4 13 5 14 86 15 6 16 2 18 1 19 3 20 17 22 18 23 19 24 20 25
REMARK SMILES IDX 21 26 22 27 83 28 23 29 82 30 24 31 25 32 26 33 76 34 27 35
REMARK SMILES IDX 81 36 75 37 77 38 28 39 80 40 74 41 73 42 29 44 61 45 41 46
REMARK SMILES IDX 60 47 42 48 45 49 59 50 78 51 43 52 44 53 58 55 79 56 46 57
REMARK SMILES IDX 30 58 31 59 39 60 32 61 34 62 40 63 33 64 35 65 36 66 37 67
REMARK SMILES IDX 38 68 62 69 63 70 71 71 64 72 66 73 72 74 65 75 67 76 68 77
REMARK SMILES IDX 69 78 70 79 47 80 48 81 56 82 49 83 51 84 57 85 50 86 52 87
REMARK SMILES IDX 53 88 54 89 55 90
REMARK H PARENT 7 17 2 21 77 43 45 54
REMARK Flexibility Score: inf
ROOT
ATOM      1  C   UNL A   1      35.188  20.328  25.039  1.00  0.00     0.275 C 
ENDROOT
BRANCH   1   2
ATOM      2  O   UNL A   1      33.862  20.164  25.580  1.00  0.00    -0.458 OA
BRANCH   2   3
ATOM      3  C   UNL A   1      32.878  20.023  24.658  1.00  0.00     0.339 C 
ATOM      4  O   UNL A   1      32.503  18.984  24.152  1.00  0.00    -0.246 OA
BRANCH   3   5
ATOM      5  C   UNL A   1      32.233  21.317  24.373  1.00  0.00     0.078 A 
ATOM      6  C   UNL A   1      31.358  23.833  23.702  1.00  0.00     0.095 A 
ATOM      7  C   UNL A   1      31.066  23.330  24.970  1.00  0.00     0.031 A 
ATOM      8  N   UNL A   1      31.984  23.094  22.758  1.00  0.00    -0.254 NA
ATOM      9  C   UNL A   1      31.505  22.048  25.308  1.00  0.00     0.019 A 
ATOM     10  C   UNL A   1      32.432  21.877  23.120  1.00  0.00     0.127 A 
BRANCH   6  11
ATOM     11  C   UNL A   1      31.187  25.303  23.380  1.00  0.00     0.319 C 
BRANCH  11  12
ATOM     12  N   UNL A   1      30.519  26.126  24.409  1.00  0.00    -0.325 N 
ATOM     13  C   UNL A   1      31.670  28.192  25.072  1.00  0.00     0.245 C 
ATOM     14  C   UNL A   1      30.644  28.491  23.972  1.00  0.00     0.132 C 
ATOM     15  C   UNL A   1      31.401  26.704  25.426  1.00  0.00     0.328 C 
ATOM     16  C   UNL A   1      29.755  27.259  23.876  1.00  0.00     0.269 C 
ATOM     17  H   UNL A   1      29.908  25.425  24.829  1.00  0.00     0.348 HD
BRANCH  13  18
ATOM     18  N   UNL A   1      31.648  29.042  26.287  1.00  0.00    -0.333 N 
ATOM     19  C   UNL A   1      32.664  28.595  27.247  1.00  0.00     0.332 C 
ATOM     20  C   UNL A   1      31.831  30.467  26.015  1.00  0.00     0.332 C 
ATOM     21  H   UNL A   1      30.713  28.933  26.680  1.00  0.00     0.348 HD
ENDBRANCH  13  18
ENDBRANCH  11  12
ENDBRANCH   6  11
ENDBRANCH   3   5
ENDBRANCH   2   3
ENDBRANCH   1   2
BRANCH   1  22
ATOM     22  C   UNL A   1      35.930  21.443  25.773  1.00  0.00     0.275 C 
BRANCH  22  23
ATOM     23  O   UNL A   1      37.177  21.744  25.116  1.00  0.00    -0.458 OA
BRANCH  23  24
ATOM     24  C   UNL A   1      38.289  21.311  25.756  1.00  0.00     0.338 C 
ATOM     25  O   UNL A   1      38.751  20.182  25.750  1.00  0.00    -0.246 OA
BRANCH  24  26
ATOM     26  C   UNL A   1      38.969  22.439  26.409  1.00  0.00     0.060 A 
ATOM     27  C   UNL A   1      38.524  23.723  26.120  1.00  0.00     0.016 A 
ATOM     28  C   UNL A   1      40.130  22.258  27.153  1.00  0.00     0.016 A 
ATOM     29  C   UNL A   1      39.294  24.830  26.455  1.00  0.00     0.010 A 
ATOM     30  C   UNL A   1      40.830  23.381  27.616  1.00  0.00     0.010 A 
ATOM     31  C   UNL A   1      40.442  24.684  27.245  1.00  0.00    -0.014 A 
BRANCH  31  32
ATOM     32  C   UNL A   1      41.206  25.887  27.695  1.00  0.00     0.031 A 
ATOM     33  C   UNL A   1      40.545  26.954  28.528  1.00  0.00     0.074 A 
ATOM     34  C   UNL A   1      42.497  26.039  27.328  1.00  0.00     0.049 A 
ATOM     35  N   UNL A   1      40.981  28.147  28.842  1.00  0.00    -0.248 NA
ATOM     36  C   UNL A   1      39.210  26.649  29.069  1.00  0.00     0.031 C 
ATOM     37  C   UNL A   1      43.274  25.082  26.535  1.00  0.00     0.029 A 
ATOM     38  N   UNL A   1      43.383  27.066  27.557  1.00  0.00    -0.354 N 
ATOM     39  C   UNL A   1      39.949  28.763  29.543  1.00  0.00     0.074 A 
ATOM     40  C   UNL A   1      38.867  27.805  29.621  1.00  0.00     0.031 C 
ATOM     41  C   UNL A   1      44.517  25.551  26.363  1.00  0.00     0.029 A 
ATOM     42  C   UNL A   1      44.598  26.888  26.933  1.00  0.00     0.049 A 
ATOM     43  H   UNL A   1      43.170  27.850  28.113  1.00  0.00     0.167 HD
ATOM     44  C   UNL A   1      39.910  30.010  30.074  1.00  0.00     0.034 A 
ATOM     45  C   UNL A   1      45.643  27.723  26.773  1.00  0.00     0.034 A 
ATOM     46  C   UNL A   1      41.014  30.934  30.049  1.00  0.00     0.049 A 
ATOM     47  C   UNL A   1      45.566  29.104  27.355  1.00  0.00     0.074 A 
ATOM     48  C   UNL A   1      41.090  32.198  30.609  1.00  0.00     0.029 A 
ATOM     49  N   UNL A   1      42.234  30.699  29.431  1.00  0.00    -0.354 N 
ATOM     50  N   UNL A   1      44.604  29.649  28.058  1.00  0.00    -0.248 NA
ATOM     51  C   UNL A   1      46.721  29.982  27.129  1.00  0.00     0.031 C 
ATOM     52  C   UNL A   1      42.343  32.740  30.300  1.00  0.00     0.029 A 
ATOM     53  C   UNL A   1      43.061  31.801  29.579  1.00  0.00     0.049 A 
ATOM     54  H   UNL A   1      42.475  29.871  28.957  1.00  0.00     0.167 HD
ATOM     55  C   UNL A   1      45.044  30.928  28.374  1.00  0.00     0.074 A 
ATOM     56  C   UNL A   1      46.372  31.063  27.814  1.00  0.00     0.031 C 
ATOM     57  C   UNL A   1      44.396  31.909  29.050  1.00  0.00     0.034 A 
BRANCH  44  58
ATOM     58  C   UNL A   1      38.630  30.457  30.738  1.00  0.00     0.023 A 
ATOM     59  C   UNL A   1      38.435  30.245  32.117  1.00  0.00     0.012 A 
ATOM     60  C   UNL A   1      37.647  31.150  30.001  1.00  0.00     0.148 A 
ATOM     61  C   UNL A   1      37.268  30.684  32.745  1.00  0.00     0.002 A 
ATOM     62  C   UNL A   1      36.509  31.625  30.643  1.00  0.00     0.091 A 
ATOM     63  F   UNL A   1      37.842  31.329  28.687  1.00  0.00    -0.205 F 
ATOM     64  C   UNL A   1      36.312  31.382  32.012  1.00  0.00     0.022 A 
BRANCH  62  65
ATOM     65  S   UNL A   1      35.258  32.604  29.803  1.00  0.00     0.127 S 
ATOM     66  O   UNL A   1      34.758  31.656  28.808  1.00  0.00    -0.237 OA
ATOM     67  O   UNL A   1      34.319  32.899  30.888  1.00  0.00    -0.237 OA
ATOM     68  O   UNL A   1      35.949  33.767  29.265  1.00  0.00    -0.744 OA
ENDBRANCH  62  65
ENDBRANCH  44  58
BRANCH  45  69
ATOM     69  C   UNL A   1      46.841  27.274  26.007  1.00  0.00     0.023 A 
ATOM     70  C   UNL A   1      46.911  27.511  24.621  1.00  0.00     0.012 A 
ATOM     71  C   UNL A   1      47.930  26.652  26.653  1.00  0.00     0.148 A 
ATOM     72  C   UNL A   1      48.031  27.117  23.890  1.00  0.00     0.002 A 
ATOM     73  C   UNL A   1      49.069  26.323  25.930  1.00  0.00     0.091 A 
ATOM     74  F   UNL A   1      47.838  26.417  27.970  1.00  0.00    -0.205 F 
ATOM     75  C   UNL A   1      49.116  26.537  24.544  1.00  0.00     0.022 A 
BRANCH  73  76
ATOM     76  S   UNL A   1      50.565  25.713  26.717  1.00  0.00     0.127 S 
ATOM     77  O   UNL A   1      50.105  24.453  27.295  1.00  0.00    -0.237 OA
ATOM     78  O   UNL A   1      51.471  25.572  25.576  1.00  0.00    -0.237 OA
ATOM     79  O   UNL A   1      50.957  26.741  27.670  1.00  0.00    -0.744 OA
ENDBRANCH  73  76
ENDBRANCH  45  69
BRANCH  57  80
ATOM     80  C   UNL A   1      45.128  33.211  29.244  1.00  0.00     0.023 A 
ATOM     81  C   UNL A   1      45.929  33.400  30.388  1.00  0.00     0.012 A 
ATOM     82  C   UNL A   1      45.062  34.226  28.270  1.00  0.00     0.148 A 
ATOM     83  C   UNL A   1      46.624  34.594  30.578  1.00  0.00     0.002 A 
ATOM     84  C   UNL A   1      45.799  35.391  28.440  1.00  0.00     0.091 A 
ATOM     85  F   UNL A   1      44.280  34.034  27.198  1.00  0.00    -0.205 F 
ATOM     86  C   UNL A   1      46.568  35.583  29.600  1.00  0.00     0.022 A 
BRANCH  84  87
ATOM     87  S   UNL A   1      45.864  36.683  27.193  1.00  0.00     0.127 S 
ATOM     88  O   UNL A   1      46.409  35.963  26.045  1.00  0.00    -0.237 OA
ATOM     89  O   UNL A   1      44.454  37.058  27.065  1.00  0.00    -0.237 OA
ATOM     90  O   UNL A   1      46.720  37.728  27.739  1.00  0.00    -0.744 OA
ENDBRANCH  84  87
ENDBRANCH  57  80
ENDBRANCH  31  32
ENDBRANCH  24  26
ENDBRANCH  23  24
ENDBRANCH  22  23
ENDBRANCH   1  22
TORSDOF 17
ENDMDL
