MODEL 1
REMARK VINA RESULT:     -11.5      0.000      0.000
REMARK SMILES C[C@@H]1[C@@H](C(=O)OCCOC(=O)c2ccc(-c3c4nc(c(-c5cccc(S(=O)(=O)[O-])c5F)c5ccc([nH]5)c(-c5cccc(S(=O)(=O)[O-])c5F)c5nc(c(-c6cccc(S(=O)(=O)[O-])c6F)c6ccc3[nH]6)C=C5)C=C4)cc2)CCN1C(=O)[C@@H](C)OCc1ccccc1
REMARK SMILES IDX 7 1 6 2 4 3 5 4 3 5 1 6 2 7 77 8 75 9 76 10 78 11 79 12
REMARK SMILES IDX 80 13 81 14 82 15 83 16 84 17 85 18 89 19 86 20 88 21 87 22
REMARK SMILES IDX 8 23 9 24 10 25 11 26 12 27 13 28 74 29 14 30 73 31 15 32
REMARK SMILES IDX 16 33 17 34 67 35 18 36 72 37 66 38 68 39 19 40 71 41 65 42
REMARK SMILES IDX 64 43 20 45 52 46 32 47 51 48 33 49 36 50 50 51 69 52 34 53
REMARK SMILES IDX 35 54 49 56 70 57 37 58 21 59 22 60 30 61 23 62 25 63 31 64
REMARK SMILES IDX 24 65 26 66 27 67 28 68 29 69 53 70 54 71 62 72 55 73 57 74
REMARK SMILES IDX 63 75 56 76 58 77 59 78 60 79 61 80 38 81 39 82 47 83 40 84
REMARK SMILES IDX 42 85 48 86 41 87 43 88 44 89 45 90 46 91
REMARK H PARENT 68 44 36 55
REMARK Flexibility Score: inf
ROOT
ATOM      1  C   UNL A   1      32.465  29.028  23.877  1.00  0.00     0.274 C 
ENDROOT
BRANCH   1   2
ATOM      2  O   UNL A   1      33.034  27.708  23.796  1.00  0.00    -0.462 OA
BRANCH   2   3
ATOM      3  C   UNL A   1      33.134  27.170  22.546  1.00  0.00     0.311 C 
ATOM      4  O   UNL A   1      33.879  27.585  21.672  1.00  0.00    -0.252 OA
BRANCH   3   5
ATOM      5  C   UNL A   1      32.152  26.020  22.395  1.00  0.00     0.123 C 
ATOM      6  C   UNL A   1      30.276  24.739  23.492  1.00  0.00     0.032 C 
ATOM      7  C   UNL A   1      31.579  25.526  23.731  1.00  0.00     0.096 C 
ATOM      8  N   UNL A   1      32.621  24.671  24.280  1.00  0.00    -0.337 N 
ATOM      9  C   UNL A   1      32.901  24.778  21.921  1.00  0.00     0.039 C 
ATOM     10  C   UNL A   1      33.503  24.232  23.212  1.00  0.00     0.121 C 
BRANCH   8  11
ATOM     11  C   UNL A   1      33.013  24.429  25.579  1.00  0.00     0.251 C 
ATOM     12  O   UNL A   1      33.244  25.410  26.308  1.00  0.00    -0.272 OA
BRANCH  11  13
ATOM     13  C   UNL A   1      33.004  23.015  26.273  1.00  0.00     0.204 C 
ATOM     14  C   UNL A   1      31.521  22.563  26.284  1.00  0.00     0.049 C 
BRANCH  13  15
ATOM     15  O   UNL A   1      33.925  21.945  26.352  1.00  0.00    -0.364 OA
BRANCH  15  16
ATOM     16  C   UNL A   1      34.824  21.583  25.312  1.00  0.00     0.196 C 
BRANCH  16  17
ATOM     17  C   UNL A   1      34.451  20.291  24.631  1.00  0.00    -0.022 A 
ATOM     18  C   UNL A   1      32.908  20.350  23.740  1.00  0.00     0.006 A 
ATOM     19  C   UNL A   1      35.342  18.776  24.887  1.00  0.00     0.006 A 
ATOM     20  C   UNL A   1      32.151  19.002  22.947  1.00  0.00     0.000 A 
ATOM     21  C   UNL A   1      34.625  17.256  24.213  1.00  0.00     0.000 A 
ATOM     22  C   UNL A   1      32.903  17.409  23.159  1.00  0.00     0.000 A 
ENDBRANCH  16  17
ENDBRANCH  15  16
ENDBRANCH  13  15
ENDBRANCH  11  13
ENDBRANCH   8  11
ENDBRANCH   3   5
ENDBRANCH   2   3
ENDBRANCH   1   2
BRANCH   1  23
ATOM     23  C   UNL A   1      32.899  29.744  25.157  1.00  0.00     0.275 C 
BRANCH  23  24
ATOM     24  O   UNL A   1      31.772  30.299  25.858  1.00  0.00    -0.458 OA
BRANCH  24  25
ATOM     25  C   UNL A   1      32.077  31.278  26.736  1.00  0.00     0.338 C 
ATOM     26  O   UNL A   1      31.361  32.181  27.132  1.00  0.00    -0.246 OA
BRANCH  25  27
ATOM     27  C   UNL A   1      33.424  31.070  27.242  1.00  0.00     0.060 A 
ATOM     28  C   UNL A   1      33.933  29.427  27.761  1.00  0.00     0.016 A 
ATOM     29  C   UNL A   1      34.503  32.427  27.602  1.00  0.00     0.016 A 
ATOM     30  C   UNL A   1      35.694  29.260  28.727  1.00  0.00     0.010 A 
ATOM     31  C   UNL A   1      36.081  32.230  28.434  1.00  0.00     0.010 A 
ATOM     32  C   UNL A   1      36.711  30.676  28.982  1.00  0.00    -0.014 A 
BRANCH  32  33
ATOM     33  C   UNL A   1      37.945  30.314  29.717  1.00  0.00     0.031 A 
ATOM     34  C   UNL A   1      37.997  30.631  31.154  1.00  0.00     0.074 A 
ATOM     35  C   UNL A   1      38.842  29.448  29.175  1.00  0.00     0.049 A 
ATOM     36  N   UNL A   1      38.984  30.432  31.972  1.00  0.00    -0.248 NA
ATOM     37  C   UNL A   1      36.815  31.269  31.749  1.00  0.00     0.031 C 
ATOM     38  C   UNL A   1      38.813  28.976  27.794  1.00  0.00     0.029 A 
ATOM     39  N   UNL A   1      39.890  28.725  29.692  1.00  0.00    -0.354 N 
ATOM     40  C   UNL A   1      38.595  31.033  33.151  1.00  0.00     0.074 A 
ATOM     41  C   UNL A   1      37.266  31.566  32.956  1.00  0.00     0.031 C 
ATOM     42  C   UNL A   1      39.602  27.912  27.625  1.00  0.00     0.029 A 
ATOM     43  C   UNL A   1      40.460  27.846  28.783  1.00  0.00     0.049 A 
ATOM     44  H   UNL A   1      40.207  28.822  30.620  1.00  0.00     0.167 HD
ATOM     45  C   UNL A   1      39.333  31.150  34.270  1.00  0.00     0.034 A 
ATOM     46  C   UNL A   1      41.628  27.177  28.797  1.00  0.00     0.034 A 
ATOM     47  C   UNL A   1      40.652  30.598  34.387  1.00  0.00     0.049 A 
ATOM     48  C   UNL A   1      42.479  27.432  29.998  1.00  0.00     0.074 A 
ATOM     49  C   UNL A   1      41.543  30.719  35.431  1.00  0.00     0.029 A 
ATOM     50  N   UNL A   1      41.271  29.828  33.408  1.00  0.00    -0.354 N 
ATOM     51  N   UNL A   1      42.169  28.121  31.070  1.00  0.00    -0.248 NA
ATOM     52  C   UNL A   1      43.829  26.868  29.998  1.00  0.00     0.031 C 
ATOM     53  C   UNL A   1      42.723  30.068  35.061  1.00  0.00     0.029 A 
ATOM     54  C   UNL A   1      42.539  29.471  33.821  1.00  0.00     0.049 A 
ATOM     55  H   UNL A   1      40.866  29.574  32.548  1.00  0.00     0.167 HD
ATOM     56  C   UNL A   1      43.274  28.055  31.891  1.00  0.00     0.074 A 
ATOM     57  C   UNL A   1      44.254  27.233  31.200  1.00  0.00     0.031 C 
ATOM     58  C   UNL A   1      43.463  28.628  33.102  1.00  0.00     0.034 A 
BRANCH  45  59
ATOM     59  C   UNL A   1      38.761  32.017  35.346  1.00  0.00     0.023 A 
ATOM     60  C   UNL A   1      38.858  33.420  35.278  1.00  0.00     0.012 A 
ATOM     61  C   UNL A   1      38.196  31.408  36.481  1.00  0.00     0.148 A 
ATOM     62  C   UNL A   1      38.444  34.205  36.352  1.00  0.00     0.002 A 
ATOM     63  C   UNL A   1      37.726  32.197  37.517  1.00  0.00     0.091 A 
ATOM     64  F   UNL A   1      38.166  30.070  36.541  1.00  0.00    -0.205 F 
ATOM     65  C   UNL A   1      37.868  33.594  37.465  1.00  0.00     0.022 A 
BRANCH  63  66
ATOM     66  S   UNL A   1      36.909  31.505  38.953  1.00  0.00     0.127 S 
ATOM     67  O   UNL A   1      37.919  31.701  39.993  1.00  0.00    -0.237 OA
ATOM     68  O   UNL A   1      35.735  32.368  39.072  1.00  0.00    -0.237 OA
ATOM     69  O   UNL A   1      36.621  30.115  38.630  1.00  0.00    -0.744 OA
ENDBRANCH  63  66
ENDBRANCH  45  59
BRANCH  46  70
ATOM     70  C   UNL A   1      42.122  26.374  27.629  1.00  0.00     0.023 A 
ATOM     71  C   UNL A   1      42.762  27.018  26.552  1.00  0.00     0.012 A 
ATOM     72  C   UNL A   1      41.938  24.974  27.557  1.00  0.00     0.148 A 
ATOM     73  C   UNL A   1      43.177  26.296  25.427  1.00  0.00     0.002 A 
ATOM     74  C   UNL A   1      42.411  24.252  26.464  1.00  0.00     0.091 A 
ATOM     75  F   UNL A   1      41.299  24.361  28.564  1.00  0.00    -0.205 F 
ATOM     76  C   UNL A   1      43.013  24.915  25.387  1.00  0.00     0.022 A 
BRANCH  74  77
ATOM     77  S   UNL A   1      42.338  22.456  26.381  1.00  0.00     0.127 S 
ATOM     78  O   UNL A   1      40.931  22.201  26.677  1.00  0.00    -0.237 OA
ATOM     79  O   UNL A   1      42.733  22.201  24.997  1.00  0.00    -0.237 OA
ATOM     80  O   UNL A   1      43.289  21.975  27.375  1.00  0.00    -0.744 OA
ENDBRANCH  74  77
ENDBRANCH  46  70
BRANCH  58  81
ATOM     81  C   UNL A   1      44.745  28.288  33.789  1.00  0.00     0.023 A 
ATOM     82  C   UNL A   1      45.885  29.099  33.633  1.00  0.00     0.012 A 
ATOM     83  C   UNL A   1      44.782  27.168  34.636  1.00  0.00     0.148 A 
ATOM     84  C   UNL A   1      47.066  28.768  34.290  1.00  0.00     0.002 A 
ATOM     85  C   UNL A   1      45.935  26.890  35.343  1.00  0.00     0.091 A 
ATOM     86  F   UNL A   1      43.682  26.406  34.736  1.00  0.00    -0.205 F 
ATOM     87  C   UNL A   1      47.085  27.675  35.157  1.00  0.00     0.022 A 
BRANCH  85  88
ATOM     88  S   UNL A   1      46.006  25.580  36.563  1.00  0.00     0.127 S 
ATOM     89  O   UNL A   1      45.839  24.391  35.730  1.00  0.00    -0.237 OA
ATOM     90  O   UNL A   1      47.347  25.757  37.119  1.00  0.00    -0.237 OA
ATOM     91  O   UNL A   1      44.921  25.836  37.501  1.00  0.00    -0.744 OA
ENDBRANCH  85  88
ENDBRANCH  58  81
ENDBRANCH  32  33
ENDBRANCH  25  27
ENDBRANCH  24  25
ENDBRANCH  23  24
ENDBRANCH   1  23
TORSDOF 19
ENDMDL
MODEL 2
REMARK VINA RESULT:     -11.3      2.250      3.016
REMARK SMILES C[C@@H]1[C@@H](C(=O)OCCOC(=O)c2ccc(-c3c4nc(c(-c5cccc(S(=O)(=O)[O-])c5F)c5ccc([nH]5)c(-c5cccc(S(=O)(=O)[O-])c5F)c5nc(c(-c6cccc(S(=O)(=O)[O-])c6F)c6ccc3[nH]6)C=C5)C=C4)cc2)CCN1C(=O)[C@@H](C)OCc1ccccc1
REMARK SMILES IDX 7 1 6 2 4 3 5 4 3 5 1 6 2 7 77 8 75 9 76 10 78 11 79 12
REMARK SMILES IDX 80 13 81 14 82 15 83 16 84 17 85 18 89 19 86 20 88 21 87 22
REMARK SMILES IDX 8 23 9 24 10 25 11 26 12 27 13 28 74 29 14 30 73 31 15 32
REMARK SMILES IDX 16 33 17 34 67 35 18 36 72 37 66 38 68 39 19 40 71 41 65 42
REMARK SMILES IDX 64 43 20 45 52 46 32 47 51 48 33 49 36 50 50 51 69 52 34 53
REMARK SMILES IDX 35 54 49 56 70 57 37 58 21 59 22 60 30 61 23 62 25 63 31 64
REMARK SMILES IDX 24 65 26 66 27 67 28 68 29 69 53 70 54 71 62 72 55 73 57 74
REMARK SMILES IDX 63 75 56 76 58 77 59 78 60 79 61 80 38 81 39 82 47 83 40 84
REMARK SMILES IDX 42 85 48 86 41 87 43 88 44 89 45 90 46 91
REMARK H PARENT 68 44 36 55
REMARK Flexibility Score: inf
ROOT
ATOM      1  C   UNL A   1      31.964  30.797  26.517  1.00  0.00     0.274 C 
ENDROOT
BRANCH   1   2
ATOM      2  O   UNL A   1      31.029  30.145  25.636  1.00  0.00    -0.462 OA
BRANCH   2   3
ATOM      3  C   UNL A   1      31.568  29.358  24.661  1.00  0.00     0.311 C 
ATOM      4  O   UNL A   1      31.557  29.625  23.470  1.00  0.00    -0.252 OA
BRANCH   3   5
ATOM      5  C   UNL A   1      32.137  28.088  25.274  1.00  0.00     0.123 C 
ATOM      6  C   UNL A   1      33.836  26.242  25.012  1.00  0.00     0.032 C 
ATOM      7  C   UNL A   1      32.898  27.212  24.269  1.00  0.00     0.096 C 
ATOM      8  N   UNL A   1      31.856  26.495  23.549  1.00  0.00    -0.337 N 
ATOM      9  C   UNL A   1      30.991  27.160  25.663  1.00  0.00     0.039 C 
ATOM     10  C   UNL A   1      30.637  26.486  24.340  1.00  0.00     0.121 C 
BRANCH   8  11
ATOM     11  C   UNL A   1      31.778  26.067  22.242  1.00  0.00     0.251 C 
ATOM     12  O   UNL A   1      31.011  26.678  21.475  1.00  0.00    -0.272 OA
BRANCH  11  13
ATOM     13  C   UNL A   1      32.724  24.990  21.589  1.00  0.00     0.204 C 
ATOM     14  C   UNL A   1      32.777  25.340  20.080  1.00  0.00     0.049 C 
BRANCH  13  15
ATOM     15  O   UNL A   1      33.840  24.248  22.040  1.00  0.00    -0.364 OA
BRANCH  15  16
ATOM     16  C   UNL A   1      33.783  22.894  22.468  1.00  0.00     0.196 C 
BRANCH  16  17
ATOM     17  C   UNL A   1      33.509  22.751  23.944  1.00  0.00    -0.022 A 
ATOM     18  C   UNL A   1      31.795  22.937  24.395  1.00  0.00     0.006 A 
ATOM     19  C   UNL A   1      34.804  22.645  25.156  1.00  0.00     0.006 A 
ATOM     20  C   UNL A   1      31.175  22.938  26.017  1.00  0.00     0.000 A 
ATOM     21  C   UNL A   1      34.330  22.742  26.901  1.00  0.00     0.000 A 
ATOM     22  C   UNL A   1      32.359  22.889  27.339  1.00  0.00     0.000 A 
ENDBRANCH  16  17
ENDBRANCH  15  16
ENDBRANCH  13  15
ENDBRANCH  11  13
ENDBRANCH   8  11
ENDBRANCH   3   5
ENDBRANCH   2   3
ENDBRANCH   1   2
BRANCH   1  23
ATOM     23  C   UNL A   1      31.499  32.209  26.875  1.00  0.00     0.275 C 
BRANCH  23  24
ATOM     24  O   UNL A   1      32.555  33.171  26.700  1.00  0.00    -0.458 OA
BRANCH  24  25
ATOM     25  C   UNL A   1      32.980  33.759  27.838  1.00  0.00     0.338 C 
ATOM     26  O   UNL A   1      32.404  34.598  28.510  1.00  0.00    -0.246 OA
BRANCH  25  27
ATOM     27  C   UNL A   1      34.256  33.184  28.231  1.00  0.00     0.060 A 
ATOM     28  C   UNL A   1      34.299  31.551  28.980  1.00  0.00     0.016 A 
ATOM     29  C   UNL A   1      35.747  34.138  28.230  1.00  0.00     0.016 A 
ATOM     30  C   UNL A   1      36.047  30.938  29.775  1.00  0.00     0.010 A 
ATOM     31  C   UNL A   1      37.293  33.539  28.918  1.00  0.00     0.010 A 
ATOM     32  C   UNL A   1      37.483  31.953  29.667  1.00  0.00    -0.014 A 
BRANCH  32  33
ATOM     33  C   UNL A   1      38.639  31.303  30.324  1.00  0.00     0.031 A 
ATOM     34  C   UNL A   1      38.794  31.497  31.775  1.00  0.00     0.074 A 
ATOM     35  C   UNL A   1      39.330  30.319  29.689  1.00  0.00     0.049 A 
ATOM     36  N   UNL A   1      39.744  31.049  32.536  1.00  0.00    -0.248 NA
ATOM     37  C   UNL A   1      37.780  32.310  32.461  1.00  0.00     0.031 C 
ATOM     38  C   UNL A   1      39.169  29.964  28.282  1.00  0.00     0.029 A 
ATOM     39  N   UNL A   1      40.228  29.369  30.112  1.00  0.00    -0.354 N 
ATOM     40  C   UNL A   1      39.515  31.626  33.767  1.00  0.00     0.074 A 
ATOM     41  C   UNL A   1      38.314  32.424  33.665  1.00  0.00     0.031 C 
ATOM     42  C   UNL A   1      39.726  28.781  28.010  1.00  0.00     0.029 A 
ATOM     43  C   UNL A   1      40.586  28.464  29.123  1.00  0.00     0.049 A 
ATOM     44  H   UNL A   1      40.583  29.333  31.030  1.00  0.00     0.167 HD
ATOM     45  C   UNL A   1      40.293  31.514  34.860  1.00  0.00     0.034 A 
ATOM     46  C   UNL A   1      41.597  27.579  29.045  1.00  0.00     0.034 A 
ATOM     47  C   UNL A   1      41.478  30.706  34.885  1.00  0.00     0.049 A 
ATOM     48  C   UNL A   1      42.515  27.573  30.223  1.00  0.00     0.074 A 
ATOM     49  C   UNL A   1      42.405  30.572  35.897  1.00  0.00     0.029 A 
ATOM     50  N   UNL A   1      41.904  29.903  33.832  1.00  0.00    -0.354 N 
ATOM     51  N   UNL A   1      42.378  28.228  31.350  1.00  0.00    -0.248 NA
ATOM     52  C   UNL A   1      43.725  26.755  30.129  1.00  0.00     0.031 C 
ATOM     53  C   UNL A   1      43.420  29.731  35.435  1.00  0.00     0.029 A 
ATOM     54  C   UNL A   1      43.087  29.274  34.167  1.00  0.00     0.049 A 
ATOM     55  H   UNL A   1      41.432  29.798  32.975  1.00  0.00     0.167 HD
ATOM     56  C   UNL A   1      43.471  27.887  32.118  1.00  0.00     0.074 A 
ATOM     57  C   UNL A   1      44.248  26.941  31.333  1.00  0.00     0.031 C 
ATOM     58  C   UNL A   1      43.804  28.321  33.355  1.00  0.00     0.034 A 
BRANCH  45  59
ATOM     59  C   UNL A   1      39.935  32.395  36.014  1.00  0.00     0.023 A 
ATOM     60  C   UNL A   1      39.176  31.907  37.094  1.00  0.00     0.012 A 
ATOM     61  C   UNL A   1      40.293  33.755  35.968  1.00  0.00     0.148 A 
ATOM     62  C   UNL A   1      38.735  32.774  38.091  1.00  0.00     0.002 A 
ATOM     63  C   UNL A   1      39.907  34.597  36.996  1.00  0.00     0.091 A 
ATOM     64  F   UNL A   1      40.969  34.202  34.901  1.00  0.00    -0.205 F 
ATOM     65  C   UNL A   1      39.110  34.115  38.047  1.00  0.00     0.022 A 
BRANCH  63  66
ATOM     66  S   UNL A   1      40.402  36.319  37.060  1.00  0.00     0.127 S 
ATOM     67  O   UNL A   1      41.843  36.205  37.286  1.00  0.00    -0.237 OA
ATOM     68  O   UNL A   1      40.028  36.785  35.726  1.00  0.00    -0.237 OA
ATOM     69  O   UNL A   1      39.654  36.919  38.155  1.00  0.00    -0.744 OA
ENDBRANCH  63  66
ENDBRANCH  45  59
BRANCH  46  70
ATOM     70  C   UNL A   1      41.888  26.782  27.806  1.00  0.00     0.023 A 
ATOM     71  C   UNL A   1      42.428  27.418  26.670  1.00  0.00     0.012 A 
ATOM     72  C   UNL A   1      41.608  25.398  27.728  1.00  0.00     0.148 A 
ATOM     73  C   UNL A   1      42.652  26.705  25.486  1.00  0.00     0.002 A 
ATOM     74  C   UNL A   1      41.894  24.681  26.569  1.00  0.00     0.091 A 
ATOM     75  F   UNL A   1      41.063  24.796  28.795  1.00  0.00    -0.205 F 
ATOM     76  C   UNL A   1      42.396  25.338  25.438  1.00  0.00     0.022 A 
BRANCH  74  77
ATOM     77  S   UNL A   1      41.696  22.897  26.457  1.00  0.00     0.127 S 
ATOM     78  O   UNL A   1      42.404  22.443  27.652  1.00  0.00    -0.237 OA
ATOM     79  O   UNL A   1      40.243  22.749  26.509  1.00  0.00    -0.237 OA
ATOM     80  O   UNL A   1      42.294  22.511  25.185  1.00  0.00    -0.744 OA
ENDBRANCH  74  77
ENDBRANCH  46  70
BRANCH  58  81
ATOM     81  C   UNL A   1      45.011  27.686  33.964  1.00  0.00     0.023 A 
ATOM     82  C   UNL A   1      46.281  28.278  33.834  1.00  0.00     0.012 A 
ATOM     83  C   UNL A   1      44.850  26.509  34.714  1.00  0.00     0.148 A 
ATOM     84  C   UNL A   1      47.390  27.673  34.417  1.00  0.00     0.002 A 
ATOM     85  C   UNL A   1      45.943  25.957  35.352  1.00  0.00     0.091 A 
ATOM     86  F   UNL A   1      43.628  25.962  34.791  1.00  0.00    -0.205 F 
ATOM     87  C   UNL A   1      47.219  26.525  35.190  1.00  0.00     0.022 A 
BRANCH  85  88
ATOM     88  S   UNL A   1      45.788  24.555  36.457  1.00  0.00     0.127 S 
ATOM     89  O   UNL A   1      44.756  25.020  37.381  1.00  0.00    -0.237 OA
ATOM     90  O   UNL A   1      45.361  23.496  35.543  1.00  0.00    -0.237 OA
ATOM     91  O   UNL A   1      47.104  24.354  37.049  1.00  0.00    -0.744 OA
ENDBRANCH  85  88
ENDBRANCH  58  81
ENDBRANCH  32  33
ENDBRANCH  25  27
ENDBRANCH  24  25
ENDBRANCH  23  24
ENDBRANCH   1  23
TORSDOF 19
ENDMDL
MODEL 3
REMARK VINA RESULT:     -11.3      5.389     10.818
REMARK SMILES C[C@@H]1[C@@H](C(=O)OCCOC(=O)c2ccc(-c3c4nc(c(-c5cccc(S(=O)(=O)[O-])c5F)c5ccc([nH]5)c(-c5cccc(S(=O)(=O)[O-])c5F)c5nc(c(-c6cccc(S(=O)(=O)[O-])c6F)c6ccc3[nH]6)C=C5)C=C4)cc2)CCN1C(=O)[C@@H](C)OCc1ccccc1
REMARK SMILES IDX 7 1 6 2 4 3 5 4 3 5 1 6 2 7 77 8 75 9 76 10 78 11 79 12
REMARK SMILES IDX 80 13 81 14 82 15 83 16 84 17 85 18 89 19 86 20 88 21 87 22
REMARK SMILES IDX 8 23 9 24 10 25 11 26 12 27 13 28 74 29 14 30 73 31 15 32
REMARK SMILES IDX 16 33 17 34 67 35 18 36 72 37 66 38 68 39 19 40 71 41 65 42
REMARK SMILES IDX 64 43 20 45 52 46 32 47 51 48 33 49 36 50 50 51 69 52 34 53
REMARK SMILES IDX 35 54 49 56 70 57 37 58 21 59 22 60 30 61 23 62 25 63 31 64
REMARK SMILES IDX 24 65 26 66 27 67 28 68 29 69 53 70 54 71 62 72 55 73 57 74
REMARK SMILES IDX 63 75 56 76 58 77 59 78 60 79 61 80 38 81 39 82 47 83 40 84
REMARK SMILES IDX 42 85 48 86 41 87 43 88 44 89 45 90 46 91
REMARK H PARENT 68 44 36 55
REMARK Flexibility Score: inf
ROOT
ATOM      1  C   UNL A   1      37.099  20.370  24.629  1.00  0.00     0.274 C 
ENDROOT
BRANCH   1   2
ATOM      2  O   UNL A   1      35.775  20.065  25.107  1.00  0.00    -0.462 OA
BRANCH   2   3
ATOM      3  C   UNL A   1      34.936  21.128  25.273  1.00  0.00     0.311 C 
ATOM      4  O   UNL A   1      35.020  21.941  26.180  1.00  0.00    -0.252 OA
BRANCH   3   5
ATOM      5  C   UNL A   1      33.864  21.118  24.195  1.00  0.00     0.123 C 
ATOM      6  C   UNL A   1      32.641  22.502  22.476  1.00  0.00     0.032 C 
ATOM      7  C   UNL A   1      33.324  22.515  23.857  1.00  0.00     0.096 C 
ATOM      8  N   UNL A   1      32.370  22.802  24.917  1.00  0.00    -0.337 N 
ATOM      9  C   UNL A   1      32.609  20.443  24.739  1.00  0.00     0.039 C 
ATOM     10  C   UNL A   1      31.942  21.559  25.537  1.00  0.00     0.121 C 
BRANCH   8  11
ATOM     11  C   UNL A   1      32.019  23.983  25.535  1.00  0.00     0.251 C 
ATOM     12  O   UNL A   1      32.636  24.304  26.567  1.00  0.00    -0.272 OA
BRANCH  11  13
ATOM     13  C   UNL A   1      31.034  25.056  24.934  1.00  0.00     0.204 C 
ATOM     14  C   UNL A   1      29.960  25.295  26.026  1.00  0.00     0.049 C 
BRANCH  13  15
ATOM     15  O   UNL A   1      31.176  26.134  24.030  1.00  0.00    -0.364 OA
BRANCH  15  16
ATOM     16  C   UNL A   1      31.229  27.501  24.415  1.00  0.00     0.196 C 
BRANCH  16  17
ATOM     17  C   UNL A   1      30.063  28.307  23.900  1.00  0.00    -0.022 A 
ATOM     18  C   UNL A   1      30.307  30.071  23.956  1.00  0.00     0.006 A 
ATOM     19  C   UNL A   1      28.494  27.577  23.498  1.00  0.00     0.006 A 
ATOM     20  C   UNL A   1      29.117  31.266  23.541  1.00  0.00     0.000 A 
ATOM     21  C   UNL A   1      27.114  28.697  23.145  1.00  0.00     0.000 A 
ATOM     22  C   UNL A   1      27.482  30.687  23.165  1.00  0.00     0.000 A 
ENDBRANCH  16  17
ENDBRANCH  15  16
ENDBRANCH  13  15
ENDBRANCH  11  13
ENDBRANCH   8  11
ENDBRANCH   3   5
ENDBRANCH   2   3
ENDBRANCH   1   2
BRANCH   1  23
ATOM     23  C   UNL A   1      38.085  19.252  24.972  1.00  0.00     0.275 C 
BRANCH  23  24
ATOM     24  O   UNL A   1      38.750  19.500  26.223  1.00  0.00    -0.458 OA
BRANCH  24  25
ATOM     25  C   UNL A   1      40.087  19.656  26.133  1.00  0.00     0.338 C 
ATOM     26  O   UNL A   1      40.902  18.886  25.655  1.00  0.00    -0.246 OA
BRANCH  25  27
ATOM     27  C   UNL A   1      40.456  20.967  26.642  1.00  0.00     0.060 A 
ATOM     28  C   UNL A   1      39.934  22.441  25.756  1.00  0.00     0.016 A 
ATOM     29  C   UNL A   1      41.615  21.160  27.965  1.00  0.00     0.016 A 
ATOM     30  C   UNL A   1      40.723  24.203  26.335  1.00  0.00     0.010 A 
ATOM     31  C   UNL A   1      42.267  22.754  28.472  1.00  0.00     0.010 A 
ATOM     32  C   UNL A   1      41.829  24.280  27.704  1.00  0.00    -0.014 A 
BRANCH  32  33
ATOM     33  C   UNL A   1      42.283  25.670  27.937  1.00  0.00     0.031 A 
ATOM     34  C   UNL A   1      43.470  26.130  27.198  1.00  0.00     0.074 A 
ATOM     35  C   UNL A   1      41.466  26.570  28.545  1.00  0.00     0.049 A 
ATOM     36  N   UNL A   1      44.052  27.286  27.275  1.00  0.00    -0.248 NA
ATOM     37  C   UNL A   1      44.103  25.177  26.274  1.00  0.00     0.031 C 
ATOM     38  C   UNL A   1      40.207  26.238  29.205  1.00  0.00     0.029 A 
ATOM     39  N   UNL A   1      41.479  27.940  28.649  1.00  0.00    -0.354 N 
ATOM     40  C   UNL A   1      45.192  27.164  26.509  1.00  0.00     0.074 A 
ATOM     41  C   UNL A   1      45.200  25.835  25.940  1.00  0.00     0.031 C 
ATOM     42  C   UNL A   1      39.471  27.330  29.430  1.00  0.00     0.029 A 
ATOM     43  C   UNL A   1      40.349  28.462  29.261  1.00  0.00     0.049 A 
ATOM     44  H   UNL A   1      42.221  28.500  28.321  1.00  0.00     0.167 HD
ATOM     45  C   UNL A   1      46.154  28.091  26.354  1.00  0.00     0.034 A 
ATOM     46  C   UNL A   1      40.093  29.677  29.781  1.00  0.00     0.034 A 
ATOM     47  C   UNL A   1      46.080  29.391  26.957  1.00  0.00     0.049 A 
ATOM     48  C   UNL A   1      41.230  30.641  29.704  1.00  0.00     0.074 A 
ATOM     49  C   UNL A   1      47.025  30.394  26.954  1.00  0.00     0.029 A 
ATOM     50  N   UNL A   1      44.992  29.857  27.688  1.00  0.00    -0.354 N 
ATOM     51  N   UNL A   1      42.379  30.481  29.092  1.00  0.00    -0.248 NA
ATOM     52  C   UNL A   1      41.076  31.921  30.397  1.00  0.00     0.031 C 
ATOM     53  C   UNL A   1      46.531  31.446  27.729  1.00  0.00     0.029 A 
ATOM     54  C   UNL A   1      45.244  31.133  28.148  1.00  0.00     0.049 A 
ATOM     55  H   UNL A   1      44.163  29.351  27.853  1.00  0.00     0.167 HD
ATOM     56  C   UNL A   1      43.082  31.648  29.301  1.00  0.00     0.074 A 
ATOM     57  C   UNL A   1      42.214  32.520  30.076  1.00  0.00     0.031 C 
ATOM     58  C   UNL A   1      44.332  31.965  28.894  1.00  0.00     0.034 A 
BRANCH  45  59
ATOM     59  C   UNL A   1      47.385  27.645  25.632  1.00  0.00     0.023 A 
ATOM     60  C   UNL A   1      48.491  27.126  26.331  1.00  0.00     0.012 A 
ATOM     61  C   UNL A   1      47.463  27.833  24.240  1.00  0.00     0.148 A 
ATOM     62  C   UNL A   1      49.679  26.845  25.659  1.00  0.00     0.002 A 
ATOM     63  C   UNL A   1      48.624  27.490  23.568  1.00  0.00     0.091 A 
ATOM     64  F   UNL A   1      46.414  28.379  23.609  1.00  0.00    -0.205 F 
ATOM     65  C   UNL A   1      49.740  27.016  24.277  1.00  0.00     0.022 A 
BRANCH  63  66
ATOM     66  S   UNL A   1      48.770  27.608  21.786  1.00  0.00     0.127 S 
ATOM     67  O   UNL A   1      49.265  26.276  21.440  1.00  0.00    -0.237 OA
ATOM     68  O   UNL A   1      47.386  27.868  21.391  1.00  0.00    -0.237 OA
ATOM     69  O   UNL A   1      49.700  28.697  21.524  1.00  0.00    -0.744 OA
ENDBRANCH  63  66
ENDBRANCH  45  59
BRANCH  46  70
ATOM     70  C   UNL A   1      38.832  29.992  30.532  1.00  0.00     0.023 A 
ATOM     71  C   UNL A   1      38.623  29.451  31.816  1.00  0.00     0.012 A 
ATOM     72  C   UNL A   1      37.817  30.805  29.976  1.00  0.00     0.148 A 
ATOM     73  C   UNL A   1      37.430  29.684  32.510  1.00  0.00     0.002 A 
ATOM     74  C   UNL A   1      36.659  31.087  30.697  1.00  0.00     0.091 A 
ATOM     75  F   UNL A   1      37.996  31.295  28.741  1.00  0.00    -0.205 F 
ATOM     76  C   UNL A   1      36.454  30.510  31.957  1.00  0.00     0.022 A 
BRANCH  74  77
ATOM     77  S   UNL A   1      35.400  32.227  30.106  1.00  0.00     0.127 S 
ATOM     78  O   UNL A   1      36.186  33.431  29.846  1.00  0.00    -0.237 OA
ATOM     79  O   UNL A   1      34.909  31.543  28.912  1.00  0.00    -0.237 OA
ATOM     80  O   UNL A   1      34.424  32.333  31.183  1.00  0.00    -0.744 OA
ENDBRANCH  74  77
ENDBRANCH  46  70
BRANCH  58  81
ATOM     81  C   UNL A   1      44.781  33.358  29.199  1.00  0.00     0.023 A 
ATOM     82  C   UNL A   1      45.395  33.666  30.426  1.00  0.00     0.012 A 
ATOM     83  C   UNL A   1      44.622  34.349  28.216  1.00  0.00     0.148 A 
ATOM     84  C   UNL A   1      45.813  34.968  30.685  1.00  0.00     0.002 A 
ATOM     85  C   UNL A   1      45.108  35.620  28.451  1.00  0.00     0.091 A 
ATOM     86  F   UNL A   1      44.007  34.021  27.070  1.00  0.00    -0.205 F 
ATOM     87  C   UNL A   1      45.685  35.939  29.692  1.00  0.00     0.022 A 
BRANCH  85  88
ATOM     88  S   UNL A   1      45.091  36.890  27.187  1.00  0.00     0.127 S 
ATOM     89  O   UNL A   1      45.886  36.267  26.132  1.00  0.00    -0.237 OA
ATOM     90  O   UNL A   1      43.663  37.005  26.893  1.00  0.00    -0.237 OA
ATOM     91  O   UNL A   1      45.685  38.075  27.791  1.00  0.00    -0.744 OA
ENDBRANCH  85  88
ENDBRANCH  58  81
ENDBRANCH  32  33
ENDBRANCH  25  27
ENDBRANCH  24  25
ENDBRANCH  23  24
ENDBRANCH   1  23
TORSDOF 19
ENDMDL
