MODEL 1
REMARK VINA RESULT:     -11.7      0.000      0.000
REMARK SMILES O=C(Cn1cc(NC(=O)N2CC[N@@H+]3CCC[C@@H]3C2)cn1)OCCOC(=O)c1ccc(-c2c3nc(c(-c4cccc(S(=O)(=O)[O-])c4F)c4ccc([nH]4)c(-c4cccc(S(=O)(=O)[O-])c4F)c4nc(c(-c5cccc(S(=O)(=O)[O-])c5F)c5ccc2[nH]5)C=C4)C=C3)cc1
REMARK SMILES IDX 22 1 21 2 2 3 1 4 3 5 4 6 5 7 20 8 6 9 19 10 7 11 8 12 9 14
REMARK SMILES IDX 10 15 11 16 18 17 12 18 17 19 13 20 16 21 14 22 15 24 23 25
REMARK SMILES IDX 24 26 25 27 26 28 27 29 28 30 89 31 29 32 88 33 30 34 31 35
REMARK SMILES IDX 32 36 82 37 33 38 87 39 81 40 83 41 34 42 86 43 80 44 79 45
REMARK SMILES IDX 35 47 67 48 47 49 66 50 48 51 51 52 65 53 84 54 49 55 50 56
REMARK SMILES IDX 64 58 85 59 52 60 36 61 37 62 45 63 38 64 40 65 46 66 39 67
REMARK SMILES IDX 41 68 42 69 43 70 44 71 68 72 69 73 77 74 70 75 72 76 78 77
REMARK SMILES IDX 71 78 73 79 74 80 75 81 76 82 53 83 54 84 62 85 55 86 57 87
REMARK SMILES IDX 63 88 56 89 58 90 59 91 60 92 61 93
REMARK H PARENT 7 13 13 23 83 46 51 57
REMARK Flexibility Score: inf
ROOT
ATOM      1  C   UNL A   1      38.062  20.690  25.072  1.00  0.00     0.274 C 
ENDROOT
BRANCH   1   2
ATOM      2  O   UNL A   1      36.892  21.483  25.371  1.00  0.00    -0.461 OA
BRANCH   2   3
ATOM      3  C   UNL A   1      35.616  21.051  25.549  1.00  0.00     0.327 C 
ATOM      4  O   UNL A   1      35.216  20.091  24.888  1.00  0.00    -0.250 OA
BRANCH   3   5
ATOM      5  C   UNL A   1      34.703  21.751  26.520  1.00  0.00     0.266 C 
BRANCH   5   6
ATOM      6  N   UNL A   1      33.600  22.431  25.885  1.00  0.00    -0.259 N 
ATOM      7  C   UNL A   1      32.461  22.894  26.496  1.00  0.00     0.135 A 
ATOM      8  N   UNL A   1      33.643  22.675  24.568  1.00  0.00    -0.179 NA
ATOM      9  C   UNL A   1      31.651  23.323  25.476  1.00  0.00     0.081 A 
ATOM     10  C   UNL A   1      32.463  23.234  24.322  1.00  0.00     0.161 A 
BRANCH   9  11
ATOM     11  N   UNL A   1      30.344  23.757  25.600  1.00  0.00    -0.305 N 
ATOM     12  C   UNL A   1      30.012  25.001  26.078  1.00  0.00     0.322 C 
ATOM     13  H   UNL A   1      29.618  23.147  25.334  1.00  0.00     0.171 HD
ATOM     14  O   UNL A   1      29.047  25.158  26.821  1.00  0.00    -0.248 OA
BRANCH  12  15
ATOM     15  N   UNL A   1      30.833  26.041  25.685  1.00  0.00    -0.313 N 
ATOM     16  C   UNL A   1      30.624  26.761  24.422  1.00  0.00     0.183 C 
ATOM     17  C   UNL A   1      31.831  26.558  26.600  1.00  0.00     0.186 C 
ATOM     18  C   UNL A   1      31.542  27.981  24.224  1.00  0.00     0.284 C 
ATOM     19  C   UNL A   1      31.844  28.086  26.683  1.00  0.00     0.204 C 
ATOM     20  N   UNL A   1      31.724  28.830  25.408  1.00  0.00    -0.330 N 
ATOM     21  C   UNL A   1      33.134  28.587  27.336  1.00  0.00     0.073 C 
ATOM     22  C   UNL A   1      32.886  29.715  25.275  1.00  0.00     0.262 C 
ATOM     23  H   UNL A   1      30.864  29.376  25.448  1.00  0.00     0.348 HD
ATOM     24  C   UNL A   1      33.347  29.946  26.702  1.00  0.00     0.068 C 
ENDBRANCH  12  15
ENDBRANCH   9  11
ENDBRANCH   5   6
ENDBRANCH   3   5
ENDBRANCH   2   3
ENDBRANCH   1   2
BRANCH   1  25
ATOM     25  C   UNL A   1      39.307  21.245  25.751  1.00  0.00     0.275 C 
BRANCH  25  26
ATOM     26  O   UNL A   1      40.034  20.167  26.320  1.00  0.00    -0.458 OA
BRANCH  26  27
ATOM     27  C   UNL A   1      41.332  20.035  25.958  1.00  0.00     0.338 C 
ATOM     28  O   UNL A   1      41.813  19.219  25.216  1.00  0.00    -0.246 OA
BRANCH  27  29
ATOM     29  C   UNL A   1      42.058  21.115  26.647  1.00  0.00     0.060 A 
ATOM     30  C   UNL A   1      42.086  21.081  28.040  1.00  0.00     0.016 A 
ATOM     31  C   UNL A   1      42.520  22.220  25.912  1.00  0.00     0.016 A 
ATOM     32  C   UNL A   1      42.312  22.266  28.698  1.00  0.00     0.010 A 
ATOM     33  C   UNL A   1      42.724  23.401  26.563  1.00  0.00     0.010 A 
ATOM     34  C   UNL A   1      42.503  23.420  27.932  1.00  0.00    -0.014 A 
BRANCH  34  35
ATOM     35  C   UNL A   1      42.488  24.696  28.599  1.00  0.00     0.031 A 
ATOM     36  C   UNL A   1      41.273  25.468  28.287  1.00  0.00     0.074 A 
ATOM     37  C   UNL A   1      43.463  25.028  29.466  1.00  0.00     0.049 A 
ATOM     38  N   UNL A   1      41.184  26.510  27.529  1.00  0.00    -0.248 NA
ATOM     39  C   UNL A   1      39.976  24.876  28.653  1.00  0.00     0.031 C 
ATOM     40  C   UNL A   1      44.519  24.165  30.012  1.00  0.00     0.029 A 
ATOM     41  N   UNL A   1      43.628  26.181  30.159  1.00  0.00    -0.354 N 
ATOM     42  C   UNL A   1      39.840  26.863  27.577  1.00  0.00     0.074 A 
ATOM     43  C   UNL A   1      39.136  25.694  28.020  1.00  0.00     0.031 C 
ATOM     44  C   UNL A   1      45.033  24.744  31.121  1.00  0.00     0.029 A 
ATOM     45  C   UNL A   1      44.439  26.059  31.281  1.00  0.00     0.049 A 
ATOM     46  H   UNL A   1      43.211  27.031  29.889  1.00  0.00     0.167 HD
ATOM     47  C   UNL A   1      39.482  28.176  27.602  1.00  0.00     0.034 A 
ATOM     48  C   UNL A   1      44.520  26.944  32.308  1.00  0.00     0.034 A 
ATOM     49  C   UNL A   1      40.562  29.008  27.116  1.00  0.00     0.049 A 
ATOM     50  C   UNL A   1      43.982  28.234  31.811  1.00  0.00     0.074 A 
ATOM     51  C   UNL A   1      41.299  29.064  25.950  1.00  0.00     0.029 A 
ATOM     52  N   UNL A   1      41.296  29.683  28.062  1.00  0.00    -0.354 N 
ATOM     53  N   UNL A   1      44.559  28.940  30.878  1.00  0.00    -0.248 NA
ATOM     54  C   UNL A   1      42.567  28.502  32.014  1.00  0.00     0.031 C 
ATOM     55  C   UNL A   1      42.628  29.368  26.366  1.00  0.00     0.029 A 
ATOM     56  C   UNL A   1      42.621  29.557  27.749  1.00  0.00     0.049 A 
ATOM     57  H   UNL A   1      40.930  30.173  28.834  1.00  0.00     0.167 HD
ATOM     58  C   UNL A   1      43.509  29.371  30.077  1.00  0.00     0.074 A 
ATOM     59  C   UNL A   1      42.306  29.168  30.884  1.00  0.00     0.031 C 
ATOM     60  C   UNL A   1      43.682  29.560  28.735  1.00  0.00     0.034 A 
BRANCH  47  61
ATOM     61  C   UNL A   1      38.378  28.740  28.480  1.00  0.00     0.023 A 
ATOM     62  C   UNL A   1      37.405  29.533  27.830  1.00  0.00     0.012 A 
ATOM     63  C   UNL A   1      38.397  28.796  29.895  1.00  0.00     0.148 A 
ATOM     64  C   UNL A   1      36.577  30.409  28.539  1.00  0.00     0.002 A 
ATOM     65  C   UNL A   1      37.532  29.624  30.600  1.00  0.00     0.091 A 
ATOM     66  F   UNL A   1      39.322  28.143  30.594  1.00  0.00    -0.205 F 
ATOM     67  C   UNL A   1      36.645  30.461  29.926  1.00  0.00     0.022 A 
BRANCH  65  68
ATOM     68  S   UNL A   1      37.566  29.706  32.398  1.00  0.00     0.127 S 
ATOM     69  O   UNL A   1      37.345  28.308  32.754  1.00  0.00    -0.237 OA
ATOM     70  O   UNL A   1      38.919  30.205  32.644  1.00  0.00    -0.237 OA
ATOM     71  O   UNL A   1      36.510  30.635  32.777  1.00  0.00    -0.744 OA
ENDBRANCH  65  68
ENDBRANCH  47  61
BRANCH  48  72
ATOM     72  C   UNL A   1      44.721  26.687  33.755  1.00  0.00     0.023 A 
ATOM     73  C   UNL A   1      45.959  26.994  34.353  1.00  0.00     0.012 A 
ATOM     74  C   UNL A   1      43.623  26.416  34.602  1.00  0.00     0.148 A 
ATOM     75  C   UNL A   1      46.093  27.059  35.746  1.00  0.00     0.002 A 
ATOM     76  C   UNL A   1      43.762  26.473  35.986  1.00  0.00     0.091 A 
ATOM     77  F   UNL A   1      42.422  26.194  34.053  1.00  0.00    -0.205 F 
ATOM     78  C   UNL A   1      44.993  26.807  36.562  1.00  0.00     0.022 A 
BRANCH  76  79
ATOM     79  S   UNL A   1      42.378  26.183  37.099  1.00  0.00     0.127 S 
ATOM     80  O   UNL A   1      43.014  26.312  38.410  1.00  0.00    -0.237 OA
ATOM     81  O   UNL A   1      41.473  27.274  36.747  1.00  0.00    -0.237 OA
ATOM     82  O   UNL A   1      41.897  24.841  36.796  1.00  0.00    -0.744 OA
ENDBRANCH  76  79
ENDBRANCH  48  72
BRANCH  60  83
ATOM     83  C   UNL A   1      45.092  29.543  28.195  1.00  0.00     0.023 A 
ATOM     84  C   UNL A   1      45.702  28.375  27.688  1.00  0.00     0.012 A 
ATOM     85  C   UNL A   1      45.747  30.774  28.036  1.00  0.00     0.148 A 
ATOM     86  C   UNL A   1      46.949  28.436  27.057  1.00  0.00     0.002 A 
ATOM     87  C   UNL A   1      46.962  30.837  27.366  1.00  0.00     0.091 A 
ATOM     88  F   UNL A   1      45.150  31.874  28.520  1.00  0.00    -0.205 F 
ATOM     89  C   UNL A   1      47.572  29.669  26.883  1.00  0.00     0.022 A 
BRANCH  87  90
ATOM     90  S   UNL A   1      47.745  32.408  27.003  1.00  0.00     0.127 S 
ATOM     91  O   UNL A   1      49.045  31.988  26.484  1.00  0.00    -0.237 OA
ATOM     92  O   UNL A   1      46.843  32.986  26.005  1.00  0.00    -0.237 OA
ATOM     93  O   UNL A   1      47.780  33.140  28.265  1.00  0.00    -0.744 OA
ENDBRANCH  87  90
ENDBRANCH  60  83
ENDBRANCH  34  35
ENDBRANCH  27  29
ENDBRANCH  26  27
ENDBRANCH  25  26
ENDBRANCH   1  25
TORSDOF 17
ENDMDL
MODEL 2
REMARK VINA RESULT:     -11.6      1.786      2.143
REMARK SMILES O=C(Cn1cc(NC(=O)N2CC[N@@H+]3CCC[C@@H]3C2)cn1)OCCOC(=O)c1ccc(-c2c3nc(c(-c4cccc(S(=O)(=O)[O-])c4F)c4ccc([nH]4)c(-c4cccc(S(=O)(=O)[O-])c4F)c4nc(c(-c5cccc(S(=O)(=O)[O-])c5F)c5ccc2[nH]5)C=C4)C=C3)cc1
REMARK SMILES IDX 22 1 21 2 2 3 1 4 3 5 4 6 5 7 20 8 6 9 19 10 7 11 8 12 9 14
REMARK SMILES IDX 10 15 11 16 18 17 12 18 17 19 13 20 16 21 14 22 15 24 23 25
REMARK SMILES IDX 24 26 25 27 26 28 27 29 28 30 89 31 29 32 88 33 30 34 31 35
REMARK SMILES IDX 32 36 82 37 33 38 87 39 81 40 83 41 34 42 86 43 80 44 79 45
REMARK SMILES IDX 35 47 67 48 47 49 66 50 48 51 51 52 65 53 84 54 49 55 50 56
REMARK SMILES IDX 64 58 85 59 52 60 36 61 37 62 45 63 38 64 40 65 46 66 39 67
REMARK SMILES IDX 41 68 42 69 43 70 44 71 68 72 69 73 77 74 70 75 72 76 78 77
REMARK SMILES IDX 71 78 73 79 74 80 75 81 76 82 53 83 54 84 62 85 55 86 57 87
REMARK SMILES IDX 63 88 56 89 58 90 59 91 60 92 61 93
REMARK H PARENT 7 13 13 23 83 46 51 57
REMARK Flexibility Score: inf
ROOT
ATOM      1  C   UNL A   1      37.295  20.505  25.042  1.00  0.00     0.274 C 
ENDROOT
BRANCH   1   2
ATOM      2  O   UNL A   1      37.556  21.920  24.911  1.00  0.00    -0.461 OA
BRANCH   2   3
ATOM      3  C   UNL A   1      36.675  22.904  24.592  1.00  0.00     0.327 C 
ATOM      4  O   UNL A   1      36.482  23.814  25.399  1.00  0.00    -0.250 OA
BRANCH   3   5
ATOM      5  C   UNL A   1      35.932  22.866  23.282  1.00  0.00     0.266 C 
BRANCH   5   6
ATOM      6  N   UNL A   1      34.504  23.007  23.427  1.00  0.00    -0.259 N 
ATOM      7  C   UNL A   1      33.658  23.689  22.588  1.00  0.00     0.135 A 
ATOM      8  N   UNL A   1      33.883  22.422  24.460  1.00  0.00    -0.179 NA
ATOM      9  C   UNL A   1      32.436  23.672  23.211  1.00  0.00     0.081 A 
ATOM     10  C   UNL A   1      32.620  22.813  24.318  1.00  0.00     0.161 A 
BRANCH   9  11
ATOM     11  N   UNL A   1      31.300  24.343  22.797  1.00  0.00    -0.305 N 
ATOM     12  C   UNL A   1      30.759  25.395  23.495  1.00  0.00     0.322 C 
ATOM     13  H   UNL A   1      30.859  24.055  21.965  1.00  0.00     0.171 HD
ATOM     14  O   UNL A   1      29.542  25.522  23.606  1.00  0.00    -0.248 OA
BRANCH  12  15
ATOM     15  N   UNL A   1      31.660  26.273  24.066  1.00  0.00    -0.313 N 
ATOM     16  C   UNL A   1      32.558  27.103  23.252  1.00  0.00     0.183 C 
ATOM     17  C   UNL A   1      31.624  26.517  25.494  1.00  0.00     0.186 C 
ATOM     18  C   UNL A   1      33.384  28.124  24.054  1.00  0.00     0.284 C 
ATOM     19  C   UNL A   1      31.685  28.003  25.857  1.00  0.00     0.204 C 
ATOM     20  N   UNL A   1      32.650  28.839  25.106  1.00  0.00    -0.330 N 
ATOM     21  C   UNL A   1      32.035  28.191  27.334  1.00  0.00     0.073 C 
ATOM     22  C   UNL A   1      33.554  29.480  26.067  1.00  0.00     0.262 C 
ATOM     23  H   UNL A   1      32.118  29.542  24.595  1.00  0.00     0.348 HD
ATOM     24  C   UNL A   1      32.763  29.518  27.360  1.00  0.00     0.068 C 
ENDBRANCH  12  15
ENDBRANCH   9  11
ENDBRANCH   5   6
ENDBRANCH   3   5
ENDBRANCH   2   3
ENDBRANCH   1   2
BRANCH   1  25
ATOM     25  C   UNL A   1      38.584  19.700  25.138  1.00  0.00     0.275 C 
BRANCH  25  26
ATOM     26  O   UNL A   1      39.544  20.465  25.850  1.00  0.00    -0.458 OA
BRANCH  26  27
ATOM     27  C   UNL A   1      40.788  19.944  25.967  1.00  0.00     0.338 C 
ATOM     28  O   UNL A   1      41.168  18.854  25.627  1.00  0.00    -0.246 OA
BRANCH  27  29
ATOM     29  C   UNL A   1      41.613  20.994  26.586  1.00  0.00     0.060 A 
ATOM     30  C   UNL A   1      41.789  20.939  27.968  1.00  0.00     0.016 A 
ATOM     31  C   UNL A   1      42.024  22.098  25.819  1.00  0.00     0.016 A 
ATOM     32  C   UNL A   1      42.116  22.108  28.612  1.00  0.00     0.010 A 
ATOM     33  C   UNL A   1      42.328  23.264  26.459  1.00  0.00     0.010 A 
ATOM     34  C   UNL A   1      42.255  23.268  27.844  1.00  0.00    -0.014 A 
BRANCH  34  35
ATOM     35  C   UNL A   1      42.346  24.534  28.524  1.00  0.00     0.031 A 
ATOM     36  C   UNL A   1      41.188  25.399  28.239  1.00  0.00     0.074 A 
ATOM     37  C   UNL A   1      43.356  24.782  29.379  1.00  0.00     0.049 A 
ATOM     38  N   UNL A   1      41.167  26.452  27.493  1.00  0.00    -0.248 NA
ATOM     39  C   UNL A   1      39.856  24.902  28.619  1.00  0.00     0.031 C 
ATOM     40  C   UNL A   1      44.352  23.835  29.900  1.00  0.00     0.029 A 
ATOM     41  N   UNL A   1      43.617  25.912  30.081  1.00  0.00    -0.354 N 
ATOM     42  C   UNL A   1      39.854  26.905  27.565  1.00  0.00     0.074 A 
ATOM     43  C   UNL A   1      39.070  25.787  28.007  1.00  0.00     0.031 C 
ATOM     44  C   UNL A   1      44.924  24.362  31.007  1.00  0.00     0.029 A 
ATOM     45  C   UNL A   1      44.433  25.716  31.189  1.00  0.00     0.049 A 
ATOM     46  H   UNL A   1      43.262  26.793  29.827  1.00  0.00     0.167 HD
ATOM     47  C   UNL A   1      39.597  28.241  27.609  1.00  0.00     0.034 A 
ATOM     48  C   UNL A   1      44.596  26.580  32.223  1.00  0.00     0.034 A 
ATOM     49  C   UNL A   1      40.728  28.995  27.115  1.00  0.00     0.049 A 
ATOM     50  C   UNL A   1      44.150  27.913  31.748  1.00  0.00     0.074 A 
ATOM     51  C   UNL A   1      41.450  29.008  25.938  1.00  0.00     0.029 A 
ATOM     52  N   UNL A   1      41.525  29.602  28.056  1.00  0.00    -0.354 N 
ATOM     53  N   UNL A   1      44.764  28.584  30.814  1.00  0.00    -0.248 NA
ATOM     54  C   UNL A   1      42.762  28.284  31.976  1.00  0.00     0.031 C 
ATOM     55  C   UNL A   1      42.804  29.207  26.336  1.00  0.00     0.029 A 
ATOM     56  C   UNL A   1      42.832  29.381  27.722  1.00  0.00     0.049 A 
ATOM     57  H   UNL A   1      41.208  30.109  28.839  1.00  0.00     0.167 HD
ATOM     58  C   UNL A   1      43.738  29.102  30.033  1.00  0.00     0.074 A 
ATOM     59  C   UNL A   1      42.535  28.981  30.857  1.00  0.00     0.031 C 
ATOM     60  C   UNL A   1      43.905  29.292  28.691  1.00  0.00     0.034 A 
BRANCH  47  61
ATOM     61  C   UNL A   1      38.551  28.876  28.510  1.00  0.00     0.023 A 
ATOM     62  C   UNL A   1      37.702  29.832  27.907  1.00  0.00     0.012 A 
ATOM     63  C   UNL A   1      38.542  28.827  29.925  1.00  0.00     0.148 A 
ATOM     64  C   UNL A   1      36.975  30.754  28.667  1.00  0.00     0.002 A 
ATOM     65  C   UNL A   1      37.771  29.705  30.677  1.00  0.00     0.091 A 
ATOM     66  F   UNL A   1      39.359  28.011  30.587  1.00  0.00    -0.205 F 
ATOM     67  C   UNL A   1      37.015  30.696  30.054  1.00  0.00     0.022 A 
BRANCH  65  68
ATOM     68  S   UNL A   1      37.771  29.651  32.477  1.00  0.00     0.127 S 
ATOM     69  O   UNL A   1      39.122  30.112  32.778  1.00  0.00    -0.237 OA
ATOM     70  O   UNL A   1      36.703  30.598  32.799  1.00  0.00    -0.237 OA
ATOM     71  O   UNL A   1      37.473  28.271  32.836  1.00  0.00    -0.744 OA
ENDBRANCH  65  68
ENDBRANCH  47  61
BRANCH  48  72
ATOM     72  C   UNL A   1      44.798  26.293  33.664  1.00  0.00     0.023 A 
ATOM     73  C   UNL A   1      46.098  26.332  34.208  1.00  0.00     0.012 A 
ATOM     74  C   UNL A   1      43.705  26.267  34.558  1.00  0.00     0.148 A 
ATOM     75  C   UNL A   1      46.301  26.372  35.593  1.00  0.00     0.002 A 
ATOM     76  C   UNL A   1      43.911  26.299  35.935  1.00  0.00     0.091 A 
ATOM     77  F   UNL A   1      42.462  26.303  34.061  1.00  0.00    -0.205 F 
ATOM     78  C   UNL A   1      45.208  26.365  36.457  1.00  0.00     0.022 A 
BRANCH  76  79
ATOM     79  S   UNL A   1      42.545  26.316  37.107  1.00  0.00     0.127 S 
ATOM     80  O   UNL A   1      41.861  27.559  36.754  1.00  0.00    -0.237 OA
ATOM     81  O   UNL A   1      41.825  25.096  36.750  1.00  0.00    -0.237 OA
ATOM     82  O   UNL A   1      43.156  26.323  38.430  1.00  0.00    -0.744 OA
ENDBRANCH  76  79
ENDBRANCH  48  72
BRANCH  60  83
ATOM     83  C   UNL A   1      45.301  29.176  28.128  1.00  0.00     0.023 A 
ATOM     84  C   UNL A   1      46.242  30.227  28.196  1.00  0.00     0.012 A 
ATOM     85  C   UNL A   1      45.724  27.916  27.680  1.00  0.00     0.148 A 
ATOM     86  C   UNL A   1      47.569  30.025  27.803  1.00  0.00     0.002 A 
ATOM     87  C   UNL A   1      47.053  27.706  27.336  1.00  0.00     0.091 A 
ATOM     88  F   UNL A   1      44.817  26.928  27.625  1.00  0.00    -0.205 F 
ATOM     89  C   UNL A   1      47.978  28.761  27.386  1.00  0.00     0.022 A 
BRANCH  87  90
ATOM     90  S   UNL A   1      47.660  26.073  26.914  1.00  0.00     0.127 S 
ATOM     91  O   UNL A   1      49.086  26.321  26.710  1.00  0.00    -0.237 OA
ATOM     92  O   UNL A   1      47.338  25.299  28.114  1.00  0.00    -0.237 OA
ATOM     93  O   UNL A   1      46.918  25.663  25.728  1.00  0.00    -0.744 OA
ENDBRANCH  87  90
ENDBRANCH  60  83
ENDBRANCH  34  35
ENDBRANCH  27  29
ENDBRANCH  26  27
ENDBRANCH  25  26
ENDBRANCH   1  25
TORSDOF 17
ENDMDL
MODEL 3
REMARK VINA RESULT:     -11.6      3.619      9.015
REMARK SMILES O=C(Cn1cc(NC(=O)N2CC[N@@H+]3CCC[C@@H]3C2)cn1)OCCOC(=O)c1ccc(-c2c3nc(c(-c4cccc(S(=O)(=O)[O-])c4F)c4ccc([nH]4)c(-c4cccc(S(=O)(=O)[O-])c4F)c4nc(c(-c5cccc(S(=O)(=O)[O-])c5F)c5ccc2[nH]5)C=C4)C=C3)cc1
REMARK SMILES IDX 22 1 21 2 2 3 1 4 3 5 4 6 5 7 20 8 6 9 19 10 7 11 8 12 9 14
REMARK SMILES IDX 10 15 11 16 18 17 12 18 17 19 13 20 16 21 14 22 15 24 23 25
REMARK SMILES IDX 24 26 25 27 26 28 27 29 28 30 89 31 29 32 88 33 30 34 31 35
REMARK SMILES IDX 32 36 82 37 33 38 87 39 81 40 83 41 34 42 86 43 80 44 79 45
REMARK SMILES IDX 35 47 67 48 47 49 66 50 48 51 51 52 65 53 84 54 49 55 50 56
REMARK SMILES IDX 64 58 85 59 52 60 36 61 37 62 45 63 38 64 40 65 46 66 39 67
REMARK SMILES IDX 41 68 42 69 43 70 44 71 68 72 69 73 77 74 70 75 72 76 78 77
REMARK SMILES IDX 71 78 73 79 74 80 75 81 76 82 53 83 54 84 62 85 55 86 57 87
REMARK SMILES IDX 63 88 56 89 58 90 59 91 60 92 61 93
REMARK H PARENT 7 13 13 23 83 46 51 57
REMARK Flexibility Score: inf
ROOT
ATOM      1  C   UNL A   1      31.685  31.288  26.672  1.00  0.00     0.274 C 
ENDROOT
BRANCH   1   2
ATOM      2  O   UNL A   1      32.816  30.523  27.148  1.00  0.00    -0.461 OA
BRANCH   2   3
ATOM      3  C   UNL A   1      32.927  29.173  27.244  1.00  0.00     0.327 C 
ATOM      4  O   UNL A   1      34.039  28.658  27.120  1.00  0.00    -0.250 OA
BRANCH   3   5
ATOM      5  C   UNL A   1      31.706  28.322  27.476  1.00  0.00     0.266 C 
BRANCH   5   6
ATOM      6  N   UNL A   1      31.322  27.542  26.324  1.00  0.00    -0.259 N 
ATOM      7  C   UNL A   1      30.691  26.323  26.333  1.00  0.00     0.135 A 
ATOM      8  N   UNL A   1      31.568  28.014  25.094  1.00  0.00    -0.179 NA
ATOM      9  C   UNL A   1      30.673  25.914  25.024  1.00  0.00     0.081 A 
ATOM     10  C   UNL A   1      31.157  27.029  24.302  1.00  0.00     0.161 A 
BRANCH   9  11
ATOM     11  N   UNL A   1      30.248  24.683  24.560  1.00  0.00    -0.305 N 
ATOM     12  C   UNL A   1      31.099  23.757  24.009  1.00  0.00     0.322 C 
ATOM     13  H   UNL A   1      29.290  24.460  24.628  1.00  0.00     0.171 HD
ATOM     14  O   UNL A   1      30.762  23.085  23.038  1.00  0.00    -0.248 OA
BRANCH  12  15
ATOM     15  N   UNL A   1      32.343  23.648  24.601  1.00  0.00    -0.313 N 
ATOM     16  C   UNL A   1      32.510  23.135  25.967  1.00  0.00     0.183 C 
ATOM     17  C   UNL A   1      33.538  23.886  23.818  1.00  0.00     0.186 C 
ATOM     18  C   UNL A   1      33.975  22.947  26.402  1.00  0.00     0.284 C 
ATOM     19  C   UNL A   1      34.613  22.813  24.010  1.00  0.00     0.204 C 
ATOM     20  N   UNL A   1      34.858  22.348  25.394  1.00  0.00    -0.330 N 
ATOM     21  C   UNL A   1      35.968  23.296  23.489  1.00  0.00     0.073 C 
ATOM     22  C   UNL A   1      36.274  22.558  25.711  1.00  0.00     0.262 C 
ATOM     23  H   UNL A   1      34.629  21.354  25.432  1.00  0.00     0.348 HD
ATOM     24  C   UNL A   1      36.965  22.563  24.361  1.00  0.00     0.068 C 
ENDBRANCH  12  15
ENDBRANCH   9  11
ENDBRANCH   5   6
ENDBRANCH   3   5
ENDBRANCH   2   3
ENDBRANCH   1   2
BRANCH   1  25
ATOM     25  C   UNL A   1      31.844  32.773  26.969  1.00  0.00     0.275 C 
BRANCH  25  26
ATOM     26  O   UNL A   1      33.108  32.981  27.578  1.00  0.00    -0.458 OA
BRANCH  26  27
ATOM     27  C   UNL A   1      33.216  34.018  28.443  1.00  0.00     0.338 C 
ATOM     28  O   UNL A   1      32.410  34.883  28.663  1.00  0.00    -0.246 OA
BRANCH  27  29
ATOM     29  C   UNL A   1      34.530  33.873  29.090  1.00  0.00     0.060 A 
ATOM     30  C   UNL A   1      35.621  34.478  28.467  1.00  0.00     0.016 A 
ATOM     31  C   UNL A   1      34.677  32.993  30.176  1.00  0.00     0.016 A 
ATOM     32  C   UNL A   1      36.870  33.978  28.750  1.00  0.00     0.010 A 
ATOM     33  C   UNL A   1      35.913  32.482  30.443  1.00  0.00     0.010 A 
ATOM     34  C   UNL A   1      36.964  32.906  29.644  1.00  0.00    -0.014 A 
BRANCH  34  35
ATOM     35  C   UNL A   1      38.222  32.215  29.755  1.00  0.00     0.031 A 
ATOM     36  C   UNL A   1      38.146  30.840  29.232  1.00  0.00     0.074 A 
ATOM     37  C   UNL A   1      39.318  32.855  30.206  1.00  0.00     0.049 A 
ATOM     38  N   UNL A   1      38.140  29.746  29.916  1.00  0.00    -0.248 NA
ATOM     39  C   UNL A   1      37.786  30.669  27.816  1.00  0.00     0.031 C 
ATOM     40  C   UNL A   1      39.487  34.293  30.454  1.00  0.00     0.029 A 
ATOM     41  N   UNL A   1      40.567  32.366  30.402  1.00  0.00    -0.354 N 
ATOM     42  C   UNL A   1      38.070  28.737  28.961  1.00  0.00     0.074 A 
ATOM     43  C   UNL A   1      37.572  29.355  27.765  1.00  0.00     0.031 C 
ATOM     44  C   UNL A   1      40.808  34.579  30.510  1.00  0.00     0.029 A 
ATOM     45  C   UNL A   1      41.559  33.339  30.433  1.00  0.00     0.049 A 
ATOM     46  H   UNL A   1      40.754  31.406  30.514  1.00  0.00     0.167 HD
ATOM     47  C   UNL A   1      38.770  27.583  29.138  1.00  0.00     0.034 A 
ATOM     48  C   UNL A   1      42.893  33.123  30.300  1.00  0.00     0.034 A 
ATOM     49  C   UNL A   1      39.125  27.411  30.530  1.00  0.00     0.049 A 
ATOM     50  C   UNL A   1      43.131  31.688  30.589  1.00  0.00     0.074 A 
ATOM     51  C   UNL A   1      38.419  27.354  31.715  1.00  0.00     0.029 A 
ATOM     52  N   UNL A   1      40.426  27.691  30.875  1.00  0.00    -0.354 N 
ATOM     53  N   UNL A   1      42.948  31.153  31.764  1.00  0.00    -0.248 NA
ATOM     54  C   UNL A   1      43.116  30.760  29.469  1.00  0.00     0.031 C 
ATOM     55  C   UNL A   1      39.229  28.048  32.662  1.00  0.00     0.029 A 
ATOM     56  C   UNL A   1      40.416  28.423  32.030  1.00  0.00     0.049 A 
ATOM     57  H   UNL A   1      41.227  27.413  30.375  1.00  0.00     0.167 HD
ATOM     58  C   UNL A   1      42.330  29.938  31.494  1.00  0.00     0.074 A 
ATOM     59  C   UNL A   1      42.562  29.701  30.069  1.00  0.00     0.031 C 
ATOM     60  C   UNL A   1      41.433  29.397  32.371  1.00  0.00     0.034 A 
BRANCH  47  61
ATOM     61  C   UNL A   1      39.526  26.869  28.030  1.00  0.00     0.023 A 
ATOM     62  C   UNL A   1      39.329  25.473  27.937  1.00  0.00     0.012 A 
ATOM     63  C   UNL A   1      40.612  27.404  27.295  1.00  0.00     0.148 A 
ATOM     64  C   UNL A   1      40.221  24.648  27.244  1.00  0.00     0.002 A 
ATOM     65  C   UNL A   1      41.462  26.588  26.558  1.00  0.00     0.091 A 
ATOM     66  F   UNL A   1      40.923  28.696  27.376  1.00  0.00    -0.205 F 
ATOM     67  C   UNL A   1      41.294  25.205  26.560  1.00  0.00     0.022 A 
BRANCH  65  68
ATOM     68  S   UNL A   1      42.851  27.268  25.635  1.00  0.00     0.127 S 
ATOM     69  O   UNL A   1      43.673  27.810  26.712  1.00  0.00    -0.237 OA
ATOM     70  O   UNL A   1      43.386  26.071  24.986  1.00  0.00    -0.237 OA
ATOM     71  O   UNL A   1      42.281  28.242  24.715  1.00  0.00    -0.744 OA
ENDBRANCH  65  68
ENDBRANCH  47  61
BRANCH  48  72
ATOM     72  C   UNL A   1      43.919  33.967  29.640  1.00  0.00     0.023 A 
ATOM     73  C   UNL A   1      44.887  34.629  30.422  1.00  0.00     0.012 A 
ATOM     74  C   UNL A   1      44.128  33.896  28.245  1.00  0.00     0.148 A 
ATOM     75  C   UNL A   1      46.038  35.174  29.838  1.00  0.00     0.002 A 
ATOM     76  C   UNL A   1      45.268  34.446  27.667  1.00  0.00     0.091 A 
ATOM     77  F   UNL A   1      43.256  33.209  27.494  1.00  0.00    -0.205 F 
ATOM     78  C   UNL A   1      46.233  35.075  28.463  1.00  0.00     0.022 A 
BRANCH  76  79
ATOM     79  S   UNL A   1      45.597  34.334  25.902  1.00  0.00     0.127 S 
ATOM     80  O   UNL A   1      44.304  34.706  25.330  1.00  0.00    -0.237 OA
ATOM     81  O   UNL A   1      46.654  35.327  25.727  1.00  0.00    -0.237 OA
ATOM     82  O   UNL A   1      45.985  32.951  25.656  1.00  0.00    -0.744 OA
ENDBRANCH  76  79
ENDBRANCH  48  72
BRANCH  60  83
ATOM     83  C   UNL A   1      41.329  30.012  33.746  1.00  0.00     0.023 A 
ATOM     84  C   UNL A   1      42.223  29.698  34.793  1.00  0.00     0.012 A 
ATOM     85  C   UNL A   1      40.415  31.061  33.927  1.00  0.00     0.148 A 
ATOM     86  C   UNL A   1      42.187  30.403  36.000  1.00  0.00     0.002 A 
ATOM     87  C   UNL A   1      40.413  31.790  35.109  1.00  0.00     0.091 A 
ATOM     88  F   UNL A   1      39.575  31.347  32.921  1.00  0.00    -0.205 F 
ATOM     89  C   UNL A   1      41.291  31.459  36.153  1.00  0.00     0.022 A 
BRANCH  87  90
ATOM     90  S   UNL A   1      39.372  33.236  35.311  1.00  0.00     0.127 S 
ATOM     91  O   UNL A   1      39.927  33.845  36.518  1.00  0.00    -0.237 OA
ATOM     92  O   UNL A   1      39.626  33.980  34.076  1.00  0.00    -0.237 OA
ATOM     93  O   UNL A   1      38.008  32.734  35.430  1.00  0.00    -0.744 OA
ENDBRANCH  87  90
ENDBRANCH  60  83
ENDBRANCH  34  35
ENDBRANCH  27  29
ENDBRANCH  26  27
ENDBRANCH  25  26
ENDBRANCH   1  25
TORSDOF 17
ENDMDL
