MODEL 1
REMARK VINA RESULT:     -12.3      0.000      0.000
REMARK SMILES CC(C)(C)OC(=O)Nc1ccc(-c2cccc(Cl)c2C(=O)OCCOC(=O)c2ccc(-c3c4nc(c(-c5cccc(S(=O)(=O)[O-])c5F)c5ccc([nH]5)c(-c5cccc(S(=O)(=O)[O-])c5F)c5nc(c(-c6cccc(S(=O)(=O)[O-])c6F)c6ccc3[nH]6)C=C5)C=C4)cc2)cc1
REMARK SMILES IDX 23 1 22 2 20 3 21 4 19 5 13 6 14 7 15 8 17 9 16 10 18 11
REMARK SMILES IDX 12 12 9 13 10 14 92 15 11 16 91 17 8 18 6 19 7 20 5 22 2 23
REMARK SMILES IDX 1 24 3 25 4 26 24 27 25 28 26 29 27 30 28 31 29 32 90 33
REMARK SMILES IDX 30 34 89 35 31 36 32 37 33 38 83 39 34 40 88 41 82 42 84 43
REMARK SMILES IDX 35 44 87 45 81 46 80 47 36 49 68 50 48 51 67 52 49 53 52 54
REMARK SMILES IDX 66 55 85 56 50 57 51 58 65 60 86 61 53 62 37 63 38 64 46 65
REMARK SMILES IDX 39 66 41 67 47 68 40 69 42 70 43 71 44 72 45 73 69 74 70 75
REMARK SMILES IDX 78 76 71 77 73 78 79 79 72 80 74 81 75 82 76 83 77 84 54 85
REMARK SMILES IDX 55 86 63 87 56 88 58 89 64 90 57 91 59 92 60 93 61 94 62 95
REMARK H PARENT 8 21 84 48 52 59
REMARK Flexibility Score: inf
ROOT
ATOM      1  C   UNL A   1      32.334  28.769  24.763  1.00  0.00     0.275 C 
ENDROOT
BRANCH   1   2
ATOM      2  O   UNL A   1      31.939  28.955  23.390  1.00  0.00    -0.458 OA
BRANCH   2   3
ATOM      3  C   UNL A   1      31.328  27.899  22.791  1.00  0.00     0.340 C 
ATOM      4  O   UNL A   1      31.860  27.051  22.097  1.00  0.00    -0.246 OA
BRANCH   3   5
ATOM      5  C   UNL A   1      29.867  27.979  23.043  1.00  0.00     0.086 A 
ATOM      6  C   UNL A   1      29.213  26.943  23.760  1.00  0.00    -0.002 A 
ATOM      7  C   UNL A   1      27.814  27.019  23.907  1.00  0.00     0.010 A 
ATOM      8  C   UNL A   1      27.086  28.090  23.391  1.00  0.00     0.002 A 
ATOM      9  C   UNL A   1      29.139  29.094  22.599  1.00  0.00     0.056 A 
ATOM     10  C   UNL A   1      27.749  29.132  22.752  1.00  0.00     0.021 A 
ATOM     11  Cl  UNL A   1      29.876  30.478  21.873  1.00  0.00    -0.083 Cl
BRANCH   6  12
ATOM     12  C   UNL A   1      29.944  25.853  24.440  1.00  0.00    -0.017 A 
ATOM     13  C   UNL A   1      31.296  23.772  25.811  1.00  0.00     0.044 A 
ATOM     14  C   UNL A   1      31.025  23.662  24.445  1.00  0.00     0.027 A 
ATOM     15  C   UNL A   1      30.940  24.946  26.469  1.00  0.00     0.027 A 
ATOM     16  C   UNL A   1      30.355  24.692  23.768  1.00  0.00     0.011 A 
ATOM     17  C   UNL A   1      30.244  25.952  25.806  1.00  0.00     0.011 A 
BRANCH  13  18
ATOM     18  N   UNL A   1      31.920  22.688  26.456  1.00  0.00    -0.291 N 
ATOM     19  C   UNL A   1      33.253  22.495  26.724  1.00  0.00     0.412 C 
ATOM     20  O   UNL A   1      33.655  21.454  27.232  1.00  0.00    -0.224 OA
ATOM     21  H   UNL A   1      31.318  21.968  26.755  1.00  0.00     0.173 HD
BRANCH  19  22
ATOM     22  O   UNL A   1      34.020  23.572  26.450  1.00  0.00    -0.444 OA
BRANCH  22  23
ATOM     23  C   UNL A   1      34.900  23.662  25.307  1.00  0.00     0.106 C 
ATOM     24  C   UNL A   1      34.540  25.007  24.656  1.00  0.00     0.056 C 
ATOM     25  C   UNL A   1      34.619  22.538  24.309  1.00  0.00     0.056 C 
ATOM     26  C   UNL A   1      36.363  23.703  25.751  1.00  0.00     0.056 C 
ENDBRANCH  22  23
ENDBRANCH  19  22
ENDBRANCH  13  18
ENDBRANCH   6  12
ENDBRANCH   3   5
ENDBRANCH   2   3
ENDBRANCH   1   2
BRANCH   1  27
ATOM     27  C   UNL A   1      32.094  30.057  25.552  1.00  0.00     0.275 C 
BRANCH  27  28
ATOM     28  O   UNL A   1      32.845  30.005  26.777  1.00  0.00    -0.458 OA
BRANCH  28  29
ATOM     29  C   UNL A   1      33.374  31.189  27.161  1.00  0.00     0.338 C 
ATOM     30  O   UNL A   1      32.812  32.268  27.250  1.00  0.00    -0.246 OA
BRANCH  29  31
ATOM     31  C   UNL A   1      34.724  30.942  27.677  1.00  0.00     0.060 A 
ATOM     32  C   UNL A   1      35.049  29.624  27.997  1.00  0.00     0.016 A 
ATOM     33  C   UNL A   1      35.624  31.975  27.916  1.00  0.00     0.016 A 
ATOM     34  C   UNL A   1      36.268  29.328  28.595  1.00  0.00     0.010 A 
ATOM     35  C   UNL A   1      36.863  31.674  28.494  1.00  0.00     0.010 A 
ATOM     36  C   UNL A   1      37.185  30.351  28.861  1.00  0.00    -0.014 A 
BRANCH  36  37
ATOM     37  C   UNL A   1      38.434  30.047  29.605  1.00  0.00     0.031 A 
ATOM     38  C   UNL A   1      39.422  29.072  29.023  1.00  0.00     0.074 A 
ATOM     39  C   UNL A   1      38.702  30.652  30.779  1.00  0.00     0.049 A 
ATOM     40  N   UNL A   1      40.504  28.570  29.556  1.00  0.00    -0.248 NA
ATOM     41  C   UNL A   1      39.148  28.596  27.657  1.00  0.00     0.031 C 
ATOM     42  C   UNL A   1      37.857  31.657  31.426  1.00  0.00     0.029 A 
ATOM     43  N   UNL A   1      39.760  30.501  31.642  1.00  0.00    -0.354 N 
ATOM     44  C   UNL A   1      41.004  27.670  28.623  1.00  0.00     0.074 A 
ATOM     45  C   UNL A   1      40.111  27.701  27.486  1.00  0.00     0.031 C 
ATOM     46  C   UNL A   1      38.429  32.032  32.581  1.00  0.00     0.029 A 
ATOM     47  C   UNL A   1      39.643  31.251  32.789  1.00  0.00     0.049 A 
ATOM     48  H   UNL A   1      40.527  29.912  31.457  1.00  0.00     0.167 HD
ATOM     49  C   UNL A   1      42.112  26.894  28.703  1.00  0.00     0.034 A 
ATOM     50  C   UNL A   1      40.409  31.277  33.899  1.00  0.00     0.034 A 
ATOM     51  C   UNL A   1      43.025  26.905  29.814  1.00  0.00     0.049 A 
ATOM     52  C   UNL A   1      41.615  30.380  33.976  1.00  0.00     0.074 A 
ATOM     53  C   UNL A   1      44.188  26.174  29.980  1.00  0.00     0.029 A 
ATOM     54  N   UNL A   1      42.879  27.688  30.949  1.00  0.00    -0.354 N 
ATOM     55  N   UNL A   1      42.099  29.565  33.071  1.00  0.00    -0.248 NA
ATOM     56  C   UNL A   1      42.389  30.416  35.226  1.00  0.00     0.031 C 
ATOM     57  C   UNL A   1      44.733  26.498  31.227  1.00  0.00     0.029 A 
ATOM     58  C   UNL A   1      43.926  27.453  31.825  1.00  0.00     0.049 A 
ATOM     59  H   UNL A   1      42.140  28.317  31.110  1.00  0.00     0.167 HD
ATOM     60  C   UNL A   1      43.249  29.016  33.627  1.00  0.00     0.074 A 
ATOM     61  C   UNL A   1      43.401  29.609  34.940  1.00  0.00     0.031 C 
ATOM     62  C   UNL A   1      44.093  28.092  33.105  1.00  0.00     0.034 A 
BRANCH  49  63
ATOM     63  C   UNL A   1      42.396  25.965  27.550  1.00  0.00     0.023 A 
ATOM     64  C   UNL A   1      43.158  26.413  26.453  1.00  0.00     0.012 A 
ATOM     65  C   UNL A   1      41.932  24.634  27.572  1.00  0.00     0.148 A 
ATOM     66  C   UNL A   1      43.420  25.565  25.377  1.00  0.00     0.002 A 
ATOM     67  C   UNL A   1      42.237  23.781  26.518  1.00  0.00     0.091 A 
ATOM     68  F   UNL A   1      41.190  24.232  28.613  1.00  0.00    -0.205 F 
ATOM     69  C   UNL A   1      42.968  24.249  25.413  1.00  0.00     0.022 A 
BRANCH  67  70
ATOM     70  S   UNL A   1      41.767  22.048  26.510  1.00  0.00     0.127 S 
ATOM     71  O   UNL A   1      40.324  22.134  26.286  1.00  0.00    -0.237 OA
ATOM     72  O   UNL A   1      42.529  21.526  25.376  1.00  0.00    -0.237 OA
ATOM     73  O   UNL A   1      42.169  21.518  27.805  1.00  0.00    -0.744 OA
ENDBRANCH  67  70
ENDBRANCH  49  63
BRANCH  50  74
ATOM     74  C   UNL A   1      40.063  32.192  35.025  1.00  0.00     0.023 A 
ATOM     75  C   UNL A   1      40.715  33.436  35.134  1.00  0.00     0.012 A 
ATOM     76  C   UNL A   1      39.085  31.846  35.979  1.00  0.00     0.148 A 
ATOM     77  C   UNL A   1      40.419  34.306  36.183  1.00  0.00     0.002 A 
ATOM     78  C   UNL A   1      38.753  32.742  36.988  1.00  0.00     0.091 A 
ATOM     79  F   UNL A   1      38.492  30.649  35.875  1.00  0.00    -0.205 F 
ATOM     80  C   UNL A   1      39.430  33.966  37.103  1.00  0.00     0.022 A 
BRANCH  78  81
ATOM     81  S   UNL A   1      37.404  32.442  38.136  1.00  0.00     0.127 S 
ATOM     82  O   UNL A   1      37.869  33.140  39.332  1.00  0.00    -0.237 OA
ATOM     83  O   UNL A   1      36.278  33.078  37.452  1.00  0.00    -0.237 OA
ATOM     84  O   UNL A   1      37.298  30.994  38.249  1.00  0.00    -0.744 OA
ENDBRANCH  78  81
ENDBRANCH  50  74
BRANCH  62  85
ATOM     85  C   UNL A   1      45.286  27.690  33.934  1.00  0.00     0.023 A 
ATOM     86  C   UNL A   1      46.464  28.461  33.894  1.00  0.00     0.012 A 
ATOM     87  C   UNL A   1      45.212  26.585  34.807  1.00  0.00     0.148 A 
ATOM     88  C   UNL A   1      47.561  28.122  34.684  1.00  0.00     0.002 A 
ATOM     89  C   UNL A   1      46.291  26.282  35.628  1.00  0.00     0.091 A 
ATOM     90  F   UNL A   1      44.090  25.852  34.817  1.00  0.00    -0.205 F 
ATOM     91  C   UNL A   1      47.471  27.040  35.558  1.00  0.00     0.022 A 
BRANCH  89  92
ATOM     92  S   UNL A   1      46.230  24.969  36.853  1.00  0.00     0.127 S 
ATOM     93  O   UNL A   1      45.068  25.360  37.650  1.00  0.00    -0.237 OA
ATOM     94  O   UNL A   1      46.028  23.780  36.023  1.00  0.00    -0.237 OA
ATOM     95  O   UNL A   1      47.508  25.010  37.549  1.00  0.00    -0.744 OA
ENDBRANCH  89  92
ENDBRANCH  62  85
ENDBRANCH  36  37
ENDBRANCH  29  31
ENDBRANCH  28  29
ENDBRANCH  27  28
ENDBRANCH   1  27
TORSDOF 18
ENDMDL
MODEL 2
REMARK VINA RESULT:     -12.0      5.349      9.983
REMARK SMILES CC(C)(C)OC(=O)Nc1ccc(-c2cccc(Cl)c2C(=O)OCCOC(=O)c2ccc(-c3c4nc(c(-c5cccc(S(=O)(=O)[O-])c5F)c5ccc([nH]5)c(-c5cccc(S(=O)(=O)[O-])c5F)c5nc(c(-c6cccc(S(=O)(=O)[O-])c6F)c6ccc3[nH]6)C=C5)C=C4)cc2)cc1
REMARK SMILES IDX 23 1 22 2 20 3 21 4 19 5 13 6 14 7 15 8 17 9 16 10 18 11
REMARK SMILES IDX 12 12 9 13 10 14 92 15 11 16 91 17 8 18 6 19 7 20 5 22 2 23
REMARK SMILES IDX 1 24 3 25 4 26 24 27 25 28 26 29 27 30 28 31 29 32 90 33
REMARK SMILES IDX 30 34 89 35 31 36 32 37 33 38 83 39 34 40 88 41 82 42 84 43
REMARK SMILES IDX 35 44 87 45 81 46 80 47 36 49 68 50 48 51 67 52 49 53 52 54
REMARK SMILES IDX 66 55 85 56 50 57 51 58 65 60 86 61 53 62 37 63 38 64 46 65
REMARK SMILES IDX 39 66 41 67 47 68 40 69 42 70 43 71 44 72 45 73 69 74 70 75
REMARK SMILES IDX 78 76 71 77 73 78 79 79 72 80 74 81 75 82 76 83 77 84 54 85
REMARK SMILES IDX 55 86 63 87 56 88 58 89 64 90 57 91 59 92 60 93 61 94 62 95
REMARK H PARENT 8 21 84 48 52 59
REMARK Flexibility Score: inf
ROOT
ATOM      1  C   UNL A   1      35.275  21.648  26.020  1.00  0.00     0.275 C 
ENDROOT
BRANCH   1   2
ATOM      2  O   UNL A   1      34.082  20.875  26.256  1.00  0.00    -0.458 OA
BRANCH   2   3
ATOM      3  C   UNL A   1      32.939  21.347  25.695  1.00  0.00     0.340 C 
ATOM      4  O   UNL A   1      32.206  22.206  26.152  1.00  0.00    -0.246 OA
BRANCH   3   5
ATOM      5  C   UNL A   1      32.661  20.584  24.451  1.00  0.00     0.086 A 
ATOM      6  C   UNL A   1      32.505  21.271  23.218  1.00  0.00    -0.002 A 
ATOM      7  C   UNL A   1      32.163  20.516  22.078  1.00  0.00     0.010 A 
ATOM      8  C   UNL A   1      32.005  19.133  22.142  1.00  0.00     0.002 A 
ATOM      9  C   UNL A   1      32.582  19.183  24.490  1.00  0.00     0.056 A 
ATOM     10  C   UNL A   1      32.230  18.467  23.342  1.00  0.00     0.021 A 
ATOM     11  Cl  UNL A   1      32.927  18.255  25.907  1.00  0.00    -0.083 Cl
BRANCH   6  12
ATOM     12  C   UNL A   1      32.785  22.713  23.062  1.00  0.00    -0.017 A 
ATOM     13  C   UNL A   1      33.250  25.498  22.803  1.00  0.00     0.044 A 
ATOM     14  C   UNL A   1      34.300  24.629  23.112  1.00  0.00     0.027 A 
ATOM     15  C   UNL A   1      31.987  24.961  22.569  1.00  0.00     0.027 A 
ATOM     16  C   UNL A   1      34.068  23.252  23.241  1.00  0.00     0.011 A 
ATOM     17  C   UNL A   1      31.750  23.599  22.733  1.00  0.00     0.011 A 
BRANCH  13  18
ATOM     18  N   UNL A   1      33.524  26.877  22.740  1.00  0.00    -0.291 N 
ATOM     19  C   UNL A   1      32.955  27.903  23.453  1.00  0.00     0.412 C 
ATOM     20  O   UNL A   1      33.250  29.072  23.230  1.00  0.00    -0.224 OA
ATOM     21  H   UNL A   1      34.220  27.142  22.096  1.00  0.00     0.173 HD
BRANCH  19  22
ATOM     22  O   UNL A   1      32.131  27.484  24.437  1.00  0.00    -0.444 OA
BRANCH  22  23
ATOM     23  C   UNL A   1      32.432  27.609  25.845  1.00  0.00     0.106 C 
ATOM     24  C   UNL A   1      31.660  26.453  26.501  1.00  0.00     0.056 C 
ATOM     25  C   UNL A   1      31.908  28.933  26.402  1.00  0.00     0.056 C 
ATOM     26  C   UNL A   1      33.927  27.414  26.100  1.00  0.00     0.056 C 
ENDBRANCH  22  23
ENDBRANCH  19  22
ENDBRANCH  13  18
ENDBRANCH   6  12
ENDBRANCH   3   5
ENDBRANCH   2   3
ENDBRANCH   1   2
BRANCH   1  27
ATOM     27  C   UNL A   1      36.300  20.805  25.261  1.00  0.00     0.275 C 
BRANCH  27  28
ATOM     28  O   UNL A   1      37.504  21.572  25.085  1.00  0.00    -0.458 OA
BRANCH  28  29
ATOM     29  C   UNL A   1      38.560  21.131  25.805  1.00  0.00     0.338 C 
ATOM     30  O   UNL A   1      39.021  20.002  25.846  1.00  0.00    -0.246 OA
BRANCH  29  31
ATOM     31  C   UNL A   1      39.230  22.294  26.394  1.00  0.00     0.060 A 
ATOM     32  C   UNL A   1      38.720  23.551  26.070  1.00  0.00     0.016 A 
ATOM     33  C   UNL A   1      40.372  22.170  27.179  1.00  0.00     0.016 A 
ATOM     34  C   UNL A   1      39.370  24.703  26.500  1.00  0.00     0.010 A 
ATOM     35  C   UNL A   1      41.010  23.329  27.634  1.00  0.00     0.010 A 
ATOM     36  C   UNL A   1      40.529  24.605  27.277  1.00  0.00    -0.014 A 
BRANCH  36  37
ATOM     37  C   UNL A   1      41.283  25.834  27.634  1.00  0.00     0.031 A 
ATOM     38  C   UNL A   1      40.608  26.905  28.448  1.00  0.00     0.074 A 
ATOM     39  C   UNL A   1      42.568  25.988  27.258  1.00  0.00     0.049 A 
ATOM     40  N   UNL A   1      41.032  28.101  28.761  1.00  0.00    -0.248 NA
ATOM     41  C   UNL A   1      39.271  26.585  28.976  1.00  0.00     0.031 C 
ATOM     42  C   UNL A   1      43.356  25.004  26.515  1.00  0.00     0.029 A 
ATOM     43  N   UNL A   1      43.434  27.038  27.443  1.00  0.00    -0.354 N 
ATOM     44  C   UNL A   1      39.994  28.701  29.463  1.00  0.00     0.074 A 
ATOM     45  C   UNL A   1      38.921  27.733  29.537  1.00  0.00     0.031 C 
ATOM     46  C   UNL A   1      44.588  25.496  26.308  1.00  0.00     0.029 A 
ATOM     47  C   UNL A   1      44.658  26.851  26.845  1.00  0.00     0.049 A 
ATOM     48  H   UNL A   1      43.201  27.846  27.954  1.00  0.00     0.167 HD
ATOM     49  C   UNL A   1      39.942  29.941  30.003  1.00  0.00     0.034 A 
ATOM     50  C   UNL A   1      45.704  27.691  26.711  1.00  0.00     0.034 A 
ATOM     51  C   UNL A   1      41.031  30.880  29.972  1.00  0.00     0.049 A 
ATOM     52  C   UNL A   1      45.608  29.076  27.292  1.00  0.00     0.074 A 
ATOM     53  C   UNL A   1      41.086  32.153  30.512  1.00  0.00     0.029 A 
ATOM     54  N   UNL A   1      42.258  30.648  29.369  1.00  0.00    -0.354 N 
ATOM     55  N   UNL A   1      44.637  29.616  27.988  1.00  0.00    -0.248 NA
ATOM     56  C   UNL A   1      46.759  29.967  27.079  1.00  0.00     0.031 C 
ATOM     57  C   UNL A   1      42.339  32.700  30.214  1.00  0.00     0.029 A 
ATOM     58  C   UNL A   1      43.076  31.756  29.515  1.00  0.00     0.049 A 
ATOM     59  H   UNL A   1      42.511  29.818  28.904  1.00  0.00     0.167 HD
ATOM     60  C   UNL A   1      45.071  30.894  28.322  1.00  0.00     0.074 A 
ATOM     61  C   UNL A   1      46.403  31.039  27.772  1.00  0.00     0.031 C 
ATOM     62  C   UNL A   1      44.420  31.865  29.009  1.00  0.00     0.034 A 
BRANCH  49  63
ATOM     63  C   UNL A   1      38.658  30.353  30.678  1.00  0.00     0.023 A 
ATOM     64  C   UNL A   1      38.448  30.056  32.039  1.00  0.00     0.012 A 
ATOM     65  C   UNL A   1      37.673  31.068  29.967  1.00  0.00     0.148 A 
ATOM     66  C   UNL A   1      37.260  30.425  32.671  1.00  0.00     0.002 A 
ATOM     67  C   UNL A   1      36.513  31.474  30.616  1.00  0.00     0.091 A 
ATOM     68  F   UNL A   1      37.880  31.324  28.667  1.00  0.00    -0.205 F 
ATOM     69  C   UNL A   1      36.298  31.141  31.963  1.00  0.00     0.022 A 
BRANCH  67  70
ATOM     70  S   UNL A   1      35.252  32.467  29.810  1.00  0.00     0.127 S 
ATOM     71  O   UNL A   1      36.028  33.623  29.363  1.00  0.00    -0.237 OA
ATOM     72  O   UNL A   1      34.804  31.583  28.734  1.00  0.00    -0.237 OA
ATOM     73  O   UNL A   1      34.248  32.741  30.827  1.00  0.00    -0.744 OA
ENDBRANCH  67  70
ENDBRANCH  49  63
BRANCH  50  74
ATOM     74  C   UNL A   1      46.939  27.242  26.005  1.00  0.00     0.023 A 
ATOM     75  C   UNL A   1      47.062  27.455  24.618  1.00  0.00     0.012 A 
ATOM     76  C   UNL A   1      47.997  26.620  26.698  1.00  0.00     0.148 A 
ATOM     77  C   UNL A   1      48.201  27.036  23.930  1.00  0.00     0.002 A 
ATOM     78  C   UNL A   1      49.154  26.258  26.018  1.00  0.00     0.091 A 
ATOM     79  F   UNL A   1      47.853  26.402  28.012  1.00  0.00    -0.205 F 
ATOM     80  C   UNL A   1      49.252  26.448  24.631  1.00  0.00     0.022 A 
BRANCH  78  81
ATOM     81  S   UNL A   1      50.604  25.615  26.861  1.00  0.00     0.127 S 
ATOM     82  O   UNL A   1      50.053  24.458  27.562  1.00  0.00    -0.237 OA
ATOM     83  O   UNL A   1      51.486  25.291  25.740  1.00  0.00    -0.237 OA
ATOM     84  O   UNL A   1      51.081  26.700  27.707  1.00  0.00    -0.744 OA
ENDBRANCH  78  81
ENDBRANCH  50  74
BRANCH  62  85
ATOM     85  C   UNL A   1      45.150  33.162  29.244  1.00  0.00     0.023 A 
ATOM     86  C   UNL A   1      45.927  33.333  30.406  1.00  0.00     0.012 A 
ATOM     87  C   UNL A   1      45.121  34.187  28.276  1.00  0.00     0.148 A 
ATOM     88  C   UNL A   1      46.637  34.513  30.618  1.00  0.00     0.002 A 
ATOM     89  C   UNL A   1      45.870  35.340  28.470  1.00  0.00     0.091 A 
ATOM     90  F   UNL A   1      44.360  34.014  27.185  1.00  0.00    -0.205 F 
ATOM     91  C   UNL A   1      46.618  35.511  29.646  1.00  0.00     0.022 A 
BRANCH  89  92
ATOM     92  S   UNL A   1      45.983  36.634  27.229  1.00  0.00     0.127 S 
ATOM     93  O   UNL A   1      44.635  37.197  27.261  1.00  0.00    -0.237 OA
ATOM     94  O   UNL A   1      47.021  37.505  27.784  1.00  0.00    -0.237 OA
ATOM     95  O   UNL A   1      46.354  35.970  25.988  1.00  0.00    -0.744 OA
ENDBRANCH  89  92
ENDBRANCH  62  85
ENDBRANCH  36  37
ENDBRANCH  29  31
ENDBRANCH  28  29
ENDBRANCH  27  28
ENDBRANCH   1  27
TORSDOF 18
ENDMDL
MODEL 3
REMARK VINA RESULT:     -11.3      5.399      8.000
REMARK SMILES CC(C)(C)OC(=O)Nc1ccc(-c2cccc(Cl)c2C(=O)OCCOC(=O)c2ccc(-c3c4nc(c(-c5cccc(S(=O)(=O)[O-])c5F)c5ccc([nH]5)c(-c5cccc(S(=O)(=O)[O-])c5F)c5nc(c(-c6cccc(S(=O)(=O)[O-])c6F)c6ccc3[nH]6)C=C5)C=C4)cc2)cc1
REMARK SMILES IDX 23 1 22 2 20 3 21 4 19 5 13 6 14 7 15 8 17 9 16 10 18 11
REMARK SMILES IDX 12 12 9 13 10 14 92 15 11 16 91 17 8 18 6 19 7 20 5 22 2 23
REMARK SMILES IDX 1 24 3 25 4 26 24 27 25 28 26 29 27 30 28 31 29 32 90 33
REMARK SMILES IDX 30 34 89 35 31 36 32 37 33 38 83 39 34 40 88 41 82 42 84 43
REMARK SMILES IDX 35 44 87 45 81 46 80 47 36 49 68 50 48 51 67 52 49 53 52 54
REMARK SMILES IDX 66 55 85 56 50 57 51 58 65 60 86 61 53 62 37 63 38 64 46 65
REMARK SMILES IDX 39 66 41 67 47 68 40 69 42 70 43 71 44 72 45 73 69 74 70 75
REMARK SMILES IDX 78 76 71 77 73 78 79 79 72 80 74 81 75 82 76 83 77 84 54 85
REMARK SMILES IDX 55 86 63 87 56 88 58 89 64 90 57 91 59 92 60 93 61 94 62 95
REMARK H PARENT 8 21 84 48 52 59
REMARK Flexibility Score: inf
ROOT
ATOM      1  C   UNL A   1      36.649  22.432  24.824  1.00  0.00     0.275 C 
ENDROOT
BRANCH   1   2
ATOM      2  O   UNL A   1      35.594  21.569  24.358  1.00  0.00    -0.458 OA
BRANCH   2   3
ATOM      3  C   UNL A   1      34.868  20.934  25.316  1.00  0.00     0.340 C 
ATOM      4  O   UNL A   1      34.840  21.204  26.503  1.00  0.00    -0.246 OA
BRANCH   3   5
ATOM      5  C   UNL A   1      34.162  19.781  24.701  1.00  0.00     0.086 A 
ATOM      6  C   UNL A   1      32.825  19.929  24.247  1.00  0.00    -0.002 A 
ATOM      7  C   UNL A   1      32.165  18.790  23.745  1.00  0.00     0.010 A 
ATOM      8  C   UNL A   1      32.806  17.554  23.667  1.00  0.00     0.002 A 
ATOM      9  C   UNL A   1      34.826  18.555  24.544  1.00  0.00     0.056 A 
ATOM     10  C   UNL A   1      34.138  17.441  24.052  1.00  0.00     0.021 A 
ATOM     11  Cl  UNL A   1      36.501  18.331  24.909  1.00  0.00    -0.083 Cl
BRANCH   6  12
ATOM     12  C   UNL A   1      32.140  21.237  24.183  1.00  0.00    -0.017 A 
ATOM     13  C   UNL A   1      30.856  23.765  24.138  1.00  0.00     0.044 A 
ATOM     14  C   UNL A   1      31.452  23.251  22.983  1.00  0.00     0.027 A 
ATOM     15  C   UNL A   1      30.857  22.986  25.291  1.00  0.00     0.027 A 
ATOM     16  C   UNL A   1      32.088  22.001  23.008  1.00  0.00     0.011 A 
ATOM     17  C   UNL A   1      31.518  21.762  25.325  1.00  0.00     0.011 A 
BRANCH  13  18
ATOM     18  N   UNL A   1      30.281  25.048  24.075  1.00  0.00    -0.291 N 
ATOM     19  C   UNL A   1      30.682  26.204  24.698  1.00  0.00     0.412 C 
ATOM     20  O   UNL A   1      30.028  27.237  24.602  1.00  0.00    -0.224 OA
ATOM     21  H   UNL A   1      29.481  25.127  23.506  1.00  0.00     0.173 HD
BRANCH  19  22
ATOM     22  O   UNL A   1      31.870  26.093  25.330  1.00  0.00    -0.444 OA
BRANCH  22  23
ATOM     23  C   UNL A   1      33.138  26.433  24.725  1.00  0.00     0.106 C 
ATOM     24  C   UNL A   1      33.667  27.594  25.582  1.00  0.00     0.056 C 
ATOM     25  C   UNL A   1      32.946  26.924  23.289  1.00  0.00     0.056 C 
ATOM     26  C   UNL A   1      34.116  25.262  24.820  1.00  0.00     0.056 C 
ENDBRANCH  22  23
ENDBRANCH  19  22
ENDBRANCH  13  18
ENDBRANCH   6  12
ENDBRANCH   3   5
ENDBRANCH   2   3
ENDBRANCH   1   2
BRANCH   1  27
ATOM     27  C   UNL A   1      37.977  21.674  24.830  1.00  0.00     0.275 C 
BRANCH  27  28
ATOM     28  O   UNL A   1      38.246  21.206  26.163  1.00  0.00    -0.458 OA
BRANCH  28  29
ATOM     29  C   UNL A   1      39.560  21.134  26.477  1.00  0.00     0.338 C 
ATOM     30  O   UNL A   1      40.331  20.212  26.267  1.00  0.00    -0.246 OA
BRANCH  29  31
ATOM     31  C   UNL A   1      39.994  22.456  26.938  1.00  0.00     0.060 A 
ATOM     32  C   UNL A   1      39.295  23.559  26.448  1.00  0.00     0.016 A 
ATOM     33  C   UNL A   1      41.101  22.623  27.764  1.00  0.00     0.016 A 
ATOM     34  C   UNL A   1      39.719  24.848  26.752  1.00  0.00     0.010 A 
ATOM     35  C   UNL A   1      41.511  23.921  28.091  1.00  0.00     0.010 A 
ATOM     36  C   UNL A   1      40.838  25.044  27.567  1.00  0.00    -0.014 A 
BRANCH  36  37
ATOM     37  C   UNL A   1      41.356  26.418  27.792  1.00  0.00     0.031 A 
ATOM     38  C   UNL A   1      42.673  26.821  27.185  1.00  0.00     0.074 A 
ATOM     39  C   UNL A   1      40.649  27.312  28.511  1.00  0.00     0.049 A 
ATOM     40  N   UNL A   1      43.366  27.915  27.356  1.00  0.00    -0.248 NA
ATOM     41  C   UNL A   1      43.294  25.855  26.264  1.00  0.00     0.031 C 
ATOM     42  C   UNL A   1      39.334  27.068  29.107  1.00  0.00     0.029 A 
ATOM     43  N   UNL A   1      40.943  28.604  28.870  1.00  0.00    -0.354 N 
ATOM     44  C   UNL A   1      44.533  27.745  26.622  1.00  0.00     0.074 A 
ATOM     45  C   UNL A   1      44.451  26.443  25.996  1.00  0.00     0.031 C 
ATOM     46  C   UNL A   1      38.936  28.174  29.756  1.00  0.00     0.029 A 
ATOM     47  C   UNL A   1      39.991  29.180  29.679  1.00  0.00     0.049 A 
ATOM     48  H   UNL A   1      41.758  29.073  28.578  1.00  0.00     0.167 HD
ATOM     49  C   UNL A   1      45.574  28.598  26.476  1.00  0.00     0.034 A 
ATOM     50  C   UNL A   1      39.985  30.368  30.316  1.00  0.00     0.034 A 
ATOM     51  C   UNL A   1      45.627  29.912  27.059  1.00  0.00     0.049 A 
ATOM     52  C   UNL A   1      41.170  31.284  30.164  1.00  0.00     0.074 A 
ATOM     53  C   UNL A   1      46.627  30.863  26.950  1.00  0.00     0.029 A 
ATOM     54  N   UNL A   1      44.637  30.463  27.858  1.00  0.00    -0.354 N 
ATOM     55  N   UNL A   1      42.248  31.128  29.434  1.00  0.00    -0.248 NA
ATOM     56  C   UNL A   1      41.133  32.547  30.915  1.00  0.00     0.031 C 
ATOM     57  C   UNL A   1      46.252  31.979  27.705  1.00  0.00     0.029 A 
ATOM     58  C   UNL A   1      45.004  31.737  28.258  1.00  0.00     0.049 A 
ATOM     59  H   UNL A   1      43.797  30.014  28.107  1.00  0.00     0.167 HD
ATOM     60  C   UNL A   1      43.001  32.283  29.612  1.00  0.00     0.074 A 
ATOM     61  C   UNL A   1      42.244  33.141  30.502  1.00  0.00     0.031 C 
ATOM     62  C   UNL A   1      44.216  32.600  29.100  1.00  0.00     0.034 A 
BRANCH  49  63
ATOM     63  C   UNL A   1      46.745  28.132  25.649  1.00  0.00     0.023 A 
ATOM     64  C   UNL A   1      46.668  28.151  24.242  1.00  0.00     0.012 A 
ATOM     65  C   UNL A   1      47.936  27.707  26.270  1.00  0.00     0.148 A 
ATOM     66  C   UNL A   1      47.743  27.715  23.466  1.00  0.00     0.002 A 
ATOM     67  C   UNL A   1      49.019  27.318  25.490  1.00  0.00     0.091 A 
ATOM     68  F   UNL A   1      47.984  27.675  27.609  1.00  0.00    -0.205 F 
ATOM     69  C   UNL A   1      48.920  27.307  24.089  1.00  0.00     0.022 A 
BRANCH  67  70
ATOM     70  S   UNL A   1      50.603  26.853  26.199  1.00  0.00     0.127 S 
ATOM     71  O   UNL A   1      50.800  27.904  27.196  1.00  0.00    -0.237 OA
ATOM     72  O   UNL A   1      50.315  25.531  26.757  1.00  0.00    -0.237 OA
ATOM     73  O   UNL A   1      51.551  26.851  25.095  1.00  0.00    -0.744 OA
ENDBRANCH  67  70
ENDBRANCH  49  63
BRANCH  50  74
ATOM     74  C   UNL A   1      38.814  30.765  31.149  1.00  0.00     0.023 A 
ATOM     75  C   UNL A   1      38.844  30.543  32.540  1.00  0.00     0.012 A 
ATOM     76  C   UNL A   1      37.678  31.373  30.577  1.00  0.00     0.148 A 
ATOM     77  C   UNL A   1      37.758  30.895  33.342  1.00  0.00     0.002 A 
ATOM     78  C   UNL A   1      36.624  31.775  31.389  1.00  0.00     0.091 A 
ATOM     79  F   UNL A   1      37.655  31.554  29.250  1.00  0.00    -0.205 F 
ATOM     80  C   UNL A   1      36.653  31.522  32.769  1.00  0.00     0.022 A 
BRANCH  78  81
ATOM     81  S   UNL A   1      35.222  32.703  30.756  1.00  0.00     0.127 S 
ATOM     82  O   UNL A   1      34.294  32.647  31.883  1.00  0.00    -0.237 OA
ATOM     83  O   UNL A   1      35.815  34.018  30.513  1.00  0.00    -0.237 OA
ATOM     84  O   UNL A   1      34.798  32.003  29.551  1.00  0.00    -0.744 OA
ENDBRANCH  78  81
ENDBRANCH  50  74
BRANCH  62  85
ATOM     85  C   UNL A   1      44.791  33.948  29.451  1.00  0.00     0.023 A 
ATOM     86  C   UNL A   1      45.636  34.083  30.570  1.00  0.00     0.012 A 
ATOM     87  C   UNL A   1      44.549  35.066  28.628  1.00  0.00     0.148 A 
ATOM     88  C   UNL A   1      46.204  35.316  30.884  1.00  0.00     0.002 A 
ATOM     89  C   UNL A   1      45.158  36.280  28.918  1.00  0.00     0.091 A 
ATOM     90  F   UNL A   1      43.727  34.922  27.579  1.00  0.00    -0.205 F 
ATOM     91  C   UNL A   1      45.975  36.411  30.054  1.00  0.00     0.022 A 
BRANCH  89  92
ATOM     92  S   UNL A   1      45.000  37.717  27.851  1.00  0.00     0.127 S 
ATOM     93  O   UNL A   1      43.551  37.802  27.680  1.00  0.00    -0.237 OA
ATOM     94  O   UNL A   1      45.580  38.779  28.675  1.00  0.00    -0.237 OA
ATOM     95  O   UNL A   1      45.755  37.407  26.646  1.00  0.00    -0.744 OA
ENDBRANCH  89  92
ENDBRANCH  62  85
ENDBRANCH  36  37
ENDBRANCH  29  31
ENDBRANCH  28  29
ENDBRANCH  27  28
ENDBRANCH   1  27
TORSDOF 18
ENDMDL
