MODEL 1
REMARK VINA RESULT:     -10.4      0.000      0.000
REMARK SMILES Cc1cc(C)cc(C[N@@H+]2CCO[C@@H](CC(=O)OCCOC(=O)c3ccc(-c4c5nc(c(-c6cccc(S(=O)(=O)[O-])c6F)c6ccc([nH]6)c(-c6cccc(S(=O)(=O)[O-])c6F)c6nc(c(-c7cccc(S(=O)(=O)[O-])c7F)c7ccc4[nH]7)C=C6)C=C5)cc3)C2)c1
REMARK SMILES IDX 18 1 17 2 15 3 16 4 14 5 13 6 9 7 10 8 86 9 11 11 12 12 8 13
REMARK SMILES IDX 7 14 1 15 2 16 3 17 87 18 4 19 5 20 6 21 19 22 20 23 21 24
REMARK SMILES IDX 22 25 23 26 24 27 85 28 25 29 84 30 26 31 27 32 28 33 78 34
REMARK SMILES IDX 29 35 83 36 77 37 79 38 30 39 82 40 76 41 75 42 31 44 63 45
REMARK SMILES IDX 43 46 62 47 44 48 47 49 61 50 80 51 45 52 46 53 60 55 81 56
REMARK SMILES IDX 48 57 32 58 33 59 41 60 34 61 36 62 42 63 35 64 37 65 38 66
REMARK SMILES IDX 39 67 40 68 64 69 65 70 73 71 66 72 68 73 74 74 67 75 69 76
REMARK SMILES IDX 70 77 71 78 72 79 49 80 50 81 58 82 51 83 53 84 59 85 52 86
REMARK SMILES IDX 54 87 55 88 56 89 57 90
REMARK H PARENT 9 10 79 43 47 54
REMARK Flexibility Score: inf
ROOT
ATOM      1  C   UNL A   1      33.535  34.941  28.868  1.00  0.00     0.274 C 
ENDROOT
BRANCH   1   2
ATOM      2  O   UNL A   1      32.609  34.975  29.973  1.00  0.00    -0.462 OA
BRANCH   2   3
ATOM      3  C   UNL A   1      32.862  35.898  30.939  1.00  0.00     0.308 C 
ATOM      4  O   UNL A   1      32.884  37.109  30.754  1.00  0.00    -0.252 OA
BRANCH   3   5
ATOM      5  C   UNL A   1      33.237  35.265  32.247  1.00  0.00     0.160 C 
BRANCH   5   6
ATOM      6  C   UNL A   1      34.569  34.519  32.337  1.00  0.00     0.184 C 
ATOM      7  N   UNL A   1      36.086  33.205  33.942  1.00  0.00    -0.327 N 
ATOM      8  C   UNL A   1      35.879  32.065  33.050  1.00  0.00     0.291 C 
ATOM      9  C   UNL A   1      35.038  34.228  33.788  1.00  0.00     0.295 C 
ATOM     10  H   UNL A   1      35.955  32.834  34.883  1.00  0.00     0.348 HD
ATOM     11  C   UNL A   1      35.447  32.432  31.625  1.00  0.00     0.222 C 
ATOM     12  O   UNL A   1      34.299  33.274  31.642  1.00  0.00    -0.366 OA
BRANCH   7  13
ATOM     13  C   UNL A   1      37.464  33.684  34.096  1.00  0.00     0.299 C 
BRANCH  13  14
ATOM     14  C   UNL A   1      37.988  33.952  35.488  1.00  0.00     0.007 A 
ATOM     15  C   UNL A   1      37.471  32.649  39.037  1.00  0.00     0.044 C 
ATOM     16  C   UNL A   1      37.964  33.461  37.879  1.00  0.00    -0.050 A 
ATOM     17  C   UNL A   1      38.854  34.516  38.102  1.00  0.00     0.006 A 
ATOM     18  C   UNL A   1      37.532  33.195  36.574  1.00  0.00     0.013 A 
ATOM     19  C   UNL A   1      39.360  35.256  37.029  1.00  0.00    -0.050 A 
ATOM     20  C   UNL A   1      40.258  36.430  37.286  1.00  0.00     0.044 C 
ATOM     21  C   UNL A   1      38.960  34.932  35.728  1.00  0.00     0.013 A 
ENDBRANCH  13  14
ENDBRANCH   7  13
ENDBRANCH   5   6
ENDBRANCH   3   5
ENDBRANCH   2   3
ENDBRANCH   1   2
BRANCH   1  22
ATOM     22  C   UNL A   1      33.397  33.675  28.013  1.00  0.00     0.275 C 
BRANCH  22  23
ATOM     23  O   UNL A   1      34.658  33.018  27.782  1.00  0.00    -0.458 OA
BRANCH  23  24
ATOM     24  C   UNL A   1      34.601  31.670  27.837  1.00  0.00     0.338 C 
ATOM     25  O   UNL A   1      33.654  30.983  27.476  1.00  0.00    -0.246 OA
BRANCH  24  26
ATOM     26  C   UNL A   1      35.863  31.078  28.305  1.00  0.00     0.060 A 
ATOM     27  C   UNL A   1      35.797  29.859  28.992  1.00  0.00     0.016 A 
ATOM     28  C   UNL A   1      37.079  31.751  28.173  1.00  0.00     0.016 A 
ATOM     29  C   UNL A   1      36.947  29.310  29.554  1.00  0.00     0.010 A 
ATOM     30  C   UNL A   1      38.232  31.201  28.742  1.00  0.00     0.010 A 
ATOM     31  C   UNL A   1      38.171  29.983  29.439  1.00  0.00    -0.014 A 
BRANCH  31  32
ATOM     32  C   UNL A   1      39.402  29.377  29.999  1.00  0.00     0.031 A 
ATOM     33  C   UNL A   1      40.043  29.932  31.236  1.00  0.00     0.074 A 
ATOM     34  C   UNL A   1      39.953  28.333  29.353  1.00  0.00     0.049 A 
ATOM     35  N   UNL A   1      41.129  29.535  31.848  1.00  0.00    -0.248 NA
ATOM     36  C   UNL A   1      39.380  31.078  31.872  1.00  0.00     0.031 C 
ATOM     37  C   UNL A   1      39.417  27.723  28.136  1.00  0.00     0.029 A 
ATOM     38  N   UNL A   1      41.096  27.623  29.613  1.00  0.00    -0.354 N 
ATOM     39  C   UNL A   1      41.288  30.388  32.933  1.00  0.00     0.074 A 
ATOM     40  C   UNL A   1      40.190  31.330  32.893  1.00  0.00     0.031 C 
ATOM     41  C   UNL A   1      40.250  26.752  27.732  1.00  0.00     0.029 A 
ATOM     42  C   UNL A   1      41.384  26.686  28.650  1.00  0.00     0.049 A 
ATOM     43  H   UNL A   1      41.654  27.770  30.409  1.00  0.00     0.167 HD
ATOM     44  C   UNL A   1      42.254  30.375  33.882  1.00  0.00     0.034 A 
ATOM     45  C   UNL A   1      42.453  25.879  28.511  1.00  0.00     0.034 A 
ATOM     46  C   UNL A   1      43.341  29.432  33.914  1.00  0.00     0.049 A 
ATOM     47  C   UNL A   1      43.525  25.902  29.565  1.00  0.00     0.074 A 
ATOM     48  C   UNL A   1      44.344  29.306  34.860  1.00  0.00     0.029 A 
ATOM     49  N   UNL A   1      43.578  28.463  32.951  1.00  0.00    -0.354 N 
ATOM     50  N   UNL A   1      43.588  26.621  30.659  1.00  0.00    -0.248 NA
ATOM     51  C   UNL A   1      44.655  24.981  29.384  1.00  0.00     0.031 C 
ATOM     52  C   UNL A   1      45.198  28.273  34.457  1.00  0.00     0.029 A 
ATOM     53  C   UNL A   1      44.718  27.745  33.269  1.00  0.00     0.049 A 
ATOM     54  H   UNL A   1      43.017  28.308  32.156  1.00  0.00     0.167 HD
ATOM     55  C   UNL A   1      44.747  26.219  31.314  1.00  0.00     0.074 A 
ATOM     56  C   UNL A   1      45.345  25.179  30.501  1.00  0.00     0.031 C 
ATOM     57  C   UNL A   1      45.274  26.680  32.475  1.00  0.00     0.034 A 
BRANCH  44  58
ATOM     58  C   UNL A   1      42.164  31.386  34.992  1.00  0.00     0.023 A 
ATOM     59  C   UNL A   1      41.435  31.068  36.156  1.00  0.00     0.012 A 
ATOM     60  C   UNL A   1      42.863  32.608  34.926  1.00  0.00     0.148 A 
ATOM     61  C   UNL A   1      41.386  31.958  37.229  1.00  0.00     0.002 A 
ATOM     62  C   UNL A   1      42.835  33.476  36.013  1.00  0.00     0.091 A 
ATOM     63  F   UNL A   1      43.531  32.903  33.802  1.00  0.00    -0.205 F 
ATOM     64  C   UNL A   1      42.093  33.155  37.162  1.00  0.00     0.022 A 
BRANCH  62  65
ATOM     65  S   UNL A   1      43.768  35.012  36.046  1.00  0.00     0.127 S 
ATOM     66  O   UNL A   1      43.525  35.474  37.411  1.00  0.00    -0.237 OA
ATOM     67  O   UNL A   1      45.133  34.553  35.791  1.00  0.00    -0.237 OA
ATOM     68  O   UNL A   1      43.203  35.843  34.991  1.00  0.00    -0.744 OA
ENDBRANCH  62  65
ENDBRANCH  44  58
BRANCH  45  69
ATOM     69  C   UNL A   1      42.525  24.952  27.349  1.00  0.00     0.023 A 
ATOM     70  C   UNL A   1      43.163  25.372  26.167  1.00  0.00     0.012 A 
ATOM     71  C   UNL A   1      42.021  23.640  27.430  1.00  0.00     0.148 A 
ATOM     72  C   UNL A   1      43.283  24.505  25.080  1.00  0.00     0.002 A 
ATOM     73  C   UNL A   1      42.191  22.764  26.364  1.00  0.00     0.091 A 
ATOM     74  F   UNL A   1      41.396  23.265  28.556  1.00  0.00    -0.205 F 
ATOM     75  C   UNL A   1      42.810  23.199  25.183  1.00  0.00     0.022 A 
BRANCH  73  76
ATOM     76  S   UNL A   1      41.732  21.031  26.473  1.00  0.00     0.127 S 
ATOM     77  O   UNL A   1      42.148  20.696  27.832  1.00  0.00    -0.237 OA
ATOM     78  O   UNL A   1      40.282  21.082  26.268  1.00  0.00    -0.237 OA
ATOM     79  O   UNL A   1      42.461  20.370  25.400  1.00  0.00    -0.744 OA
ENDBRANCH  73  76
ENDBRANCH  45  69
BRANCH  57  80
ATOM     80  C   UNL A   1      46.557  26.053  32.951  1.00  0.00     0.023 A 
ATOM     81  C   UNL A   1      47.788  26.550  32.480  1.00  0.00     0.012 A 
ATOM     82  C   UNL A   1      46.547  25.030  33.919  1.00  0.00     0.148 A 
ATOM     83  C   UNL A   1      48.990  26.020  32.946  1.00  0.00     0.002 A 
ATOM     84  C   UNL A   1      47.749  24.535  34.410  1.00  0.00     0.091 A 
ATOM     85  F   UNL A   1      45.364  24.557  34.339  1.00  0.00    -0.205 F 
ATOM     86  C   UNL A   1      48.971  25.022  33.919  1.00  0.00     0.022 A 
BRANCH  84  87
ATOM     87  S   UNL A   1      47.817  23.313  35.726  1.00  0.00     0.127 S 
ATOM     88  O   UNL A   1      49.066  22.618  35.421  1.00  0.00    -0.237 OA
ATOM     89  O   UNL A   1      47.862  24.148  36.927  1.00  0.00    -0.237 OA
ATOM     90  O   UNL A   1      46.605  22.517  35.593  1.00  0.00    -0.744 OA
ENDBRANCH  84  87
ENDBRANCH  57  80
ENDBRANCH  31  32
ENDBRANCH  24  26
ENDBRANCH  23  24
ENDBRANCH  22  23
ENDBRANCH   1  22
TORSDOF 17
ENDMDL
MODEL 2
REMARK VINA RESULT:     -10.2      5.631     10.481
REMARK SMILES Cc1cc(C)cc(C[N@@H+]2CCO[C@@H](CC(=O)OCCOC(=O)c3ccc(-c4c5nc(c(-c6cccc(S(=O)(=O)[O-])c6F)c6ccc([nH]6)c(-c6cccc(S(=O)(=O)[O-])c6F)c6nc(c(-c7cccc(S(=O)(=O)[O-])c7F)c7ccc4[nH]7)C=C6)C=C5)cc3)C2)c1
REMARK SMILES IDX 18 1 17 2 15 3 16 4 14 5 13 6 9 7 10 8 86 9 11 11 12 12 8 13
REMARK SMILES IDX 7 14 1 15 2 16 3 17 87 18 4 19 5 20 6 21 19 22 20 23 21 24
REMARK SMILES IDX 22 25 23 26 24 27 85 28 25 29 84 30 26 31 27 32 28 33 78 34
REMARK SMILES IDX 29 35 83 36 77 37 79 38 30 39 82 40 76 41 75 42 31 44 63 45
REMARK SMILES IDX 43 46 62 47 44 48 47 49 61 50 80 51 45 52 46 53 60 55 81 56
REMARK SMILES IDX 48 57 32 58 33 59 41 60 34 61 36 62 42 63 35 64 37 65 38 66
REMARK SMILES IDX 39 67 40 68 64 69 65 70 73 71 66 72 68 73 74 74 67 75 69 76
REMARK SMILES IDX 70 77 71 78 72 79 49 80 50 81 58 82 51 83 53 84 59 85 52 86
REMARK SMILES IDX 54 87 55 88 56 89 57 90
REMARK H PARENT 9 10 79 43 47 54
REMARK Flexibility Score: inf
ROOT
ATOM      1  C   UNL A   1      36.312  19.734  24.948  1.00  0.00     0.274 C 
ENDROOT
BRANCH   1   2
ATOM      2  O   UNL A   1      34.939  20.116  25.168  1.00  0.00    -0.462 OA
BRANCH   2   3
ATOM      3  C   UNL A   1      33.997  19.327  24.586  1.00  0.00     0.308 C 
ATOM      4  O   UNL A   1      34.216  18.221  24.107  1.00  0.00    -0.252 OA
BRANCH   3   5
ATOM      5  C   UNL A   1      32.665  20.012  24.483  1.00  0.00     0.160 C 
BRANCH   5   6
ATOM      6  C   UNL A   1      32.486  21.360  25.183  1.00  0.00     0.184 C 
ATOM      7  N   UNL A   1      32.435  23.897  24.777  1.00  0.00    -0.327 N 
ATOM      8  C   UNL A   1      31.047  23.844  25.232  1.00  0.00     0.291 C 
ATOM      9  C   UNL A   1      32.923  22.580  24.331  1.00  0.00     0.295 C 
ATOM     10  H   UNL A   1      32.417  24.470  23.934  1.00  0.00     0.348 HD
ATOM     11  C   UNL A   1      30.697  22.625  26.095  1.00  0.00     0.222 C 
ATOM     12  O   UNL A   1      31.059  21.415  25.437  1.00  0.00    -0.366 OA
BRANCH   7  13
ATOM     13  C   UNL A   1      33.360  24.716  25.568  1.00  0.00     0.299 C 
BRANCH  13  14
ATOM     14  C   UNL A   1      33.367  26.212  25.356  1.00  0.00     0.007 A 
ATOM     15  C   UNL A   1      32.375  29.372  27.251  1.00  0.00     0.044 C 
ATOM     16  C   UNL A   1      32.862  28.458  26.169  1.00  0.00    -0.050 A 
ATOM     17  C   UNL A   1      33.255  28.989  24.937  1.00  0.00     0.006 A 
ATOM     18  C   UNL A   1      32.914  27.072  26.364  1.00  0.00     0.013 A 
ATOM     19  C   UNL A   1      33.755  28.156  23.932  1.00  0.00    -0.050 A 
ATOM     20  C   UNL A   1      34.105  28.728  22.590  1.00  0.00     0.044 C 
ATOM     21  C   UNL A   1      33.853  26.781  24.172  1.00  0.00     0.013 A 
ENDBRANCH  13  14
ENDBRANCH   7  13
ENDBRANCH   5   6
ENDBRANCH   3   5
ENDBRANCH   2   3
ENDBRANCH   1   2
BRANCH   1  22
ATOM     22  C   UNL A   1      37.214  20.924  24.597  1.00  0.00     0.275 C 
BRANCH  22  23
ATOM     23  O   UNL A   1      37.621  21.675  25.757  1.00  0.00    -0.458 OA
BRANCH  23  24
ATOM     24  C   UNL A   1      38.906  21.478  26.124  1.00  0.00     0.338 C 
ATOM     25  O   UNL A   1      39.537  20.439  25.972  1.00  0.00    -0.246 OA
BRANCH  24  26
ATOM     26  C   UNL A   1      39.525  22.698  26.662  1.00  0.00     0.060 A 
ATOM     27  C   UNL A   1      39.118  23.927  26.129  1.00  0.00     0.016 A 
ATOM     28  C   UNL A   1      40.565  22.639  27.592  1.00  0.00     0.016 A 
ATOM     29  C   UNL A   1      39.751  25.104  26.522  1.00  0.00     0.010 A 
ATOM     30  C   UNL A   1      41.203  23.821  27.982  1.00  0.00     0.010 A 
ATOM     31  C   UNL A   1      40.804  25.057  27.445  1.00  0.00    -0.014 A 
BRANCH  31  32
ATOM     32  C   UNL A   1      41.448  26.312  27.896  1.00  0.00     0.031 A 
ATOM     33  C   UNL A   1      40.665  27.363  28.626  1.00  0.00     0.074 A 
ATOM     34  C   UNL A   1      42.747  26.506  27.608  1.00  0.00     0.049 A 
ATOM     35  N   UNL A   1      41.067  28.525  29.074  1.00  0.00    -0.248 NA
ATOM     36  C   UNL A   1      39.249  27.074  28.892  1.00  0.00     0.031 C 
ATOM     37  C   UNL A   1      43.598  25.553  26.892  1.00  0.00     0.029 A 
ATOM     38  N   UNL A   1      43.569  27.575  27.854  1.00  0.00    -0.354 N 
ATOM     39  C   UNL A   1      39.954  29.111  29.664  1.00  0.00     0.074 A 
ATOM     40  C   UNL A   1      38.856  28.180  29.511  1.00  0.00     0.031 C 
ATOM     41  C   UNL A   1      44.814  26.096  26.724  1.00  0.00     0.029 A 
ATOM     42  C   UNL A   1      44.820  27.437  27.303  1.00  0.00     0.049 A 
ATOM     43  H   UNL A   1      43.290  28.363  28.373  1.00  0.00     0.167 HD
ATOM     44  C   UNL A   1      39.863  30.310  30.287  1.00  0.00     0.034 A 
ATOM     45  C   UNL A   1      45.850  28.303  27.250  1.00  0.00     0.034 A 
ATOM     46  C   UNL A   1      40.961  31.228  30.437  1.00  0.00     0.049 A 
ATOM     47  C   UNL A   1      45.714  29.639  27.928  1.00  0.00     0.074 A 
ATOM     48  C   UNL A   1      40.982  32.446  31.093  1.00  0.00     0.029 A 
ATOM     49  N   UNL A   1      42.230  31.037  29.910  1.00  0.00    -0.354 N 
ATOM     50  N   UNL A   1      44.697  30.121  28.600  1.00  0.00    -0.248 NA
ATOM     51  C   UNL A   1      46.876  30.535  27.869  1.00  0.00     0.031 C 
ATOM     52  C   UNL A   1      42.259  33.001  30.946  1.00  0.00     0.029 A 
ATOM     53  C   UNL A   1      43.037  32.120  30.211  1.00  0.00     0.049 A 
ATOM     54  H   UNL A   1      42.514  30.247  29.395  1.00  0.00     0.167 HD
ATOM     55  C   UNL A   1      45.106  31.363  29.071  1.00  0.00     0.074 A 
ATOM     56  C   UNL A   1      46.471  31.551  28.621  1.00  0.00     0.031 C 
ATOM     57  C   UNL A   1      44.409  32.271  29.798  1.00  0.00     0.034 A 
BRANCH  44  58
ATOM     58  C   UNL A   1      38.539  30.689  30.894  1.00  0.00     0.023 A 
ATOM     59  C   UNL A   1      38.299  30.407  32.254  1.00  0.00     0.012 A 
ATOM     60  C   UNL A   1      37.570  31.394  30.153  1.00  0.00     0.148 A 
ATOM     61  C   UNL A   1      37.108  30.803  32.863  1.00  0.00     0.002 A 
ATOM     62  C   UNL A   1      36.399  31.813  30.775  1.00  0.00     0.091 A 
ATOM     63  F   UNL A   1      37.806  31.632  28.855  1.00  0.00    -0.205 F 
ATOM     64  C   UNL A   1      36.164  31.513  32.127  1.00  0.00     0.022 A 
BRANCH  62  65
ATOM     65  S   UNL A   1      35.152  32.791  29.927  1.00  0.00     0.127 S 
ATOM     66  O   UNL A   1      34.666  31.844  28.927  1.00  0.00    -0.237 OA
ATOM     67  O   UNL A   1      34.203  33.085  31.002  1.00  0.00    -0.237 OA
ATOM     68  O   UNL A   1      35.850  33.957  29.403  1.00  0.00    -0.744 OA
ENDBRANCH  62  65
ENDBRANCH  44  58
BRANCH  45  69
ATOM     69  C   UNL A   1      47.110  27.902  26.567  1.00  0.00     0.023 A 
ATOM     70  C   UNL A   1      48.151  27.325  27.318  1.00  0.00     0.012 A 
ATOM     71  C   UNL A   1      47.257  28.033  25.173  1.00  0.00     0.148 A 
ATOM     72  C   UNL A   1      49.324  26.900  26.693  1.00  0.00     0.002 A 
ATOM     73  C   UNL A   1      48.405  27.558  24.549  1.00  0.00     0.091 A 
ATOM     74  F   UNL A   1      46.264  28.606  24.477  1.00  0.00    -0.205 F 
ATOM     75  C   UNL A   1      49.446  27.003  25.309  1.00  0.00     0.022 A 
BRANCH  73  76
ATOM     76  S   UNL A   1      48.576  27.532  22.761  1.00  0.00     0.127 S 
ATOM     77  O   UNL A   1      49.870  28.183  22.574  1.00  0.00    -0.237 OA
ATOM     78  O   UNL A   1      48.561  26.096  22.471  1.00  0.00    -0.237 OA
ATOM     79  O   UNL A   1      47.418  28.253  22.252  1.00  0.00    -0.744 OA
ENDBRANCH  73  76
ENDBRANCH  45  69
BRANCH  57  80
ATOM     80  C   UNL A   1      45.112  33.548  30.171  1.00  0.00     0.023 A 
ATOM     81  C   UNL A   1      45.787  33.634  31.404  1.00  0.00     0.012 A 
ATOM     82  C   UNL A   1      45.169  34.631  29.272  1.00  0.00     0.148 A 
ATOM     83  C   UNL A   1      46.488  34.788  31.749  1.00  0.00     0.002 A 
ATOM     84  C   UNL A   1      45.905  35.763  29.604  1.00  0.00     0.091 A 
ATOM     85  F   UNL A   1      44.503  34.538  28.112  1.00  0.00    -0.205 F 
ATOM     86  C   UNL A   1      46.557  35.847  30.845  1.00  0.00     0.022 A 
BRANCH  84  87
ATOM     87  S   UNL A   1      46.121  37.136  28.465  1.00  0.00     0.127 S 
ATOM     88  O   UNL A   1      46.987  38.027  29.234  1.00  0.00    -0.237 OA
ATOM     89  O   UNL A   1      46.770  36.494  27.320  1.00  0.00    -0.237 OA
ATOM     90  O   UNL A   1      44.782  37.640  28.192  1.00  0.00    -0.744 OA
ENDBRANCH  84  87
ENDBRANCH  57  80
ENDBRANCH  31  32
ENDBRANCH  24  26
ENDBRANCH  23  24
ENDBRANCH  22  23
ENDBRANCH   1  22
TORSDOF 17
ENDMDL
MODEL 3
REMARK VINA RESULT:     -10.1      3.569      7.073
REMARK SMILES Cc1cc(C)cc(C[N@@H+]2CCO[C@@H](CC(=O)OCCOC(=O)c3ccc(-c4c5nc(c(-c6cccc(S(=O)(=O)[O-])c6F)c6ccc([nH]6)c(-c6cccc(S(=O)(=O)[O-])c6F)c6nc(c(-c7cccc(S(=O)(=O)[O-])c7F)c7ccc4[nH]7)C=C6)C=C5)cc3)C2)c1
REMARK SMILES IDX 18 1 17 2 15 3 16 4 14 5 13 6 9 7 10 8 86 9 11 11 12 12 8 13
REMARK SMILES IDX 7 14 1 15 2 16 3 17 87 18 4 19 5 20 6 21 19 22 20 23 21 24
REMARK SMILES IDX 22 25 23 26 24 27 85 28 25 29 84 30 26 31 27 32 28 33 78 34
REMARK SMILES IDX 29 35 83 36 77 37 79 38 30 39 82 40 76 41 75 42 31 44 63 45
REMARK SMILES IDX 43 46 62 47 44 48 47 49 61 50 80 51 45 52 46 53 60 55 81 56
REMARK SMILES IDX 48 57 32 58 33 59 41 60 34 61 36 62 42 63 35 64 37 65 38 66
REMARK SMILES IDX 39 67 40 68 64 69 65 70 73 71 66 72 68 73 74 74 67 75 69 76
REMARK SMILES IDX 70 77 71 78 72 79 49 80 50 81 58 82 51 83 53 84 59 85 52 86
REMARK SMILES IDX 54 87 55 88 56 89 57 90
REMARK H PARENT 9 10 79 43 47 54
REMARK Flexibility Score: inf
ROOT
ATOM      1  C   UNL A   1      31.687  28.621  25.735  1.00  0.00     0.274 C 
ENDROOT
BRANCH   1   2
ATOM      2  O   UNL A   1      31.441  28.104  24.411  1.00  0.00    -0.462 OA
BRANCH   2   3
ATOM      3  C   UNL A   1      30.423  27.209  24.298  1.00  0.00     0.308 C 
ATOM      4  O   UNL A   1      29.641  27.162  23.356  1.00  0.00    -0.252 OA
BRANCH   3   5
ATOM      5  C   UNL A   1      30.281  26.350  25.521  1.00  0.00     0.160 C 
BRANCH   5   6
ATOM      6  C   UNL A   1      30.930  24.965  25.514  1.00  0.00     0.184 C 
ATOM      7  N   UNL A   1      33.063  23.691  26.170  1.00  0.00    -0.327 N 
ATOM      8  C   UNL A   1      32.211  22.930  27.083  1.00  0.00     0.291 C 
ATOM      9  C   UNL A   1      32.457  24.979  25.790  1.00  0.00     0.295 C 
ATOM     10  H   UNL A   1      33.886  23.940  26.720  1.00  0.00     0.348 HD
ATOM     11  C   UNL A   1      30.718  22.937  26.729  1.00  0.00     0.222 C 
ATOM     12  O   UNL A   1      30.237  24.270  26.582  1.00  0.00    -0.366 OA
BRANCH   7  13
ATOM     13  C   UNL A   1      33.739  22.936  25.110  1.00  0.00     0.299 C 
BRANCH  13  14
ATOM     14  C   UNL A   1      35.216  22.651  25.251  1.00  0.00     0.007 A 
ATOM     15  C   UNL A   1      37.624  19.731  24.765  1.00  0.00     0.044 C 
ATOM     16  C   UNL A   1      37.084  21.086  25.106  1.00  0.00    -0.050 A 
ATOM     17  C   UNL A   1      37.939  22.063  25.624  1.00  0.00     0.006 A 
ATOM     18  C   UNL A   1      35.727  21.387  24.932  1.00  0.00     0.013 A 
ATOM     19  C   UNL A   1      37.463  23.346  25.906  1.00  0.00    -0.050 A 
ATOM     20  C   UNL A   1      38.372  24.364  26.528  1.00  0.00     0.044 C 
ATOM     21  C   UNL A   1      36.115  23.641  25.667  1.00  0.00     0.013 A 
ENDBRANCH  13  14
ENDBRANCH   7  13
ENDBRANCH   5   6
ENDBRANCH   3   5
ENDBRANCH   2   3
ENDBRANCH   1   2
BRANCH   1  22
ATOM     22  C   UNL A   1      31.702  30.154  25.782  1.00  0.00     0.275 C 
BRANCH  22  23
ATOM     23  O   UNL A   1      33.036  30.697  25.840  1.00  0.00    -0.458 OA
BRANCH  23  24
ATOM     24  C   UNL A   1      33.256  31.519  26.888  1.00  0.00     0.338 C 
ATOM     25  O   UNL A   1      32.542  32.458  27.217  1.00  0.00    -0.246 OA
BRANCH  24  26
ATOM     26  C   UNL A   1      34.427  31.113  27.678  1.00  0.00     0.060 A 
ATOM     27  C   UNL A   1      35.458  32.047  27.845  1.00  0.00     0.016 A 
ATOM     28  C   UNL A   1      34.569  29.810  28.156  1.00  0.00     0.016 A 
ATOM     29  C   UNL A   1      36.637  31.679  28.488  1.00  0.00     0.010 A 
ATOM     30  C   UNL A   1      35.756  29.440  28.798  1.00  0.00     0.010 A 
ATOM     31  C   UNL A   1      36.797  30.369  28.961  1.00  0.00    -0.014 A 
BRANCH  31  32
ATOM     32  C   UNL A   1      38.033  29.991  29.684  1.00  0.00     0.031 A 
ATOM     33  C   UNL A   1      38.344  30.561  31.035  1.00  0.00     0.074 A 
ATOM     34  C   UNL A   1      38.892  29.145  29.086  1.00  0.00     0.049 A 
ATOM     35  N   UNL A   1      39.387  30.351  31.797  1.00  0.00    -0.248 NA
ATOM     36  C   UNL A   1      37.356  31.484  31.611  1.00  0.00     0.031 C 
ATOM     37  C   UNL A   1      38.692  28.542  27.767  1.00  0.00     0.029 A 
ATOM     38  N   UNL A   1      40.112  28.672  29.493  1.00  0.00    -0.354 N 
ATOM     39  C   UNL A   1      39.189  31.123  32.935  1.00  0.00     0.074 A 
ATOM     40  C   UNL A   1      37.928  31.812  32.763  1.00  0.00     0.031 C 
ATOM     41  C   UNL A   1      39.771  27.805  27.458  1.00  0.00     0.029 A 
ATOM     42  C   UNL A   1      40.741  27.901  28.546  1.00  0.00     0.049 A 
ATOM     43  H   UNL A   1      40.498  28.865  30.377  1.00  0.00     0.167 HD
ATOM     44  C   UNL A   1      39.981  31.233  34.028  1.00  0.00     0.034 A 
ATOM     45  C   UNL A   1      41.970  27.352  28.543  1.00  0.00     0.034 A 
ATOM     46  C   UNL A   1      41.232  30.541  34.191  1.00  0.00     0.049 A 
ATOM     47  C   UNL A   1      42.841  27.511  29.759  1.00  0.00     0.074 A 
ATOM     48  C   UNL A   1      42.086  30.549  35.281  1.00  0.00     0.029 A 
ATOM     49  N   UNL A   1      41.819  29.729  33.232  1.00  0.00    -0.354 N 
ATOM     50  N   UNL A   1      42.579  28.132  30.884  1.00  0.00    -0.248 NA
ATOM     51  C   UNL A   1      44.161  26.867  29.720  1.00  0.00     0.031 C 
ATOM     52  C   UNL A   1      43.197  29.757  34.973  1.00  0.00     0.029 A 
ATOM     53  C   UNL A   1      43.029  29.243  33.697  1.00  0.00     0.049 A 
ATOM     54  H   UNL A   1      41.431  29.528  32.349  1.00  0.00     0.167 HD
ATOM     55  C   UNL A   1      43.686  27.929  31.698  1.00  0.00     0.074 A 
ATOM     56  C   UNL A   1      44.615  27.111  30.943  1.00  0.00     0.031 C 
ATOM     57  C   UNL A   1      43.919  28.390  32.952  1.00  0.00     0.034 A 
BRANCH  44  58
ATOM     58  C   UNL A   1      39.505  32.105  35.158  1.00  0.00     0.023 A 
ATOM     59  C   UNL A   1      38.607  31.574  36.106  1.00  0.00     0.012 A 
ATOM     60  C   UNL A   1      40.002  33.411  35.333  1.00  0.00     0.148 A 
ATOM     61  C   UNL A   1      38.197  32.335  37.201  1.00  0.00     0.002 A 
ATOM     62  C   UNL A   1      39.613  34.152  36.444  1.00  0.00     0.091 A 
ATOM     63  F   UNL A   1      40.836  33.908  34.408  1.00  0.00    -0.205 F 
ATOM     64  C   UNL A   1      38.707  33.618  37.375  1.00  0.00     0.022 A 
BRANCH  62  65
ATOM     65  S   UNL A   1      40.267  35.791  36.789  1.00  0.00     0.127 S 
ATOM     66  O   UNL A   1      39.623  36.590  35.749  1.00  0.00    -0.237 OA
ATOM     67  O   UNL A   1      39.777  36.043  38.145  1.00  0.00    -0.237 OA
ATOM     68  O   UNL A   1      41.715  35.671  36.684  1.00  0.00    -0.744 OA
ENDBRANCH  62  65
ENDBRANCH  44  58
BRANCH  45  69
ATOM     69  C   UNL A   1      42.418  26.564  27.363  1.00  0.00     0.023 A 
ATOM     70  C   UNL A   1      43.124  27.206  26.329  1.00  0.00     0.012 A 
ATOM     71  C   UNL A   1      42.204  25.174  27.291  1.00  0.00     0.148 A 
ATOM     72  C   UNL A   1      43.593  26.479  25.235  1.00  0.00     0.002 A 
ATOM     73  C   UNL A   1      42.721  24.447  26.225  1.00  0.00     0.091 A 
ATOM     74  F   UNL A   1      41.510  24.584  28.276  1.00  0.00    -0.205 F 
ATOM     75  C   UNL A   1      43.405  25.100  25.189  1.00  0.00     0.022 A 
BRANCH  73  76
ATOM     76  S   UNL A   1      42.637  22.653  26.166  1.00  0.00     0.127 S 
ATOM     77  O   UNL A   1      41.196  22.420  26.165  1.00  0.00    -0.237 OA
ATOM     78  O   UNL A   1      43.311  22.354  24.901  1.00  0.00    -0.237 OA
ATOM     79  O   UNL A   1      43.357  22.194  27.346  1.00  0.00    -0.744 OA
ENDBRANCH  73  76
ENDBRANCH  45  69
BRANCH  57  80
ATOM     80  C   UNL A   1      45.223  28.010  33.600  1.00  0.00     0.023 A 
ATOM     81  C   UNL A   1      46.348  28.842  33.437  1.00  0.00     0.012 A 
ATOM     82  C   UNL A   1      45.314  26.875  34.430  1.00  0.00     0.148 A 
ATOM     83  C   UNL A   1      47.551  28.537  34.071  1.00  0.00     0.002 A 
ATOM     84  C   UNL A   1      46.505  26.601  35.092  1.00  0.00     0.091 A 
ATOM     85  F   UNL A   1      44.239  26.084  34.555  1.00  0.00    -0.205 F 
ATOM     86  C   UNL A   1      47.628  27.425  34.906  1.00  0.00     0.022 A 
BRANCH  84  87
ATOM     87  S   UNL A   1      46.665  25.240  36.255  1.00  0.00     0.127 S 
ATOM     88  O   UNL A   1      46.479  24.081  35.384  1.00  0.00    -0.237 OA
ATOM     89  O   UNL A   1      48.030  25.413  36.755  1.00  0.00    -0.237 OA
ATOM     90  O   UNL A   1      45.627  25.448  37.255  1.00  0.00    -0.744 OA
ENDBRANCH  84  87
ENDBRANCH  57  80
ENDBRANCH  31  32
ENDBRANCH  24  26
ENDBRANCH  23  24
ENDBRANCH  22  23
ENDBRANCH   1  22
TORSDOF 17
ENDMDL
