MODEL 1
REMARK VINA RESULT:     -12.3      0.000      0.000
REMARK SMILES NC(=O)c1ccc(NC(=O)Cc2ccccc2C(=O)OCCOC(=O)c2ccc(-c3c4nc(c(-c5cccc(S(=O)(=O)[O-])c5F)c5ccc([nH]5)c(-c5cccc(S(=O)(=O)[O-])c5F)c5nc(c(-c6cccc(S(=O)(=O)[O-])c6F)c6ccc3[nH]6)C=C5)C=C4)cc2)cc1
REMARK SMILES IDX 21 1 20 2 18 3 19 4 17 5 12 6 13 7 14 8 16 9 15 10 11 11
REMARK SMILES IDX 9 12 8 13 10 15 7 16 4 17 5 18 90 19 6 20 89 21 2 22 1 23
REMARK SMILES IDX 3 26 22 27 23 28 24 29 25 30 26 31 27 32 88 33 28 34 87 35
REMARK SMILES IDX 29 36 30 37 31 38 81 39 32 40 86 41 80 42 82 43 33 44 85 45
REMARK SMILES IDX 79 46 78 47 34 49 66 50 46 51 65 52 47 53 50 54 64 55 83 56
REMARK SMILES IDX 48 57 49 58 63 60 84 61 51 62 35 63 36 64 44 65 37 66 39 67
REMARK SMILES IDX 45 68 38 69 40 70 41 71 42 72 43 73 67 74 68 75 76 76 69 77
REMARK SMILES IDX 71 78 77 79 70 80 72 81 73 82 74 83 75 84 52 85 53 86 61 87
REMARK SMILES IDX 54 88 56 89 62 90 55 91 57 92 58 93 59 94 60 95
REMARK H PARENT 8 14 1 24 1 25 82 48 50 59
REMARK Flexibility Score: inf
ROOT
ATOM      1  C   UNL A   1      35.608  20.704  25.392  1.00  0.00     0.275 C 
ENDROOT
BRANCH   1   2
ATOM      2  O   UNL A   1      34.890  21.371  24.333  1.00  0.00    -0.458 OA
BRANCH   2   3
ATOM      3  C   UNL A   1      34.828  22.713  24.359  1.00  0.00     0.338 C 
ATOM      4  O   UNL A   1      35.670  23.474  23.899  1.00  0.00    -0.246 OA
BRANCH   3   5
ATOM      5  C   UNL A   1      33.567  23.203  24.990  1.00  0.00     0.063 A 
ATOM      6  C   UNL A   1      32.351  23.398  24.310  1.00  0.00    -0.024 A 
ATOM      7  C   UNL A   1      31.184  23.540  25.094  1.00  0.00     0.005 A 
ATOM      8  C   UNL A   1      31.240  23.733  26.474  1.00  0.00     0.000 A 
ATOM      9  C   UNL A   1      33.600  23.357  26.393  1.00  0.00     0.016 A 
ATOM     10  C   UNL A   1      32.461  23.690  27.121  1.00  0.00     0.001 A 
BRANCH   6  11
ATOM     11  C   UNL A   1      32.204  23.463  22.800  1.00  0.00     0.136 C 
BRANCH  11  12
ATOM     12  C   UNL A   1      33.021  24.539  22.072  1.00  0.00     0.228 C 
ATOM     13  N   UNL A   1      33.483  25.679  22.668  1.00  0.00    -0.326 N 
ATOM     14  H   UNL A   1      34.255  26.080  22.208  1.00  0.00     0.169 HD
ATOM     15  O   UNL A   1      33.284  24.389  20.870  1.00  0.00    -0.274 OA
BRANCH  13  16
ATOM     16  C   UNL A   1      33.075  26.393  23.806  1.00  0.00     0.041 A 
ATOM     17  C   UNL A   1      32.342  27.742  26.151  1.00  0.00     0.039 A 
ATOM     18  C   UNL A   1      31.432  27.611  25.107  1.00  0.00     0.016 A 
ATOM     19  C   UNL A   1      33.643  27.252  26.017  1.00  0.00     0.016 A 
ATOM     20  C   UNL A   1      31.825  26.992  23.921  1.00  0.00     0.027 A 
ATOM     21  C   UNL A   1      34.001  26.568  24.846  1.00  0.00     0.027 A 
BRANCH  17  22
ATOM     22  C   UNL A   1      31.887  28.441  27.366  1.00  0.00     0.248 C 
ATOM     23  N   UNL A   1      32.324  29.725  27.505  1.00  0.00    -0.366 N 
ATOM     24  H   UNL A   1      32.059  30.252  28.293  1.00  0.00     0.159 HD
ATOM     25  H   UNL A   1      32.905  30.124  26.819  1.00  0.00     0.159 HD
ATOM     26  O   UNL A   1      31.095  27.929  28.142  1.00  0.00    -0.270 OA
ENDBRANCH  17  22
ENDBRANCH  13  16
ENDBRANCH  11  12
ENDBRANCH   6  11
ENDBRANCH   3   5
ENDBRANCH   2   3
ENDBRANCH   1   2
BRANCH   1  27
ATOM     27  C   UNL A   1      36.955  20.194  24.882  1.00  0.00     0.275 C 
BRANCH  27  28
ATOM     28  O   UNL A   1      37.958  21.217  25.021  1.00  0.00    -0.458 OA
BRANCH  28  29
ATOM     29  C   UNL A   1      39.009  20.876  25.800  1.00  0.00     0.338 C 
ATOM     30  O   UNL A   1      39.591  19.805  25.841  1.00  0.00    -0.246 OA
BRANCH  29  31
ATOM     31  C   UNL A   1      39.482  22.057  26.537  1.00  0.00     0.060 A 
ATOM     32  C   UNL A   1      38.950  23.284  26.163  1.00  0.00     0.016 A 
ATOM     33  C   UNL A   1      40.554  21.999  27.418  1.00  0.00     0.016 A 
ATOM     34  C   UNL A   1      39.568  24.468  26.541  1.00  0.00     0.010 A 
ATOM     35  C   UNL A   1      41.110  23.196  27.892  1.00  0.00     0.010 A 
ATOM     36  C   UNL A   1      40.664  24.444  27.410  1.00  0.00    -0.014 A 
BRANCH  36  37
ATOM     37  C   UNL A   1      41.377  25.712  27.743  1.00  0.00     0.031 A 
ATOM     38  C   UNL A   1      40.681  26.775  28.558  1.00  0.00     0.074 A 
ATOM     39  C   UNL A   1      42.649  25.913  27.339  1.00  0.00     0.049 A 
ATOM     40  N   UNL A   1      41.055  28.003  28.812  1.00  0.00    -0.248 NA
ATOM     41  C   UNL A   1      39.380  26.416  29.148  1.00  0.00     0.031 C 
ATOM     42  C   UNL A   1      43.458  24.961  26.574  1.00  0.00     0.029 A 
ATOM     43  N   UNL A   1      43.486  26.989  27.510  1.00  0.00    -0.354 N 
ATOM     44  C   UNL A   1      40.001  28.588  29.507  1.00  0.00     0.074 A 
ATOM     45  C   UNL A   1      38.974  27.578  29.641  1.00  0.00     0.031 C 
ATOM     46  C   UNL A   1      44.674  25.483  26.360  1.00  0.00     0.029 A 
ATOM     47  C   UNL A   1      44.705  26.841  26.887  1.00  0.00     0.049 A 
ATOM     48  H   UNL A   1      43.238  27.790  28.028  1.00  0.00     0.167 HD
ATOM     49  C   UNL A   1      39.900  29.848  29.994  1.00  0.00     0.034 A 
ATOM     50  C   UNL A   1      45.716  27.713  26.711  1.00  0.00     0.034 A 
ATOM     51  C   UNL A   1      40.956  30.822  29.924  1.00  0.00     0.049 A 
ATOM     52  C   UNL A   1      45.585  29.101  27.270  1.00  0.00     0.074 A 
ATOM     53  C   UNL A   1      40.972  32.112  30.424  1.00  0.00     0.029 A 
ATOM     54  N   UNL A   1      42.188  30.612  29.323  1.00  0.00    -0.354 N 
ATOM     55  N   UNL A   1      44.592  29.627  27.945  1.00  0.00    -0.248 NA
ATOM     56  C   UNL A   1      46.719  30.009  27.060  1.00  0.00     0.031 C 
ATOM     57  C   UNL A   1      42.204  32.692  30.101  1.00  0.00     0.029 A 
ATOM     58  C   UNL A   1      42.971  31.748  29.438  1.00  0.00     0.049 A 
ATOM     59  H   UNL A   1      42.465  29.778  28.880  1.00  0.00     0.167 HD
ATOM     60  C   UNL A   1      44.997  30.916  28.273  1.00  0.00     0.074 A 
ATOM     61  C   UNL A   1      46.333  31.081  27.738  1.00  0.00     0.031 C 
ATOM     62  C   UNL A   1      44.319  31.879  28.945  1.00  0.00     0.034 A 
BRANCH  49  63
ATOM     63  C   UNL A   1      38.598  30.248  30.645  1.00  0.00     0.023 A 
ATOM     64  C   UNL A   1      38.353  29.940  31.999  1.00  0.00     0.012 A 
ATOM     65  C   UNL A   1      37.629  30.969  29.919  1.00  0.00     0.148 A 
ATOM     66  C   UNL A   1      37.149  30.300  32.604  1.00  0.00     0.002 A 
ATOM     67  C   UNL A   1      36.453  31.370  30.543  1.00  0.00     0.091 A 
ATOM     68  F   UNL A   1      37.867  31.240  28.628  1.00  0.00    -0.205 F 
ATOM     69  C   UNL A   1      36.205  31.024  31.880  1.00  0.00     0.022 A 
BRANCH  67  70
ATOM     70  S   UNL A   1      35.213  32.378  29.720  1.00  0.00     0.127 S 
ATOM     71  O   UNL A   1      34.706  31.452  28.709  1.00  0.00    -0.237 OA
ATOM     72  O   UNL A   1      34.277  32.662  30.810  1.00  0.00    -0.237 OA
ATOM     73  O   UNL A   1      35.918  33.543  29.205  1.00  0.00    -0.744 OA
ENDBRANCH  67  70
ENDBRANCH  49  63
BRANCH  50  74
ATOM     74  C   UNL A   1      46.941  27.292  25.971  1.00  0.00     0.023 A 
ATOM     75  C   UNL A   1      47.898  26.482  26.610  1.00  0.00     0.012 A 
ATOM     76  C   UNL A   1      47.145  27.664  24.626  1.00  0.00     0.148 A 
ATOM     77  C   UNL A   1      49.048  26.071  25.934  1.00  0.00     0.002 A 
ATOM     78  C   UNL A   1      48.260  27.200  23.940  1.00  0.00     0.091 A 
ATOM     79  F   UNL A   1      46.231  28.449  24.039  1.00  0.00    -0.205 F 
ATOM     80  C   UNL A   1      49.223  26.418  24.597  1.00  0.00     0.022 A 
BRANCH  78  81
ATOM     81  S   UNL A   1      48.494  27.480  22.181  1.00  0.00     0.127 S 
ATOM     82  O   UNL A   1      47.233  28.118  21.810  1.00  0.00    -0.237 OA
ATOM     83  O   UNL A   1      49.659  28.365  22.170  1.00  0.00    -0.237 OA
ATOM     84  O   UNL A   1      48.731  26.166  21.601  1.00  0.00    -0.744 OA
ENDBRANCH  78  81
ENDBRANCH  50  74
BRANCH  62  85
ATOM     85  C   UNL A   1      45.036  33.177  29.202  1.00  0.00     0.023 A 
ATOM     86  C   UNL A   1      45.826  33.337  30.358  1.00  0.00     0.012 A 
ATOM     87  C   UNL A   1      44.963  34.225  28.264  1.00  0.00     0.148 A 
ATOM     88  C   UNL A   1      46.498  34.537  30.596  1.00  0.00     0.002 A 
ATOM     89  C   UNL A   1      45.678  35.397  28.479  1.00  0.00     0.091 A 
ATOM     90  F   UNL A   1      44.190  34.063  27.180  1.00  0.00    -0.205 F 
ATOM     91  C   UNL A   1      46.432  35.560  29.653  1.00  0.00     0.022 A 
BRANCH  89  92
ATOM     92  S   UNL A   1      45.735  36.722  27.270  1.00  0.00     0.127 S 
ATOM     93  O   UNL A   1      46.303  36.040  26.108  1.00  0.00    -0.237 OA
ATOM     94  O   UNL A   1      44.323  37.081  27.135  1.00  0.00    -0.237 OA
ATOM     95  O   UNL A   1      46.569  37.763  27.855  1.00  0.00    -0.744 OA
ENDBRANCH  89  92
ENDBRANCH  62  85
ENDBRANCH  36  37
ENDBRANCH  29  31
ENDBRANCH  28  29
ENDBRANCH  27  28
ENDBRANCH   1  27
TORSDOF 18
ENDMDL
MODEL 2
REMARK VINA RESULT:     -11.9      5.237     10.024
REMARK SMILES NC(=O)c1ccc(NC(=O)Cc2ccccc2C(=O)OCCOC(=O)c2ccc(-c3c4nc(c(-c5cccc(S(=O)(=O)[O-])c5F)c5ccc([nH]5)c(-c5cccc(S(=O)(=O)[O-])c5F)c5nc(c(-c6cccc(S(=O)(=O)[O-])c6F)c6ccc3[nH]6)C=C5)C=C4)cc2)cc1
REMARK SMILES IDX 21 1 20 2 18 3 19 4 17 5 12 6 13 7 14 8 16 9 15 10 11 11
REMARK SMILES IDX 9 12 8 13 10 15 7 16 4 17 5 18 90 19 6 20 89 21 2 22 1 23
REMARK SMILES IDX 3 26 22 27 23 28 24 29 25 30 26 31 27 32 88 33 28 34 87 35
REMARK SMILES IDX 29 36 30 37 31 38 81 39 32 40 86 41 80 42 82 43 33 44 85 45
REMARK SMILES IDX 79 46 78 47 34 49 66 50 46 51 65 52 47 53 50 54 64 55 83 56
REMARK SMILES IDX 48 57 49 58 63 60 84 61 51 62 35 63 36 64 44 65 37 66 39 67
REMARK SMILES IDX 45 68 38 69 40 70 41 71 42 72 43 73 67 74 68 75 76 76 69 77
REMARK SMILES IDX 71 78 77 79 70 80 72 81 73 82 74 83 75 84 52 85 53 86 61 87
REMARK SMILES IDX 54 88 56 89 62 90 55 91 57 92 58 93 59 94 60 95
REMARK H PARENT 8 14 1 24 1 25 82 48 50 59
REMARK Flexibility Score: inf
ROOT
ATOM      1  C   UNL A   1      31.567  29.287  25.343  1.00  0.00     0.275 C 
ENDROOT
BRANCH   1   2
ATOM      2  O   UNL A   1      31.433  27.992  25.965  1.00  0.00    -0.458 OA
BRANCH   2   3
ATOM      3  C   UNL A   1      32.443  27.116  25.826  1.00  0.00     0.338 C 
ATOM      4  O   UNL A   1      33.508  27.155  26.429  1.00  0.00    -0.246 OA
BRANCH   3   5
ATOM      5  C   UNL A   1      32.111  26.029  24.859  1.00  0.00     0.063 A 
ATOM      6  C   UNL A   1      31.129  25.042  25.065  1.00  0.00    -0.024 A 
ATOM      7  C   UNL A   1      30.707  24.301  23.939  1.00  0.00     0.005 A 
ATOM      8  C   UNL A   1      31.391  24.350  22.724  1.00  0.00     0.000 A 
ATOM      9  C   UNL A   1      32.763  26.096  23.609  1.00  0.00     0.016 A 
ATOM     10  C   UNL A   1      32.457  25.217  22.574  1.00  0.00     0.001 A 
BRANCH   6  11
ATOM     11  C   UNL A   1      30.491  24.721  26.405  1.00  0.00     0.136 C 
BRANCH  11  12
ATOM     12  C   UNL A   1      30.594  23.269  26.889  1.00  0.00     0.228 C 
ATOM     13  N   UNL A   1      31.751  22.542  26.880  1.00  0.00    -0.326 N 
ATOM     14  H   UNL A   1      31.752  21.793  27.518  1.00  0.00     0.169 HD
ATOM     15  O   UNL A   1      29.577  22.699  27.312  1.00  0.00    -0.274 OA
BRANCH  13  16
ATOM     16  C   UNL A   1      32.940  22.650  26.141  1.00  0.00     0.041 A 
ATOM     17  C   UNL A   1      35.325  22.991  24.709  1.00  0.00     0.039 A 
ATOM     18  C   UNL A   1      34.337  22.138  24.227  1.00  0.00     0.016 A 
ATOM     19  C   UNL A   1      35.159  23.639  25.934  1.00  0.00     0.016 A 
ATOM     20  C   UNL A   1      33.180  21.927  24.976  1.00  0.00     0.027 A 
ATOM     21  C   UNL A   1      33.959  23.474  26.642  1.00  0.00     0.027 A 
BRANCH  17  22
ATOM     22  C   UNL A   1      36.545  23.145  23.897  1.00  0.00     0.248 C 
ATOM     23  N   UNL A   1      37.704  23.295  24.598  1.00  0.00    -0.366 N 
ATOM     24  H   UNL A   1      38.558  23.402  24.120  1.00  0.00     0.159 HD
ATOM     25  H   UNL A   1      37.688  23.296  25.582  1.00  0.00     0.159 HD
ATOM     26  O   UNL A   1      36.522  23.047  22.679  1.00  0.00    -0.270 OA
ENDBRANCH  17  22
ENDBRANCH  13  16
ENDBRANCH  11  12
ENDBRANCH   6  11
ENDBRANCH   3   5
ENDBRANCH   2   3
ENDBRANCH   1   2
BRANCH   1  27
ATOM     27  C   UNL A   1      31.973  30.335  26.378  1.00  0.00     0.275 C 
BRANCH  27  28
ATOM     28  O   UNL A   1      33.406  30.369  26.514  1.00  0.00    -0.458 OA
BRANCH  28  29
ATOM     29  C   UNL A   1      33.874  31.346  27.322  1.00  0.00     0.338 C 
ATOM     30  O   UNL A   1      33.246  32.264  27.822  1.00  0.00    -0.246 OA
BRANCH  29  31
ATOM     31  C   UNL A   1      35.280  31.079  27.658  1.00  0.00     0.060 A 
ATOM     32  C   UNL A   1      35.672  29.748  27.704  1.00  0.00     0.016 A 
ATOM     33  C   UNL A   1      36.134  32.076  28.111  1.00  0.00     0.016 A 
ATOM     34  C   UNL A   1      36.852  29.378  28.335  1.00  0.00     0.010 A 
ATOM     35  C   UNL A   1      37.378  31.712  28.647  1.00  0.00     0.010 A 
ATOM     36  C   UNL A   1      37.724  30.356  28.824  1.00  0.00    -0.014 A 
BRANCH  36  37
ATOM     37  C   UNL A   1      38.947  29.952  29.578  1.00  0.00     0.031 A 
ATOM     38  C   UNL A   1      39.904  28.950  28.979  1.00  0.00     0.074 A 
ATOM     39  C   UNL A   1      39.219  30.488  30.786  1.00  0.00     0.049 A 
ATOM     40  N   UNL A   1      40.923  28.344  29.531  1.00  0.00    -0.248 NA
ATOM     41  C   UNL A   1      39.670  28.561  27.578  1.00  0.00     0.031 C 
ATOM     42  C   UNL A   1      38.403  31.491  31.474  1.00  0.00     0.029 A 
ATOM     43  N   UNL A   1      40.258  30.260  31.657  1.00  0.00    -0.354 N 
ATOM     44  C   UNL A   1      41.391  27.440  28.582  1.00  0.00     0.074 A 
ATOM     45  C   UNL A   1      40.548  27.582  27.415  1.00  0.00     0.031 C 
ATOM     46  C   UNL A   1      38.978  31.806  32.643  1.00  0.00     0.029 A 
ATOM     47  C   UNL A   1      40.150  30.963  32.835  1.00  0.00     0.049 A 
ATOM     48  H   UNL A   1      41.006  29.651  31.457  1.00  0.00     0.167 HD
ATOM     49  C   UNL A   1      42.430  26.576  28.672  1.00  0.00     0.034 A 
ATOM     50  C   UNL A   1      40.877  30.902  33.967  1.00  0.00     0.034 A 
ATOM     51  C   UNL A   1      43.311  26.495  29.807  1.00  0.00     0.049 A 
ATOM     52  C   UNL A   1      42.032  29.944  34.038  1.00  0.00     0.074 A 
ATOM     53  C   UNL A   1      44.420  25.686  29.981  1.00  0.00     0.029 A 
ATOM     54  N   UNL A   1      43.190  27.258  30.959  1.00  0.00    -0.354 N 
ATOM     55  N   UNL A   1      42.474  29.116  33.123  1.00  0.00    -0.248 NA
ATOM     56  C   UNL A   1      42.800  29.924  35.290  1.00  0.00     0.031 C 
ATOM     57  C   UNL A   1      44.952  25.938  31.250  1.00  0.00     0.029 A 
ATOM     58  C   UNL A   1      44.201  26.937  31.848  1.00  0.00     0.049 A 
ATOM     59  H   UNL A   1      42.488  27.929  31.120  1.00  0.00     0.167 HD
ATOM     60  C   UNL A   1      43.594  28.503  33.673  1.00  0.00     0.074 A 
ATOM     61  C   UNL A   1      43.772  29.072  34.995  1.00  0.00     0.031 C 
ATOM     62  C   UNL A   1      44.394  27.549  33.139  1.00  0.00     0.034 A 
BRANCH  49  63
ATOM     63  C   UNL A   1      42.672  25.643  27.510  1.00  0.00     0.023 A 
ATOM     64  C   UNL A   1      43.517  26.029  26.449  1.00  0.00     0.012 A 
ATOM     65  C   UNL A   1      42.088  24.360  27.491  1.00  0.00     0.148 A 
ATOM     66  C   UNL A   1      43.739  25.174  25.369  1.00  0.00     0.002 A 
ATOM     67  C   UNL A   1      42.354  23.495  26.437  1.00  0.00     0.091 A 
ATOM     68  F   UNL A   1      41.273  24.014  28.497  1.00  0.00    -0.205 F 
ATOM     69  C   UNL A   1      43.166  23.904  25.368  1.00  0.00     0.022 A 
BRANCH  67  70
ATOM     70  S   UNL A   1      41.732  21.809  26.386  1.00  0.00     0.127 S 
ATOM     71  O   UNL A   1      42.611  21.201  25.389  1.00  0.00    -0.237 OA
ATOM     72  O   UNL A   1      41.963  21.355  27.758  1.00  0.00    -0.237 OA
ATOM     73  O   UNL A   1      40.330  21.908  26.006  1.00  0.00    -0.744 OA
ENDBRANCH  67  70
ENDBRANCH  49  63
BRANCH  50  74
ATOM     74  C   UNL A   1      40.531  31.779  35.123  1.00  0.00     0.023 A 
ATOM     75  C   UNL A   1      41.235  32.982  35.321  1.00  0.00     0.012 A 
ATOM     76  C   UNL A   1      39.485  31.442  36.007  1.00  0.00     0.148 A 
ATOM     77  C   UNL A   1      40.922  33.820  36.393  1.00  0.00     0.002 A 
ATOM     78  C   UNL A   1      39.137  32.311  37.032  1.00  0.00     0.091 A 
ATOM     79  F   UNL A   1      38.837  30.285  35.811  1.00  0.00    -0.205 F 
ATOM     80  C   UNL A   1      39.866  33.493  37.239  1.00  0.00     0.022 A 
BRANCH  78  81
ATOM     81  S   UNL A   1      37.705  32.040  38.082  1.00  0.00     0.127 S 
ATOM     82  O   UNL A   1      38.232  32.386  39.400  1.00  0.00    -0.237 OA
ATOM     83  O   UNL A   1      36.743  32.995  37.532  1.00  0.00    -0.237 OA
ATOM     84  O   UNL A   1      37.339  30.643  37.897  1.00  0.00    -0.744 OA
ENDBRANCH  78  81
ENDBRANCH  50  74
BRANCH  62  85
ATOM     85  C   UNL A   1      45.579  27.104  33.954  1.00  0.00     0.023 A 
ATOM     86  C   UNL A   1      46.805  27.794  33.863  1.00  0.00     0.012 A 
ATOM     87  C   UNL A   1      45.458  26.027  34.852  1.00  0.00     0.148 A 
ATOM     88  C   UNL A   1      47.903  27.390  34.622  1.00  0.00     0.002 A 
ATOM     89  C   UNL A   1      46.539  25.663  35.646  1.00  0.00     0.091 A 
ATOM     90  F   UNL A   1      44.291  25.369  34.910  1.00  0.00    -0.205 F 
ATOM     91  C   UNL A   1      47.766  26.333  35.520  1.00  0.00     0.022 A 
BRANCH  89  92
ATOM     92  S   UNL A   1      46.421  24.385  36.901  1.00  0.00     0.127 S 
ATOM     93  O   UNL A   1      45.259  24.830  37.669  1.00  0.00    -0.237 OA
ATOM     94  O   UNL A   1      46.197  23.182  36.099  1.00  0.00    -0.237 OA
ATOM     95  O   UNL A   1      47.689  24.406  37.616  1.00  0.00    -0.744 OA
ENDBRANCH  89  92
ENDBRANCH  62  85
ENDBRANCH  36  37
ENDBRANCH  29  31
ENDBRANCH  28  29
ENDBRANCH  27  28
ENDBRANCH   1  27
TORSDOF 18
ENDMDL
MODEL 3
REMARK VINA RESULT:     -11.8      1.415      7.734
REMARK SMILES NC(=O)c1ccc(NC(=O)Cc2ccccc2C(=O)OCCOC(=O)c2ccc(-c3c4nc(c(-c5cccc(S(=O)(=O)[O-])c5F)c5ccc([nH]5)c(-c5cccc(S(=O)(=O)[O-])c5F)c5nc(c(-c6cccc(S(=O)(=O)[O-])c6F)c6ccc3[nH]6)C=C5)C=C4)cc2)cc1
REMARK SMILES IDX 21 1 20 2 18 3 19 4 17 5 12 6 13 7 14 8 16 9 15 10 11 11
REMARK SMILES IDX 9 12 8 13 10 15 7 16 4 17 5 18 90 19 6 20 89 21 2 22 1 23
REMARK SMILES IDX 3 26 22 27 23 28 24 29 25 30 26 31 27 32 88 33 28 34 87 35
REMARK SMILES IDX 29 36 30 37 31 38 81 39 32 40 86 41 80 42 82 43 33 44 85 45
REMARK SMILES IDX 79 46 78 47 34 49 66 50 46 51 65 52 47 53 50 54 64 55 83 56
REMARK SMILES IDX 48 57 49 58 63 60 84 61 51 62 35 63 36 64 44 65 37 66 39 67
REMARK SMILES IDX 45 68 38 69 40 70 41 71 42 72 43 73 67 74 68 75 76 76 69 77
REMARK SMILES IDX 71 78 77 79 70 80 72 81 73 82 74 83 75 84 52 85 53 86 61 87
REMARK SMILES IDX 54 88 56 89 62 90 55 91 57 92 58 93 59 94 60 95
REMARK H PARENT 8 14 1 24 1 25 82 48 50 59
REMARK Flexibility Score: inf
ROOT
ATOM      1  C   UNL A   1      35.973  21.097  25.711  1.00  0.00     0.275 C 
ENDROOT
BRANCH   1   2
ATOM      2  O   UNL A   1      34.766  20.969  24.932  1.00  0.00    -0.458 OA
BRANCH   2   3
ATOM      3  C   UNL A   1      33.703  21.712  25.285  1.00  0.00     0.338 C 
ATOM      4  O   UNL A   1      33.180  21.726  26.392  1.00  0.00    -0.246 OA
BRANCH   3   5
ATOM      5  C   UNL A   1      33.232  22.583  24.168  1.00  0.00     0.063 A 
ATOM      6  C   UNL A   1      32.047  23.342  24.185  1.00  0.00    -0.024 A 
ATOM      7  C   UNL A   1      31.911  24.355  23.211  1.00  0.00     0.005 A 
ATOM      8  C   UNL A   1      32.777  24.454  22.121  1.00  0.00     0.000 A 
ATOM      9  C   UNL A   1      34.121  22.726  23.082  1.00  0.00     0.016 A 
ATOM     10  C   UNL A   1      33.861  23.601  22.031  1.00  0.00     0.001 A 
BRANCH   6  11
ATOM     11  C   UNL A   1      30.911  23.151  25.174  1.00  0.00     0.136 C 
BRANCH  11  12
ATOM     12  C   UNL A   1      30.889  24.086  26.390  1.00  0.00     0.228 C 
ATOM     13  N   UNL A   1      30.449  25.381  26.350  1.00  0.00    -0.326 N 
ATOM     14  H   UNL A   1      30.166  25.728  27.225  1.00  0.00     0.169 HD
ATOM     15  O   UNL A   1      31.296  23.666  27.483  1.00  0.00    -0.274 OA
BRANCH  13  16
ATOM     16  C   UNL A   1      30.322  26.312  25.308  1.00  0.00     0.041 A 
ATOM     17  C   UNL A   1      30.138  28.260  23.300  1.00  0.00     0.039 A 
ATOM     18  C   UNL A   1      29.114  27.334  23.472  1.00  0.00     0.016 A 
ATOM     19  C   UNL A   1      31.288  28.191  24.090  1.00  0.00     0.016 A 
ATOM     20  C   UNL A   1      29.241  26.331  24.432  1.00  0.00     0.027 A 
ATOM     21  C   UNL A   1      31.370  27.222  25.101  1.00  0.00     0.027 A 
BRANCH  17  22
ATOM     22  C   UNL A   1      29.970  29.272  22.243  1.00  0.00     0.248 C 
ATOM     23  N   UNL A   1      31.109  29.909  21.851  1.00  0.00    -0.366 N 
ATOM     24  H   UNL A   1      31.071  30.598  21.148  1.00  0.00     0.159 HD
ATOM     25  H   UNL A   1      31.970  29.682  22.270  1.00  0.00     0.159 HD
ATOM     26  O   UNL A   1      28.893  29.454  21.694  1.00  0.00    -0.270 OA
ENDBRANCH  17  22
ENDBRANCH  13  16
ENDBRANCH  11  12
ENDBRANCH   6  11
ENDBRANCH   3   5
ENDBRANCH   2   3
ENDBRANCH   1   2
BRANCH   1  27
ATOM     27  C   UNL A   1      37.139  20.409  25.003  1.00  0.00     0.275 C 
BRANCH  27  28
ATOM     28  O   UNL A   1      38.287  21.276  24.981  1.00  0.00    -0.458 OA
BRANCH  28  29
ATOM     29  C   UNL A   1      39.215  21.010  25.928  1.00  0.00     0.338 C 
ATOM     30  O   UNL A   1      39.776  19.949  26.144  1.00  0.00    -0.246 OA
BRANCH  29  31
ATOM     31  C   UNL A   1      39.589  22.253  26.616  1.00  0.00     0.060 A 
ATOM     32  C   UNL A   1      38.913  23.407  26.240  1.00  0.00     0.016 A 
ATOM     33  C   UNL A   1      40.698  22.333  27.449  1.00  0.00     0.016 A 
ATOM     34  C   UNL A   1      39.415  24.660  26.565  1.00  0.00     0.010 A 
ATOM     35  C   UNL A   1      41.141  23.595  27.872  1.00  0.00     0.010 A 
ATOM     36  C   UNL A   1      40.543  24.775  27.383  1.00  0.00    -0.014 A 
BRANCH  36  37
ATOM     37  C   UNL A   1      41.130  26.120  27.656  1.00  0.00     0.031 A 
ATOM     38  C   UNL A   1      42.515  26.452  27.157  1.00  0.00     0.074 A 
ATOM     39  C   UNL A   1      40.427  27.054  28.330  1.00  0.00     0.049 A 
ATOM     40  N   UNL A   1      43.268  27.487  27.426  1.00  0.00    -0.248 NA
ATOM     41  C   UNL A   1      43.148  25.478  26.251  1.00  0.00     0.031 C 
ATOM     42  C   UNL A   1      39.065  26.886  28.843  1.00  0.00     0.029 A 
ATOM     43  N   UNL A   1      40.762  28.333  28.706  1.00  0.00    -0.354 N 
ATOM     44  C   UNL A   1      44.489  27.246  26.803  1.00  0.00     0.074 A 
ATOM     45  C   UNL A   1      44.374  25.968  26.135  1.00  0.00     0.031 C 
ATOM     46  C   UNL A   1      38.675  28.018  29.446  1.00  0.00     0.029 A 
ATOM     47  C   UNL A   1      39.787  28.960  29.447  1.00  0.00     0.049 A 
ATOM     48  H   UNL A   1      41.618  28.758  28.469  1.00  0.00     0.167 HD
ATOM     49  C   UNL A   1      45.600  28.020  26.783  1.00  0.00     0.034 A 
ATOM     50  C   UNL A   1      39.798  30.137  30.103  1.00  0.00     0.034 A 
ATOM     51  C   UNL A   1      45.681  29.324  27.385  1.00  0.00     0.049 A 
ATOM     52  C   UNL A   1      41.038  30.982  30.056  1.00  0.00     0.074 A 
ATOM     53  C   UNL A   1      46.744  30.209  27.385  1.00  0.00     0.029 A 
ATOM     54  N   UNL A   1      44.653  29.937  28.087  1.00  0.00    -0.354 N 
ATOM     55  N   UNL A   1      42.172  30.749  29.442  1.00  0.00    -0.248 NA
ATOM     56  C   UNL A   1      40.996  32.261  30.778  1.00  0.00     0.031 C 
ATOM     57  C   UNL A   1      46.370  31.344  28.112  1.00  0.00     0.029 A 
ATOM     58  C   UNL A   1      45.058  31.186  28.526  1.00  0.00     0.049 A 
ATOM     59  H   UNL A   1      43.766  29.541  28.249  1.00  0.00     0.167 HD
ATOM     60  C   UNL A   1      42.966  31.867  29.671  1.00  0.00     0.074 A 
ATOM     61  C   UNL A   1      42.172  32.785  30.464  1.00  0.00     0.031 C 
ATOM     62  C   UNL A   1      44.238  32.108  29.271  1.00  0.00     0.034 A 
BRANCH  49  63
ATOM     63  C   UNL A   1      46.825  27.475  26.089  1.00  0.00     0.023 A 
ATOM     64  C   UNL A   1      47.690  26.586  26.761  1.00  0.00     0.012 A 
ATOM     65  C   UNL A   1      47.096  27.816  24.748  1.00  0.00     0.148 A 
ATOM     66  C   UNL A   1      48.827  26.085  26.127  1.00  0.00     0.002 A 
ATOM     67  C   UNL A   1      48.203  27.272  24.107  1.00  0.00     0.091 A 
ATOM     68  F   UNL A   1      46.275  28.675  24.129  1.00  0.00    -0.205 F 
ATOM     69  C   UNL A   1      49.077  26.419  24.798  1.00  0.00     0.022 A 
BRANCH  67  70
ATOM     70  S   UNL A   1      48.563  27.574  22.373  1.00  0.00     0.127 S 
ATOM     71  O   UNL A   1      47.404  28.366  21.964  1.00  0.00    -0.237 OA
ATOM     72  O   UNL A   1      49.818  28.326  22.447  1.00  0.00    -0.237 OA
ATOM     73  O   UNL A   1      48.676  26.264  21.749  1.00  0.00    -0.744 OA
ENDBRANCH  67  70
ENDBRANCH  49  63
BRANCH  50  74
ATOM     74  C   UNL A   1      38.590  30.581  30.856  1.00  0.00     0.023 A 
ATOM     75  C   UNL A   1      38.501  30.336  32.240  1.00  0.00     0.012 A 
ATOM     76  C   UNL A   1      37.544  31.275  30.214  1.00  0.00     0.148 A 
ATOM     77  C   UNL A   1      37.382  30.749  32.965  1.00  0.00     0.002 A 
ATOM     78  C   UNL A   1      36.464  31.739  30.954  1.00  0.00     0.091 A 
ATOM     79  F   UNL A   1      37.638  31.486  28.894  1.00  0.00    -0.205 F 
ATOM     80  C   UNL A   1      36.371  31.462  32.326  1.00  0.00     0.022 A 
BRANCH  78  81
ATOM     81  S   UNL A   1      35.187  32.784  30.243  1.00  0.00     0.127 S 
ATOM     82  O   UNL A   1      34.310  33.006  31.391  1.00  0.00    -0.237 OA
ATOM     83  O   UNL A   1      35.956  33.954  29.820  1.00  0.00    -0.237 OA
ATOM     84  O   UNL A   1      34.610  32.015  29.150  1.00  0.00    -0.744 OA
ENDBRANCH  78  81
ENDBRANCH  50  74
BRANCH  62  85
ATOM     85  C   UNL A   1      44.833  33.445  29.626  1.00  0.00     0.023 A 
ATOM     86  C   UNL A   1      45.541  33.610  30.833  1.00  0.00     0.012 A 
ATOM     87  C   UNL A   1      44.733  34.526  28.729  1.00  0.00     0.148 A 
ATOM     88  C   UNL A   1      46.100  34.845  31.162  1.00  0.00     0.002 A 
ATOM     89  C   UNL A   1      45.340  35.737  29.037  1.00  0.00     0.091 A 
ATOM     90  F   UNL A   1      44.038  34.356  27.595  1.00  0.00    -0.205 F 
ATOM     91  C   UNL A   1      46.009  35.903  30.260  1.00  0.00     0.022 A 
BRANCH  89  92
ATOM     92  S   UNL A   1      45.362  37.118  27.890  1.00  0.00     0.127 S 
ATOM     93  O   UNL A   1      43.940  37.440  27.784  1.00  0.00    -0.237 OA
ATOM     94  O   UNL A   1      46.159  38.110  28.612  1.00  0.00    -0.237 OA
ATOM     95  O   UNL A   1      45.983  36.617  26.671  1.00  0.00    -0.744 OA
ENDBRANCH  89  92
ENDBRANCH  62  85
ENDBRANCH  36  37
ENDBRANCH  29  31
ENDBRANCH  28  29
ENDBRANCH  27  28
ENDBRANCH   1  27
TORSDOF 18
ENDMDL
