MODEL 1
REMARK VINA RESULT:      -9.7      0.000      0.000
REMARK SMILES [NH3+][C@@H](CCCCC(=O)OCCOC(=O)c1ccc(-c2c3nc(c(-c4cccc(S(=O)(=O)[O-])c4F)c4ccc([nH]4)c(-c4cccc(S(=O)(=O)[O-])c4F)c4nc(c(-c5cccc(S(=O)(=O)[O-])c5F)c5ccc2[nH]5)C=C4)C=C3)cc1)c1ccc(-c2ccccc2)cc1
REMARK SMILES IDX 9 1 7 2 8 3 6 4 5 5 4 6 3 7 2 8 1 9 78 13 79 14 89 15 80 16
REMARK SMILES IDX 88 17 81 18 82 19 83 20 87 21 84 22 86 23 85 24 10 25 11 26
REMARK SMILES IDX 12 27 13 28 14 29 15 30 16 31 77 32 17 33 76 34 18 35 19 36
REMARK SMILES IDX 20 37 70 38 21 39 75 40 69 41 71 42 22 43 74 44 68 45 67 46
REMARK SMILES IDX 23 48 55 49 35 50 54 51 36 52 39 53 53 54 72 55 37 56 38 57
REMARK SMILES IDX 52 59 73 60 40 61 24 62 25 63 33 64 26 65 28 66 34 67 27 68
REMARK SMILES IDX 29 69 30 70 31 71 32 72 56 73 57 74 65 75 58 76 60 77 66 78
REMARK SMILES IDX 59 79 61 80 62 81 63 82 64 83 41 84 42 85 50 86 43 87 45 88
REMARK SMILES IDX 51 89 44 90 46 91 47 92 48 93 49 94
REMARK H PARENT 1 10 1 11 1 12 71 47 39 58
REMARK Flexibility Score: inf
ROOT
ATOM      1  O   UNL A   1      32.686  34.925  29.532  1.00  0.00    -0.462 OA
ENDROOT
BRANCH   1   2
ATOM      2  C   UNL A   1      32.955  35.793  30.539  1.00  0.00     0.305 C 
ATOM      3  O   UNL A   1      32.445  36.902  30.661  1.00  0.00    -0.252 OA
BRANCH   2   4
ATOM      4  C   UNL A   1      34.024  35.312  31.484  1.00  0.00     0.123 C 
BRANCH   4   5
ATOM      5  C   UNL A   1      33.594  34.813  32.863  1.00  0.00     0.012 C 
BRANCH   5   6
ATOM      6  C   UNL A   1      34.102  33.411  33.209  1.00  0.00     0.007 C 
BRANCH   6   7
ATOM      7  C   UNL A   1      35.490  33.304  33.876  1.00  0.00     0.070 C 
BRANCH   7   8
ATOM      8  C   UNL A   1      36.575  32.403  33.218  1.00  0.00     0.211 C 
BRANCH   8   9
ATOM      9  N   UNL A   1      37.201  31.579  34.265  1.00  0.00    -0.351 N 
ATOM     10  H   UNL A   1      37.850  30.920  33.836  1.00  0.00     0.345 HD
ATOM     11  H   UNL A   1      36.479  31.066  34.771  1.00  0.00     0.345 HD
ATOM     12  H   UNL A   1      37.708  32.181  34.914  1.00  0.00     0.345 HD
ENDBRANCH   8   9
BRANCH   8  13
ATOM     13  C   UNL A   1      37.603  33.088  32.324  1.00  0.00     0.009 A 
ATOM     14  C   UNL A   1      38.697  33.783  32.860  1.00  0.00     0.010 A 
ATOM     15  C   UNL A   1      37.468  33.098  30.924  1.00  0.00     0.010 A 
ATOM     16  C   UNL A   1      39.706  34.300  32.036  1.00  0.00     0.009 A 
ATOM     17  C   UNL A   1      38.462  33.636  30.098  1.00  0.00     0.009 A 
ATOM     18  C   UNL A   1      39.621  34.196  30.644  1.00  0.00    -0.018 A 
BRANCH  18  19
ATOM     19  C   UNL A   1      40.736  34.616  29.789  1.00  0.00    -0.018 A 
ATOM     20  C   UNL A   1      42.054  34.273  30.135  1.00  0.00     0.009 A 
ATOM     21  C   UNL A   1      40.527  35.390  28.638  1.00  0.00     0.009 A 
ATOM     22  C   UNL A   1      43.134  34.702  29.362  1.00  0.00     0.001 A 
ATOM     23  C   UNL A   1      41.608  35.814  27.861  1.00  0.00     0.001 A 
ATOM     24  C   UNL A   1      42.910  35.474  28.225  1.00  0.00     0.000 A 
ENDBRANCH  18  19
ENDBRANCH   8  13
ENDBRANCH   7   8
ENDBRANCH   6   7
ENDBRANCH   5   6
ENDBRANCH   4   5
ENDBRANCH   2   4
ENDBRANCH   1   2
BRANCH   1  25
ATOM     25  C   UNL A   1      33.824  34.553  28.734  1.00  0.00     0.274 C 
BRANCH  25  26
ATOM     26  C   UNL A   1      33.706  33.124  28.199  1.00  0.00     0.275 C 
BRANCH  26  27
ATOM     27  O   UNL A   1      34.900  32.352  28.425  1.00  0.00    -0.458 OA
BRANCH  27  28
ATOM     28  C   UNL A   1      34.812  31.044  28.084  1.00  0.00     0.338 C 
ATOM     29  O   UNL A   1      33.872  30.486  27.545  1.00  0.00    -0.246 OA
BRANCH  28  30
ATOM     30  C   UNL A   1      36.077  30.356  28.382  1.00  0.00     0.060 A 
ATOM     31  C   UNL A   1      36.151  29.557  29.526  1.00  0.00     0.016 A 
ATOM     32  C   UNL A   1      37.215  30.600  27.614  1.00  0.00     0.016 A 
ATOM     33  C   UNL A   1      37.369  29.012  29.923  1.00  0.00     0.010 A 
ATOM     34  C   UNL A   1      38.433  30.033  28.002  1.00  0.00     0.010 A 
ATOM     35  C   UNL A   1      38.525  29.252  29.169  1.00  0.00    -0.014 A 
BRANCH  35  36
ATOM     36  C   UNL A   1      39.839  28.717  29.610  1.00  0.00     0.031 A 
ATOM     37  C   UNL A   1      40.598  29.407  30.708  1.00  0.00     0.074 A 
ATOM     38  C   UNL A   1      40.367  27.640  28.998  1.00  0.00     0.049 A 
ATOM     39  N   UNL A   1      41.818  29.198  31.127  1.00  0.00    -0.248 NA
ATOM     40  C   UNL A   1      39.893  30.484  31.424  1.00  0.00     0.031 C 
ATOM     41  C   UNL A   1      39.723  26.876  27.929  1.00  0.00     0.029 A 
ATOM     42  N   UNL A   1      41.580  27.021  29.168  1.00  0.00    -0.354 N 
ATOM     43  C   UNL A   1      42.054  30.153  32.108  1.00  0.00     0.074 A 
ATOM     44  C   UNL A   1      40.843  30.936  32.234  1.00  0.00     0.031 C 
ATOM     45  C   UNL A   1      40.554  25.902  27.526  1.00  0.00     0.029 A 
ATOM     46  C   UNL A   1      41.805  26.002  28.272  1.00  0.00     0.049 A 
ATOM     47  H   UNL A   1      42.227  27.281  29.864  1.00  0.00     0.167 HD
ATOM     48  C   UNL A   1      43.174  30.354  32.843  1.00  0.00     0.034 A 
ATOM     49  C   UNL A   1      42.906  25.257  28.051  1.00  0.00     0.034 A 
ATOM     50  C   UNL A   1      44.354  29.536  32.756  1.00  0.00     0.049 A 
ATOM     51  C   UNL A   1      44.132  25.495  28.889  1.00  0.00     0.074 A 
ATOM     52  C   UNL A   1      45.521  29.629  33.496  1.00  0.00     0.029 A 
ATOM     53  N   UNL A   1      44.519  28.474  31.882  1.00  0.00    -0.354 N 
ATOM     54  N   UNL A   1      44.310  26.348  29.869  1.00  0.00    -0.248 NA
ATOM     55  C   UNL A   1      45.304  24.654  28.605  1.00  0.00     0.031 C 
ATOM     56  C   UNL A   1      46.393  28.623  33.064  1.00  0.00     0.029 A 
ATOM     57  C   UNL A   1      45.766  27.901  32.062  1.00  0.00     0.049 A 
ATOM     58  H   UNL A   1      43.848  28.171  31.228  1.00  0.00     0.167 HD
ATOM     59  C   UNL A   1      45.601  26.131  30.334  1.00  0.00     0.074 A 
ATOM     60  C   UNL A   1      46.154  25.048  29.545  1.00  0.00     0.031 C 
ATOM     61  C   UNL A   1      46.279  26.784  31.310  1.00  0.00     0.034 A 
BRANCH  48  62
ATOM     62  C   UNL A   1      43.170  31.488  33.833  1.00  0.00     0.023 A 
ATOM     63  C   UNL A   1      43.624  32.760  33.435  1.00  0.00     0.012 A 
ATOM     64  C   UNL A   1      42.658  31.311  35.133  1.00  0.00     0.148 A 
ATOM     65  C   UNL A   1      43.592  33.835  34.323  1.00  0.00     0.002 A 
ATOM     66  C   UNL A   1      42.593  32.395  36.002  1.00  0.00     0.091 A 
ATOM     67  F   UNL A   1      42.254  30.087  35.502  1.00  0.00    -0.205 F 
ATOM     68  C   UNL A   1      43.067  33.655  35.601  1.00  0.00     0.022 A 
BRANCH  66  69
ATOM     69  S   UNL A   1      41.870  32.276  37.642  1.00  0.00     0.127 S 
ATOM     70  O   UNL A   1      42.082  33.628  38.157  1.00  0.00    -0.237 OA
ATOM     71  O   UNL A   1      40.475  31.949  37.345  1.00  0.00    -0.237 OA
ATOM     72  O   UNL A   1      42.604  31.220  38.326  1.00  0.00    -0.744 OA
ENDBRANCH  66  69
ENDBRANCH  48  62
BRANCH  49  73
ATOM     73  C   UNL A   1      42.883  24.194  27.007  1.00  0.00     0.023 A 
ATOM     74  C   UNL A   1      43.538  24.418  25.781  1.00  0.00     0.012 A 
ATOM     75  C   UNL A   1      42.254  22.954  27.234  1.00  0.00     0.148 A 
ATOM     76  C   UNL A   1      43.551  23.434  24.792  1.00  0.00     0.002 A 
ATOM     77  C   UNL A   1      42.317  21.958  26.265  1.00  0.00     0.091 A 
ATOM     78  F   UNL A   1      41.611  22.768  28.395  1.00  0.00    -0.205 F 
ATOM     79  C   UNL A   1      42.953  22.201  25.038  1.00  0.00     0.022 A 
BRANCH  77  80
ATOM     80  S   UNL A   1      41.691  20.301  26.561  1.00  0.00     0.127 S 
ATOM     81  O   UNL A   1      40.253  20.535  26.658  1.00  0.00    -0.237 OA
ATOM     82  O   UNL A   1      42.118  19.589  25.355  1.00  0.00    -0.237 OA
ATOM     83  O   UNL A   1      42.350  19.851  27.781  1.00  0.00    -0.744 OA
ENDBRANCH  77  80
ENDBRANCH  49  73
BRANCH  61  84
ATOM     84  C   UNL A   1      47.684  26.332  31.605  1.00  0.00     0.023 A 
ATOM     85  C   UNL A   1      47.915  25.443  32.673  1.00  0.00     0.012 A 
ATOM     86  C   UNL A   1      48.758  26.726  30.785  1.00  0.00     0.148 A 
ATOM     87  C   UNL A   1      49.201  24.972  32.935  1.00  0.00     0.002 A 
ATOM     88  C   UNL A   1      50.030  26.220  31.027  1.00  0.00     0.091 A 
ATOM     89  F   UNL A   1      48.520  27.591  29.788  1.00  0.00    -0.205 F 
ATOM     90  C   UNL A   1      50.255  25.350  32.106  1.00  0.00     0.022 A 
BRANCH  88  91
ATOM     91  S   UNL A   1      51.424  26.588  29.955  1.00  0.00     0.127 S 
ATOM     92  O   UNL A   1      51.041  25.904  28.721  1.00  0.00    -0.237 OA
ATOM     93  O   UNL A   1      51.388  28.048  29.880  1.00  0.00    -0.237 OA
ATOM     94  O   UNL A   1      52.597  26.051  30.634  1.00  0.00    -0.744 OA
ENDBRANCH  88  91
ENDBRANCH  61  84
ENDBRANCH  35  36
ENDBRANCH  28  30
ENDBRANCH  27  28
ENDBRANCH  26  27
ENDBRANCH  25  26
ENDBRANCH   1  25
TORSDOF 21
ENDMDL
MODEL 2
REMARK VINA RESULT:      -9.7      2.102      2.557
REMARK SMILES [NH3+][C@@H](CCCCC(=O)OCCOC(=O)c1ccc(-c2c3nc(c(-c4cccc(S(=O)(=O)[O-])c4F)c4ccc([nH]4)c(-c4cccc(S(=O)(=O)[O-])c4F)c4nc(c(-c5cccc(S(=O)(=O)[O-])c5F)c5ccc2[nH]5)C=C4)C=C3)cc1)c1ccc(-c2ccccc2)cc1
REMARK SMILES IDX 9 1 7 2 8 3 6 4 5 5 4 6 3 7 2 8 1 9 78 13 79 14 89 15 80 16
REMARK SMILES IDX 88 17 81 18 82 19 83 20 87 21 84 22 86 23 85 24 10 25 11 26
REMARK SMILES IDX 12 27 13 28 14 29 15 30 16 31 77 32 17 33 76 34 18 35 19 36
REMARK SMILES IDX 20 37 70 38 21 39 75 40 69 41 71 42 22 43 74 44 68 45 67 46
REMARK SMILES IDX 23 48 55 49 35 50 54 51 36 52 39 53 53 54 72 55 37 56 38 57
REMARK SMILES IDX 52 59 73 60 40 61 24 62 25 63 33 64 26 65 28 66 34 67 27 68
REMARK SMILES IDX 29 69 30 70 31 71 32 72 56 73 57 74 65 75 58 76 60 77 66 78
REMARK SMILES IDX 59 79 61 80 62 81 63 82 64 83 41 84 42 85 50 86 43 87 45 88
REMARK SMILES IDX 51 89 44 90 46 91 47 92 48 93 49 94
REMARK H PARENT 1 10 1 11 1 12 71 47 39 58
REMARK Flexibility Score: inf
ROOT
ATOM      1  O   UNL A   1      33.166  34.634  29.627  1.00  0.00    -0.462 OA
ENDROOT
BRANCH   1   2
ATOM      2  C   UNL A   1      32.742  35.922  29.650  1.00  0.00     0.305 C 
ATOM      3  O   UNL A   1      32.154  36.480  28.729  1.00  0.00    -0.252 OA
BRANCH   2   4
ATOM      4  C   UNL A   1      33.134  36.667  30.898  1.00  0.00     0.123 C 
BRANCH   4   5
ATOM      5  C   UNL A   1      32.821  36.024  32.248  1.00  0.00     0.012 C 
BRANCH   5   6
ATOM      6  C   UNL A   1      34.026  35.916  33.186  1.00  0.00     0.007 C 
BRANCH   6   7
ATOM      7  C   UNL A   1      34.818  34.590  33.174  1.00  0.00     0.070 C 
BRANCH   7   8
ATOM      8  C   UNL A   1      35.106  33.896  31.812  1.00  0.00     0.211 C 
BRANCH   8   9
ATOM      9  N   UNL A   1      34.431  32.587  31.799  1.00  0.00    -0.351 N 
ATOM     10  H   UNL A   1      35.081  31.867  32.113  1.00  0.00     0.345 HD
ATOM     11  H   UNL A   1      34.119  32.375  30.851  1.00  0.00     0.345 HD
ATOM     12  H   UNL A   1      33.625  32.614  32.424  1.00  0.00     0.345 HD
ENDBRANCH   8   9
BRANCH   8  13
ATOM     13  C   UNL A   1      36.562  33.805  31.368  1.00  0.00     0.009 A 
ATOM     14  C   UNL A   1      36.922  33.225  30.143  1.00  0.00     0.010 A 
ATOM     15  C   UNL A   1      37.610  34.250  32.193  1.00  0.00     0.010 A 
ATOM     16  C   UNL A   1      38.246  33.259  29.682  1.00  0.00     0.009 A 
ATOM     17  C   UNL A   1      38.937  34.262  31.746  1.00  0.00     0.009 A 
ATOM     18  C   UNL A   1      39.264  33.816  30.463  1.00  0.00    -0.018 A 
BRANCH  18  19
ATOM     19  C   UNL A   1      40.620  33.973  29.928  1.00  0.00    -0.018 A 
ATOM     20  C   UNL A   1      41.614  33.031  30.247  1.00  0.00     0.009 A 
ATOM     21  C   UNL A   1      40.971  35.069  29.127  1.00  0.00     0.009 A 
ATOM     22  C   UNL A   1      42.924  33.187  29.789  1.00  0.00     0.001 A 
ATOM     23  C   UNL A   1      42.281  35.221  28.663  1.00  0.00     0.001 A 
ATOM     24  C   UNL A   1      43.256  34.283  28.997  1.00  0.00     0.000 A 
ENDBRANCH  18  19
ENDBRANCH   8  13
ENDBRANCH   7   8
ENDBRANCH   6   7
ENDBRANCH   5   6
ENDBRANCH   4   5
ENDBRANCH   2   4
ENDBRANCH   1   2
BRANCH   1  25
ATOM     25  C   UNL A   1      33.831  34.237  28.415  1.00  0.00     0.274 C 
BRANCH  25  26
ATOM     26  C   UNL A   1      33.509  32.791  28.030  1.00  0.00     0.275 C 
BRANCH  26  27
ATOM     27  O   UNL A   1      34.632  32.116  27.434  1.00  0.00    -0.458 OA
BRANCH  27  28
ATOM     28  C   UNL A   1      34.640  30.770  27.584  1.00  0.00     0.338 C 
ATOM     29  O   UNL A   1      33.796  29.981  27.195  1.00  0.00    -0.246 OA
BRANCH  28  30
ATOM     30  C   UNL A   1      35.887  30.340  28.234  1.00  0.00     0.060 A 
ATOM     31  C   UNL A   1      37.082  30.428  27.515  1.00  0.00     0.016 A 
ATOM     32  C   UNL A   1      35.859  29.736  29.490  1.00  0.00     0.016 A 
ATOM     33  C   UNL A   1      38.256  29.893  28.039  1.00  0.00     0.010 A 
ATOM     34  C   UNL A   1      37.043  29.218  30.024  1.00  0.00     0.010 A 
ATOM     35  C   UNL A   1      38.247  29.275  29.295  1.00  0.00    -0.014 A 
BRANCH  35  36
ATOM     36  C   UNL A   1      39.482  28.657  29.842  1.00  0.00     0.031 A 
ATOM     37  C   UNL A   1      40.142  29.251  31.056  1.00  0.00     0.074 A 
ATOM     38  C   UNL A   1      40.032  27.593  29.229  1.00  0.00     0.049 A 
ATOM     39  N   UNL A   1      41.299  28.964  31.591  1.00  0.00    -0.248 NA
ATOM     40  C   UNL A   1      39.405  30.319  31.754  1.00  0.00     0.031 C 
ATOM     41  C   UNL A   1      39.480  26.919  28.053  1.00  0.00     0.029 A 
ATOM     42  N   UNL A   1      41.193  26.910  29.492  1.00  0.00    -0.354 N 
ATOM     43  C   UNL A   1      41.462  29.852  32.647  1.00  0.00     0.074 A 
ATOM     44  C   UNL A   1      40.276  30.682  32.687  1.00  0.00     0.031 C 
ATOM     45  C   UNL A   1      40.311  25.931  27.685  1.00  0.00     0.029 A 
ATOM     46  C   UNL A   1      41.475  25.932  28.567  1.00  0.00     0.049 A 
ATOM     47  H   UNL A   1      41.769  27.102  30.268  1.00  0.00     0.167 HD
ATOM     48  C   UNL A   1      42.501  29.961  33.509  1.00  0.00     0.034 A 
ATOM     49  C   UNL A   1      42.564  25.151  28.422  1.00  0.00     0.034 A 
ATOM     50  C   UNL A   1      43.650  29.096  33.501  1.00  0.00     0.049 A 
ATOM     51  C   UNL A   1      43.698  25.287  29.401  1.00  0.00     0.074 A 
ATOM     52  C   UNL A   1      44.731  29.095  34.368  1.00  0.00     0.029 A 
ATOM     53  N   UNL A   1      43.869  28.077  32.589  1.00  0.00    -0.354 N 
ATOM     54  N   UNL A   1      43.800  26.076  30.442  1.00  0.00    -0.248 NA
ATOM     55  C   UNL A   1      44.860  24.410  29.196  1.00  0.00     0.031 C 
ATOM     56  C   UNL A   1      45.605  28.076  33.974  1.00  0.00     0.029 A 
ATOM     57  C   UNL A   1      45.065  27.439  32.869  1.00  0.00     0.049 A 
ATOM     58  H   UNL A   1      43.262  27.841  31.849  1.00  0.00     0.167 HD
ATOM     59  C   UNL A   1      45.022  25.775  31.031  1.00  0.00     0.074 A 
ATOM     60  C   UNL A   1      45.616  24.713  30.243  1.00  0.00     0.031 C 
ATOM     61  C   UNL A   1      45.613  26.342  32.111  1.00  0.00     0.034 A 
BRANCH  48  62
ATOM     62  C   UNL A   1      42.432  31.038  34.558  1.00  0.00     0.023 A 
ATOM     63  C   UNL A   1      41.910  30.736  35.831  1.00  0.00     0.012 A 
ATOM     64  C   UNL A   1      42.942  32.327  34.307  1.00  0.00     0.148 A 
ATOM     65  C   UNL A   1      41.874  31.707  36.832  1.00  0.00     0.002 A 
ATOM     66  C   UNL A   1      42.937  33.279  35.321  1.00  0.00     0.091 A 
ATOM     67  F   UNL A   1      43.412  32.602  33.082  1.00  0.00    -0.205 F 
ATOM     68  C   UNL A   1      42.397  32.973  36.581  1.00  0.00     0.022 A 
BRANCH  66  69
ATOM     69  S   UNL A   1      43.652  34.914  35.112  1.00  0.00     0.127 S 
ATOM     70  O   UNL A   1      43.979  35.272  36.491  1.00  0.00    -0.237 OA
ATOM     71  O   UNL A   1      44.811  34.642  34.261  1.00  0.00    -0.237 OA
ATOM     72  O   UNL A   1      42.617  35.723  34.481  1.00  0.00    -0.744 OA
ENDBRANCH  66  69
ENDBRANCH  48  62
BRANCH  49  73
ATOM     73  C   UNL A   1      42.614  24.149  27.321  1.00  0.00     0.023 A 
ATOM     74  C   UNL A   1      43.309  24.461  26.137  1.00  0.00     0.012 A 
ATOM     75  C   UNL A   1      42.015  22.881  27.452  1.00  0.00     0.148 A 
ATOM     76  C   UNL A   1      43.391  23.536  25.095  1.00  0.00     0.002 A 
ATOM     77  C   UNL A   1      42.147  21.943  26.433  1.00  0.00     0.091 A 
ATOM     78  F   UNL A   1      41.334  22.610  28.575  1.00  0.00    -0.205 F 
ATOM     79  C   UNL A   1      42.822  22.274  25.248  1.00  0.00     0.022 A 
BRANCH  77  80
ATOM     80  S   UNL A   1      41.562  20.255  26.611  1.00  0.00     0.127 S 
ATOM     81  O   UNL A   1      42.267  19.816  27.811  1.00  0.00    -0.237 OA
ATOM     82  O   UNL A   1      40.120  20.443  26.778  1.00  0.00    -0.237 OA
ATOM     83  O   UNL A   1      41.933  19.585  25.370  1.00  0.00    -0.744 OA
ENDBRANCH  77  80
ENDBRANCH  49  73
BRANCH  61  84
ATOM     84  C   UNL A   1      46.958  25.811  32.530  1.00  0.00     0.023 A 
ATOM     85  C   UNL A   1      48.123  26.329  31.932  1.00  0.00     0.012 A 
ATOM     86  C   UNL A   1      47.071  24.859  33.561  1.00  0.00     0.148 A 
ATOM     87  C   UNL A   1      49.382  25.888  32.339  1.00  0.00     0.002 A 
ATOM     88  C   UNL A   1      48.330  24.454  33.988  1.00  0.00     0.091 A 
ATOM     89  F   UNL A   1      45.948  24.362  34.100  1.00  0.00    -0.205 F 
ATOM     90  C   UNL A   1      49.485  24.960  33.373  1.00  0.00     0.022 A 
BRANCH  88  91
ATOM     91  S   UNL A   1      48.553  23.330  35.373  1.00  0.00     0.127 S 
ATOM     92  O   UNL A   1      47.714  22.200  34.978  1.00  0.00    -0.237 OA
ATOM     93  O   UNL A   1      49.991  23.066  35.336  1.00  0.00    -0.237 OA
ATOM     94  O   UNL A   1      48.107  24.063  36.552  1.00  0.00    -0.744 OA
ENDBRANCH  88  91
ENDBRANCH  61  84
ENDBRANCH  35  36
ENDBRANCH  28  30
ENDBRANCH  27  28
ENDBRANCH  26  27
ENDBRANCH  25  26
ENDBRANCH   1  25
TORSDOF 21
ENDMDL
MODEL 3
REMARK VINA RESULT:      -9.4      2.607      3.842
REMARK SMILES [NH3+][C@@H](CCCCC(=O)OCCOC(=O)c1ccc(-c2c3nc(c(-c4cccc(S(=O)(=O)[O-])c4F)c4ccc([nH]4)c(-c4cccc(S(=O)(=O)[O-])c4F)c4nc(c(-c5cccc(S(=O)(=O)[O-])c5F)c5ccc2[nH]5)C=C4)C=C3)cc1)c1ccc(-c2ccccc2)cc1
REMARK SMILES IDX 9 1 7 2 8 3 6 4 5 5 4 6 3 7 2 8 1 9 78 13 79 14 89 15 80 16
REMARK SMILES IDX 88 17 81 18 82 19 83 20 87 21 84 22 86 23 85 24 10 25 11 26
REMARK SMILES IDX 12 27 13 28 14 29 15 30 16 31 77 32 17 33 76 34 18 35 19 36
REMARK SMILES IDX 20 37 70 38 21 39 75 40 69 41 71 42 22 43 74 44 68 45 67 46
REMARK SMILES IDX 23 48 55 49 35 50 54 51 36 52 39 53 53 54 72 55 37 56 38 57
REMARK SMILES IDX 52 59 73 60 40 61 24 62 25 63 33 64 26 65 28 66 34 67 27 68
REMARK SMILES IDX 29 69 30 70 31 71 32 72 56 73 57 74 65 75 58 76 60 77 66 78
REMARK SMILES IDX 59 79 61 80 62 81 63 82 64 83 41 84 42 85 50 86 43 87 45 88
REMARK SMILES IDX 51 89 44 90 46 91 47 92 48 93 49 94
REMARK H PARENT 1 10 1 11 1 12 71 47 39 58
REMARK Flexibility Score: inf
ROOT
ATOM      1  O   UNL A   1      32.419  35.317  29.760  1.00  0.00    -0.462 OA
ENDROOT
BRANCH   1   2
ATOM      2  C   UNL A   1      32.782  35.904  30.927  1.00  0.00     0.305 C 
ATOM      3  O   UNL A   1      32.180  36.831  31.460  1.00  0.00    -0.252 OA
BRANCH   2   4
ATOM      4  C   UNL A   1      34.069  35.372  31.498  1.00  0.00     0.123 C 
BRANCH   4   5
ATOM      5  C   UNL A   1      34.009  34.109  32.355  1.00  0.00     0.012 C 
BRANCH   5   6
ATOM      6  C   UNL A   1      34.747  32.909  31.758  1.00  0.00     0.007 C 
BRANCH   6   7
ATOM      7  C   UNL A   1      36.275  33.035  31.575  1.00  0.00     0.070 C 
BRANCH   7   8
ATOM      8  C   UNL A   1      37.007  34.271  32.174  1.00  0.00     0.211 C 
BRANCH   8   9
ATOM      9  N   UNL A   1      38.072  34.683  31.245  1.00  0.00    -0.351 N 
ATOM     10  H   UNL A   1      38.433  35.595  31.525  1.00  0.00     0.345 HD
ATOM     11  H   UNL A   1      37.694  34.743  30.300  1.00  0.00     0.345 HD
ATOM     12  H   UNL A   1      38.826  33.998  31.267  1.00  0.00     0.345 HD
ENDBRANCH   8   9
BRANCH   8  13
ATOM     13  C   UNL A   1      37.500  34.161  33.613  1.00  0.00     0.009 A 
ATOM     14  C   UNL A   1      38.736  34.691  34.009  1.00  0.00     0.010 A 
ATOM     15  C   UNL A   1      36.760  33.475  34.592  1.00  0.00     0.010 A 
ATOM     16  C   UNL A   1      39.127  34.702  35.355  1.00  0.00     0.009 A 
ATOM     17  C   UNL A   1      37.160  33.461  35.934  1.00  0.00     0.009 A 
ATOM     18  C   UNL A   1      38.323  34.122  36.341  1.00  0.00    -0.018 A 
BRANCH  18  19
ATOM     19  C   UNL A   1      38.664  34.249  37.762  1.00  0.00    -0.018 A 
ATOM     20  C   UNL A   1      39.352  35.386  38.220  1.00  0.00     0.009 A 
ATOM     21  C   UNL A   1      38.352  33.240  38.684  1.00  0.00     0.009 A 
ATOM     22  C   UNL A   1      39.730  35.506  39.558  1.00  0.00     0.001 A 
ATOM     23  C   UNL A   1      38.725  33.364  40.026  1.00  0.00     0.001 A 
ATOM     24  C   UNL A   1      39.416  34.494  40.461  1.00  0.00     0.000 A 
ENDBRANCH  18  19
ENDBRANCH   8  13
ENDBRANCH   7   8
ENDBRANCH   6   7
ENDBRANCH   5   6
ENDBRANCH   4   5
ENDBRANCH   2   4
ENDBRANCH   1   2
BRANCH   1  25
ATOM     25  C   UNL A   1      33.480  35.176  28.798  1.00  0.00     0.274 C 
BRANCH  25  26
ATOM     26  C   UNL A   1      33.459  33.805  28.118  1.00  0.00     0.275 C 
BRANCH  26  27
ATOM     27  O   UNL A   1      34.647  33.038  28.389  1.00  0.00    -0.458 OA
BRANCH  27  28
ATOM     28  C   UNL A   1      34.609  31.751  27.969  1.00  0.00     0.338 C 
ATOM     29  O   UNL A   1      33.726  31.213  27.324  1.00  0.00    -0.246 OA
BRANCH  28  30
ATOM     30  C   UNL A   1      35.856  31.062  28.333  1.00  0.00     0.060 A 
ATOM     31  C   UNL A   1      35.780  29.764  28.843  1.00  0.00     0.016 A 
ATOM     32  C   UNL A   1      37.076  31.737  28.293  1.00  0.00     0.016 A 
ATOM     33  C   UNL A   1      36.921  29.137  29.338  1.00  0.00     0.010 A 
ATOM     34  C   UNL A   1      38.225  31.097  28.770  1.00  0.00     0.010 A 
ATOM     35  C   UNL A   1      38.153  29.801  29.314  1.00  0.00    -0.014 A 
BRANCH  35  36
ATOM     36  C   UNL A   1      39.367  29.161  29.883  1.00  0.00     0.031 A 
ATOM     37  C   UNL A   1      39.981  29.708  31.142  1.00  0.00     0.074 A 
ATOM     38  C   UNL A   1      39.941  28.120  29.250  1.00  0.00     0.049 A 
ATOM     39  N   UNL A   1      41.117  29.399  31.709  1.00  0.00    -0.248 NA
ATOM     40  C   UNL A   1      39.218  30.748  31.852  1.00  0.00     0.031 C 
ATOM     41  C   UNL A   1      39.434  27.492  28.029  1.00  0.00     0.029 A 
ATOM     42  N   UNL A   1      41.092  27.427  29.530  1.00  0.00    -0.354 N 
ATOM     43  C   UNL A   1      41.240  30.246  32.803  1.00  0.00     0.074 A 
ATOM     44  C   UNL A   1      40.053  31.075  32.831  1.00  0.00     0.031 C 
ATOM     45  C   UNL A   1      40.279  26.518  27.656  1.00  0.00     0.029 A 
ATOM     46  C   UNL A   1      41.409  26.485  28.580  1.00  0.00     0.049 A 
ATOM     47  H   UNL A   1      41.638  27.589  30.334  1.00  0.00     0.167 HD
ATOM     48  C   UNL A   1      42.246  30.321  33.708  1.00  0.00     0.034 A 
ATOM     49  C   UNL A   1      42.503  25.709  28.447  1.00  0.00     0.034 A 
ATOM     50  C   UNL A   1      43.395  29.456  33.710  1.00  0.00     0.049 A 
ATOM     51  C   UNL A   1      43.599  25.806  29.472  1.00  0.00     0.074 A 
ATOM     52  C   UNL A   1      44.442  29.420  34.616  1.00  0.00     0.029 A 
ATOM     53  N   UNL A   1      43.648  28.472  32.769  1.00  0.00    -0.354 N 
ATOM     54  N   UNL A   1      43.661  26.555  30.546  1.00  0.00    -0.248 NA
ATOM     55  C   UNL A   1      44.769  24.937  29.277  1.00  0.00     0.031 C 
ATOM     56  C   UNL A   1      45.331  28.416  34.217  1.00  0.00     0.029 A 
ATOM     57  C   UNL A   1      44.833  27.823  33.069  1.00  0.00     0.049 A 
ATOM     58  H   UNL A   1      43.070  28.265  31.998  1.00  0.00     0.167 HD
ATOM     59  C   UNL A   1      44.860  26.231  31.169  1.00  0.00     0.074 A 
ATOM     60  C   UNL A   1      45.484  25.199  30.364  1.00  0.00     0.031 C 
ATOM     61  C   UNL A   1      45.410  26.756  32.291  1.00  0.00     0.034 A 
BRANCH  48  62
ATOM     62  C   UNL A   1      42.137  31.357  34.794  1.00  0.00     0.023 A 
ATOM     63  C   UNL A   1      41.512  31.024  36.012  1.00  0.00     0.012 A 
ATOM     64  C   UNL A   1      42.708  32.634  34.636  1.00  0.00     0.148 A 
ATOM     65  C   UNL A   1      41.435  31.955  37.048  1.00  0.00     0.002 A 
ATOM     66  C   UNL A   1      42.662  33.545  35.686  1.00  0.00     0.091 A 
ATOM     67  F   UNL A   1      43.277  32.941  33.461  1.00  0.00    -0.205 F 
ATOM     68  C   UNL A   1      42.019  33.210  36.889  1.00  0.00     0.022 A 
BRANCH  66  69
ATOM     69  S   UNL A   1      43.446  35.159  35.600  1.00  0.00     0.127 S 
ATOM     70  O   UNL A   1      42.287  36.049  35.562  1.00  0.00    -0.237 OA
ATOM     71  O   UNL A   1      44.208  35.203  36.849  1.00  0.00    -0.237 OA
ATOM     72  O   UNL A   1      44.265  35.140  34.395  1.00  0.00    -0.744 OA
ENDBRANCH  66  69
ENDBRANCH  48  62
BRANCH  49  73
ATOM     73  C   UNL A   1      42.595  24.749  27.310  1.00  0.00     0.023 A 
ATOM     74  C   UNL A   1      43.255  25.142  26.130  1.00  0.00     0.012 A 
ATOM     75  C   UNL A   1      42.071  23.445  27.404  1.00  0.00     0.148 A 
ATOM     76  C   UNL A   1      43.375  24.259  25.056  1.00  0.00     0.002 A 
ATOM     77  C   UNL A   1      42.243  22.553  26.352  1.00  0.00     0.091 A 
ATOM     78  F   UNL A   1      41.422  23.098  28.525  1.00  0.00    -0.205 F 
ATOM     79  C   UNL A   1      42.881  22.962  25.171  1.00  0.00     0.022 A 
BRANCH  77  80
ATOM     80  S   UNL A   1      41.757  20.828  26.477  1.00  0.00     0.127 S 
ATOM     81  O   UNL A   1      40.322  20.900  26.218  1.00  0.00    -0.237 OA
ATOM     82  O   UNL A   1      42.544  20.207  25.411  1.00  0.00    -0.237 OA
ATOM     83  O   UNL A   1      42.146  20.415  27.820  1.00  0.00    -0.744 OA
ENDBRANCH  77  80
ENDBRANCH  49  73
BRANCH  61  84
ATOM     84  C   UNL A   1      46.738  26.207  32.739  1.00  0.00     0.023 A 
ATOM     85  C   UNL A   1      47.925  26.838  32.318  1.00  0.00     0.012 A 
ATOM     86  C   UNL A   1      46.809  25.121  33.632  1.00  0.00     0.148 A 
ATOM     87  C   UNL A   1      49.165  26.378  32.760  1.00  0.00     0.002 A 
ATOM     88  C   UNL A   1      48.046  24.694  34.100  1.00  0.00     0.091 A 
ATOM     89  F   UNL A   1      45.668  24.520  34.002  1.00  0.00    -0.205 F 
ATOM     90  C   UNL A   1      49.225  25.315  33.659  1.00  0.00     0.022 A 
BRANCH  88  91
ATOM     91  S   UNL A   1      48.205  23.390  35.326  1.00  0.00     0.127 S 
ATOM     92  O   UNL A   1      47.573  22.261  34.645  1.00  0.00    -0.237 OA
ATOM     93  O   UNL A   1      49.656  23.276  35.478  1.00  0.00    -0.237 OA
ATOM     94  O   UNL A   1      47.514  23.877  36.513  1.00  0.00    -0.744 OA
ENDBRANCH  88  91
ENDBRANCH  61  84
ENDBRANCH  35  36
ENDBRANCH  28  30
ENDBRANCH  27  28
ENDBRANCH  26  27
ENDBRANCH  25  26
ENDBRANCH   1  25
TORSDOF 21
ENDMDL
