MODEL 1
REMARK VINA RESULT:     -11.0      0.000      0.000
REMARK SMILES COc1ccccc1S(=O)(=O)[C@@H](C)[C@H](C)C(=O)OCCOC(=O)c1ccc(-c2c3nc(c(-c4cccc(S(=O)(=O)[O-])c4F)c4ccc([nH]4)c(-c4cccc(S(=O)(=O)[O-])c4F)c4nc(c(-c5cccc(S(=O)(=O)[O-])c5F)c5ccc2[nH]5)C=C4)C=C3)cc1
REMARK SMILES IDX 19 1 18 2 16 3 17 4 14 5 15 6 12 7 13 8 9 9 10 10 11 11 8 12
REMARK SMILES IDX 3 13 4 14 5 15 7 16 6 17 2 18 1 19 20 20 21 21 22 22 23 23
REMARK SMILES IDX 24 24 25 25 86 26 26 27 85 28 27 29 28 30 29 31 79 32 30 33
REMARK SMILES IDX 84 34 78 35 80 36 31 37 83 38 77 39 76 40 32 42 64 43 44 44
REMARK SMILES IDX 63 45 45 46 48 47 62 48 81 49 46 50 47 51 61 53 82 54 49 55
REMARK SMILES IDX 33 56 34 57 42 58 35 59 37 60 43 61 36 62 38 63 39 64 40 65
REMARK SMILES IDX 41 66 65 67 66 68 74 69 67 70 69 71 75 72 68 73 70 74 71 75
REMARK SMILES IDX 72 76 73 77 50 78 51 79 59 80 52 81 54 82 60 83 53 84 55 85
REMARK SMILES IDX 56 86 57 87 58 88
REMARK H PARENT 80 41 48 52
REMARK Flexibility Score: inf
ROOT
ATOM      1  C   UNL A   1      31.239  29.519  24.631  1.00  0.00     0.274 C 
ENDROOT
BRANCH   1   2
ATOM      2  O   UNL A   1      31.489  28.579  23.567  1.00  0.00    -0.462 OA
BRANCH   2   3
ATOM      3  C   UNL A   1      30.467  27.722  23.292  1.00  0.00     0.310 C 
ATOM      4  O   UNL A   1      29.700  27.831  22.345  1.00  0.00    -0.252 OA
BRANCH   3   5
ATOM      5  C   UNL A   1      30.373  26.595  24.313  1.00  0.00     0.114 C 
ATOM      6  C   UNL A   1      28.931  26.094  24.408  1.00  0.00     0.021 C 
BRANCH   5   7
ATOM      7  C   UNL A   1      31.516  25.611  24.040  1.00  0.00     0.124 C 
ATOM      8  C   UNL A   1      31.135  24.240  23.496  1.00  0.00     0.026 C 
BRANCH   7   9
ATOM      9  S   UNL A   1      32.893  25.646  25.157  1.00  0.00     0.185 S 
ATOM     10  O   UNL A   1      32.559  26.650  26.154  1.00  0.00    -0.223 OA
ATOM     11  O   UNL A   1      34.085  25.830  24.343  1.00  0.00    -0.223 OA
BRANCH   9  12
ATOM     12  C   UNL A   1      33.219  24.179  26.092  1.00  0.00     0.109 A 
ATOM     13  C   UNL A   1      32.334  23.560  26.960  1.00  0.00     0.137 A 
ATOM     14  C   UNL A   1      32.746  22.429  27.683  1.00  0.00     0.048 A 
ATOM     15  C   UNL A   1      34.004  21.861  27.466  1.00  0.00     0.004 A 
ATOM     16  C   UNL A   1      34.480  23.592  25.864  1.00  0.00     0.024 A 
ATOM     17  C   UNL A   1      34.865  22.431  26.536  1.00  0.00     0.002 A 
BRANCH  13  18
ATOM     18  O   UNL A   1      31.091  24.067  27.167  1.00  0.00    -0.495 OA
ATOM     19  C   UNL A   1      30.064  23.120  26.891  1.00  0.00     0.278 C 
ENDBRANCH  13  18
ENDBRANCH   9  12
ENDBRANCH   7   9
ENDBRANCH   5   7
ENDBRANCH   3   5
ENDBRANCH   2   3
ENDBRANCH   1   2
BRANCH   1  20
ATOM     20  C   UNL A   1      32.579  30.032  25.162  1.00  0.00     0.275 C 
BRANCH  20  21
ATOM     21  O   UNL A   1      32.500  30.163  26.593  1.00  0.00    -0.458 OA
BRANCH  21  22
ATOM     22  C   UNL A   1      33.028  31.297  27.112  1.00  0.00     0.338 C 
ATOM     23  O   UNL A   1      32.520  32.404  27.122  1.00  0.00    -0.246 OA
BRANCH  22  24
ATOM     24  C   UNL A   1      34.349  31.001  27.702  1.00  0.00     0.060 A 
ATOM     25  C   UNL A   1      34.677  29.697  28.073  1.00  0.00     0.016 A 
ATOM     26  C   UNL A   1      35.232  32.041  27.972  1.00  0.00     0.016 A 
ATOM     27  C   UNL A   1      35.851  29.430  28.774  1.00  0.00     0.010 A 
ATOM     28  C   UNL A   1      36.452  31.762  28.596  1.00  0.00     0.010 A 
ATOM     29  C   UNL A   1      36.761  30.459  29.033  1.00  0.00    -0.014 A 
BRANCH  29  30
ATOM     30  C   UNL A   1      38.024  30.197  29.774  1.00  0.00     0.031 A 
ATOM     31  C   UNL A   1      39.046  29.250  29.203  1.00  0.00     0.074 A 
ATOM     32  C   UNL A   1      38.235  30.763  30.978  1.00  0.00     0.049 A 
ATOM     33  N   UNL A   1      40.110  28.739  29.767  1.00  0.00    -0.248 NA
ATOM     34  C   UNL A   1      38.829  28.803  27.816  1.00  0.00     0.031 C 
ATOM     35  C   UNL A   1      37.329  31.701  31.644  1.00  0.00     0.029 A 
ATOM     36  N   UNL A   1      39.265  30.604  31.875  1.00  0.00    -0.354 N 
ATOM     37  C   UNL A   1      40.650  27.862  28.834  1.00  0.00     0.074 A 
ATOM     38  C   UNL A   1      39.797  27.909  27.666  1.00  0.00     0.031 C 
ATOM     39  C   UNL A   1      37.832  32.020  32.847  1.00  0.00     0.029 A 
ATOM     40  C   UNL A   1      39.060  31.265  33.064  1.00  0.00     0.049 A 
ATOM     41  H   UNL A   1      40.070  30.070  31.684  1.00  0.00     0.167 HD
ATOM     42  C   UNL A   1      41.763  27.096  28.935  1.00  0.00     0.034 A 
ATOM     43  C   UNL A   1      39.756  31.234  34.217  1.00  0.00     0.034 A 
ATOM     44  C   UNL A   1      42.640  27.097  30.076  1.00  0.00     0.049 A 
ATOM     45  C   UNL A   1      40.997  30.392  34.300  1.00  0.00     0.074 A 
ATOM     46  C   UNL A   1      43.819  26.394  30.257  1.00  0.00     0.029 A 
ATOM     47  N   UNL A   1      42.440  27.842  31.228  1.00  0.00    -0.354 N 
ATOM     48  N   UNL A   1      41.535  29.624  33.384  1.00  0.00    -0.248 NA
ATOM     49  C   UNL A   1      41.744  30.431  35.566  1.00  0.00     0.031 C 
ATOM     50  C   UNL A   1      44.325  26.707  31.524  1.00  0.00     0.029 A 
ATOM     51  C   UNL A   1      43.471  27.618  32.125  1.00  0.00     0.049 A 
ATOM     52  H   UNL A   1      41.677  28.444  31.385  1.00  0.00     0.167 HD
ATOM     53  C   UNL A   1      42.693  29.105  33.950  1.00  0.00     0.074 A 
ATOM     54  C   UNL A   1      42.793  29.670  35.282  1.00  0.00     0.031 C 
ATOM     55  C   UNL A   1      43.581  28.224  33.428  1.00  0.00     0.034 A 
BRANCH  42  56
ATOM     56  C   UNL A   1      42.111  26.214  27.764  1.00  0.00     0.023 A 
ATOM     57  C   UNL A   1      42.896  26.727  26.711  1.00  0.00     0.012 A 
ATOM     58  C   UNL A   1      41.692  24.869  27.719  1.00  0.00     0.148 A 
ATOM     59  C   UNL A   1      43.226  25.928  25.616  1.00  0.00     0.002 A 
ATOM     60  C   UNL A   1      42.060  24.067  26.644  1.00  0.00     0.091 A 
ATOM     61  F   UNL A   1      40.925  24.403  28.715  1.00  0.00    -0.205 F 
ATOM     62  C   UNL A   1      42.816  24.598  25.587  1.00  0.00     0.022 A 
BRANCH  60  63
ATOM     63  S   UNL A   1      41.644  22.321  26.555  1.00  0.00     0.127 S 
ATOM     64  O   UNL A   1      42.343  21.913  25.338  1.00  0.00    -0.237 OA
ATOM     65  O   UNL A   1      42.224  21.800  27.794  1.00  0.00    -0.237 OA
ATOM     66  O   UNL A   1      40.190  22.261  26.498  1.00  0.00    -0.744 OA
ENDBRANCH  60  63
ENDBRANCH  42  56
BRANCH  43  67
ATOM     67  C   UNL A   1      39.291  32.047  35.378  1.00  0.00     0.023 A 
ATOM     68  C   UNL A   1      38.456  31.458  36.346  1.00  0.00     0.012 A 
ATOM     69  C   UNL A   1      39.719  33.378  35.557  1.00  0.00     0.148 A 
ATOM     70  C   UNL A   1      38.039  32.185  37.461  1.00  0.00     0.002 A 
ATOM     71  C   UNL A   1      39.348  34.077  36.699  1.00  0.00     0.091 A 
ATOM     72  F   UNL A   1      40.498  33.927  34.614  1.00  0.00    -0.205 F 
ATOM     73  C   UNL A   1      38.496  33.488  37.645  1.00  0.00     0.022 A 
BRANCH  71  74
ATOM     74  S   UNL A   1      40.001  35.707  37.082  1.00  0.00     0.127 S 
ATOM     75  O   UNL A   1      39.645  36.461  35.882  1.00  0.00    -0.237 OA
ATOM     76  O   UNL A   1      39.243  36.065  38.281  1.00  0.00    -0.237 OA
ATOM     77  O   UNL A   1      41.427  35.514  37.311  1.00  0.00    -0.744 OA
ENDBRANCH  71  74
ENDBRANCH  43  67
BRANCH  55  78
ATOM     78  C   UNL A   1      44.756  27.833  34.285  1.00  0.00     0.023 A 
ATOM     79  C   UNL A   1      45.883  28.676  34.348  1.00  0.00     0.012 A 
ATOM     80  C   UNL A   1      44.718  26.667  35.074  1.00  0.00     0.148 A 
ATOM     81  C   UNL A   1      46.970  28.346  35.159  1.00  0.00     0.002 A 
ATOM     82  C   UNL A   1      45.786  26.368  35.913  1.00  0.00     0.091 A 
ATOM     83  F   UNL A   1      43.646  25.867  34.984  1.00  0.00    -0.205 F 
ATOM     84  C   UNL A   1      46.916  27.200  35.948  1.00  0.00     0.022 A 
BRANCH  82  85
ATOM     85  S   UNL A   1      45.761  24.962  37.030  1.00  0.00     0.127 S 
ATOM     86  O   UNL A   1      47.186  24.674  37.181  1.00  0.00    -0.237 OA
ATOM     87  O   UNL A   1      45.122  25.520  38.223  1.00  0.00    -0.237 OA
ATOM     88  O   UNL A   1      44.979  23.933  36.358  1.00  0.00    -0.744 OA
ENDBRANCH  82  85
ENDBRANCH  55  78
ENDBRANCH  29  30
ENDBRANCH  22  24
ENDBRANCH  21  22
ENDBRANCH  20  21
ENDBRANCH   1  20
TORSDOF 18
ENDMDL
MODEL 2
REMARK VINA RESULT:     -11.0      4.846     10.003
REMARK SMILES COc1ccccc1S(=O)(=O)[C@@H](C)[C@H](C)C(=O)OCCOC(=O)c1ccc(-c2c3nc(c(-c4cccc(S(=O)(=O)[O-])c4F)c4ccc([nH]4)c(-c4cccc(S(=O)(=O)[O-])c4F)c4nc(c(-c5cccc(S(=O)(=O)[O-])c5F)c5ccc2[nH]5)C=C4)C=C3)cc1
REMARK SMILES IDX 19 1 18 2 16 3 17 4 14 5 15 6 12 7 13 8 9 9 10 10 11 11 8 12
REMARK SMILES IDX 3 13 4 14 5 15 7 16 6 17 2 18 1 19 20 20 21 21 22 22 23 23
REMARK SMILES IDX 24 24 25 25 86 26 26 27 85 28 27 29 28 30 29 31 79 32 30 33
REMARK SMILES IDX 84 34 78 35 80 36 31 37 83 38 77 39 76 40 32 42 64 43 44 44
REMARK SMILES IDX 63 45 45 46 48 47 62 48 81 49 46 50 47 51 61 53 82 54 49 55
REMARK SMILES IDX 33 56 34 57 42 58 35 59 37 60 43 61 36 62 38 63 39 64 40 65
REMARK SMILES IDX 41 66 65 67 66 68 74 69 67 70 69 71 75 72 68 73 70 74 71 75
REMARK SMILES IDX 72 76 73 77 50 78 51 79 59 80 52 81 54 82 60 83 53 84 55 85
REMARK SMILES IDX 56 86 57 87 58 88
REMARK H PARENT 80 41 48 52
REMARK Flexibility Score: inf
ROOT
ATOM      1  C   UNL A   1      35.081  20.670  25.015  1.00  0.00     0.274 C 
ENDROOT
BRANCH   1   2
ATOM      2  O   UNL A   1      34.902  22.019  25.489  1.00  0.00    -0.462 OA
BRANCH   2   3
ATOM      3  C   UNL A   1      33.864  22.701  24.933  1.00  0.00     0.310 C 
ATOM      4  O   UNL A   1      33.643  22.780  23.732  1.00  0.00    -0.252 OA
BRANCH   3   5
ATOM      5  C   UNL A   1      32.992  23.376  25.984  1.00  0.00     0.114 C 
ATOM      6  C   UNL A   1      33.411  22.922  27.383  1.00  0.00     0.021 C 
BRANCH   5   7
ATOM      7  C   UNL A   1      32.915  24.870  25.648  1.00  0.00     0.124 C 
ATOM      8  C   UNL A   1      34.217  25.659  25.696  1.00  0.00     0.026 C 
BRANCH   7   9
ATOM      9  S   UNL A   1      31.462  25.740  26.174  1.00  0.00     0.185 S 
ATOM     10  O   UNL A   1      31.901  26.621  27.243  1.00  0.00    -0.223 OA
ATOM     11  O   UNL A   1      30.453  24.731  26.462  1.00  0.00    -0.223 OA
BRANCH   9  12
ATOM     12  C   UNL A   1      30.687  26.814  24.999  1.00  0.00     0.109 A 
ATOM     13  C   UNL A   1      31.187  28.032  24.565  1.00  0.00     0.137 A 
ATOM     14  C   UNL A   1      30.437  28.810  23.669  1.00  0.00     0.048 A 
ATOM     15  C   UNL A   1      29.240  28.330  23.132  1.00  0.00     0.004 A 
ATOM     16  C   UNL A   1      29.487  26.327  24.442  1.00  0.00     0.024 A 
ATOM     17  C   UNL A   1      28.776  27.073  23.503  1.00  0.00     0.002 A 
BRANCH  13  18
ATOM     18  O   UNL A   1      32.365  28.511  25.041  1.00  0.00    -0.495 OA
ATOM     19  C   UNL A   1      33.269  28.865  23.999  1.00  0.00     0.278 C 
ENDBRANCH  13  18
ENDBRANCH   9  12
ENDBRANCH   7   9
ENDBRANCH   5   7
ENDBRANCH   3   5
ENDBRANCH   2   3
ENDBRANCH   1   2
BRANCH   1  20
ATOM     20  C   UNL A   1      36.577  20.344  25.004  1.00  0.00     0.275 C 
BRANCH  20  21
ATOM     21  O   UNL A   1      37.284  21.357  25.744  1.00  0.00    -0.458 OA
BRANCH  21  22
ATOM     22  C   UNL A   1      38.600  21.119  25.959  1.00  0.00     0.338 C 
ATOM     23  O   UNL A   1      39.203  20.084  25.739  1.00  0.00    -0.246 OA
BRANCH  22  24
ATOM     24  C   UNL A   1      39.238  22.335  26.501  1.00  0.00     0.060 A 
ATOM     25  C   UNL A   1      38.785  23.598  26.120  1.00  0.00     0.016 A 
ATOM     26  C   UNL A   1      40.354  22.219  27.323  1.00  0.00     0.016 A 
ATOM     27  C   UNL A   1      39.476  24.747  26.496  1.00  0.00     0.010 A 
ATOM     28  C   UNL A   1      40.997  23.375  27.776  1.00  0.00     0.010 A 
ATOM     29  C   UNL A   1      40.585  24.650  27.342  1.00  0.00    -0.014 A 
BRANCH  29  30
ATOM     30  C   UNL A   1      41.335  25.865  27.764  1.00  0.00     0.031 A 
ATOM     31  C   UNL A   1      40.633  26.950  28.535  1.00  0.00     0.074 A 
ATOM     32  C   UNL A   1      42.627  26.020  27.413  1.00  0.00     0.049 A 
ATOM     33  N   UNL A   1      41.042  28.158  28.826  1.00  0.00    -0.248 NA
ATOM     34  C   UNL A   1      39.279  26.641  29.026  1.00  0.00     0.031 C 
ATOM     35  C   UNL A   1      43.427  25.044  26.670  1.00  0.00     0.029 A 
ATOM     36  N   UNL A   1      43.487  27.075  27.606  1.00  0.00    -0.354 N 
ATOM     37  C   UNL A   1      39.978  28.774  29.473  1.00  0.00     0.074 A 
ATOM     38  C   UNL A   1      38.903  27.807  29.531  1.00  0.00     0.031 C 
ATOM     39  C   UNL A   1      44.651  25.551  26.455  1.00  0.00     0.029 A 
ATOM     40  C   UNL A   1      44.704  26.907  26.988  1.00  0.00     0.049 A 
ATOM     41  H   UNL A   1      43.253  27.872  28.135  1.00  0.00     0.167 HD
ATOM     42  C   UNL A   1      39.906  30.027  29.984  1.00  0.00     0.034 A 
ATOM     43  C   UNL A   1      45.733  27.762  26.826  1.00  0.00     0.034 A 
ATOM     44  C   UNL A   1      40.998  30.964  29.975  1.00  0.00     0.049 A 
ATOM     45  C   UNL A   1      45.638  29.140  27.417  1.00  0.00     0.074 A 
ATOM     46  C   UNL A   1      41.042  32.240  30.510  1.00  0.00     0.029 A 
ATOM     47  N   UNL A   1      42.242  30.725  29.410  1.00  0.00    -0.354 N 
ATOM     48  N   UNL A   1      44.652  29.683  28.089  1.00  0.00    -0.248 NA
ATOM     49  C   UNL A   1      46.807  30.016  27.253  1.00  0.00     0.031 C 
ATOM     50  C   UNL A   1      42.310  32.776  30.257  1.00  0.00     0.029 A 
ATOM     51  C   UNL A   1      43.062  31.828  29.581  1.00  0.00     0.049 A 
ATOM     52  H   UNL A   1      42.504  29.893  28.955  1.00  0.00     0.167 HD
ATOM     53  C   UNL A   1      45.086  30.953  28.447  1.00  0.00     0.074 A 
ATOM     54  C   UNL A   1      46.438  31.089  27.940  1.00  0.00     0.031 C 
ATOM     55  C   UNL A   1      44.421  31.929  29.113  1.00  0.00     0.034 A 
BRANCH  42  56
ATOM     56  C   UNL A   1      38.607  30.445  30.623  1.00  0.00     0.023 A 
ATOM     57  C   UNL A   1      38.377  30.165  31.986  1.00  0.00     0.012 A 
ATOM     58  C   UNL A   1      37.628  31.144  29.889  1.00  0.00     0.148 A 
ATOM     59  C   UNL A   1      37.180  30.541  32.596  1.00  0.00     0.002 A 
ATOM     60  C   UNL A   1      36.456  31.552  30.515  1.00  0.00     0.091 A 
ATOM     61  F   UNL A   1      37.851  31.381  28.588  1.00  0.00    -0.205 F 
ATOM     62  C   UNL A   1      36.225  31.240  31.864  1.00  0.00     0.022 A 
BRANCH  60  63
ATOM     63  S   UNL A   1      35.201  32.525  29.674  1.00  0.00     0.127 S 
ATOM     64  O   UNL A   1      35.983  33.661  29.190  1.00  0.00    -0.237 OA
ATOM     65  O   UNL A   1      34.746  31.609  28.626  1.00  0.00    -0.237 OA
ATOM     66  O   UNL A   1      34.196  32.835  30.682  1.00  0.00    -0.744 OA
ENDBRANCH  60  63
ENDBRANCH  42  56
BRANCH  43  67
ATOM     67  C   UNL A   1      46.947  27.319  26.082  1.00  0.00     0.023 A 
ATOM     68  C   UNL A   1      47.084  27.649  24.721  1.00  0.00     0.012 A 
ATOM     69  C   UNL A   1      47.989  26.626  26.730  1.00  0.00     0.148 A 
ATOM     70  C   UNL A   1      48.228  27.280  24.013  1.00  0.00     0.002 A 
ATOM     71  C   UNL A   1      49.151  26.313  26.034  1.00  0.00     0.091 A 
ATOM     72  F   UNL A   1      47.831  26.304  28.022  1.00  0.00    -0.205 F 
ATOM     73  C   UNL A   1      49.266  26.625  24.672  1.00  0.00     0.022 A 
BRANCH  71  74
ATOM     74  S   UNL A   1      50.589  25.597  26.839  1.00  0.00     0.127 S 
ATOM     75  O   UNL A   1      51.445  25.284  25.696  1.00  0.00    -0.237 OA
ATOM     76  O   UNL A   1      51.057  26.705  27.672  1.00  0.00    -0.237 OA
ATOM     77  O   UNL A   1      50.090  24.453  27.590  1.00  0.00    -0.744 OA
ENDBRANCH  71  74
ENDBRANCH  43  67
BRANCH  55  78
ATOM     78  C   UNL A   1      45.151  33.223  29.357  1.00  0.00     0.023 A 
ATOM     79  C   UNL A   1      45.962  33.359  30.501  1.00  0.00     0.012 A 
ATOM     80  C   UNL A   1      45.085  34.278  28.427  1.00  0.00     0.148 A 
ATOM     81  C   UNL A   1      46.669  34.540  30.732  1.00  0.00     0.002 A 
ATOM     82  C   UNL A   1      45.828  35.433  28.640  1.00  0.00     0.091 A 
ATOM     83  F   UNL A   1      44.291  34.137  27.355  1.00  0.00    -0.205 F 
ATOM     84  C   UNL A   1      46.611  35.570  29.797  1.00  0.00     0.022 A 
BRANCH  82  85
ATOM     85  S   UNL A   1      45.882  36.772  27.443  1.00  0.00     0.127 S 
ATOM     86  O   UNL A   1      46.796  37.712  28.088  1.00  0.00    -0.237 OA
ATOM     87  O   UNL A   1      46.426  36.109  26.257  1.00  0.00    -0.237 OA
ATOM     88  O   UNL A   1      44.507  37.230  27.296  1.00  0.00    -0.744 OA
ENDBRANCH  82  85
ENDBRANCH  55  78
ENDBRANCH  29  30
ENDBRANCH  22  24
ENDBRANCH  21  22
ENDBRANCH  20  21
ENDBRANCH   1  20
TORSDOF 18
ENDMDL
MODEL 3
REMARK VINA RESULT:     -10.9      5.226     10.127
REMARK SMILES COc1ccccc1S(=O)(=O)[C@@H](C)[C@H](C)C(=O)OCCOC(=O)c1ccc(-c2c3nc(c(-c4cccc(S(=O)(=O)[O-])c4F)c4ccc([nH]4)c(-c4cccc(S(=O)(=O)[O-])c4F)c4nc(c(-c5cccc(S(=O)(=O)[O-])c5F)c5ccc2[nH]5)C=C4)C=C3)cc1
REMARK SMILES IDX 19 1 18 2 16 3 17 4 14 5 15 6 12 7 13 8 9 9 10 10 11 11 8 12
REMARK SMILES IDX 3 13 4 14 5 15 7 16 6 17 2 18 1 19 20 20 21 21 22 22 23 23
REMARK SMILES IDX 24 24 25 25 86 26 26 27 85 28 27 29 28 30 29 31 79 32 30 33
REMARK SMILES IDX 84 34 78 35 80 36 31 37 83 38 77 39 76 40 32 42 64 43 44 44
REMARK SMILES IDX 63 45 45 46 48 47 62 48 81 49 46 50 47 51 61 53 82 54 49 55
REMARK SMILES IDX 33 56 34 57 42 58 35 59 37 60 43 61 36 62 38 63 39 64 40 65
REMARK SMILES IDX 41 66 65 67 66 68 74 69 67 70 69 71 75 72 68 73 70 74 71 75
REMARK SMILES IDX 72 76 73 77 50 78 51 79 59 80 52 81 54 82 60 83 53 84 55 85
REMARK SMILES IDX 56 86 57 87 58 88
REMARK H PARENT 80 41 48 52
REMARK Flexibility Score: inf
ROOT
ATOM      1  C   UNL A   1      35.066  20.644  25.013  1.00  0.00     0.274 C 
ENDROOT
BRANCH   1   2
ATOM      2  O   UNL A   1      34.968  22.008  25.468  1.00  0.00    -0.462 OA
BRANCH   2   3
ATOM      3  C   UNL A   1      33.717  22.544  25.443  1.00  0.00     0.310 C 
ATOM      4  O   UNL A   1      32.685  21.903  25.294  1.00  0.00    -0.252 OA
BRANCH   3   5
ATOM      5  C   UNL A   1      33.737  24.058  25.615  1.00  0.00     0.114 C 
ATOM      6  C   UNL A   1      35.160  24.587  25.428  1.00  0.00     0.021 C 
BRANCH   5   7
ATOM      7  C   UNL A   1      32.581  24.644  24.796  1.00  0.00     0.124 C 
ATOM      8  C   UNL A   1      32.873  25.004  23.345  1.00  0.00     0.026 C 
BRANCH   7   9
ATOM      9  S   UNL A   1      31.452  25.713  25.648  1.00  0.00     0.185 S 
ATOM     10  O   UNL A   1      32.278  26.546  26.507  1.00  0.00    -0.223 OA
ATOM     11  O   UNL A   1      30.444  24.857  26.255  1.00  0.00    -0.223 OA
BRANCH   9  12
ATOM     12  C   UNL A   1      30.524  26.860  24.671  1.00  0.00     0.109 A 
ATOM     13  C   UNL A   1      30.991  28.071  24.184  1.00  0.00     0.137 A 
ATOM     14  C   UNL A   1      30.125  28.912  23.467  1.00  0.00     0.048 A 
ATOM     15  C   UNL A   1      28.828  28.502  23.153  1.00  0.00     0.004 A 
ATOM     16  C   UNL A   1      29.219  26.444  24.336  1.00  0.00     0.024 A 
ATOM     17  C   UNL A   1      28.381  27.254  23.569  1.00  0.00     0.002 A 
BRANCH  13  18
ATOM     18  O   UNL A   1      32.260  28.483  24.443  1.00  0.00    -0.495 OA
ATOM     19  C   UNL A   1      32.296  29.726  25.137  1.00  0.00     0.278 C 
ENDBRANCH  13  18
ENDBRANCH   9  12
ENDBRANCH   7   9
ENDBRANCH   5   7
ENDBRANCH   3   5
ENDBRANCH   2   3
ENDBRANCH   1   2
BRANCH   1  20
ATOM     20  C   UNL A   1      36.541  20.239  24.981  1.00  0.00     0.275 C 
BRANCH  20  21
ATOM     21  O   UNL A   1      37.343  21.345  25.436  1.00  0.00    -0.458 OA
BRANCH  21  22
ATOM     22  C   UNL A   1      38.616  21.046  25.786  1.00  0.00     0.338 C 
ATOM     23  O   UNL A   1      39.178  19.972  25.658  1.00  0.00    -0.246 OA
BRANCH  22  24
ATOM     24  C   UNL A   1      39.266  22.243  26.354  1.00  0.00     0.060 A 
ATOM     25  C   UNL A   1      38.767  23.515  26.071  1.00  0.00     0.016 A 
ATOM     26  C   UNL A   1      40.434  22.108  27.097  1.00  0.00     0.016 A 
ATOM     27  C   UNL A   1      39.461  24.657  26.466  1.00  0.00     0.010 A 
ATOM     28  C   UNL A   1      41.084  23.251  27.571  1.00  0.00     0.010 A 
ATOM     29  C   UNL A   1      40.623  24.539  27.234  1.00  0.00    -0.014 A 
BRANCH  29  30
ATOM     30  C   UNL A   1      41.377  25.744  27.674  1.00  0.00     0.031 A 
ATOM     31  C   UNL A   1      40.684  26.810  28.480  1.00  0.00     0.074 A 
ATOM     32  C   UNL A   1      42.664  25.910  27.309  1.00  0.00     0.049 A 
ATOM     33  N   UNL A   1      41.095  28.011  28.794  1.00  0.00    -0.248 NA
ATOM     34  C   UNL A   1      39.337  26.487  28.982  1.00  0.00     0.031 C 
ATOM     35  C   UNL A   1      43.455  24.954  26.533  1.00  0.00     0.029 A 
ATOM     36  N   UNL A   1      43.524  26.962  27.515  1.00  0.00    -0.354 N 
ATOM     37  C   UNL A   1      40.038  28.610  29.470  1.00  0.00     0.074 A 
ATOM     38  C   UNL A   1      38.966  27.640  29.519  1.00  0.00     0.031 C 
ATOM     39  C   UNL A   1      44.675  25.468  26.312  1.00  0.00     0.029 A 
ATOM     40  C   UNL A   1      44.733  26.811  26.877  1.00  0.00     0.049 A 
ATOM     41  H   UNL A   1      43.297  27.746  28.065  1.00  0.00     0.167 HD
ATOM     42  C   UNL A   1      39.971  29.850  30.010  1.00  0.00     0.034 A 
ATOM     43  C   UNL A   1      45.758  27.671  26.721  1.00  0.00     0.034 A 
ATOM     44  C   UNL A   1      41.061  30.790  30.009  1.00  0.00     0.049 A 
ATOM     45  C   UNL A   1      45.669  29.035  27.345  1.00  0.00     0.074 A 
ATOM     46  C   UNL A   1      41.111  32.053  30.572  1.00  0.00     0.029 A 
ATOM     47  N   UNL A   1      42.298  30.566  29.421  1.00  0.00    -0.354 N 
ATOM     48  N   UNL A   1      44.691  29.561  28.043  1.00  0.00    -0.248 NA
ATOM     49  C   UNL A   1      46.834  29.917  27.185  1.00  0.00     0.031 C 
ATOM     50  C   UNL A   1      42.375  32.598  30.314  1.00  0.00     0.029 A 
ATOM     51  C   UNL A   1      43.119  31.667  29.606  1.00  0.00     0.049 A 
ATOM     52  H   UNL A   1      42.555  29.746  28.943  1.00  0.00     0.167 HD
ATOM     53  C   UNL A   1      45.128  30.823  28.424  1.00  0.00     0.074 A 
ATOM     54  C   UNL A   1      46.473  30.973  27.903  1.00  0.00     0.031 C 
ATOM     55  C   UNL A   1      44.470  31.782  29.123  1.00  0.00     0.034 A 
BRANCH  42  56
ATOM     56  C   UNL A   1      38.681  30.251  30.677  1.00  0.00     0.023 A 
ATOM     57  C   UNL A   1      38.450  29.898  32.022  1.00  0.00     0.012 A 
ATOM     58  C   UNL A   1      37.711  31.005  29.987  1.00  0.00     0.148 A 
ATOM     59  C   UNL A   1      37.261  30.256  32.658  1.00  0.00     0.002 A 
ATOM     60  C   UNL A   1      36.546  31.394  30.639  1.00  0.00     0.091 A 
ATOM     61  F   UNL A   1      37.933  31.311  28.701  1.00  0.00    -0.205 F 
ATOM     62  C   UNL A   1      36.314  31.010  31.970  1.00  0.00     0.022 A 
BRANCH  60  63
ATOM     63  S   UNL A   1      35.303  32.431  29.859  1.00  0.00     0.127 S 
ATOM     64  O   UNL A   1      34.807  31.554  28.801  1.00  0.00    -0.237 OA
ATOM     65  O   UNL A   1      34.357  32.659  30.953  1.00  0.00    -0.237 OA
ATOM     66  O   UNL A   1      36.005  33.625  29.411  1.00  0.00    -0.744 OA
ENDBRANCH  60  63
ENDBRANCH  42  56
BRANCH  43  67
ATOM     67  C   UNL A   1      46.963  27.248  25.950  1.00  0.00     0.023 A 
ATOM     68  C   UNL A   1      47.884  26.360  26.537  1.00  0.00     0.012 A 
ATOM     69  C   UNL A   1      47.168  27.674  24.623  1.00  0.00     0.148 A 
ATOM     70  C   UNL A   1      48.998  25.919  25.823  1.00  0.00     0.002 A 
ATOM     71  C   UNL A   1      48.248  27.185  23.898  1.00  0.00     0.091 A 
ATOM     72  F   UNL A   1      46.289  28.535  24.089  1.00  0.00    -0.205 F 
ATOM     73  C   UNL A   1      49.172  26.319  24.500  1.00  0.00     0.022 A 
BRANCH  71  74
ATOM     74  S   UNL A   1      48.470  27.539  22.150  1.00  0.00     0.127 S 
ATOM     75  O   UNL A   1      48.685  26.202  21.600  1.00  0.00    -0.237 OA
ATOM     76  O   UNL A   1      47.189  28.150  21.796  1.00  0.00    -0.237 OA
ATOM     77  O   UNL A   1      49.607  28.446  22.075  1.00  0.00    -0.744 OA
ENDBRANCH  71  74
ENDBRANCH  43  67
BRANCH  55  78
ATOM     78  C   UNL A   1      45.202  33.071  29.387  1.00  0.00     0.023 A 
ATOM     79  C   UNL A   1      45.946  33.218  30.574  1.00  0.00     0.012 A 
ATOM     80  C   UNL A   1      45.204  34.110  28.436  1.00  0.00     0.148 A 
ATOM     81  C   UNL A   1      46.654  34.394  30.826  1.00  0.00     0.002 A 
ATOM     82  C   UNL A   1      45.948  35.259  28.673  1.00  0.00     0.091 A 
ATOM     83  F   UNL A   1      44.473  33.959  27.322  1.00  0.00    -0.205 F 
ATOM     84  C   UNL A   1      46.664  35.408  29.871  1.00  0.00     0.022 A 
BRANCH  82  85
ATOM     85  S   UNL A   1      46.090  36.576  27.458  1.00  0.00     0.127 S 
ATOM     86  O   UNL A   1      44.748  37.154  27.487  1.00  0.00    -0.237 OA
ATOM     87  O   UNL A   1      47.132  37.425  28.036  1.00  0.00    -0.237 OA
ATOM     88  O   UNL A   1      46.469  35.927  26.210  1.00  0.00    -0.744 OA
ENDBRANCH  82  85
ENDBRANCH  55  78
ENDBRANCH  29  30
ENDBRANCH  22  24
ENDBRANCH  21  22
ENDBRANCH  20  21
ENDBRANCH   1  20
TORSDOF 18
ENDMDL
