MODEL 1
REMARK VINA RESULT:     -12.4      0.000      0.000
REMARK SMILES O=C(Nc1ccc(Cl)cc1C(=O)OCCOC(=O)c1ccc(-c2c3nc(c(-c4cccc(S(=O)(=O)[O-])c4F)c4ccc([nH]4)c(-c4cccc(S(=O)(=O)[O-])c4F)c4nc(c(-c5cccc(S(=O)(=O)[O-])c5F)c5ccc2[nH]5)C=C4)C=C3)cc1)c1ccc2c(c1)C(=O)N(Cc1ccco1)C2=O
REMARK SMILES IDX 14 1 13 2 11 3 12 4 10 5 4 6 5 7 6 8 9 9 7 10 8 11 3 12 1 13
REMARK SMILES IDX 2 14 82 16 83 17 87 18 84 19 86 20 85 21 88 22 97 23 89 24
REMARK SMILES IDX 90 25 98 26 91 27 92 28 93 29 96 30 94 31 95 32 15 33 16 34
REMARK SMILES IDX 17 35 18 36 19 37 20 38 81 39 21 40 80 41 22 42 23 43 24 44
REMARK SMILES IDX 74 45 25 46 79 47 73 48 75 49 26 50 78 51 72 52 71 53 27 55
REMARK SMILES IDX 59 56 39 57 58 58 40 59 43 60 57 61 76 62 41 63 42 64 56 66
REMARK SMILES IDX 77 67 44 68 28 69 29 70 37 71 30 72 32 73 38 74 31 75 33 76
REMARK SMILES IDX 34 77 35 78 36 79 60 80 61 81 69 82 62 83 64 84 70 85 63 86
REMARK SMILES IDX 65 87 66 88 67 89 68 90 45 91 46 92 54 93 47 94 49 95 55 96
REMARK SMILES IDX 48 97 50 98 51 99 52 100 53 101
REMARK H PARENT 3 15 75 54 43 65
REMARK Flexibility Score: inf
ROOT
ATOM      1  C   UNL A   1      31.730  29.432  27.291  1.00  0.00     0.275 C 
ENDROOT
BRANCH   1   2
ATOM      2  O   UNL A   1      31.435  28.642  26.121  1.00  0.00    -0.458 OA
BRANCH   2   3
ATOM      3  C   UNL A   1      31.426  27.292  26.244  1.00  0.00     0.340 C 
ATOM      4  O   UNL A   1      31.257  26.667  27.277  1.00  0.00    -0.246 OA
BRANCH   3   5
ATOM      5  C   UNL A   1      31.585  26.630  24.911  1.00  0.00     0.085 A 
ATOM      6  C   UNL A   1      31.104  25.339  24.617  1.00  0.00     0.056 A 
ATOM      7  C   UNL A   1      31.283  24.852  23.314  1.00  0.00     0.028 A 
ATOM      8  C   UNL A   1      32.045  25.544  22.370  1.00  0.00     0.023 A 
ATOM      9  C   UNL A   1      32.306  27.347  23.936  1.00  0.00     0.038 A 
ATOM     10  C   UNL A   1      32.585  26.775  22.699  1.00  0.00     0.042 A 
ATOM     11  Cl  UNL A   1      33.605  27.584  21.580  1.00  0.00    -0.084 Cl
BRANCH   6  12
ATOM     12  N   UNL A   1      30.478  24.598  25.642  1.00  0.00    -0.321 N 
ATOM     13  O   UNL A   1      30.191  23.066  27.283  1.00  0.00    -0.269 OA
ATOM     14  C   UNL A   1      30.846  23.475  26.328  1.00  0.00     0.255 C 
ATOM     15  H   UNL A   1      29.607  24.961  25.917  1.00  0.00     0.170 HD
BRANCH  14  16
ATOM     16  C   UNL A   1      32.024  22.719  25.933  1.00  0.00     0.041 A 
ATOM     17  C   UNL A   1      33.301  22.969  26.488  1.00  0.00     0.015 A 
ATOM     18  C   UNL A   1      31.797  21.690  25.029  1.00  0.00     0.028 A 
ATOM     19  C   UNL A   1      34.385  22.146  26.145  1.00  0.00     0.015 A 
ATOM     20  C   UNL A   1      32.887  20.936  24.691  1.00  0.00     0.054 A 
ATOM     21  C   UNL A   1      34.139  21.119  25.247  1.00  0.00     0.053 A 
ATOM     22  C   UNL A   1      32.881  19.718  23.915  1.00  0.00     0.261 C 
ATOM     23  C   UNL A   1      34.930  19.943  24.864  1.00  0.00     0.261 C 
ATOM     24  O   UNL A   1      31.876  19.303  23.379  1.00  0.00    -0.269 OA
ATOM     25  N   UNL A   1      34.118  19.163  24.078  1.00  0.00    -0.267 N 
ATOM     26  O   UNL A   1      36.034  19.693  25.312  1.00  0.00    -0.269 OA
BRANCH  25  27
ATOM     27  C   UNL A   1      34.343  17.758  23.844  1.00  0.00     0.204 C 
BRANCH  27  28
ATOM     28  C   UNL A   1      33.591  16.857  24.756  1.00  0.00     0.123 A 
ATOM     29  C   UNL A   1      32.726  17.118  25.800  1.00  0.00     0.047 A 
ATOM     30  O   UNL A   1      33.621  15.515  24.515  1.00  0.00    -0.467 OA
ATOM     31  C   UNL A   1      32.193  15.869  26.202  1.00  0.00     0.042 A 
ATOM     32  C   UNL A   1      32.767  14.926  25.386  1.00  0.00     0.195 A 
ENDBRANCH  27  28
ENDBRANCH  25  27
ENDBRANCH  14  16
ENDBRANCH   6  12
ENDBRANCH   3   5
ENDBRANCH   2   3
ENDBRANCH   1   2
BRANCH   1  33
ATOM     33  C   UNL A   1      32.682  30.578  26.946  1.00  0.00     0.275 C 
BRANCH  33  34
ATOM     34  O   UNL A   1      34.049  30.151  27.089  1.00  0.00    -0.458 OA
BRANCH  34  35
ATOM     35  C   UNL A   1      34.784  30.862  27.974  1.00  0.00     0.338 C 
ATOM     36  O   UNL A   1      34.430  31.828  28.629  1.00  0.00    -0.246 OA
BRANCH  35  37
ATOM     37  C   UNL A   1      36.064  30.178  28.199  1.00  0.00     0.060 A 
ATOM     38  C   UNL A   1      36.193  29.473  29.391  1.00  0.00     0.016 A 
ATOM     39  C   UNL A   1      37.155  30.322  27.349  1.00  0.00     0.016 A 
ATOM     40  C   UNL A   1      37.421  28.969  29.792  1.00  0.00     0.010 A 
ATOM     41  C   UNL A   1      38.381  29.749  27.717  1.00  0.00     0.010 A 
ATOM     42  C   UNL A   1      38.536  29.094  28.956  1.00  0.00    -0.014 A 
BRANCH  42  43
ATOM     43  C   UNL A   1      39.859  28.583  29.412  1.00  0.00     0.031 A 
ATOM     44  C   UNL A   1      40.571  29.253  30.557  1.00  0.00     0.074 A 
ATOM     45  C   UNL A   1      40.418  27.511  28.813  1.00  0.00     0.049 A 
ATOM     46  N   UNL A   1      41.784  29.055  31.005  1.00  0.00    -0.248 NA
ATOM     47  C   UNL A   1      39.827  30.293  31.289  1.00  0.00     0.031 C 
ATOM     48  C   UNL A   1      39.823  26.745  27.715  1.00  0.00     0.029 A 
ATOM     49  N   UNL A   1      41.619  26.883  29.037  1.00  0.00    -0.354 N 
ATOM     50  C   UNL A   1      41.979  30.000  32.006  1.00  0.00     0.074 A 
ATOM     51  C   UNL A   1      40.753  30.759  32.115  1.00  0.00     0.031 C 
ATOM     52  C   UNL A   1      40.649  25.744  27.375  1.00  0.00     0.029 A 
ATOM     53  C   UNL A   1      41.867  25.843  28.169  1.00  0.00     0.049 A 
ATOM     54  H   UNL A   1      42.243  27.151  29.750  1.00  0.00     0.167 HD
ATOM     55  C   UNL A   1      43.079  30.211  32.767  1.00  0.00     0.034 A 
ATOM     56  C   UNL A   1      42.966  25.082  27.998  1.00  0.00     0.034 A 
ATOM     57  C   UNL A   1      44.266  29.400  32.713  1.00  0.00     0.049 A 
ATOM     58  C   UNL A   1      44.171  25.339  28.861  1.00  0.00     0.074 A 
ATOM     59  C   UNL A   1      45.409  29.498  33.487  1.00  0.00     0.029 A 
ATOM     60  N   UNL A   1      44.460  28.337  31.843  1.00  0.00    -0.354 N 
ATOM     61  N   UNL A   1      44.318  26.200  29.837  1.00  0.00    -0.248 NA
ATOM     62  C   UNL A   1      45.358  24.512  28.606  1.00  0.00     0.031 C 
ATOM     63  C   UNL A   1      46.306  28.509  33.068  1.00  0.00     0.029 A 
ATOM     64  C   UNL A   1      45.710  27.778  32.054  1.00  0.00     0.049 A 
ATOM     65  H   UNL A   1      43.808  28.027  31.176  1.00  0.00     0.167 HD
ATOM     66  C   UNL A   1      45.601  25.999  30.332  1.00  0.00     0.074 A 
ATOM     67  C   UNL A   1      46.181  24.916  29.563  1.00  0.00     0.031 C 
ATOM     68  C   UNL A   1      46.249  26.663  31.321  1.00  0.00     0.034 A 
BRANCH  55  69
ATOM     69  C   UNL A   1      43.060  31.367  33.734  1.00  0.00     0.023 A 
ATOM     70  C   UNL A   1      43.521  32.637  33.331  1.00  0.00     0.012 A 
ATOM     71  C   UNL A   1      42.513  31.207  35.023  1.00  0.00     0.148 A 
ATOM     72  C   UNL A   1      43.464  33.721  34.207  1.00  0.00     0.002 A 
ATOM     73  C   UNL A   1      42.419  32.302  35.874  1.00  0.00     0.091 A 
ATOM     74  F   UNL A   1      42.099  29.987  35.395  1.00  0.00    -0.205 F 
ATOM     75  C   UNL A   1      42.903  33.557  35.470  1.00  0.00     0.022 A 
BRANCH  73  76
ATOM     76  S   UNL A   1      41.638  32.210  37.488  1.00  0.00     0.127 S 
ATOM     77  O   UNL A   1      40.300  31.732  37.141  1.00  0.00    -0.237 OA
ATOM     78  O   UNL A   1      42.475  31.230  38.181  1.00  0.00    -0.237 OA
ATOM     79  O   UNL A   1      41.695  33.556  38.041  1.00  0.00    -0.744 OA
ENDBRANCH  73  76
ENDBRANCH  55  69
BRANCH  56  80
ATOM     80  C   UNL A   1      42.980  24.001  26.970  1.00  0.00     0.023 A 
ATOM     81  C   UNL A   1      43.694  24.193  25.772  1.00  0.00     0.012 A 
ATOM     82  C   UNL A   1      42.306  22.781  27.178  1.00  0.00     0.148 A 
ATOM     83  C   UNL A   1      43.715  23.204  24.789  1.00  0.00     0.002 A 
ATOM     84  C   UNL A   1      42.382  21.775  26.221  1.00  0.00     0.091 A 
ATOM     85  F   UNL A   1      41.610  22.623  28.313  1.00  0.00    -0.205 F 
ATOM     86  C   UNL A   1      43.070  21.991  25.018  1.00  0.00     0.022 A 
BRANCH  84  87
ATOM     87  S   UNL A   1      41.702  20.135  26.499  1.00  0.00     0.127 S 
ATOM     88  O   UNL A   1      40.267  20.399  26.471  1.00  0.00    -0.237 OA
ATOM     89  O   UNL A   1      42.216  19.393  25.348  1.00  0.00    -0.237 OA
ATOM     90  O   UNL A   1      42.245  19.700  27.780  1.00  0.00    -0.744 OA
ENDBRANCH  84  87
ENDBRANCH  56  80
BRANCH  68  91
ATOM     91  C   UNL A   1      47.644  26.211  31.663  1.00  0.00     0.023 A 
ATOM     92  C   UNL A   1      48.740  26.694  30.923  1.00  0.00     0.012 A 
ATOM     93  C   UNL A   1      47.871  25.362  32.765  1.00  0.00     0.148 A 
ATOM     94  C   UNL A   1      50.040  26.311  31.253  1.00  0.00     0.002 A 
ATOM     95  C   UNL A   1      49.172  25.025  33.118  1.00  0.00     0.091 A 
ATOM     96  F   UNL A   1      46.812  24.898  33.444  1.00  0.00    -0.205 F 
ATOM     97  C   UNL A   1      50.256  25.487  32.355  1.00  0.00     0.022 A 
BRANCH  95  98
ATOM     98  S   UNL A   1      49.549  24.050  34.579  1.00  0.00     0.127 S 
ATOM     99  O   UNL A   1      48.979  22.752  34.227  1.00  0.00    -0.237 OA
ATOM    100  O   UNL A   1      51.012  24.087  34.607  1.00  0.00    -0.237 OA
ATOM    101  O   UNL A   1      48.907  24.735  35.694  1.00  0.00    -0.744 OA
ENDBRANCH  95  98
ENDBRANCH  68  91
ENDBRANCH  42  43
ENDBRANCH  35  37
ENDBRANCH  34  35
ENDBRANCH  33  34
ENDBRANCH   1  33
TORSDOF 18
ENDMDL
MODEL 2
REMARK VINA RESULT:     -12.1      2.293      7.734
REMARK SMILES O=C(Nc1ccc(Cl)cc1C(=O)OCCOC(=O)c1ccc(-c2c3nc(c(-c4cccc(S(=O)(=O)[O-])c4F)c4ccc([nH]4)c(-c4cccc(S(=O)(=O)[O-])c4F)c4nc(c(-c5cccc(S(=O)(=O)[O-])c5F)c5ccc2[nH]5)C=C4)C=C3)cc1)c1ccc2c(c1)C(=O)N(Cc1ccco1)C2=O
REMARK SMILES IDX 14 1 13 2 11 3 12 4 10 5 4 6 5 7 6 8 9 9 7 10 8 11 3 12 1 13
REMARK SMILES IDX 2 14 82 16 83 17 87 18 84 19 86 20 85 21 88 22 97 23 89 24
REMARK SMILES IDX 90 25 98 26 91 27 92 28 93 29 96 30 94 31 95 32 15 33 16 34
REMARK SMILES IDX 17 35 18 36 19 37 20 38 81 39 21 40 80 41 22 42 23 43 24 44
REMARK SMILES IDX 74 45 25 46 79 47 73 48 75 49 26 50 78 51 72 52 71 53 27 55
REMARK SMILES IDX 59 56 39 57 58 58 40 59 43 60 57 61 76 62 41 63 42 64 56 66
REMARK SMILES IDX 77 67 44 68 28 69 29 70 37 71 30 72 32 73 38 74 31 75 33 76
REMARK SMILES IDX 34 77 35 78 36 79 60 80 61 81 69 82 62 83 64 84 70 85 63 86
REMARK SMILES IDX 65 87 66 88 67 89 68 90 45 91 46 92 54 93 47 94 49 95 55 96
REMARK SMILES IDX 48 97 50 98 51 99 52 100 53 101
REMARK H PARENT 3 15 75 54 43 65
REMARK Flexibility Score: inf
ROOT
ATOM      1  C   UNL A   1      32.958  28.876  25.310  1.00  0.00     0.275 C 
ENDROOT
BRANCH   1   2
ATOM      2  O   UNL A   1      32.952  27.702  26.145  1.00  0.00    -0.458 OA
BRANCH   2   3
ATOM      3  C   UNL A   1      31.845  26.918  26.144  1.00  0.00     0.340 C 
ATOM      4  O   UNL A   1      31.029  26.831  27.045  1.00  0.00    -0.246 OA
BRANCH   3   5
ATOM      5  C   UNL A   1      31.698  26.199  24.840  1.00  0.00     0.085 A 
ATOM      6  C   UNL A   1      31.040  24.961  24.701  1.00  0.00     0.056 A 
ATOM      7  C   UNL A   1      30.935  24.414  23.414  1.00  0.00     0.028 A 
ATOM      8  C   UNL A   1      31.588  24.984  22.319  1.00  0.00     0.023 A 
ATOM      9  C   UNL A   1      32.307  26.797  23.720  1.00  0.00     0.038 A 
ATOM     10  C   UNL A   1      32.303  26.157  22.485  1.00  0.00     0.042 A 
ATOM     11  Cl  UNL A   1      33.189  26.808  21.168  1.00  0.00    -0.084 Cl
BRANCH   6  12
ATOM     12  N   UNL A   1      30.530  24.329  25.856  1.00  0.00    -0.321 N 
ATOM     13  O   UNL A   1      30.420  22.960  27.654  1.00  0.00    -0.269 OA
ATOM     14  C   UNL A   1      30.965  23.267  26.597  1.00  0.00     0.255 C 
ATOM     15  H   UNL A   1      29.700  24.734  26.193  1.00  0.00     0.170 HD
BRANCH  14  16
ATOM     16  C   UNL A   1      32.082  22.454  26.142  1.00  0.00     0.041 A 
ATOM     17  C   UNL A   1      33.362  22.532  26.739  1.00  0.00     0.015 A 
ATOM     18  C   UNL A   1      31.788  21.549  25.132  1.00  0.00     0.028 A 
ATOM     19  C   UNL A   1      34.379  21.657  26.327  1.00  0.00     0.015 A 
ATOM     20  C   UNL A   1      32.818  20.740  24.733  1.00  0.00     0.054 A 
ATOM     21  C   UNL A   1      34.067  20.754  25.323  1.00  0.00     0.053 A 
ATOM     22  C   UNL A   1      32.725  19.614  23.834  1.00  0.00     0.261 C 
ATOM     23  C   UNL A   1      34.763  19.558  24.831  1.00  0.00     0.261 C 
ATOM     24  O   UNL A   1      31.701  19.347  23.243  1.00  0.00    -0.269 OA
ATOM     25  N   UNL A   1      33.905  18.938  23.956  1.00  0.00    -0.267 N 
ATOM     26  O   UNL A   1      35.830  19.167  25.267  1.00  0.00    -0.269 OA
BRANCH  25  27
ATOM     27  C   UNL A   1      34.014  17.550  23.579  1.00  0.00     0.204 C 
BRANCH  27  28
ATOM     28  C   UNL A   1      33.420  16.602  24.558  1.00  0.00     0.123 A 
ATOM     29  C   UNL A   1      32.357  16.725  25.430  1.00  0.00     0.047 A 
ATOM     30  O   UNL A   1      33.883  15.320  24.583  1.00  0.00    -0.467 OA
ATOM     31  C   UNL A   1      32.156  15.445  26.002  1.00  0.00     0.042 A 
ATOM     32  C   UNL A   1      33.108  14.624  25.450  1.00  0.00     0.195 A 
ENDBRANCH  27  28
ENDBRANCH  25  27
ENDBRANCH  14  16
ENDBRANCH   6  12
ENDBRANCH   3   5
ENDBRANCH   2   3
ENDBRANCH   1   2
BRANCH   1  33
ATOM     33  C   UNL A   1      32.048  29.960  25.890  1.00  0.00     0.275 C 
BRANCH  33  34
ATOM     34  O   UNL A   1      32.468  30.303  27.223  1.00  0.00    -0.458 OA
BRANCH  34  35
ATOM     35  C   UNL A   1      33.099  31.494  27.338  1.00  0.00     0.338 C 
ATOM     36  O   UNL A   1      32.607  32.608  27.255  1.00  0.00    -0.246 OA
BRANCH  35  37
ATOM     37  C   UNL A   1      34.479  31.268  27.786  1.00  0.00     0.060 A 
ATOM     38  C   UNL A   1      34.786  29.990  28.240  1.00  0.00     0.016 A 
ATOM     39  C   UNL A   1      35.414  32.292  27.891  1.00  0.00     0.016 A 
ATOM     40  C   UNL A   1      35.991  29.729  28.874  1.00  0.00     0.010 A 
ATOM     41  C   UNL A   1      36.664  32.013  28.463  1.00  0.00     0.010 A 
ATOM     42  C   UNL A   1      36.954  30.737  28.990  1.00  0.00    -0.014 A 
BRANCH  42  43
ATOM     43  C   UNL A   1      38.231  30.456  29.704  1.00  0.00     0.031 A 
ATOM     44  C   UNL A   1      39.283  29.597  29.055  1.00  0.00     0.074 A 
ATOM     45  C   UNL A   1      38.457  30.980  30.927  1.00  0.00     0.049 A 
ATOM     46  N   UNL A   1      40.389  29.119  29.564  1.00  0.00    -0.248 NA
ATOM     47  C   UNL A   1      39.058  29.213  27.651  1.00  0.00     0.031 C 
ATOM     48  C   UNL A   1      37.540  31.857  31.659  1.00  0.00     0.029 A 
ATOM     49  N   UNL A   1      39.528  30.845  31.777  1.00  0.00    -0.354 N 
ATOM     50  C   UNL A   1      40.944  28.310  28.578  1.00  0.00     0.074 A 
ATOM     51  C   UNL A   1      40.063  28.377  27.432  1.00  0.00     0.031 C 
ATOM     52  C   UNL A   1      38.091  32.194  32.834  1.00  0.00     0.029 A 
ATOM     53  C   UNL A   1      39.362  31.495  32.979  1.00  0.00     0.049 A 
ATOM     54  H   UNL A   1      40.337  30.332  31.548  1.00  0.00     0.167 HD
ATOM     55  C   UNL A   1      42.084  27.581  28.625  1.00  0.00     0.034 A 
ATOM     56  C   UNL A   1      40.122  31.495  34.093  1.00  0.00     0.034 A 
ATOM     57  C   UNL A   1      42.998  27.583  29.735  1.00  0.00     0.049 A 
ATOM     58  C   UNL A   1      41.385  30.678  34.112  1.00  0.00     0.074 A 
ATOM     59  C   UNL A   1      44.211  26.926  29.850  1.00  0.00     0.029 A 
ATOM     60  N   UNL A   1      42.807  28.282  30.917  1.00  0.00    -0.354 N 
ATOM     61  N   UNL A   1      41.920  29.964  33.152  1.00  0.00    -0.248 NA
ATOM     62  C   UNL A   1      42.155  30.677  35.363  1.00  0.00     0.031 C 
ATOM     63  C   UNL A   1      44.742  27.206  31.113  1.00  0.00     0.029 A 
ATOM     64  C   UNL A   1      43.875  28.062  31.773  1.00  0.00     0.049 A 
ATOM     65  H   UNL A   1      42.029  28.849  31.119  1.00  0.00     0.167 HD
ATOM     66  C   UNL A   1      43.103  29.453  33.674  1.00  0.00     0.074 A 
ATOM     67  C   UNL A   1      43.218  29.960  35.026  1.00  0.00     0.031 C 
ATOM     68  C   UNL A   1      44.003  28.622  33.093  1.00  0.00     0.034 A 
BRANCH  55  69
ATOM     69  C   UNL A   1      42.420  26.716  27.437  1.00  0.00     0.023 A 
ATOM     70  C   UNL A   1      43.162  27.243  26.362  1.00  0.00     0.012 A 
ATOM     71  C   UNL A   1      42.057  25.354  27.425  1.00  0.00     0.148 A 
ATOM     72  C   UNL A   1      43.513  26.435  25.281  1.00  0.00     0.002 A 
ATOM     73  C   UNL A   1      42.449  24.544  26.365  1.00  0.00     0.091 A 
ATOM     74  F   UNL A   1      41.332  24.876  28.447  1.00  0.00    -0.205 F 
ATOM     75  C   UNL A   1      43.169  25.086  25.287  1.00  0.00     0.022 A 
BRANCH  73  76
ATOM     76  S   UNL A   1      42.124  22.779  26.323  1.00  0.00     0.127 S 
ATOM     77  O   UNL A   1      42.681  22.409  25.022  1.00  0.00    -0.237 OA
ATOM     78  O   UNL A   1      42.888  22.296  27.473  1.00  0.00    -0.237 OA
ATOM     79  O   UNL A   1      40.680  22.631  26.447  1.00  0.00    -0.744 OA
ENDBRANCH  73  76
ENDBRANCH  55  69
BRANCH  56  80
ATOM     80  C   UNL A   1      39.713  32.297  35.282  1.00  0.00     0.023 A 
ATOM     81  C   UNL A   1      38.949  31.690  36.297  1.00  0.00     0.012 A 
ATOM     82  C   UNL A   1      40.089  33.648  35.422  1.00  0.00     0.148 A 
ATOM     83  C   UNL A   1      38.543  32.419  37.415  1.00  0.00     0.002 A 
ATOM     84  C   UNL A   1      39.735  34.351  36.568  1.00  0.00     0.091 A 
ATOM     85  F   UNL A   1      40.795  34.218  34.435  1.00  0.00    -0.205 F 
ATOM     86  C   UNL A   1      38.947  33.744  37.557  1.00  0.00     0.022 A 
BRANCH  84  87
ATOM     87  S   UNL A   1      40.332  36.014  36.894  1.00  0.00     0.127 S 
ATOM     88  O   UNL A   1      39.767  36.759  35.773  1.00  0.00    -0.237 OA
ATOM     89  O   UNL A   1      39.729  36.304  38.195  1.00  0.00    -0.237 OA
ATOM     90  O   UNL A   1      41.786  35.908  36.920  1.00  0.00    -0.744 OA
ENDBRANCH  84  87
ENDBRANCH  56  80
BRANCH  68  91
ATOM     91  C   UNL A   1      45.219  28.242  33.897  1.00  0.00     0.023 A 
ATOM     92  C   UNL A   1      45.203  27.075  34.684  1.00  0.00     0.012 A 
ATOM     93  C   UNL A   1      46.399  29.008  33.814  1.00  0.00     0.148 A 
ATOM     94  C   UNL A   1      46.334  26.694  35.405  1.00  0.00     0.002 A 
ATOM     95  C   UNL A   1      47.537  28.595  34.495  1.00  0.00     0.091 A 
ATOM     96  F   UNL A   1      46.385  30.126  33.073  1.00  0.00    -0.205 F 
ATOM     97  C   UNL A   1      47.503  27.446  35.302  1.00  0.00     0.022 A 
BRANCH  95  98
ATOM     98  S   UNL A   1      49.111  29.445  34.342  1.00  0.00     0.127 S 
ATOM     99  O   UNL A   1      49.972  28.637  35.203  1.00  0.00    -0.237 OA
ATOM    100  O   UNL A   1      49.392  29.324  32.910  1.00  0.00    -0.237 OA
ATOM    101  O   UNL A   1      48.875  30.810  34.796  1.00  0.00    -0.744 OA
ENDBRANCH  95  98
ENDBRANCH  68  91
ENDBRANCH  42  43
ENDBRANCH  35  37
ENDBRANCH  34  35
ENDBRANCH  33  34
ENDBRANCH   1  33
TORSDOF 18
ENDMDL
MODEL 3
REMARK VINA RESULT:     -12.1      2.026      2.840
REMARK SMILES O=C(Nc1ccc(Cl)cc1C(=O)OCCOC(=O)c1ccc(-c2c3nc(c(-c4cccc(S(=O)(=O)[O-])c4F)c4ccc([nH]4)c(-c4cccc(S(=O)(=O)[O-])c4F)c4nc(c(-c5cccc(S(=O)(=O)[O-])c5F)c5ccc2[nH]5)C=C4)C=C3)cc1)c1ccc2c(c1)C(=O)N(Cc1ccco1)C2=O
REMARK SMILES IDX 14 1 13 2 11 3 12 4 10 5 4 6 5 7 6 8 9 9 7 10 8 11 3 12 1 13
REMARK SMILES IDX 2 14 82 16 83 17 87 18 84 19 86 20 85 21 88 22 97 23 89 24
REMARK SMILES IDX 90 25 98 26 91 27 92 28 93 29 96 30 94 31 95 32 15 33 16 34
REMARK SMILES IDX 17 35 18 36 19 37 20 38 81 39 21 40 80 41 22 42 23 43 24 44
REMARK SMILES IDX 74 45 25 46 79 47 73 48 75 49 26 50 78 51 72 52 71 53 27 55
REMARK SMILES IDX 59 56 39 57 58 58 40 59 43 60 57 61 76 62 41 63 42 64 56 66
REMARK SMILES IDX 77 67 44 68 28 69 29 70 37 71 30 72 32 73 38 74 31 75 33 76
REMARK SMILES IDX 34 77 35 78 36 79 60 80 61 81 69 82 62 83 64 84 70 85 63 86
REMARK SMILES IDX 65 87 66 88 67 89 68 90 45 91 46 92 54 93 47 94 49 95 55 96
REMARK SMILES IDX 48 97 50 98 51 99 52 100 53 101
REMARK H PARENT 3 15 75 54 43 65
REMARK Flexibility Score: inf
ROOT
ATOM      1  C   UNL A   1      33.772  28.359  26.984  1.00  0.00     0.275 C 
ENDROOT
BRANCH   1   2
ATOM      2  O   UNL A   1      32.898  27.507  26.217  1.00  0.00    -0.458 OA
BRANCH   2   3
ATOM      3  C   UNL A   1      31.598  27.415  26.593  1.00  0.00     0.340 C 
ATOM      4  O   UNL A   1      31.184  27.396  27.739  1.00  0.00    -0.246 OA
BRANCH   3   5
ATOM      5  C   UNL A   1      30.694  27.405  25.401  1.00  0.00     0.085 A 
ATOM      6  C   UNL A   1      29.688  26.441  25.191  1.00  0.00     0.056 A 
ATOM      7  C   UNL A   1      28.881  26.571  24.052  1.00  0.00     0.028 A 
ATOM      8  C   UNL A   1      29.148  27.526  23.068  1.00  0.00     0.023 A 
ATOM      9  C   UNL A   1      30.923  28.400  24.430  1.00  0.00     0.038 A 
ATOM     10  C   UNL A   1      30.194  28.415  23.246  1.00  0.00     0.042 A 
ATOM     11  Cl  UNL A   1      30.591  29.522  21.997  1.00  0.00    -0.084 Cl
BRANCH   6  12
ATOM     12  N   UNL A   1      29.547  25.392  26.125  1.00  0.00    -0.321 N 
ATOM     13  O   UNL A   1      30.021  23.517  27.300  1.00  0.00    -0.269 OA
ATOM     14  C   UNL A   1      30.248  24.238  26.332  1.00  0.00     0.255 C 
ATOM     15  H   UNL A   1      28.798  25.518  26.751  1.00  0.00     0.170 HD
BRANCH  14  16
ATOM     16  C   UNL A   1      31.279  23.820  25.395  1.00  0.00     0.041 A 
ATOM     17  C   UNL A   1      31.452  24.444  24.138  1.00  0.00     0.015 A 
ATOM     18  C   UNL A   1      32.124  22.817  25.848  1.00  0.00     0.028 A 
ATOM     19  C   UNL A   1      32.524  24.067  23.312  1.00  0.00     0.015 A 
ATOM     20  C   UNL A   1      33.132  22.452  24.998  1.00  0.00     0.054 A 
ATOM     21  C   UNL A   1      33.363  23.069  23.783  1.00  0.00     0.053 A 
ATOM     22  C   UNL A   1      34.233  21.567  25.302  1.00  0.00     0.261 C 
ATOM     23  C   UNL A   1      34.684  22.610  23.337  1.00  0.00     0.261 C 
ATOM     24  O   UNL A   1      34.297  20.958  26.347  1.00  0.00    -0.269 OA
ATOM     25  N   UNL A   1      35.133  21.725  24.287  1.00  0.00    -0.267 N 
ATOM     26  O   UNL A   1      35.276  23.075  22.381  1.00  0.00    -0.269 OA
BRANCH  25  27
ATOM     27  C   UNL A   1      36.520  21.371  24.457  1.00  0.00     0.204 C 
BRANCH  27  28
ATOM     28  C   UNL A   1      37.327  22.386  25.183  1.00  0.00     0.123 A 
ATOM     29  C   UNL A   1      37.189  23.754  25.307  1.00  0.00     0.047 A 
ATOM     30  O   UNL A   1      38.340  21.956  25.988  1.00  0.00    -0.467 OA
ATOM     31  C   UNL A   1      38.161  24.173  26.248  1.00  0.00     0.042 A 
ATOM     32  C   UNL A   1      38.834  23.040  26.635  1.00  0.00     0.195 A 
ENDBRANCH  27  28
ENDBRANCH  25  27
ENDBRANCH  14  16
ENDBRANCH   6  12
ENDBRANCH   3   5
ENDBRANCH   2   3
ENDBRANCH   1   2
BRANCH   1  33
ATOM     33  C   UNL A   1      33.425  29.832  26.764  1.00  0.00     0.275 C 
BRANCH  33  34
ATOM     34  O   UNL A   1      33.763  30.605  27.930  1.00  0.00    -0.458 OA
BRANCH  34  35
ATOM     35  C   UNL A   1      34.865  31.378  27.808  1.00  0.00     0.338 C 
ATOM     36  O   UNL A   1      34.912  32.581  27.606  1.00  0.00    -0.246 OA
BRANCH  35  37
ATOM     37  C   UNL A   1      36.052  30.585  28.152  1.00  0.00     0.060 A 
ATOM     38  C   UNL A   1      36.036  29.942  29.384  1.00  0.00     0.016 A 
ATOM     39  C   UNL A   1      37.202  30.572  27.370  1.00  0.00     0.016 A 
ATOM     40  C   UNL A   1      37.180  29.344  29.891  1.00  0.00     0.010 A 
ATOM     41  C   UNL A   1      38.338  29.902  27.847  1.00  0.00     0.010 A 
ATOM     42  C   UNL A   1      38.350  29.309  29.126  1.00  0.00    -0.014 A 
BRANCH  42  43
ATOM     43  C   UNL A   1      39.583  28.696  29.694  1.00  0.00     0.031 A 
ATOM     44  C   UNL A   1      40.161  29.223  30.981  1.00  0.00     0.074 A 
ATOM     45  C   UNL A   1      40.180  27.660  29.069  1.00  0.00     0.049 A 
ATOM     46  N   UNL A   1      41.297  28.927  31.559  1.00  0.00    -0.248 NA
ATOM     47  C   UNL A   1      39.363  30.223  31.711  1.00  0.00     0.031 C 
ATOM     48  C   UNL A   1      39.710  27.029  27.834  1.00  0.00     0.029 A 
ATOM     49  N   UNL A   1      41.320  26.959  29.381  1.00  0.00    -0.354 N 
ATOM     50  C   UNL A   1      41.390  29.765  32.666  1.00  0.00     0.074 A 
ATOM     51  C   UNL A   1      40.186  30.567  32.691  1.00  0.00     0.031 C 
ATOM     52  C   UNL A   1      40.538  26.027  27.505  1.00  0.00     0.029 A 
ATOM     53  C   UNL A   1      41.644  25.995  28.454  1.00  0.00     0.049 A 
ATOM     54  H   UNL A   1      41.853  27.130  30.191  1.00  0.00     0.167 HD
ATOM     55  C   UNL A   1      42.387  29.853  33.578  1.00  0.00     0.034 A 
ATOM     56  C   UNL A   1      42.730  25.203  28.350  1.00  0.00     0.034 A 
ATOM     57  C   UNL A   1      43.542  28.996  33.595  1.00  0.00     0.049 A 
ATOM     58  C   UNL A   1      43.819  25.323  29.381  1.00  0.00     0.074 A 
ATOM     59  C   UNL A   1      44.576  28.968  34.515  1.00  0.00     0.029 A 
ATOM     60  N   UNL A   1      43.814  28.012  32.658  1.00  0.00    -0.354 N 
ATOM     61  N   UNL A   1      43.865  26.081  30.449  1.00  0.00    -0.248 NA
ATOM     62  C   UNL A   1      45.001  24.469  29.199  1.00  0.00     0.031 C 
ATOM     63  C   UNL A   1      45.487  27.983  34.119  1.00  0.00     0.029 A 
ATOM     64  C   UNL A   1      45.005  27.378  32.970  1.00  0.00     0.049 A 
ATOM     65  H   UNL A   1      43.245  27.796  31.885  1.00  0.00     0.167 HD
ATOM     66  C   UNL A   1      45.064  25.775  31.081  1.00  0.00     0.074 A 
ATOM     67  C   UNL A   1      45.703  24.743  30.289  1.00  0.00     0.031 C 
ATOM     68  C   UNL A   1      45.598  26.313  32.205  1.00  0.00     0.034 A 
BRANCH  55  69
ATOM     69  C   UNL A   1      42.279  30.913  34.643  1.00  0.00     0.023 A 
ATOM     70  C   UNL A   1      41.758  30.593  35.913  1.00  0.00     0.012 A 
ATOM     71  C   UNL A   1      42.765  32.214  34.404  1.00  0.00     0.148 A 
ATOM     72  C   UNL A   1      41.696  31.559  36.917  1.00  0.00     0.002 A 
ATOM     73  C   UNL A   1      42.742  33.159  35.423  1.00  0.00     0.091 A 
ATOM     74  F   UNL A   1      43.238  32.506  33.183  1.00  0.00    -0.205 F 
ATOM     75  C   UNL A   1      42.199  32.835  36.678  1.00  0.00     0.022 A 
BRANCH  73  76
ATOM     76  S   UNL A   1      43.440  34.803  35.237  1.00  0.00     0.127 S 
ATOM     77  O   UNL A   1      42.494  35.420  34.308  1.00  0.00    -0.237 OA
ATOM     78  O   UNL A   1      43.378  35.322  36.604  1.00  0.00    -0.237 OA
ATOM     79  O   UNL A   1      44.788  34.614  34.720  1.00  0.00    -0.744 OA
ENDBRANCH  73  76
ENDBRANCH  55  69
BRANCH  56  80
ATOM     80  C   UNL A   1      42.842  24.224  27.231  1.00  0.00     0.023 A 
ATOM     81  C   UNL A   1      43.455  24.617  26.025  1.00  0.00     0.012 A 
ATOM     82  C   UNL A   1      42.363  22.905  27.357  1.00  0.00     0.148 A 
ATOM     83  C   UNL A   1      43.564  23.725  24.958  1.00  0.00     0.002 A 
ATOM     84  C   UNL A   1      42.531  22.003  26.313  1.00  0.00     0.091 A 
ATOM     85  F   UNL A   1      41.760  22.553  28.502  1.00  0.00    -0.205 F 
ATOM     86  C   UNL A   1      43.114  22.415  25.106  1.00  0.00     0.022 A 
BRANCH  84  87
ATOM     87  S   UNL A   1      42.110  20.263  26.473  1.00  0.00     0.127 S 
ATOM     88  O   UNL A   1      42.777  19.687  25.308  1.00  0.00    -0.237 OA
ATOM     89  O   UNL A   1      42.712  19.921  27.761  1.00  0.00    -0.237 OA
ATOM     90  O   UNL A   1      40.653  20.212  26.462  1.00  0.00    -0.744 OA
ENDBRANCH  84  87
ENDBRANCH  56  80
BRANCH  68  91
ATOM     91  C   UNL A   1      46.920  25.767  32.677  1.00  0.00     0.023 A 
ATOM     92  C   UNL A   1      48.121  26.318  32.191  1.00  0.00     0.012 A 
ATOM     93  C   UNL A   1      46.968  24.754  33.655  1.00  0.00     0.148 A 
ATOM     94  C   UNL A   1      49.352  25.846  32.647  1.00  0.00     0.002 A 
ATOM     95  C   UNL A   1      48.196  24.323  34.141  1.00  0.00     0.091 A 
ATOM     96  F   UNL A   1      45.813  24.230  34.090  1.00  0.00    -0.205 F 
ATOM     97  C   UNL A   1      49.389  24.858  33.628  1.00  0.00     0.022 A 
BRANCH  95  98
ATOM     98  S   UNL A   1      48.337  23.127  35.474  1.00  0.00     0.127 S 
ATOM     99  O   UNL A   1      49.784  23.066  35.667  1.00  0.00    -0.237 OA
ATOM    100  O   UNL A   1      47.603  23.783  36.558  1.00  0.00    -0.237 OA
ATOM    101  O   UNL A   1      47.718  21.904  34.981  1.00  0.00    -0.744 OA
ENDBRANCH  95  98
ENDBRANCH  68  91
ENDBRANCH  42  43
ENDBRANCH  35  37
ENDBRANCH  34  35
ENDBRANCH  33  34
ENDBRANCH   1  33
TORSDOF 18
ENDMDL
