MODEL 1
REMARK VINA RESULT:     -11.5      0.000      0.000
REMARK SMILES Cn1cc(C[C@H](C(=O)OCCOC(=O)c2ccc(-c3c4nc(c(-c5cccc(S(=O)(=O)[O-])c5F)c5ccc([nH]5)c(-c5cccc(S(=O)(=O)[O-])c5F)c5nc(c(-c6cccc(S(=O)(=O)[O-])c6F)c6ccc3[nH]6)C=C5)C=C4)cc2)c2ccc(F)cc2)cn1
REMARK SMILES IDX 11 1 10 2 9 3 7 4 8 5 6 6 5 7 4 8 1 9 2 10 3 11 86 12 85 13
REMARK SMILES IDX 78 14 79 15 84 16 80 17 83 18 81 19 82 20 12 21 13 22 14 23
REMARK SMILES IDX 15 24 16 25 77 26 17 27 76 28 18 29 19 30 20 31 70 32 21 33
REMARK SMILES IDX 75 34 69 35 71 36 22 37 74 38 68 39 67 40 23 42 55 43 35 44
REMARK SMILES IDX 54 45 36 46 39 47 53 48 72 49 37 50 38 51 52 53 73 54 40 55
REMARK SMILES IDX 24 56 25 57 33 58 26 59 28 60 34 61 27 62 29 63 30 64 31 65
REMARK SMILES IDX 32 66 56 67 57 68 65 69 58 70 60 71 66 72 59 73 61 74 62 75
REMARK SMILES IDX 63 76 64 77 41 78 42 79 50 80 43 81 45 82 51 83 44 84 46 85
REMARK SMILES IDX 47 86 48 87 49 88
REMARK H PARENT 71 41 39 52
REMARK Flexibility Score: inf
ROOT
ATOM      1  C   UNL A   1      36.205  21.050  25.659  1.00  0.00     0.275 C 
ENDROOT
BRANCH   1   2
ATOM      2  C   UNL A   1      35.314  22.236  26.008  1.00  0.00     0.274 C 
BRANCH   2   3
ATOM      3  O   UNL A   1      34.591  21.952  27.226  1.00  0.00    -0.462 OA
BRANCH   3   4
ATOM      4  C   UNL A   1      33.313  22.411  27.302  1.00  0.00     0.313 C 
ATOM      5  O   UNL A   1      32.655  22.450  28.335  1.00  0.00    -0.252 OA
BRANCH   4   6
ATOM      6  C   UNL A   1      32.766  22.925  25.966  1.00  0.00     0.134 C 
BRANCH   6   7
ATOM      7  C   UNL A   1      31.730  21.888  25.497  1.00  0.00     0.059 C 
BRANCH   7   8
ATOM      8  C   UNL A   1      32.233  20.612  24.907  1.00  0.00    -0.009 A 
ATOM      9  C   UNL A   1      32.543  18.129  22.307  1.00  0.00     0.173 C 
ATOM     10  N   UNL A   1      32.584  18.971  23.479  1.00  0.00    -0.276 N 
ATOM     11  C   UNL A   1      32.149  20.260  23.572  1.00  0.00     0.112 A 
ATOM     12  N   UNL A   1      33.021  18.476  24.652  1.00  0.00    -0.182 NA
ATOM     13  C   UNL A   1      32.799  19.469  25.517  1.00  0.00     0.138 A 
ENDBRANCH   7   8
ENDBRANCH   6   7
BRANCH   6  14
ATOM     14  C   UNL A   1      32.339  24.392  26.001  1.00  0.00    -0.033 A 
ATOM     15  C   UNL A   1      33.340  25.383  25.930  1.00  0.00     0.007 A 
ATOM     16  C   UNL A   1      31.001  24.809  26.095  1.00  0.00     0.007 A 
ATOM     17  C   UNL A   1      33.017  26.740  25.984  1.00  0.00     0.039 A 
ATOM     18  C   UNL A   1      30.678  26.168  26.138  1.00  0.00     0.039 A 
ATOM     19  C   UNL A   1      31.688  27.120  26.088  1.00  0.00     0.123 A 
ATOM     20  F   UNL A   1      31.377  28.422  26.138  1.00  0.00    -0.207 F 
ENDBRANCH   6  14
ENDBRANCH   4   6
ENDBRANCH   3   4
ENDBRANCH   2   3
ENDBRANCH   1   2
BRANCH   1  21
ATOM     21  O   UNL A   1      37.427  21.559  25.099  1.00  0.00    -0.458 OA
BRANCH  21  22
ATOM     22  C   UNL A   1      38.562  21.191  25.735  1.00  0.00     0.338 C 
ATOM     23  O   UNL A   1      39.072  20.086  25.768  1.00  0.00    -0.246 OA
BRANCH  22  24
ATOM     24  C   UNL A   1      39.157  22.374  26.382  1.00  0.00     0.060 A 
ATOM     25  C   UNL A   1      38.649  23.642  26.106  1.00  0.00     0.016 A 
ATOM     26  C   UNL A   1      40.299  22.231  27.165  1.00  0.00     0.016 A 
ATOM     27  C   UNL A   1      39.355  24.777  26.506  1.00  0.00     0.010 A 
ATOM     28  C   UNL A   1      40.933  23.370  27.669  1.00  0.00     0.010 A 
ATOM     29  C   UNL A   1      40.503  24.661  27.306  1.00  0.00    -0.014 A 
BRANCH  29  30
ATOM     30  C   UNL A   1      41.277  25.864  27.741  1.00  0.00     0.031 A 
ATOM     31  C   UNL A   1      40.618  26.925  28.591  1.00  0.00     0.074 A 
ATOM     32  C   UNL A   1      42.557  26.041  27.353  1.00  0.00     0.049 A 
ATOM     33  N   UNL A   1      41.033  28.132  28.876  1.00  0.00    -0.248 NA
ATOM     34  C   UNL A   1      39.310  26.591  29.180  1.00  0.00     0.031 C 
ATOM     35  C   UNL A   1      43.332  25.110  26.535  1.00  0.00     0.029 A 
ATOM     36  N   UNL A   1      43.429  27.078  27.587  1.00  0.00    -0.354 N 
ATOM     37  C   UNL A   1      39.999  28.735  29.585  1.00  0.00     0.074 A 
ATOM     38  C   UNL A   1      38.945  27.751  29.709  1.00  0.00     0.031 C 
ATOM     39  C   UNL A   1      44.569  25.598  26.359  1.00  0.00     0.029 A 
ATOM     40  C   UNL A   1      44.651  26.917  26.976  1.00  0.00     0.049 A 
ATOM     41  H   UNL A   1      43.200  27.860  28.139  1.00  0.00     0.167 HD
ATOM     42  C   UNL A   1      39.933  29.989  30.093  1.00  0.00     0.034 A 
ATOM     43  C   UNL A   1      45.710  27.747  26.879  1.00  0.00     0.034 A 
ATOM     44  C   UNL A   1      41.019  30.932  30.067  1.00  0.00     0.049 A 
ATOM     45  C   UNL A   1      45.639  29.109  27.506  1.00  0.00     0.074 A 
ATOM     46  C   UNL A   1      41.063  32.209  30.603  1.00  0.00     0.029 A 
ATOM     47  N   UNL A   1      42.261  30.695  29.500  1.00  0.00    -0.354 N 
ATOM     48  N   UNL A   1      44.661  29.649  28.192  1.00  0.00    -0.248 NA
ATOM     49  C   UNL A   1      46.815  29.976  27.350  1.00  0.00     0.031 C 
ATOM     50  C   UNL A   1      42.336  32.739  30.367  1.00  0.00     0.029 A 
ATOM     51  C   UNL A   1      43.083  31.794  29.685  1.00  0.00     0.049 A 
ATOM     52  H   UNL A   1      42.520  29.869  29.034  1.00  0.00     0.167 HD
ATOM     53  C   UNL A   1      45.104  30.915  28.554  1.00  0.00     0.074 A 
ATOM     54  C   UNL A   1      46.454  31.049  28.043  1.00  0.00     0.031 C 
ATOM     55  C   UNL A   1      44.442  31.893  29.219  1.00  0.00     0.034 A 
BRANCH  42  56
ATOM     56  C   UNL A   1      38.652  30.408  30.764  1.00  0.00     0.023 A 
ATOM     57  C   UNL A   1      38.466  30.151  32.137  1.00  0.00     0.012 A 
ATOM     58  C   UNL A   1      37.660  31.111  30.052  1.00  0.00     0.148 A 
ATOM     59  C   UNL A   1      37.301  30.563  32.783  1.00  0.00     0.002 A 
ATOM     60  C   UNL A   1      36.519  31.552  30.713  1.00  0.00     0.091 A 
ATOM     61  F   UNL A   1      37.841  31.324  28.740  1.00  0.00    -0.205 F 
ATOM     62  C   UNL A   1      36.333  31.273  32.076  1.00  0.00     0.022 A 
BRANCH  60  63
ATOM     63  S   UNL A   1      35.263  32.538  29.887  1.00  0.00     0.127 S 
ATOM     64  O   UNL A   1      34.827  31.634  28.825  1.00  0.00    -0.237 OA
ATOM     65  O   UNL A   1      34.276  32.749  30.949  1.00  0.00    -0.237 OA
ATOM     66  O   UNL A   1      35.942  33.751  29.452  1.00  0.00    -0.744 OA
ENDBRANCH  60  63
ENDBRANCH  42  56
BRANCH  43  67
ATOM     67  C   UNL A   1      46.938  27.286  26.170  1.00  0.00     0.023 A 
ATOM     68  C   UNL A   1      47.129  27.643  24.823  1.00  0.00     0.012 A 
ATOM     69  C   UNL A   1      47.950  26.572  26.841  1.00  0.00     0.148 A 
ATOM     70  C   UNL A   1      48.304  27.295  24.155  1.00  0.00     0.002 A 
ATOM     71  C   UNL A   1      49.145  26.287  26.191  1.00  0.00     0.091 A 
ATOM     72  F   UNL A   1      47.738  26.211  28.115  1.00  0.00    -0.205 F 
ATOM     73  C   UNL A   1      49.320  26.635  24.844  1.00  0.00     0.022 A 
BRANCH  71  74
ATOM     74  S   UNL A   1      50.553  25.598  27.070  1.00  0.00     0.127 S 
ATOM     75  O   UNL A   1      51.548  25.490  26.008  1.00  0.00    -0.237 OA
ATOM     76  O   UNL A   1      50.828  26.630  28.072  1.00  0.00    -0.237 OA
ATOM     77  O   UNL A   1      50.071  24.342  27.632  1.00  0.00    -0.744 OA
ENDBRANCH  71  74
ENDBRANCH  43  67
BRANCH  55  78
ATOM     78  C   UNL A   1      45.165  33.192  29.443  1.00  0.00     0.023 A 
ATOM     79  C   UNL A   1      45.922  33.365  30.619  1.00  0.00     0.012 A 
ATOM     80  C   UNL A   1      45.155  34.208  28.469  1.00  0.00     0.148 A 
ATOM     81  C   UNL A   1      46.639  34.541  30.832  1.00  0.00     0.002 A 
ATOM     82  C   UNL A   1      45.900  35.364  28.674  1.00  0.00     0.091 A 
ATOM     83  F   UNL A   1      44.407  34.035  27.369  1.00  0.00    -0.205 F 
ATOM     84  C   UNL A   1      46.638  35.535  29.856  1.00  0.00     0.022 A 
BRANCH  82  85
ATOM     85  S   UNL A   1      46.007  36.657  27.429  1.00  0.00     0.127 S 
ATOM     86  O   UNL A   1      44.613  37.082  27.320  1.00  0.00    -0.237 OA
ATOM     87  O   UNL A   1      46.895  37.633  28.061  1.00  0.00    -0.237 OA
ATOM     88  O   UNL A   1      46.568  36.015  26.247  1.00  0.00    -0.744 OA
ENDBRANCH  82  85
ENDBRANCH  55  78
ENDBRANCH  29  30
ENDBRANCH  22  24
ENDBRANCH  21  22
ENDBRANCH   1  21
TORSDOF 17
ENDMDL
MODEL 2
REMARK VINA RESULT:     -11.5      1.975      3.168
REMARK SMILES Cn1cc(C[C@H](C(=O)OCCOC(=O)c2ccc(-c3c4nc(c(-c5cccc(S(=O)(=O)[O-])c5F)c5ccc([nH]5)c(-c5cccc(S(=O)(=O)[O-])c5F)c5nc(c(-c6cccc(S(=O)(=O)[O-])c6F)c6ccc3[nH]6)C=C5)C=C4)cc2)c2ccc(F)cc2)cn1
REMARK SMILES IDX 11 1 10 2 9 3 7 4 8 5 6 6 5 7 4 8 1 9 2 10 3 11 86 12 85 13
REMARK SMILES IDX 78 14 79 15 84 16 80 17 83 18 81 19 82 20 12 21 13 22 14 23
REMARK SMILES IDX 15 24 16 25 77 26 17 27 76 28 18 29 19 30 20 31 70 32 21 33
REMARK SMILES IDX 75 34 69 35 71 36 22 37 74 38 68 39 67 40 23 42 55 43 35 44
REMARK SMILES IDX 54 45 36 46 39 47 53 48 72 49 37 50 38 51 52 53 73 54 40 55
REMARK SMILES IDX 24 56 25 57 33 58 26 59 28 60 34 61 27 62 29 63 30 64 31 65
REMARK SMILES IDX 32 66 56 67 57 68 65 69 58 70 60 71 66 72 59 73 61 74 62 75
REMARK SMILES IDX 63 76 64 77 41 78 42 79 50 80 43 81 45 82 51 83 44 84 46 85
REMARK SMILES IDX 47 86 48 87 49 88
REMARK H PARENT 71 41 39 52
REMARK Flexibility Score: inf
ROOT
ATOM      1  C   UNL A   1      36.079  21.030  25.595  1.00  0.00     0.275 C 
ENDROOT
BRANCH   1   2
ATOM      2  C   UNL A   1      35.233  22.215  26.043  1.00  0.00     0.274 C 
BRANCH   2   3
ATOM      3  O   UNL A   1      34.366  22.624  24.964  1.00  0.00    -0.462 OA
BRANCH   3   4
ATOM      4  C   UNL A   1      33.028  22.587  25.205  1.00  0.00     0.313 C 
ATOM      5  O   UNL A   1      32.486  23.121  26.167  1.00  0.00    -0.252 OA
BRANCH   4   6
ATOM      6  C   UNL A   1      32.231  21.841  24.131  1.00  0.00     0.134 C 
BRANCH   6   7
ATOM      7  C   UNL A   1      32.515  22.564  22.802  1.00  0.00     0.059 C 
BRANCH   7   8
ATOM      8  C   UNL A   1      32.379  24.050  22.770  1.00  0.00    -0.009 A 
ATOM      9  C   UNL A   1      30.528  27.148  22.734  1.00  0.00     0.173 C 
ATOM     10  N   UNL A   1      31.479  26.061  22.750  1.00  0.00    -0.276 N 
ATOM     11  C   UNL A   1      31.216  24.753  23.029  1.00  0.00     0.112 A 
ATOM     12  N   UNL A   1      32.760  26.278  22.396  1.00  0.00    -0.182 NA
ATOM     13  C   UNL A   1      33.300  25.057  22.401  1.00  0.00     0.138 A 
ENDBRANCH   7   8
ENDBRANCH   6   7
BRANCH   6  14
ATOM     14  C   UNL A   1      32.418  20.324  24.170  1.00  0.00    -0.033 A 
ATOM     15  C   UNL A   1      32.336  19.608  22.957  1.00  0.00     0.007 A 
ATOM     16  C   UNL A   1      32.673  19.604  25.348  1.00  0.00     0.007 A 
ATOM     17  C   UNL A   1      32.471  18.219  22.930  1.00  0.00     0.039 A 
ATOM     18  C   UNL A   1      32.819  18.214  25.317  1.00  0.00     0.039 A 
ATOM     19  C   UNL A   1      32.711  17.534  24.111  1.00  0.00     0.123 A 
ATOM     20  F   UNL A   1      32.843  16.202  24.086  1.00  0.00    -0.207 F 
ENDBRANCH   6  14
ENDBRANCH   4   6
ENDBRANCH   3   4
ENDBRANCH   2   3
ENDBRANCH   1   2
BRANCH   1  21
ATOM     21  O   UNL A   1      37.292  21.538  25.017  1.00  0.00    -0.458 OA
BRANCH  21  22
ATOM     22  C   UNL A   1      38.438  21.161  25.628  1.00  0.00     0.338 C 
ATOM     23  O   UNL A   1      38.948  20.056  25.634  1.00  0.00    -0.246 OA
BRANCH  22  24
ATOM     24  C   UNL A   1      39.044  22.333  26.284  1.00  0.00     0.060 A 
ATOM     25  C   UNL A   1      38.551  23.608  26.014  1.00  0.00     0.016 A 
ATOM     26  C   UNL A   1      40.181  22.173  27.070  1.00  0.00     0.016 A 
ATOM     27  C   UNL A   1      39.268  24.733  26.424  1.00  0.00     0.010 A 
ATOM     28  C   UNL A   1      40.826  23.302  27.584  1.00  0.00     0.010 A 
ATOM     29  C   UNL A   1      40.412  24.599  27.227  1.00  0.00    -0.014 A 
BRANCH  29  30
ATOM     30  C   UNL A   1      41.197  25.791  27.671  1.00  0.00     0.031 A 
ATOM     31  C   UNL A   1      40.550  26.848  28.535  1.00  0.00     0.074 A 
ATOM     32  C   UNL A   1      42.477  25.960  27.282  1.00  0.00     0.049 A 
ATOM     33  N   UNL A   1      40.976  28.049  28.831  1.00  0.00    -0.248 NA
ATOM     34  C   UNL A   1      39.241  26.520  29.124  1.00  0.00     0.031 C 
ATOM     35  C   UNL A   1      43.242  25.031  26.451  1.00  0.00     0.029 A 
ATOM     36  N   UNL A   1      43.360  26.988  27.524  1.00  0.00    -0.354 N 
ATOM     37  C   UNL A   1      39.950  28.654  29.549  1.00  0.00     0.074 A 
ATOM     38  C   UNL A   1      38.888  27.678  29.667  1.00  0.00     0.031 C 
ATOM     39  C   UNL A   1      44.482  25.510  26.277  1.00  0.00     0.029 A 
ATOM     40  C   UNL A   1      44.578  26.822  26.907  1.00  0.00     0.049 A 
ATOM     41  H   UNL A   1      43.139  27.766  28.085  1.00  0.00     0.167 HD
ATOM     42  C   UNL A   1      39.897  29.903  30.071  1.00  0.00     0.034 A 
ATOM     43  C   UNL A   1      45.643  27.644  26.815  1.00  0.00     0.034 A 
ATOM     44  C   UNL A   1      40.991  30.837  30.050  1.00  0.00     0.049 A 
ATOM     45  C   UNL A   1      45.586  29.000  27.456  1.00  0.00     0.074 A 
ATOM     46  C   UNL A   1      41.047  32.107  30.600  1.00  0.00     0.029 A 
ATOM     47  N   UNL A   1      42.229  30.595  29.478  1.00  0.00    -0.354 N 
ATOM     48  N   UNL A   1      44.616  29.541  28.151  1.00  0.00    -0.248 NA
ATOM     49  C   UNL A   1      46.770  29.859  27.306  1.00  0.00     0.031 C 
ATOM     50  C   UNL A   1      42.325  32.629  30.366  1.00  0.00     0.029 A 
ATOM     51  C   UNL A   1      43.061  31.684  29.671  1.00  0.00     0.049 A 
ATOM     52  H   UNL A   1      42.479  29.771  29.002  1.00  0.00     0.167 HD
ATOM     53  C   UNL A   1      45.071  30.800  28.524  1.00  0.00     0.074 A 
ATOM     54  C   UNL A   1      46.421  30.927  28.011  1.00  0.00     0.031 C 
ATOM     55  C   UNL A   1      44.419  31.776  29.202  1.00  0.00     0.034 A 
BRANCH  42  56
ATOM     56  C   UNL A   1      38.621  30.326  30.750  1.00  0.00     0.023 A 
ATOM     57  C   UNL A   1      38.443  30.069  32.124  1.00  0.00     0.012 A 
ATOM     58  C   UNL A   1      37.628  31.033  30.044  1.00  0.00     0.148 A 
ATOM     59  C   UNL A   1      37.284  30.485  32.778  1.00  0.00     0.002 A 
ATOM     60  C   UNL A   1      36.492  31.478  30.713  1.00  0.00     0.091 A 
ATOM     61  F   UNL A   1      37.800  31.245  28.731  1.00  0.00    -0.205 F 
ATOM     62  C   UNL A   1      36.314  31.198  32.076  1.00  0.00     0.022 A 
BRANCH  60  63
ATOM     63  S   UNL A   1      35.234  32.468  29.896  1.00  0.00     0.127 S 
ATOM     64  O   UNL A   1      34.300  32.724  30.990  1.00  0.00    -0.237 OA
ATOM     65  O   UNL A   1      35.990  33.642  29.455  1.00  0.00    -0.237 OA
ATOM     66  O   UNL A   1      34.729  31.639  28.809  1.00  0.00    -0.744 OA
ENDBRANCH  60  63
ENDBRANCH  42  56
BRANCH  43  67
ATOM     67  C   UNL A   1      46.865  27.180  26.097  1.00  0.00     0.023 A 
ATOM     68  C   UNL A   1      47.038  27.518  24.743  1.00  0.00     0.012 A 
ATOM     69  C   UNL A   1      47.890  26.482  26.767  1.00  0.00     0.148 A 
ATOM     70  C   UNL A   1      48.206  27.166  24.066  1.00  0.00     0.002 A 
ATOM     71  C   UNL A   1      49.079  26.195  26.105  1.00  0.00     0.091 A 
ATOM     72  F   UNL A   1      47.697  26.140  28.049  1.00  0.00    -0.205 F 
ATOM     73  C   UNL A   1      49.234  26.523  24.751  1.00  0.00     0.022 A 
BRANCH  71  74
ATOM     74  S   UNL A   1      50.502  25.527  26.977  1.00  0.00     0.127 S 
ATOM     75  O   UNL A   1      50.806  26.597  27.921  1.00  0.00    -0.237 OA
ATOM     76  O   UNL A   1      49.954  24.310  27.579  1.00  0.00    -0.237 OA
ATOM     77  O   UNL A   1      51.497  25.278  25.942  1.00  0.00    -0.744 OA
ENDBRANCH  71  74
ENDBRANCH  43  67
BRANCH  55  78
ATOM     78  C   UNL A   1      45.154  33.066  29.437  1.00  0.00     0.023 A 
ATOM     79  C   UNL A   1      45.942  33.209  30.597  1.00  0.00     0.012 A 
ATOM     80  C   UNL A   1      45.124  34.105  28.487  1.00  0.00     0.148 A 
ATOM     81  C   UNL A   1      46.670  34.377  30.818  1.00  0.00     0.002 A 
ATOM     82  C   UNL A   1      45.880  35.253  28.699  1.00  0.00     0.091 A 
ATOM     83  F   UNL A   1      44.348  33.960  27.403  1.00  0.00    -0.205 F 
ATOM     84  C   UNL A   1      46.649  35.393  29.866  1.00  0.00     0.022 A 
BRANCH  82  85
ATOM     85  S   UNL A   1      45.962  36.573  27.483  1.00  0.00     0.127 S 
ATOM     86  O   UNL A   1      46.881  37.512  28.122  1.00  0.00    -0.237 OA
ATOM     87  O   UNL A   1      46.507  35.890  26.309  1.00  0.00    -0.237 OA
ATOM     88  O   UNL A   1      44.591  37.040  27.320  1.00  0.00    -0.744 OA
ENDBRANCH  82  85
ENDBRANCH  55  78
ENDBRANCH  29  30
ENDBRANCH  22  24
ENDBRANCH  21  22
ENDBRANCH   1  21
TORSDOF 17
ENDMDL
MODEL 3
REMARK VINA RESULT:     -11.3      5.087      9.855
REMARK SMILES Cn1cc(C[C@H](C(=O)OCCOC(=O)c2ccc(-c3c4nc(c(-c5cccc(S(=O)(=O)[O-])c5F)c5ccc([nH]5)c(-c5cccc(S(=O)(=O)[O-])c5F)c5nc(c(-c6cccc(S(=O)(=O)[O-])c6F)c6ccc3[nH]6)C=C5)C=C4)cc2)c2ccc(F)cc2)cn1
REMARK SMILES IDX 11 1 10 2 9 3 7 4 8 5 6 6 5 7 4 8 1 9 2 10 3 11 86 12 85 13
REMARK SMILES IDX 78 14 79 15 84 16 80 17 83 18 81 19 82 20 12 21 13 22 14 23
REMARK SMILES IDX 15 24 16 25 77 26 17 27 76 28 18 29 19 30 20 31 70 32 21 33
REMARK SMILES IDX 75 34 69 35 71 36 22 37 74 38 68 39 67 40 23 42 55 43 35 44
REMARK SMILES IDX 54 45 36 46 39 47 53 48 72 49 37 50 38 51 52 53 73 54 40 55
REMARK SMILES IDX 24 56 25 57 33 58 26 59 28 60 34 61 27 62 29 63 30 64 31 65
REMARK SMILES IDX 32 66 56 67 57 68 65 69 58 70 60 71 66 72 59 73 61 74 62 75
REMARK SMILES IDX 63 76 64 77 41 78 42 79 50 80 43 81 45 82 51 83 44 84 46 85
REMARK SMILES IDX 47 86 48 87 49 88
REMARK H PARENT 71 41 39 52
REMARK Flexibility Score: inf
ROOT
ATOM      1  C   UNL A   1      31.682  29.444  26.297  1.00  0.00     0.275 C 
ENDROOT
BRANCH   1   2
ATOM      2  C   UNL A   1      31.993  27.981  26.005  1.00  0.00     0.274 C 
BRANCH   2   3
ATOM      3  O   UNL A   1      30.920  27.151  26.501  1.00  0.00    -0.462 OA
BRANCH   3   4
ATOM      4  C   UNL A   1      30.349  26.292  25.615  1.00  0.00     0.313 C 
ATOM      5  O   UNL A   1      29.575  25.394  25.927  1.00  0.00    -0.252 OA
BRANCH   4   6
ATOM      6  C   UNL A   1      30.732  26.570  24.158  1.00  0.00     0.134 C 
BRANCH   6   7
ATOM      7  C   UNL A   1      30.850  25.197  23.473  1.00  0.00     0.059 C 
BRANCH   7   8
ATOM      8  C   UNL A   1      32.203  24.572  23.384  1.00  0.00    -0.009 A 
ATOM      9  C   UNL A   1      35.102  22.887  24.717  1.00  0.00     0.173 C 
ATOM     10  N   UNL A   1      34.065  23.543  23.955  1.00  0.00    -0.276 N 
ATOM     11  C   UNL A   1      32.786  23.787  24.362  1.00  0.00     0.112 A 
ATOM     12  N   UNL A   1      34.339  24.052  22.740  1.00  0.00    -0.182 NA
ATOM     13  C   UNL A   1      33.211  24.682  22.400  1.00  0.00     0.138 A 
ENDBRANCH   7   8
ENDBRANCH   6   7
BRANCH   6  14
ATOM     14  C   UNL A   1      29.857  27.628  23.485  1.00  0.00    -0.033 A 
ATOM     15  C   UNL A   1      30.493  28.690  22.807  1.00  0.00     0.007 A 
ATOM     16  C   UNL A   1      28.453  27.599  23.501  1.00  0.00     0.007 A 
ATOM     17  C   UNL A   1      29.751  29.701  22.196  1.00  0.00     0.039 A 
ATOM     18  C   UNL A   1      27.711  28.608  22.879  1.00  0.00     0.039 A 
ATOM     19  C   UNL A   1      28.366  29.651  22.237  1.00  0.00     0.123 A 
ATOM     20  F   UNL A   1      27.653  30.621  21.650  1.00  0.00    -0.207 F 
ENDBRANCH   6  14
ENDBRANCH   4   6
ENDBRANCH   3   4
ENDBRANCH   2   3
ENDBRANCH   1   2
BRANCH   1  21
ATOM     21  O   UNL A   1      32.849  30.221  25.986  1.00  0.00    -0.458 OA
BRANCH  21  22
ATOM     22  C   UNL A   1      33.170  31.183  26.880  1.00  0.00     0.338 C 
ATOM     23  O   UNL A   1      32.485  32.124  27.238  1.00  0.00    -0.246 OA
BRANCH  22  24
ATOM     24  C   UNL A   1      34.510  30.906  27.427  1.00  0.00     0.060 A 
ATOM     25  C   UNL A   1      34.902  29.590  27.664  1.00  0.00     0.016 A 
ATOM     26  C   UNL A   1      35.327  31.962  27.820  1.00  0.00     0.016 A 
ATOM     27  C   UNL A   1      36.053  29.329  28.408  1.00  0.00     0.010 A 
ATOM     28  C   UNL A   1      36.542  31.691  28.456  1.00  0.00     0.010 A 
ATOM     29  C   UNL A   1      36.900  30.376  28.807  1.00  0.00    -0.014 A 
BRANCH  29  30
ATOM     30  C   UNL A   1      38.134  30.118  29.610  1.00  0.00     0.031 A 
ATOM     31  C   UNL A   1      39.240  29.257  29.048  1.00  0.00     0.074 A 
ATOM     32  C   UNL A   1      38.265  30.617  30.857  1.00  0.00     0.049 A 
ATOM     33  N   UNL A   1      40.271  28.731  29.659  1.00  0.00    -0.248 NA
ATOM     34  C   UNL A   1      39.167  28.926  27.615  1.00  0.00     0.031 C 
ATOM     35  C   UNL A   1      37.288  31.465  31.539  1.00  0.00     0.029 A 
ATOM     36  N   UNL A   1      39.273  30.468  31.781  1.00  0.00    -0.354 N 
ATOM     37  C   UNL A   1      40.905  27.927  28.717  1.00  0.00     0.074 A 
ATOM     38  C   UNL A   1      40.158  28.055  27.484  1.00  0.00     0.031 C 
ATOM     39  C   UNL A   1      37.753  31.786  32.755  1.00  0.00     0.029 A 
ATOM     40  C   UNL A   1      39.019  31.097  32.977  1.00  0.00     0.049 A 
ATOM     41  H   UNL A   1      40.096  29.959  31.602  1.00  0.00     0.167 HD
ATOM     42  C   UNL A   1      42.012  27.159  28.860  1.00  0.00     0.034 A 
ATOM     43  C   UNL A   1      39.698  31.093  34.142  1.00  0.00     0.034 A 
ATOM     44  C   UNL A   1      42.818  27.114  30.051  1.00  0.00     0.049 A 
ATOM     45  C   UNL A   1      40.958  30.285  34.258  1.00  0.00     0.074 A 
ATOM     46  C   UNL A   1      43.987  26.405  30.271  1.00  0.00     0.029 A 
ATOM     47  N   UNL A   1      42.560  27.826  31.211  1.00  0.00    -0.354 N 
ATOM     48  N   UNL A   1      41.553  29.553  33.348  1.00  0.00    -0.248 NA
ATOM     49  C   UNL A   1      41.644  30.304  35.558  1.00  0.00     0.031 C 
ATOM     50  C   UNL A   1      44.440  26.696  31.563  1.00  0.00     0.029 A 
ATOM     51  C   UNL A   1      43.553  27.586  32.145  1.00  0.00     0.049 A 
ATOM     52  H   UNL A   1      41.784  28.415  31.351  1.00  0.00     0.167 HD
ATOM     53  C   UNL A   1      42.684  29.028  33.962  1.00  0.00     0.074 A 
ATOM     54  C   UNL A   1      42.712  29.556  35.312  1.00  0.00     0.031 C 
ATOM     55  C   UNL A   1      43.598  28.160  33.465  1.00  0.00     0.034 A 
BRANCH  42  56
ATOM     56  C   UNL A   1      42.447  26.329  27.682  1.00  0.00     0.023 A 
ATOM     57  C   UNL A   1      43.358  26.863  26.750  1.00  0.00     0.012 A 
ATOM     58  C   UNL A   1      42.004  24.999  27.534  1.00  0.00     0.148 A 
ATOM     59  C   UNL A   1      43.799  26.096  25.672  1.00  0.00     0.002 A 
ATOM     60  C   UNL A   1      42.479  24.229  26.477  1.00  0.00     0.091 A 
ATOM     61  F   UNL A   1      41.116  24.515  28.414  1.00  0.00    -0.205 F 
ATOM     62  C   UNL A   1      43.370  24.777  25.541  1.00  0.00     0.022 A 
BRANCH  60  63
ATOM     63  S   UNL A   1      42.031  22.499  26.285  1.00  0.00     0.127 S 
ATOM     64  O   UNL A   1      42.655  22.171  25.004  1.00  0.00    -0.237 OA
ATOM     65  O   UNL A   1      42.666  21.876  27.448  1.00  0.00    -0.237 OA
ATOM     66  O   UNL A   1      40.575  22.468  26.310  1.00  0.00    -0.744 OA
ENDBRANCH  60  63
ENDBRANCH  42  56
BRANCH  43  67
ATOM     67  C   UNL A   1      39.195  31.909  35.285  1.00  0.00     0.023 A 
ATOM     68  C   UNL A   1      38.316  31.324  36.213  1.00  0.00     0.012 A 
ATOM     69  C   UNL A   1      39.647  33.226  35.502  1.00  0.00     0.148 A 
ATOM     70  C   UNL A   1      37.890  32.036  37.336  1.00  0.00     0.002 A 
ATOM     71  C   UNL A   1      39.274  33.904  36.656  1.00  0.00     0.091 A 
ATOM     72  F   UNL A   1      40.460  33.780  34.591  1.00  0.00    -0.205 F 
ATOM     73  C   UNL A   1      38.384  33.318  37.568  1.00  0.00     0.022 A 
BRANCH  71  74
ATOM     74  S   UNL A   1      40.010  35.483  37.099  1.00  0.00     0.127 S 
ATOM     75  O   UNL A   1      41.425  35.139  37.194  1.00  0.00    -0.237 OA
ATOM     76  O   UNL A   1      39.655  36.323  35.953  1.00  0.00    -0.237 OA
ATOM     77  O   UNL A   1      39.356  35.871  38.342  1.00  0.00    -0.744 OA
ENDBRANCH  71  74
ENDBRANCH  43  67
BRANCH  55  78
ATOM     78  C   UNL A   1      44.713  27.729  34.377  1.00  0.00     0.023 A 
ATOM     79  C   UNL A   1      45.897  28.490  34.424  1.00  0.00     0.012 A 
ATOM     80  C   UNL A   1      44.567  26.621  35.233  1.00  0.00     0.148 A 
ATOM     81  C   UNL A   1      46.929  28.141  35.294  1.00  0.00     0.002 A 
ATOM     82  C   UNL A   1      45.587  26.299  36.121  1.00  0.00     0.091 A 
ATOM     83  F   UNL A   1      43.442  25.894  35.154  1.00  0.00    -0.205 F 
ATOM     84  C   UNL A   1      46.770  27.053  36.149  1.00  0.00     0.022 A 
BRANCH  82  85
ATOM     85  S   UNL A   1      45.424  24.957  37.306  1.00  0.00     0.127 S 
ATOM     86  O   UNL A   1      46.689  25.047  38.034  1.00  0.00    -0.237 OA
ATOM     87  O   UNL A   1      44.247  25.355  38.078  1.00  0.00    -0.237 OA
ATOM     88  O   UNL A   1      45.237  23.751  36.508  1.00  0.00    -0.744 OA
ENDBRANCH  82  85
ENDBRANCH  55  78
ENDBRANCH  29  30
ENDBRANCH  22  24
ENDBRANCH  21  22
ENDBRANCH   1  21
TORSDOF 17
ENDMDL
