MODEL 1
REMARK VINA RESULT:     -13.4      0.000      0.000
REMARK SMILES O=C(OCCOC(=O)c1ccc(-c2c3nc(c(-c4cccc(S(=O)(=O)[O-])c4F)c4ccc([nH]4)c(-c4cccc(S(=O)(=O)[O-])c4F)c4nc(c(-c5cccc(S(=O)(=O)[O-])c5F)c5ccc2[nH]5)C=C4)C=C3)cc1)C1=Cc2cc(Cl)cc(C#Cc3ccccc3)c2O[C@@H]1C(F)(F)F
REMARK SMILES IDX 5 1 4 2 3 3 2 4 1 5 72 6 73 7 90 8 74 9 89 10 75 11 88 12
REMARK SMILES IDX 76 13 79 14 77 15 78 16 91 17 92 18 93 19 94 20 80 21 81 22
REMARK SMILES IDX 82 23 83 24 87 25 84 26 86 27 85 28 6 29 7 30 8 31 9 32
REMARK SMILES IDX 10 33 71 34 11 35 70 36 12 37 13 38 14 39 64 40 15 41 69 42
REMARK SMILES IDX 63 43 65 44 16 45 68 46 62 47 61 48 17 50 49 51 29 52 48 53
REMARK SMILES IDX 30 54 33 55 47 56 66 57 31 58 32 59 46 61 67 62 34 63 18 64
REMARK SMILES IDX 19 65 27 66 20 67 22 68 28 69 21 70 23 71 24 72 25 73 26 74
REMARK SMILES IDX 50 75 51 76 59 77 52 78 54 79 60 80 53 81 55 82 56 83 57 84
REMARK SMILES IDX 58 85 35 86 36 87 44 88 37 89 39 90 45 91 38 92 40 93 41 94
REMARK SMILES IDX 42 95 43 96
REMARK H PARENT 65 49 33 60
REMARK Flexibility Score: inf
ROOT
ATOM      1  C   UNL A   1      33.989  28.671  27.254  1.00  0.00     0.275 C 
ENDROOT
BRANCH   1   2
ATOM      2  C   UNL A   1      31.931  27.965  27.239  1.00  0.00     0.275 C 
BRANCH   2   3
ATOM      3  O   UNL A   1      31.314  26.957  26.230  1.00  0.00    -0.459 OA
BRANCH   3   4
ATOM      4  C   UNL A   1      31.726  25.697  26.412  1.00  0.00     0.338 C 
ATOM      5  O   UNL A   1      31.740  25.021  27.406  1.00  0.00    -0.246 OA
BRANCH   4   6
ATOM      6  C   UNL A   1      32.407  25.601  25.146  1.00  0.00     0.087 C 
ATOM      7  C   UNL A   1      33.869  25.620  25.326  1.00  0.00     0.027 C 
ATOM      8  C   UNL A   1      31.389  24.107  24.462  1.00  0.00     0.316 C 
ATOM      9  C   UNL A   1      34.914  24.163  25.093  1.00  0.00     0.020 A 
ATOM     10  O   UNL A   1      32.482  22.530  24.250  1.00  0.00    -0.474 OA
ATOM     11  C   UNL A   1      36.208  24.255  25.531  1.00  0.00     0.032 A 
ATOM     12  C   UNL A   1      34.261  22.606  24.654  1.00  0.00     0.143 A 
ATOM     13  C   UNL A   1      36.893  23.038  25.600  1.00  0.00     0.043 A 
ATOM     14  C   UNL A   1      35.023  21.471  24.766  1.00  0.00     0.069 A 
ATOM     15  Cl  UNL A   1      38.506  23.081  26.236  1.00  0.00    -0.084 Cl
ATOM     16  C   UNL A   1      36.341  21.742  25.245  1.00  0.00     0.041 A 
BRANCH   8  17
ATOM     17  C   UNL A   1      30.450  24.920  23.496  1.00  0.00     0.430 C 
ATOM     18  F   UNL A   1      31.148  25.583  22.565  1.00  0.00    -0.167 F 
ATOM     19  F   UNL A   1      29.705  24.023  22.779  1.00  0.00    -0.167 F 
ATOM     20  F   UNL A   1      29.515  25.699  24.060  1.00  0.00    -0.167 F 
ENDBRANCH   8  17
BRANCH  14  21
ATOM     21  C   UNL A   1      34.663  20.117  24.578  1.00  0.00    -0.058 C 
ATOM     22  C   UNL A   1      34.313  18.962  24.697  1.00  0.00    -0.062 C 
BRANCH  22  23
ATOM     23  C   UNL A   1      33.897  17.629  24.976  1.00  0.00     0.025 A 
ATOM     24  C   UNL A   1      34.792  16.565  24.811  1.00  0.00     0.017 A 
ATOM     25  C   UNL A   1      32.600  17.377  25.428  1.00  0.00     0.017 A 
ATOM     26  C   UNL A   1      34.374  15.253  25.048  1.00  0.00     0.001 A 
ATOM     27  C   UNL A   1      32.183  16.065  25.665  1.00  0.00     0.001 A 
ATOM     28  C   UNL A   1      33.066  15.004  25.463  1.00  0.00     0.000 A 
ENDBRANCH  22  23
ENDBRANCH  14  21
ENDBRANCH   4   6
ENDBRANCH   3   4
ENDBRANCH   2   3
ENDBRANCH   1   2
BRANCH   1  29
ATOM     29  O   UNL A   1      34.486  30.301  27.326  1.00  0.00    -0.458 OA
BRANCH  29  30
ATOM     30  C   UNL A   1      34.711  31.358  28.167  1.00  0.00     0.338 C 
ATOM     31  O   UNL A   1      33.958  32.243  28.525  1.00  0.00    -0.246 OA
BRANCH  30  32
ATOM     32  C   UNL A   1      35.979  31.011  28.884  1.00  0.00     0.060 A 
ATOM     33  C   UNL A   1      35.964  29.942  29.798  1.00  0.00     0.016 A 
ATOM     34  C   UNL A   1      37.195  31.468  28.373  1.00  0.00     0.016 A 
ATOM     35  C   UNL A   1      37.140  29.202  30.024  1.00  0.00     0.010 A 
ATOM     36  C   UNL A   1      38.362  30.735  28.609  1.00  0.00     0.010 A 
ATOM     37  C   UNL A   1      38.335  29.562  29.386  1.00  0.00    -0.014 A 
BRANCH  37  38
ATOM     38  C   UNL A   1      39.622  28.911  29.749  1.00  0.00     0.031 A 
ATOM     39  C   UNL A   1      40.391  29.588  30.846  1.00  0.00     0.074 A 
ATOM     40  C   UNL A   1      40.147  27.844  29.109  1.00  0.00     0.049 A 
ATOM     41  N   UNL A   1      41.545  29.287  31.370  1.00  0.00    -0.248 NA
ATOM     42  C   UNL A   1      39.767  30.803  31.406  1.00  0.00     0.031 C 
ATOM     43  C   UNL A   1      39.535  27.113  27.997  1.00  0.00     0.029 A 
ATOM     44  N   UNL A   1      41.352  27.199  29.295  1.00  0.00    -0.354 N 
ATOM     45  C   UNL A   1      41.792  30.283  32.304  1.00  0.00     0.074 A 
ATOM     46  C   UNL A   1      40.700  31.225  32.237  1.00  0.00     0.031 C 
ATOM     47  C   UNL A   1      40.373  26.135  27.596  1.00  0.00     0.029 A 
ATOM     48  C   UNL A   1      41.584  26.164  28.414  1.00  0.00     0.049 A 
ATOM     49  H   UNL A   1      41.992  27.456  29.999  1.00  0.00     0.167 HD
ATOM     50  C   UNL A   1      42.821  30.400  33.170  1.00  0.00     0.034 A 
ATOM     51  C   UNL A   1      42.650  25.339  28.297  1.00  0.00     0.034 A 
ATOM     52  C   UNL A   1      43.915  29.482  33.228  1.00  0.00     0.049 A 
ATOM     53  C   UNL A   1      43.804  25.496  29.271  1.00  0.00     0.074 A 
ATOM     54  C   UNL A   1      44.996  29.484  34.088  1.00  0.00     0.029 A 
ATOM     55  N   UNL A   1      44.078  28.408  32.368  1.00  0.00    -0.354 N 
ATOM     56  N   UNL A   1      43.941  26.339  30.268  1.00  0.00    -0.248 NA
ATOM     57  C   UNL A   1      44.932  24.560  29.131  1.00  0.00     0.031 C 
ATOM     58  C   UNL A   1      45.832  28.422  33.726  1.00  0.00     0.029 A 
ATOM     59  C   UNL A   1      45.248  27.739  32.668  1.00  0.00     0.049 A 
ATOM     60  H   UNL A   1      43.453  28.159  31.649  1.00  0.00     0.167 HD
ATOM     61  C   UNL A   1      45.132  25.997  30.904  1.00  0.00     0.074 A 
ATOM     62  C   UNL A   1      45.676  24.864  30.186  1.00  0.00     0.031 C 
ATOM     63  C   UNL A   1      45.728  26.567  31.981  1.00  0.00     0.034 A 
BRANCH  50  64
ATOM     64  C   UNL A   1      42.767  31.570  34.110  1.00  0.00     0.023 A 
ATOM     65  C   UNL A   1      43.383  32.787  33.742  1.00  0.00     0.012 A 
ATOM     66  C   UNL A   1      42.179  31.445  35.380  1.00  0.00     0.148 A 
ATOM     67  C   UNL A   1      43.472  33.838  34.651  1.00  0.00     0.002 A 
ATOM     68  C   UNL A   1      42.224  32.517  36.261  1.00  0.00     0.091 A 
ATOM     69  F   UNL A   1      41.630  30.270  35.719  1.00  0.00    -0.205 F 
ATOM     70  C   UNL A   1      42.889  33.705  35.907  1.00  0.00     0.022 A 
BRANCH  68  71
ATOM     71  S   UNL A   1      41.446  32.473  37.876  1.00  0.00     0.127 S 
ATOM     72  O   UNL A   1      42.313  31.543  38.597  1.00  0.00    -0.237 OA
ATOM     73  O   UNL A   1      41.557  33.867  38.304  1.00  0.00    -0.237 OA
ATOM     74  O   UNL A   1      40.083  32.011  37.654  1.00  0.00    -0.744 OA
ENDBRANCH  68  71
ENDBRANCH  50  64
BRANCH  51  75
ATOM     75  C   UNL A   1      42.681  24.225  27.293  1.00  0.00     0.023 A 
ATOM     76  C   UNL A   1      43.227  24.470  26.014  1.00  0.00     0.012 A 
ATOM     77  C   UNL A   1      42.123  22.958  27.557  1.00  0.00     0.148 A 
ATOM     78  C   UNL A   1      43.175  23.501  25.009  1.00  0.00     0.002 A 
ATOM     79  C   UNL A   1      42.115  21.979  26.564  1.00  0.00     0.091 A 
ATOM     80  F   UNL A   1      41.590  22.740  28.767  1.00  0.00    -0.205 F 
ATOM     81  C   UNL A   1      42.624  22.254  25.284  1.00  0.00     0.022 A 
BRANCH  79  82
ATOM     82  S   UNL A   1      41.500  20.311  26.837  1.00  0.00     0.127 S 
ATOM     83  O   UNL A   1      42.495  19.770  27.761  1.00  0.00    -0.237 OA
ATOM     84  O   UNL A   1      40.188  20.568  27.431  1.00  0.00    -0.237 OA
ATOM     85  O   UNL A   1      41.459  19.685  25.524  1.00  0.00    -0.744 OA
ENDBRANCH  79  82
ENDBRANCH  51  75
BRANCH  63  86
ATOM     86  C   UNL A   1      46.997  25.949  32.508  1.00  0.00     0.023 A 
ATOM     87  C   UNL A   1      48.251  26.450  32.109  1.00  0.00     0.012 A 
ATOM     88  C   UNL A   1      46.936  24.948  33.499  1.00  0.00     0.148 A 
ATOM     89  C   UNL A   1      49.424  25.946  32.668  1.00  0.00     0.002 A 
ATOM     90  C   UNL A   1      48.105  24.491  34.094  1.00  0.00     0.091 A 
ATOM     91  F   UNL A   1      45.733  24.471  33.854  1.00  0.00    -0.205 F 
ATOM     92  C   UNL A   1      49.351  24.979  33.670  1.00  0.00     0.022 A 
BRANCH  90  93
ATOM     93  S   UNL A   1      48.093  23.341  35.473  1.00  0.00     0.127 S 
ATOM     94  O   UNL A   1      47.376  22.201  34.904  1.00  0.00    -0.237 OA
ATOM     95  O   UNL A   1      49.520  23.111  35.699  1.00  0.00    -0.237 OA
ATOM     96  O   UNL A   1      47.413  24.028  36.562  1.00  0.00    -0.744 OA
ENDBRANCH  90  93
ENDBRANCH  63  86
ENDBRANCH  37  38
ENDBRANCH  30  32
ENDBRANCH  29  30
ENDBRANCH   1  29
TORSDOF 17
ENDMDL
MODEL 2
REMARK VINA RESULT:     -13.4      5.150     10.326
REMARK SMILES O=C(OCCOC(=O)c1ccc(-c2c3nc(c(-c4cccc(S(=O)(=O)[O-])c4F)c4ccc([nH]4)c(-c4cccc(S(=O)(=O)[O-])c4F)c4nc(c(-c5cccc(S(=O)(=O)[O-])c5F)c5ccc2[nH]5)C=C4)C=C3)cc1)C1=Cc2cc(Cl)cc(C#Cc3ccccc3)c2O[C@@H]1C(F)(F)F
REMARK SMILES IDX 5 1 4 2 3 3 2 4 1 5 72 6 73 7 90 8 74 9 89 10 75 11 88 12
REMARK SMILES IDX 76 13 79 14 77 15 78 16 91 17 92 18 93 19 94 20 80 21 81 22
REMARK SMILES IDX 82 23 83 24 87 25 84 26 86 27 85 28 6 29 7 30 8 31 9 32
REMARK SMILES IDX 10 33 71 34 11 35 70 36 12 37 13 38 14 39 64 40 15 41 69 42
REMARK SMILES IDX 63 43 65 44 16 45 68 46 62 47 61 48 17 50 49 51 29 52 48 53
REMARK SMILES IDX 30 54 33 55 47 56 66 57 31 58 32 59 46 61 67 62 34 63 18 64
REMARK SMILES IDX 19 65 27 66 20 67 22 68 28 69 21 70 23 71 24 72 25 73 26 74
REMARK SMILES IDX 50 75 51 76 59 77 52 78 54 79 60 80 53 81 55 82 56 83 57 84
REMARK SMILES IDX 58 85 35 86 36 87 44 88 37 89 39 90 45 91 38 92 40 93 41 94
REMARK SMILES IDX 42 95 43 96
REMARK H PARENT 65 49 33 60
REMARK Flexibility Score: inf
ROOT
ATOM      1  C   UNL A   1      37.305  21.239  24.668  1.00  0.00     0.275 C 
ENDROOT
BRANCH   1   2
ATOM      2  C   UNL A   1      35.656  22.433  23.900  1.00  0.00     0.275 C 
BRANCH   2   3
ATOM      3  O   UNL A   1      35.415  23.945  24.172  1.00  0.00    -0.459 OA
BRANCH   3   4
ATOM      4  C   UNL A   1      34.341  24.436  23.543  1.00  0.00     0.338 C 
ATOM      5  O   UNL A   1      34.224  24.862  22.424  1.00  0.00    -0.246 OA
BRANCH   4   6
ATOM      6  C   UNL A   1      33.543  24.567  24.735  1.00  0.00     0.087 C 
ATOM      7  C   UNL A   1      34.133  25.547  25.664  1.00  0.00     0.027 C 
ATOM      8  C   UNL A   1      31.842  24.766  23.839  1.00  0.00     0.316 C 
ATOM      9  C   UNL A   1      33.416  27.178  25.968  1.00  0.00     0.020 A 
ATOM     10  O   UNL A   1      31.085  26.520  24.117  1.00  0.00    -0.474 OA
ATOM     11  C   UNL A   1      34.191  28.075  26.654  1.00  0.00     0.032 A 
ATOM     12  C   UNL A   1      31.971  27.729  25.159  1.00  0.00     0.143 A 
ATOM     13  C   UNL A   1      33.733  29.396  26.618  1.00  0.00     0.043 A 
ATOM     14  C   UNL A   1      31.617  29.053  25.184  1.00  0.00     0.069 A 
ATOM     15  Cl  UNL A   1      34.723  30.590  27.393  1.00  0.00    -0.084 Cl
ATOM     16  C   UNL A   1      32.535  29.852  25.934  1.00  0.00     0.041 A 
BRANCH   8  17
ATOM     17  C   UNL A   1      31.313  23.302  24.070  1.00  0.00     0.430 C 
ATOM     18  F   UNL A   1      30.411  23.249  25.059  1.00  0.00    -0.167 F 
ATOM     19  F   UNL A   1      30.610  22.927  22.957  1.00  0.00    -0.167 F 
ATOM     20  F   UNL A   1      32.229  22.329  24.184  1.00  0.00    -0.167 F 
ENDBRANCH   8  17
BRANCH  14  21
ATOM     21  C   UNL A   1      30.569  29.723  24.513  1.00  0.00    -0.058 C 
ATOM     22  C   UNL A   1      29.851  30.294  23.719  1.00  0.00    -0.062 C 
BRANCH  22  23
ATOM     23  C   UNL A   1      29.117  30.960  22.697  1.00  0.00     0.025 A 
ATOM     24  C   UNL A   1      28.731  30.267  21.543  1.00  0.00     0.017 A 
ATOM     25  C   UNL A   1      28.768  32.304  22.845  1.00  0.00     0.017 A 
ATOM     26  C   UNL A   1      28.046  30.930  20.523  1.00  0.00     0.001 A 
ATOM     27  C   UNL A   1      28.081  32.966  21.824  1.00  0.00     0.001 A 
ATOM     28  C   UNL A   1      27.731  32.282  20.659  1.00  0.00     0.000 A 
ENDBRANCH  22  23
ENDBRANCH  14  21
ENDBRANCH   4   6
ENDBRANCH   3   4
ENDBRANCH   2   3
ENDBRANCH   1   2
BRANCH   1  29
ATOM     29  O   UNL A   1      38.683  21.839  25.475  1.00  0.00    -0.458 OA
BRANCH  29  30
ATOM     30  C   UNL A   1      39.652  21.537  26.394  1.00  0.00     0.338 C 
ATOM     31  O   UNL A   1      40.374  20.561  26.473  1.00  0.00    -0.246 OA
BRANCH  30  32
ATOM     32  C   UNL A   1      39.934  22.832  27.091  1.00  0.00     0.060 A 
ATOM     33  C   UNL A   1      41.064  22.916  27.923  1.00  0.00     0.016 A 
ATOM     34  C   UNL A   1      39.331  24.000  26.621  1.00  0.00     0.016 A 
ATOM     35  C   UNL A   1      41.709  24.155  28.101  1.00  0.00     0.010 A 
ATOM     36  C   UNL A   1      39.969  25.229  26.809  1.00  0.00     0.010 A 
ATOM     37  C   UNL A   1      41.194  25.311  27.497  1.00  0.00    -0.014 A 
BRANCH  37  38
ATOM     38  C   UNL A   1      41.750  26.653  27.818  1.00  0.00     0.031 A 
ATOM     39  C   UNL A   1      43.168  26.875  27.380  1.00  0.00     0.074 A 
ATOM     40  C   UNL A   1      41.102  27.600  28.528  1.00  0.00     0.049 A 
ATOM     41  N   UNL A   1      43.939  27.915  27.528  1.00  0.00    -0.248 NA
ATOM     42  C   UNL A   1      43.811  25.735  26.698  1.00  0.00     0.031 C 
ATOM     43  C   UNL A   1      39.740  27.506  29.058  1.00  0.00     0.029 A 
ATOM     44  N   UNL A   1      41.529  28.841  28.954  1.00  0.00    -0.354 N 
ATOM     45  C   UNL A   1      45.159  27.546  26.979  1.00  0.00     0.074 A 
ATOM     46  C   UNL A   1      45.044  26.174  26.544  1.00  0.00     0.031 C 
ATOM     47  C   UNL A   1      39.453  28.631  29.746  1.00  0.00     0.029 A 
ATOM     48  C   UNL A   1      40.605  29.531  29.713  1.00  0.00     0.049 A 
ATOM     49  H   UNL A   1      42.417  29.205  28.733  1.00  0.00     0.167 HD
ATOM     50  C   UNL A   1      46.276  28.285  26.817  1.00  0.00     0.034 A 
ATOM     51  C   UNL A   1      40.690  30.746  30.299  1.00  0.00     0.034 A 
ATOM     52  C   UNL A   1      46.402  29.638  27.262  1.00  0.00     0.049 A 
ATOM     53  C   UNL A   1      41.961  31.556  30.118  1.00  0.00     0.074 A 
ATOM     54  C   UNL A   1      47.476  30.494  27.122  1.00  0.00     0.029 A 
ATOM     55  N   UNL A   1      45.421  30.323  27.963  1.00  0.00    -0.354 N 
ATOM     56  N   UNL A   1      43.046  31.260  29.440  1.00  0.00    -0.248 NA
ATOM     57  C   UNL A   1      42.003  32.888  30.745  1.00  0.00     0.031 C 
ATOM     58  C   UNL A   1      47.154  31.693  27.766  1.00  0.00     0.029 A 
ATOM     59  C   UNL A   1      45.866  31.593  28.271  1.00  0.00     0.049 A 
ATOM     60  H   UNL A   1      44.540  29.957  28.204  1.00  0.00     0.167 HD
ATOM     61  C   UNL A   1      43.866  32.384  29.511  1.00  0.00     0.074 A 
ATOM     62  C   UNL A   1      43.151  33.372  30.291  1.00  0.00     0.031 C 
ATOM     63  C   UNL A   1      45.101  32.583  28.986  1.00  0.00     0.034 A 
BRANCH  50  64
ATOM     64  C   UNL A   1      47.422  27.611  26.118  1.00  0.00     0.023 A 
ATOM     65  C   UNL A   1      47.487  27.636  24.707  1.00  0.00     0.012 A 
ATOM     66  C   UNL A   1      48.385  26.892  26.845  1.00  0.00     0.148 A 
ATOM     67  C   UNL A   1      48.456  26.899  24.030  1.00  0.00     0.002 A 
ATOM     68  C   UNL A   1      49.381  26.204  26.164  1.00  0.00     0.091 A 
ATOM     69  F   UNL A   1      48.283  26.855  28.181  1.00  0.00    -0.205 F 
ATOM     70  C   UNL A   1      49.405  26.188  24.759  1.00  0.00     0.022 A 
BRANCH  68  71
ATOM     71  S   UNL A   1      50.689  25.314  27.008  1.00  0.00     0.127 S 
ATOM     72  O   UNL A   1      51.493  24.835  25.885  1.00  0.00    -0.237 OA
ATOM     73  O   UNL A   1      51.316  26.374  27.799  1.00  0.00    -0.237 OA
ATOM     74  O   UNL A   1      50.032  24.278  27.792  1.00  0.00    -0.744 OA
ENDBRANCH  68  71
ENDBRANCH  50  64
BRANCH  51  75
ATOM     75  C   UNL A   1      39.535  31.346  31.045  1.00  0.00     0.023 A 
ATOM     76  C   UNL A   1      38.558  32.069  30.327  1.00  0.00     0.012 A 
ATOM     77  C   UNL A   1      39.425  31.273  32.448  1.00  0.00     0.148 A 
ATOM     78  C   UNL A   1      37.527  32.742  30.987  1.00  0.00     0.002 A 
ATOM     79  C   UNL A   1      38.368  31.909  33.099  1.00  0.00     0.091 A 
ATOM     80  F   UNL A   1      40.367  30.602  33.124  1.00  0.00    -0.205 F 
ATOM     81  C   UNL A   1      37.429  32.659  32.372  1.00  0.00     0.022 A 
BRANCH  79  82
ATOM     82  S   UNL A   1      38.102  31.800  34.874  1.00  0.00     0.127 S 
ATOM     83  O   UNL A   1      39.214  32.594  35.395  1.00  0.00    -0.237 OA
ATOM     84  O   UNL A   1      36.785  32.420  35.019  1.00  0.00    -0.237 OA
ATOM     85  O   UNL A   1      38.143  30.381  35.194  1.00  0.00    -0.744 OA
ENDBRANCH  79  82
ENDBRANCH  51  75
BRANCH  63  86
ATOM     86  C   UNL A   1      45.745  33.934  29.162  1.00  0.00     0.023 A 
ATOM     87  C   UNL A   1      46.583  34.183  30.266  1.00  0.00     0.012 A 
ATOM     88  C   UNL A   1      45.613  34.916  28.159  1.00  0.00     0.148 A 
ATOM     89  C   UNL A   1      47.257  35.398  30.382  1.00  0.00     0.002 A 
ATOM     90  C   UNL A   1      46.332  36.100  28.251  1.00  0.00     0.091 A 
ATOM     91  F   UNL A   1      44.796  34.666  27.123  1.00  0.00    -0.205 F 
ATOM     92  C   UNL A   1      47.145  36.349  29.368  1.00  0.00     0.022 A 
BRANCH  90  93
ATOM     93  S   UNL A   1      46.340  37.321  26.934  1.00  0.00     0.127 S 
ATOM     94  O   UNL A   1      47.355  38.262  27.406  1.00  0.00    -0.237 OA
ATOM     95  O   UNL A   1      46.740  36.524  25.774  1.00  0.00    -0.237 OA
ATOM     96  O   UNL A   1      44.983  37.845  26.866  1.00  0.00    -0.744 OA
ENDBRANCH  90  93
ENDBRANCH  63  86
ENDBRANCH  37  38
ENDBRANCH  30  32
ENDBRANCH  29  30
ENDBRANCH   1  29
TORSDOF 17
ENDMDL
MODEL 3
REMARK VINA RESULT:     -13.3      4.944     10.334
REMARK SMILES O=C(OCCOC(=O)c1ccc(-c2c3nc(c(-c4cccc(S(=O)(=O)[O-])c4F)c4ccc([nH]4)c(-c4cccc(S(=O)(=O)[O-])c4F)c4nc(c(-c5cccc(S(=O)(=O)[O-])c5F)c5ccc2[nH]5)C=C4)C=C3)cc1)C1=Cc2cc(Cl)cc(C#Cc3ccccc3)c2O[C@@H]1C(F)(F)F
REMARK SMILES IDX 5 1 4 2 3 3 2 4 1 5 72 6 73 7 90 8 74 9 89 10 75 11 88 12
REMARK SMILES IDX 76 13 79 14 77 15 78 16 91 17 92 18 93 19 94 20 80 21 81 22
REMARK SMILES IDX 82 23 83 24 87 25 84 26 86 27 85 28 6 29 7 30 8 31 9 32
REMARK SMILES IDX 10 33 71 34 11 35 70 36 12 37 13 38 14 39 64 40 15 41 69 42
REMARK SMILES IDX 63 43 65 44 16 45 68 46 62 47 61 48 17 50 49 51 29 52 48 53
REMARK SMILES IDX 30 54 33 55 47 56 66 57 31 58 32 59 46 61 67 62 34 63 18 64
REMARK SMILES IDX 19 65 27 66 20 67 22 68 28 69 21 70 23 71 24 72 25 73 26 74
REMARK SMILES IDX 50 75 51 76 59 77 52 78 54 79 60 80 53 81 55 82 56 83 57 84
REMARK SMILES IDX 58 85 35 86 36 87 44 88 37 89 39 90 45 91 38 92 40 93 41 94
REMARK SMILES IDX 42 95 43 96
REMARK H PARENT 65 49 33 60
REMARK Flexibility Score: inf
ROOT
ATOM      1  C   UNL A   1      37.194  22.247  25.451  1.00  0.00     0.275 C 
ENDROOT
BRANCH   1   2
ATOM      2  C   UNL A   1      36.046  23.085  23.803  1.00  0.00     0.275 C 
BRANCH   2   3
ATOM      3  O   UNL A   1      35.302  24.450  23.804  1.00  0.00    -0.459 OA
BRANCH   3   4
ATOM      4  C   UNL A   1      34.146  24.430  23.133  1.00  0.00     0.338 C 
ATOM      5  O   UNL A   1      33.925  24.595  21.962  1.00  0.00    -0.246 OA
BRANCH   4   6
ATOM      6  C   UNL A   1      33.315  24.476  24.308  1.00  0.00     0.087 C 
ATOM      7  C   UNL A   1      33.919  25.320  25.354  1.00  0.00     0.027 C 
ATOM      8  C   UNL A   1      31.657  24.857  23.390  1.00  0.00     0.316 C 
ATOM      9  C   UNL A   1      33.273  26.946  25.809  1.00  0.00     0.020 A 
ATOM     10  O   UNL A   1      30.978  26.609  23.832  1.00  0.00    -0.474 OA
ATOM     11  C   UNL A   1      34.067  27.723  26.610  1.00  0.00     0.032 A 
ATOM     12  C   UNL A   1      31.886  27.653  25.022  1.00  0.00     0.143 A 
ATOM     13  C   UNL A   1      33.675  29.062  26.702  1.00  0.00     0.043 A 
ATOM     14  C   UNL A   1      31.596  28.985  25.179  1.00  0.00     0.069 A 
ATOM     15  Cl  UNL A   1      34.696  30.115  27.629  1.00  0.00    -0.084 Cl
ATOM     16  C   UNL A   1      32.526  29.650  26.036  1.00  0.00     0.041 A 
BRANCH   8  17
ATOM     17  C   UNL A   1      31.049  23.406  23.447  1.00  0.00     0.430 C 
ATOM     18  F   UNL A   1      30.866  22.993  24.708  1.00  0.00    -0.167 F 
ATOM     19  F   UNL A   1      29.786  23.458  22.924  1.00  0.00    -0.167 F 
ATOM     20  F   UNL A   1      31.641  22.463  22.699  1.00  0.00    -0.167 F 
ENDBRANCH   8  17
BRANCH  14  21
ATOM     21  C   UNL A   1      30.606  29.775  24.553  1.00  0.00    -0.058 C 
ATOM     22  C   UNL A   1      29.899  30.386  23.779  1.00  0.00    -0.062 C 
BRANCH  22  23
ATOM     23  C   UNL A   1      29.159  31.066  22.770  1.00  0.00     0.025 A 
ATOM     24  C   UNL A   1      28.815  30.404  21.585  1.00  0.00     0.017 A 
ATOM     25  C   UNL A   1      28.763  32.391  22.961  1.00  0.00     0.017 A 
ATOM     26  C   UNL A   1      28.123  31.082  20.579  1.00  0.00     0.001 A 
ATOM     27  C   UNL A   1      28.070  33.067  21.954  1.00  0.00     0.001 A 
ATOM     28  C   UNL A   1      27.762  32.417  20.759  1.00  0.00     0.000 A 
ENDBRANCH  22  23
ENDBRANCH  14  21
ENDBRANCH   4   6
ENDBRANCH   3   4
ENDBRANCH   2   3
ENDBRANCH   1   2
BRANCH   1  29
ATOM     29  O   UNL A   1      38.726  22.782  25.976  1.00  0.00    -0.458 OA
BRANCH  29  30
ATOM     30  C   UNL A   1      39.792  22.483  26.782  1.00  0.00     0.338 C 
ATOM     31  O   UNL A   1      40.309  21.409  27.021  1.00  0.00    -0.246 OA
BRANCH  30  32
ATOM     32  C   UNL A   1      40.464  23.797  27.030  1.00  0.00     0.060 A 
ATOM     33  C   UNL A   1      40.341  24.810  26.063  1.00  0.00     0.016 A 
ATOM     34  C   UNL A   1      40.852  24.126  28.330  1.00  0.00     0.016 A 
ATOM     35  C   UNL A   1      40.394  26.161  26.455  1.00  0.00     0.010 A 
ATOM     36  C   UNL A   1      40.915  25.469  28.713  1.00  0.00     0.010 A 
ATOM     37  C   UNL A   1      40.628  26.497  27.797  1.00  0.00    -0.014 A 
BRANCH  37  38
ATOM     38  C   UNL A   1      40.869  27.908  28.200  1.00  0.00     0.031 A 
ATOM     39  C   UNL A   1      42.308  28.335  28.191  1.00  0.00     0.074 A 
ATOM     40  C   UNL A   1      39.912  28.753  28.638  1.00  0.00     0.049 A 
ATOM     41  N   UNL A   1      42.845  29.478  28.510  1.00  0.00    -0.248 NA
ATOM     42  C   UNL A   1      43.278  27.298  27.789  1.00  0.00     0.031 C 
ATOM     43  C   UNL A   1      38.481  28.461  28.744  1.00  0.00     0.029 A 
ATOM     44  N   UNL A   1      40.013  30.046  29.108  1.00  0.00    -0.354 N 
ATOM     45  C   UNL A   1      44.213  29.291  28.366  1.00  0.00     0.074 A 
ATOM     46  C   UNL A   1      44.427  27.915  27.986  1.00  0.00     0.031 C 
ATOM     47  C   UNL A   1      37.846  29.536  29.259  1.00  0.00     0.029 A 
ATOM     48  C   UNL A   1      38.818  30.595  29.524  1.00  0.00     0.049 A 
ATOM     49  H   UNL A   1      40.867  30.536  29.143  1.00  0.00     0.167 HD
ATOM     50  C   UNL A   1      45.212  30.187  28.505  1.00  0.00     0.034 A 
ATOM     51  C   UNL A   1      38.552  31.814  30.047  1.00  0.00     0.034 A 
ATOM     52  C   UNL A   1      45.009  31.546  28.900  1.00  0.00     0.049 A 
ATOM     53  C   UNL A   1      39.693  32.802  30.210  1.00  0.00     0.074 A 
ATOM     54  C   UNL A   1      45.945  32.551  29.041  1.00  0.00     0.029 A 
ATOM     55  N   UNL A   1      43.778  32.082  29.243  1.00  0.00    -0.354 N 
ATOM     56  N   UNL A   1      40.961  32.666  29.901  1.00  0.00    -0.248 NA
ATOM     57  C   UNL A   1      39.358  34.129  30.755  1.00  0.00     0.031 C 
ATOM     58  C   UNL A   1      45.280  33.693  29.501  1.00  0.00     0.029 A 
ATOM     59  C   UNL A   1      43.927  33.406  29.605  1.00  0.00     0.049 A 
ATOM     60  H   UNL A   1      42.924  31.591  29.230  1.00  0.00     0.167 HD
ATOM     61  C   UNL A   1      41.557  33.899  30.155  1.00  0.00     0.074 A 
ATOM     62  C   UNL A   1      40.510  34.775  30.638  1.00  0.00     0.031 C 
ATOM     63  C   UNL A   1      42.853  34.276  30.011  1.00  0.00     0.034 A 
BRANCH  50  64
ATOM     64  C   UNL A   1      46.598  29.686  28.212  1.00  0.00     0.023 A 
ATOM     65  C   UNL A   1      47.063  29.667  26.878  1.00  0.00     0.012 A 
ATOM     66  C   UNL A   1      47.405  29.164  29.237  1.00  0.00     0.148 A 
ATOM     67  C   UNL A   1      48.283  29.076  26.563  1.00  0.00     0.002 A 
ATOM     68  C   UNL A   1      48.646  28.626  28.920  1.00  0.00     0.091 A 
ATOM     69  F   UNL A   1      46.929  29.162  30.490  1.00  0.00    -0.205 F 
ATOM     70  C   UNL A   1      49.076  28.560  27.583  1.00  0.00     0.022 A 
BRANCH  68  71
ATOM     71  S   UNL A   1      49.772  27.997  30.167  1.00  0.00     0.127 S 
ATOM     72  O   UNL A   1      48.998  26.894  30.735  1.00  0.00    -0.237 OA
ATOM     73  O   UNL A   1      50.919  27.586  29.359  1.00  0.00    -0.237 OA
ATOM     74  O   UNL A   1      50.032  29.108  31.072  1.00  0.00    -0.744 OA
ENDBRANCH  68  71
ENDBRANCH  50  64
BRANCH  51  75
ATOM     75  C   UNL A   1      37.155  32.240  30.386  1.00  0.00     0.023 A 
ATOM     76  C   UNL A   1      36.623  31.904  31.649  1.00  0.00     0.012 A 
ATOM     77  C   UNL A   1      36.326  32.909  29.462  1.00  0.00     0.148 A 
ATOM     78  C   UNL A   1      35.291  32.178  31.969  1.00  0.00     0.002 A 
ATOM     79  C   UNL A   1      35.011  33.221  29.802  1.00  0.00     0.091 A 
ATOM     80  F   UNL A   1      36.833  33.208  28.258  1.00  0.00    -0.205 F 
ATOM     81  C   UNL A   1      34.485  32.840  31.048  1.00  0.00     0.022 A 
BRANCH  79  82
ATOM     82  S   UNL A   1      33.910  34.144  28.719  1.00  0.00     0.127 S 
ATOM     83  O   UNL A   1      33.495  33.117  27.766  1.00  0.00    -0.237 OA
ATOM     84  O   UNL A   1      32.866  34.575  29.649  1.00  0.00    -0.237 OA
ATOM     85  O   UNL A   1      34.714  35.224  28.166  1.00  0.00    -0.744 OA
ENDBRANCH  79  82
ENDBRANCH  51  75
BRANCH  63  86
ATOM     86  C   UNL A   1      43.218  35.708  30.302  1.00  0.00     0.023 A 
ATOM     87  C   UNL A   1      43.763  36.062  31.552  1.00  0.00     0.012 A 
ATOM     88  C   UNL A   1      43.134  36.680  29.284  1.00  0.00     0.148 A 
ATOM     89  C   UNL A   1      44.193  37.367  31.791  1.00  0.00     0.002 A 
ATOM     90  C   UNL A   1      43.617  37.962  29.510  1.00  0.00     0.091 A 
ATOM     91  F   UNL A   1      42.597  36.327  28.106  1.00  0.00    -0.205 F 
ATOM     92  C   UNL A   1      44.135  38.311  30.767  1.00  0.00     0.022 A 
BRANCH  90  93
ATOM     93  S   UNL A   1      43.693  39.200  28.211  1.00  0.00     0.127 S 
ATOM     94  O   UNL A   1      44.351  40.311  28.896  1.00  0.00    -0.237 OA
ATOM     95  O   UNL A   1      44.514  38.537  27.198  1.00  0.00    -0.237 OA
ATOM     96  O   UNL A   1      42.315  39.441  27.806  1.00  0.00    -0.744 OA
ENDBRANCH  90  93
ENDBRANCH  63  86
ENDBRANCH  37  38
ENDBRANCH  30  32
ENDBRANCH  29  30
ENDBRANCH   1  29
TORSDOF 17
ENDMDL
