MODEL 1
REMARK VINA RESULT:     -11.9      0.000      0.000
REMARK SMILES C[C@@H](Nc1cccc(C(=O)OCCOC(=O)c2ccc(-c3c4nc(c(-c5cccc(S(=O)(=O)[O-])c5F)c5ccc([nH]5)c(-c5cccc(S(=O)(=O)[O-])c5F)c5nc(c(-c6cccc(S(=O)(=O)[O-])c6F)c6ccc3[nH]6)C=C5)C=C4)cc2)c1)C1CC[NH+](C)CC1
REMARK SMILES IDX 12 1 11 2 9 3 10 4 8 5 4 6 5 7 80 8 6 9 7 10 3 11 2 13 1 14
REMARK SMILES IDX 81 15 82 16 87 17 83 18 86 19 84 20 85 21 13 23 14 24 15 25
REMARK SMILES IDX 16 26 17 27 18 28 79 29 19 30 78 31 20 32 21 33 22 34 72 35
REMARK SMILES IDX 23 36 77 37 71 38 73 39 24 40 76 41 70 42 69 43 25 45 57 46
REMARK SMILES IDX 37 47 56 48 38 49 41 50 55 51 74 52 39 53 40 54 54 56 75 57
REMARK SMILES IDX 42 58 26 59 27 60 35 61 28 62 30 63 36 64 29 65 31 66 32 67
REMARK SMILES IDX 33 68 34 69 58 70 59 71 67 72 60 73 62 74 68 75 61 76 63 77
REMARK SMILES IDX 64 78 65 79 66 80 43 81 44 82 52 83 45 84 47 85 53 86 46 87
REMARK SMILES IDX 48 88 49 89 50 90 51 91
REMARK H PARENT 3 12 84 22 73 44 41 55
REMARK Flexibility Score: inf
ROOT
ATOM      1  C   UNL A   1      35.131  20.519  25.243  1.00  0.00     0.275 C 
ENDROOT
BRANCH   1   2
ATOM      2  O   UNL A   1      34.265  19.547  24.609  1.00  0.00    -0.458 OA
BRANCH   2   3
ATOM      3  C   UNL A   1      32.988  19.621  25.041  1.00  0.00     0.338 C 
ATOM      4  O   UNL A   1      32.422  18.752  25.692  1.00  0.00    -0.246 OA
BRANCH   3   5
ATOM      5  C   UNL A   1      32.183  20.739  24.500  1.00  0.00     0.062 A 
ATOM      6  C   UNL A   1      32.117  23.113  24.892  1.00  0.00     0.035 A 
ATOM      7  C   UNL A   1      32.139  23.297  23.492  1.00  0.00     0.026 A 
ATOM      8  C   UNL A   1      31.946  21.818  25.371  1.00  0.00     0.041 A 
ATOM      9  C   UNL A   1      32.180  22.224  22.603  1.00  0.00     0.003 A 
ATOM     10  C   UNL A   1      32.271  20.938  23.115  1.00  0.00     0.016 A 
BRANCH   6  11
ATOM     11  N   UNL A   1      32.494  24.189  25.672  1.00  0.00    -0.382 N 
ATOM     12  H   UNL A   1      33.470  24.284  25.766  1.00  0.00     0.160 HD
BRANCH  11  13
ATOM     13  C   UNL A   1      31.734  25.215  26.388  1.00  0.00     0.079 C 
ATOM     14  C   UNL A   1      30.253  24.881  26.083  1.00  0.00     0.031 C 
BRANCH  13  15
ATOM     15  C   UNL A   1      31.953  26.735  26.047  1.00  0.00     0.022 C 
ATOM     16  C   UNL A   1      31.055  27.366  24.973  1.00  0.00     0.067 C 
ATOM     17  C   UNL A   1      33.374  27.219  25.757  1.00  0.00     0.067 C 
ATOM     18  C   UNL A   1      31.452  26.930  23.573  1.00  0.00     0.262 C 
ATOM     19  C   UNL A   1      33.800  27.026  24.306  1.00  0.00     0.262 C 
ATOM     20  N   UNL A   1      32.833  27.286  23.237  1.00  0.00    -0.337 N 
ATOM     21  C   UNL A   1      33.240  26.493  22.055  1.00  0.00     0.332 C 
ATOM     22  H   UNL A   1      32.841  28.292  23.068  1.00  0.00     0.347 HD
ENDBRANCH  13  15
ENDBRANCH  11  13
ENDBRANCH   6  11
ENDBRANCH   3   5
ENDBRANCH   2   3
ENDBRANCH   1   2
BRANCH   1  23
ATOM     23  C   UNL A   1      36.608  20.301  24.903  1.00  0.00     0.275 C 
BRANCH  23  24
ATOM     24  O   UNL A   1      37.392  21.470  25.202  1.00  0.00    -0.458 OA
BRANCH  24  25
ATOM     25  C   UNL A   1      38.599  21.221  25.763  1.00  0.00     0.338 C 
ATOM     26  O   UNL A   1      39.249  20.195  25.662  1.00  0.00    -0.246 OA
BRANCH  25  27
ATOM     27  C   UNL A   1      39.113  22.400  26.490  1.00  0.00     0.060 A 
ATOM     28  C   UNL A   1      38.688  23.682  26.153  1.00  0.00     0.016 A 
ATOM     29  C   UNL A   1      40.183  22.237  27.366  1.00  0.00     0.016 A 
ATOM     30  C   UNL A   1      39.440  24.788  26.531  1.00  0.00     0.010 A 
ATOM     31  C   UNL A   1      40.824  23.364  27.890  1.00  0.00     0.010 A 
ATOM     32  C   UNL A   1      40.498  24.655  27.435  1.00  0.00    -0.014 A 
BRANCH  32  33
ATOM     33  C   UNL A   1      41.266  25.844  27.903  1.00  0.00     0.031 A 
ATOM     34  C   UNL A   1      40.583  26.898  28.739  1.00  0.00     0.074 A 
ATOM     35  C   UNL A   1      42.557  26.009  27.548  1.00  0.00     0.049 A 
ATOM     36  N   UNL A   1      40.958  28.124  28.992  1.00  0.00    -0.248 NA
ATOM     37  C   UNL A   1      39.290  26.533  29.345  1.00  0.00     0.031 C 
ATOM     38  C   UNL A   1      43.360  25.057  26.775  1.00  0.00     0.029 A 
ATOM     39  N   UNL A   1      43.422  27.054  27.770  1.00  0.00    -0.354 N 
ATOM     40  C   UNL A   1      39.906  28.709  29.690  1.00  0.00     0.074 A 
ATOM     41  C   UNL A   1      38.885  27.695  29.840  1.00  0.00     0.031 C 
ATOM     42  C   UNL A   1      44.596  25.543  26.609  1.00  0.00     0.029 A 
ATOM     43  C   UNL A   1      44.639  26.894  27.145  1.00  0.00     0.049 A 
ATOM     44  H   UNL A   1      43.194  27.838  28.319  1.00  0.00     0.167 HD
ATOM     45  C   UNL A   1      39.803  29.978  30.154  1.00  0.00     0.034 A 
ATOM     46  C   UNL A   1      45.652  27.759  26.946  1.00  0.00     0.034 A 
ATOM     47  C   UNL A   1      40.862  30.948  30.062  1.00  0.00     0.049 A 
ATOM     48  C   UNL A   1      45.512  29.159  27.466  1.00  0.00     0.074 A 
ATOM     49  C   UNL A   1      40.884  32.246  30.539  1.00  0.00     0.029 A 
ATOM     50  N   UNL A   1      42.091  30.723  29.459  1.00  0.00    -0.354 N 
ATOM     51  N   UNL A   1      44.517  29.697  28.128  1.00  0.00    -0.248 NA
ATOM     52  C   UNL A   1      46.635  30.070  27.216  1.00  0.00     0.031 C 
ATOM     53  C   UNL A   1      42.116  32.815  30.199  1.00  0.00     0.029 A 
ATOM     54  C   UNL A   1      42.877  31.858  29.546  1.00  0.00     0.049 A 
ATOM     55  H   UNL A   1      42.363  29.880  29.030  1.00  0.00     0.167 HD
ATOM     56  C   UNL A   1      44.905  31.001  28.402  1.00  0.00     0.074 A 
ATOM     57  C   UNL A   1      46.237  31.163  27.851  1.00  0.00     0.031 C 
ATOM     58  C   UNL A   1      44.218  31.982  29.036  1.00  0.00     0.034 A 
BRANCH  45  59
ATOM     59  C   UNL A   1      38.504  30.395  30.798  1.00  0.00     0.023 A 
ATOM     60  C   UNL A   1      38.236  30.068  32.142  1.00  0.00     0.012 A 
ATOM     61  C   UNL A   1      37.566  31.164  30.078  1.00  0.00     0.148 A 
ATOM     62  C   UNL A   1      37.041  30.463  32.746  1.00  0.00     0.002 A 
ATOM     63  C   UNL A   1      36.402  31.596  30.700  1.00  0.00     0.091 A 
ATOM     64  F   UNL A   1      37.827  31.452  28.795  1.00  0.00    -0.205 F 
ATOM     65  C   UNL A   1      36.130  31.235  32.029  1.00  0.00     0.022 A 
BRANCH  63  66
ATOM     66  S   UNL A   1      35.206  32.666  29.890  1.00  0.00     0.127 S 
ATOM     67  O   UNL A   1      34.661  31.777  28.865  1.00  0.00    -0.237 OA
ATOM     68  O   UNL A   1      34.282  32.976  30.982  1.00  0.00    -0.237 OA
ATOM     69  O   UNL A   1      35.959  33.806  29.389  1.00  0.00    -0.744 OA
ENDBRANCH  63  66
ENDBRANCH  45  59
BRANCH  46  70
ATOM     70  C   UNL A   1      46.867  27.325  26.200  1.00  0.00     0.023 A 
ATOM     71  C   UNL A   1      47.000  27.660  24.839  1.00  0.00     0.012 A 
ATOM     72  C   UNL A   1      47.910  26.623  26.838  1.00  0.00     0.148 A 
ATOM     73  C   UNL A   1      48.135  27.281  24.121  1.00  0.00     0.002 A 
ATOM     74  C   UNL A   1      49.067  26.308  26.135  1.00  0.00     0.091 A 
ATOM     75  F   UNL A   1      47.760  26.299  28.130  1.00  0.00    -0.205 F 
ATOM     76  C   UNL A   1      49.174  26.619  24.772  1.00  0.00     0.022 A 
BRANCH  74  77
ATOM     77  S   UNL A   1      50.510  25.590  26.928  1.00  0.00     0.127 S 
ATOM     78  O   UNL A   1      51.424  25.433  25.799  1.00  0.00    -0.237 OA
ATOM     79  O   UNL A   1      50.881  26.635  27.882  1.00  0.00    -0.237 OA
ATOM     80  O   UNL A   1      50.046  24.353  27.543  1.00  0.00    -0.744 OA
ENDBRANCH  74  77
ENDBRANCH  46  70
BRANCH  58  81
ATOM     81  C   UNL A   1      44.918  33.300  29.225  1.00  0.00     0.023 A 
ATOM     82  C   UNL A   1      45.786  33.491  30.319  1.00  0.00     0.012 A 
ATOM     83  C   UNL A   1      44.757  34.330  28.278  1.00  0.00     0.148 A 
ATOM     84  C   UNL A   1      46.454  34.703  30.487  1.00  0.00     0.002 A 
ATOM     85  C   UNL A   1      45.468  35.513  28.421  1.00  0.00     0.091 A 
ATOM     86  F   UNL A   1      43.911  34.133  27.256  1.00  0.00    -0.205 F 
ATOM     87  C   UNL A   1      46.305  35.708  29.532  1.00  0.00     0.022 A 
BRANCH  85  88
ATOM     88  S   UNL A   1      45.417  36.820  27.191  1.00  0.00     0.127 S 
ATOM     89  O   UNL A   1      46.083  37.916  27.894  1.00  0.00    -0.237 OA
ATOM     90  O   UNL A   1      46.191  36.240  26.093  1.00  0.00    -0.237 OA
ATOM     91  O   UNL A   1      44.009  37.038  26.891  1.00  0.00    -0.744 OA
ENDBRANCH  85  88
ENDBRANCH  58  81
ENDBRANCH  32  33
ENDBRANCH  25  27
ENDBRANCH  24  25
ENDBRANCH  23  24
ENDBRANCH   1  23
TORSDOF 17
ENDMDL
MODEL 2
REMARK VINA RESULT:     -11.8      5.551     10.147
REMARK SMILES C[C@@H](Nc1cccc(C(=O)OCCOC(=O)c2ccc(-c3c4nc(c(-c5cccc(S(=O)(=O)[O-])c5F)c5ccc([nH]5)c(-c5cccc(S(=O)(=O)[O-])c5F)c5nc(c(-c6cccc(S(=O)(=O)[O-])c6F)c6ccc3[nH]6)C=C5)C=C4)cc2)c1)C1CC[NH+](C)CC1
REMARK SMILES IDX 12 1 11 2 9 3 10 4 8 5 4 6 5 7 80 8 6 9 7 10 3 11 2 13 1 14
REMARK SMILES IDX 81 15 82 16 87 17 83 18 86 19 84 20 85 21 13 23 14 24 15 25
REMARK SMILES IDX 16 26 17 27 18 28 79 29 19 30 78 31 20 32 21 33 22 34 72 35
REMARK SMILES IDX 23 36 77 37 71 38 73 39 24 40 76 41 70 42 69 43 25 45 57 46
REMARK SMILES IDX 37 47 56 48 38 49 41 50 55 51 74 52 39 53 40 54 54 56 75 57
REMARK SMILES IDX 42 58 26 59 27 60 35 61 28 62 30 63 36 64 29 65 31 66 32 67
REMARK SMILES IDX 33 68 34 69 58 70 59 71 67 72 60 73 62 74 68 75 61 76 63 77
REMARK SMILES IDX 64 78 65 79 66 80 43 81 44 82 52 83 45 84 47 85 53 86 46 87
REMARK SMILES IDX 48 88 49 89 50 90 51 91
REMARK H PARENT 3 12 84 22 73 44 41 55
REMARK Flexibility Score: inf
ROOT
ATOM      1  C   UNL A   1      31.831  28.304  27.387  1.00  0.00     0.275 C 
ENDROOT
BRANCH   1   2
ATOM      2  O   UNL A   1      33.033  27.623  26.952  1.00  0.00    -0.458 OA
BRANCH   2   3
ATOM      3  C   UNL A   1      32.781  26.612  26.092  1.00  0.00     0.338 C 
ATOM      4  O   UNL A   1      32.589  25.449  26.424  1.00  0.00    -0.246 OA
BRANCH   3   5
ATOM      5  C   UNL A   1      32.963  26.918  24.657  1.00  0.00     0.062 A 
ATOM      6  C   UNL A   1      31.612  27.991  22.977  1.00  0.00     0.035 A 
ATOM      7  C   UNL A   1      32.743  28.760  22.626  1.00  0.00     0.026 A 
ATOM      8  C   UNL A   1      31.798  26.939  23.869  1.00  0.00     0.041 A 
ATOM      9  C   UNL A   1      33.969  28.615  23.274  1.00  0.00     0.003 A 
ATOM     10  C   UNL A   1      34.059  27.735  24.342  1.00  0.00     0.016 A 
BRANCH   6  11
ATOM     11  N   UNL A   1      30.378  28.479  22.593  1.00  0.00    -0.382 N 
ATOM     12  H   UNL A   1      30.356  28.806  21.664  1.00  0.00     0.160 HD
BRANCH  11  13
ATOM     13  C   UNL A   1      29.097  28.608  23.290  1.00  0.00     0.079 C 
ATOM     14  C   UNL A   1      28.628  27.148  23.510  1.00  0.00     0.031 C 
BRANCH  13  15
ATOM     15  C   UNL A   1      27.910  29.386  22.613  1.00  0.00     0.022 C 
ATOM     16  C   UNL A   1      28.216  30.203  21.349  1.00  0.00     0.067 C 
ATOM     17  C   UNL A   1      27.024  30.272  23.491  1.00  0.00     0.067 C 
ATOM     18  C   UNL A   1      28.960  31.488  21.669  1.00  0.00     0.262 C 
ATOM     19  C   UNL A   1      27.580  31.677  23.697  1.00  0.00     0.262 C 
ATOM     20  N   UNL A   1      28.213  32.367  22.573  1.00  0.00    -0.337 N 
ATOM     21  C   UNL A   1      29.155  33.367  23.127  1.00  0.00     0.332 C 
ATOM     22  H   UNL A   1      27.464  32.783  22.020  1.00  0.00     0.347 HD
ENDBRANCH  13  15
ENDBRANCH  11  13
ENDBRANCH   6  11
ENDBRANCH   3   5
ENDBRANCH   2   3
ENDBRANCH   1   2
BRANCH   1  23
ATOM     23  C   UNL A   1      31.757  29.747  26.879  1.00  0.00     0.275 C 
BRANCH  23  24
ATOM     24  O   UNL A   1      33.052  30.223  26.468  1.00  0.00    -0.458 OA
BRANCH  24  25
ATOM     25  C   UNL A   1      33.568  31.210  27.237  1.00  0.00     0.338 C 
ATOM     26  O   UNL A   1      32.983  32.201  27.637  1.00  0.00    -0.246 OA
BRANCH  25  27
ATOM     27  C   UNL A   1      34.965  30.922  27.624  1.00  0.00     0.060 A 
ATOM     28  C   UNL A   1      35.393  29.610  27.810  1.00  0.00     0.016 A 
ATOM     29  C   UNL A   1      35.789  31.976  28.009  1.00  0.00     0.016 A 
ATOM     30  C   UNL A   1      36.543  29.350  28.546  1.00  0.00     0.010 A 
ATOM     31  C   UNL A   1      37.032  31.705  28.587  1.00  0.00     0.010 A 
ATOM     32  C   UNL A   1      37.403  30.389  28.916  1.00  0.00    -0.014 A 
BRANCH  32  33
ATOM     33  C   UNL A   1      38.675  30.114  29.643  1.00  0.00     0.031 A 
ATOM     34  C   UNL A   1      39.688  29.164  29.053  1.00  0.00     0.074 A 
ATOM     35  C   UNL A   1      38.909  30.673  30.849  1.00  0.00     0.049 A 
ATOM     36  N   UNL A   1      40.692  28.561  29.633  1.00  0.00    -0.248 NA
ATOM     37  C   UNL A   1      39.531  28.825  27.628  1.00  0.00     0.031 C 
ATOM     38  C   UNL A   1      38.039  31.638  31.528  1.00  0.00     0.029 A 
ATOM     39  N   UNL A   1      39.943  30.491  31.736  1.00  0.00    -0.354 N 
ATOM     40  C   UNL A   1      41.217  27.693  28.681  1.00  0.00     0.074 A 
ATOM     41  C   UNL A   1      40.434  27.866  27.477  1.00  0.00     0.031 C 
ATOM     42  C   UNL A   1      38.582  31.982  32.702  1.00  0.00     0.029 A 
ATOM     43  C   UNL A   1      39.765  31.167  32.923  1.00  0.00     0.049 A 
ATOM     44  H   UNL A   1      40.731  29.935  31.542  1.00  0.00     0.167 HD
ATOM     45  C   UNL A   1      42.253  26.830  28.806  1.00  0.00     0.034 A 
ATOM     46  C   UNL A   1      40.425  31.086  34.095  1.00  0.00     0.034 A 
ATOM     47  C   UNL A   1      43.068  26.729  29.989  1.00  0.00     0.049 A 
ATOM     48  C   UNL A   1      41.565  30.118  34.210  1.00  0.00     0.074 A 
ATOM     49  C   UNL A   1      44.171  25.924  30.208  1.00  0.00     0.029 A 
ATOM     50  N   UNL A   1      42.874  27.466  31.148  1.00  0.00    -0.354 N 
ATOM     51  N   UNL A   1      42.056  29.310  33.302  1.00  0.00    -0.248 NA
ATOM     52  C   UNL A   1      42.247  30.055  35.509  1.00  0.00     0.031 C 
ATOM     53  C   UNL A   1      44.626  26.153  31.511  1.00  0.00     0.029 A 
ATOM     54  C   UNL A   1      43.832  27.132  32.089  1.00  0.00     0.049 A 
ATOM     55  H   UNL A   1      42.159  28.129  31.281  1.00  0.00     0.167 HD
ATOM     56  C   UNL A   1      43.123  28.663  33.908  1.00  0.00     0.074 A 
ATOM     57  C   UNL A   1      43.220  29.192  35.255  1.00  0.00     0.031 C 
ATOM     58  C   UNL A   1      43.941  27.707  33.404  1.00  0.00     0.034 A 
BRANCH  45  59
ATOM     59  C   UNL A   1      42.565  25.920  27.644  1.00  0.00     0.023 A 
ATOM     60  C   UNL A   1      43.410  26.355  26.604  1.00  0.00     0.012 A 
ATOM     61  C   UNL A   1      42.056  24.604  27.611  1.00  0.00     0.148 A 
ATOM     62  C   UNL A   1      43.711  25.513  25.532  1.00  0.00     0.002 A 
ATOM     63  C   UNL A   1      42.401  23.755  26.568  1.00  0.00     0.091 A 
ATOM     64  F   UNL A   1      41.240  24.211  28.599  1.00  0.00    -0.205 F 
ATOM     65  C   UNL A   1      43.216  24.211  25.520  1.00  0.00     0.022 A 
BRANCH  63  66
ATOM     66  S   UNL A   1      41.884  22.035  26.504  1.00  0.00     0.127 S 
ATOM     67  O   UNL A   1      42.285  21.557  27.826  1.00  0.00    -0.237 OA
ATOM     68  O   UNL A   1      40.439  22.155  26.312  1.00  0.00    -0.237 OA
ATOM     69  O   UNL A   1      42.598  21.440  25.383  1.00  0.00    -0.744 OA
ENDBRANCH  63  66
ENDBRANCH  45  59
BRANCH  46  70
ATOM     70  C   UNL A   1      39.999  31.927  35.249  1.00  0.00     0.023 A 
ATOM     71  C   UNL A   1      40.461  33.253  35.347  1.00  0.00     0.012 A 
ATOM     72  C   UNL A   1      39.108  31.438  36.226  1.00  0.00     0.148 A 
ATOM     73  C   UNL A   1      40.064  34.068  36.408  1.00  0.00     0.002 A 
ATOM     74  C   UNL A   1      38.664  32.275  37.243  1.00  0.00     0.091 A 
ATOM     75  F   UNL A   1      38.691  30.168  36.127  1.00  0.00    -0.205 F 
ATOM     76  C   UNL A   1      39.156  33.584  37.347  1.00  0.00     0.022 A 
BRANCH  74  77
ATOM     77  S   UNL A   1      37.387  31.785  38.406  1.00  0.00     0.127 S 
ATOM     78  O   UNL A   1      36.321  32.736  38.098  1.00  0.00    -0.237 OA
ATOM     79  O   UNL A   1      37.120  30.405  37.997  1.00  0.00    -0.237 OA
ATOM     80  O   UNL A   1      37.986  31.913  39.728  1.00  0.00    -0.744 OA
ENDBRANCH  74  77
ENDBRANCH  46  70
BRANCH  58  81
ATOM     81  C   UNL A   1      45.052  27.214  34.292  1.00  0.00     0.023 A 
ATOM     82  C   UNL A   1      46.295  27.876  34.304  1.00  0.00     0.012 A 
ATOM     83  C   UNL A   1      44.835  26.125  35.158  1.00  0.00     0.148 A 
ATOM     84  C   UNL A   1      47.320  27.437  35.140  1.00  0.00     0.002 A 
ATOM     85  C   UNL A   1      45.841  25.728  36.028  1.00  0.00     0.091 A 
ATOM     86  F   UNL A   1      43.651  25.497  35.115  1.00  0.00    -0.205 F 
ATOM     87  C   UNL A   1      47.089  26.372  36.010  1.00  0.00     0.022 A 
BRANCH  85  88
ATOM     88  S   UNL A   1      45.601  24.436  37.251  1.00  0.00     0.127 S 
ATOM     89  O   UNL A   1      44.404  24.905  37.948  1.00  0.00    -0.237 OA
ATOM     90  O   UNL A   1      45.395  23.254  36.413  1.00  0.00    -0.237 OA
ATOM     91  O   UNL A   1      46.816  24.406  38.052  1.00  0.00    -0.744 OA
ENDBRANCH  85  88
ENDBRANCH  58  81
ENDBRANCH  32  33
ENDBRANCH  25  27
ENDBRANCH  24  25
ENDBRANCH  23  24
ENDBRANCH   1  23
TORSDOF 17
ENDMDL
MODEL 3
REMARK VINA RESULT:     -11.5      1.591      1.963
REMARK SMILES C[C@@H](Nc1cccc(C(=O)OCCOC(=O)c2ccc(-c3c4nc(c(-c5cccc(S(=O)(=O)[O-])c5F)c5ccc([nH]5)c(-c5cccc(S(=O)(=O)[O-])c5F)c5nc(c(-c6cccc(S(=O)(=O)[O-])c6F)c6ccc3[nH]6)C=C5)C=C4)cc2)c1)C1CC[NH+](C)CC1
REMARK SMILES IDX 12 1 11 2 9 3 10 4 8 5 4 6 5 7 80 8 6 9 7 10 3 11 2 13 1 14
REMARK SMILES IDX 81 15 82 16 87 17 83 18 86 19 84 20 85 21 13 23 14 24 15 25
REMARK SMILES IDX 16 26 17 27 18 28 79 29 19 30 78 31 20 32 21 33 22 34 72 35
REMARK SMILES IDX 23 36 77 37 71 38 73 39 24 40 76 41 70 42 69 43 25 45 57 46
REMARK SMILES IDX 37 47 56 48 38 49 41 50 55 51 74 52 39 53 40 54 54 56 75 57
REMARK SMILES IDX 42 58 26 59 27 60 35 61 28 62 30 63 36 64 29 65 31 66 32 67
REMARK SMILES IDX 33 68 34 69 58 70 59 71 67 72 60 73 62 74 68 75 61 76 63 77
REMARK SMILES IDX 64 78 65 79 66 80 43 81 44 82 52 83 45 84 47 85 53 86 46 87
REMARK SMILES IDX 48 88 49 89 50 90 51 91
REMARK H PARENT 3 12 84 22 73 44 41 55
REMARK Flexibility Score: inf
ROOT
ATOM      1  C   UNL A   1      35.056  21.414  26.119  1.00  0.00     0.275 C 
ENDROOT
BRANCH   1   2
ATOM      2  O   UNL A   1      33.774  21.022  25.569  1.00  0.00    -0.458 OA
BRANCH   2   3
ATOM      3  C   UNL A   1      32.916  22.059  25.449  1.00  0.00     0.338 C 
ATOM      4  O   UNL A   1      32.363  22.615  26.389  1.00  0.00    -0.246 OA
BRANCH   3   5
ATOM      5  C   UNL A   1      32.475  22.382  24.075  1.00  0.00     0.062 A 
ATOM      6  C   UNL A   1      31.331  24.244  23.065  1.00  0.00     0.035 A 
ATOM      7  C   UNL A   1      32.323  24.247  22.060  1.00  0.00     0.026 A 
ATOM      8  C   UNL A   1      31.321  23.177  23.959  1.00  0.00     0.041 A 
ATOM      9  C   UNL A   1      33.377  23.334  22.054  1.00  0.00     0.003 A 
ATOM     10  C   UNL A   1      33.489  22.439  23.107  1.00  0.00     0.016 A 
BRANCH   6  11
ATOM     11  N   UNL A   1      30.597  25.403  23.226  1.00  0.00    -0.382 N 
ATOM     12  H   UNL A   1      30.401  25.865  22.379  1.00  0.00     0.160 HD
BRANCH  11  13
ATOM     13  C   UNL A   1      30.055  26.083  24.404  1.00  0.00     0.079 C 
ATOM     14  C   UNL A   1      28.785  26.801  23.884  1.00  0.00     0.031 C 
BRANCH  13  15
ATOM     15  C   UNL A   1      30.923  27.152  25.162  1.00  0.00     0.022 C 
ATOM     16  C   UNL A   1      32.051  27.844  24.382  1.00  0.00     0.067 C 
ATOM     17  C   UNL A   1      31.509  26.782  26.525  1.00  0.00     0.067 C 
ATOM     18  C   UNL A   1      33.246  26.928  24.177  1.00  0.00     0.262 C 
ATOM     19  C   UNL A   1      32.839  26.041  26.436  1.00  0.00     0.262 C 
ATOM     20  N   UNL A   1      33.825  26.459  25.439  1.00  0.00    -0.337 N 
ATOM     21  C   UNL A   1      34.693  25.295  25.144  1.00  0.00     0.332 C 
ATOM     22  H   UNL A   1      34.333  27.249  25.836  1.00  0.00     0.347 HD
ENDBRANCH  13  15
ENDBRANCH  11  13
ENDBRANCH   6  11
ENDBRANCH   3   5
ENDBRANCH   2   3
ENDBRANCH   1   2
BRANCH   1  23
ATOM     23  C   UNL A   1      36.234  20.866  25.308  1.00  0.00     0.275 C 
BRANCH  23  24
ATOM     24  O   UNL A   1      37.261  21.861  25.141  1.00  0.00    -0.458 OA
BRANCH  24  25
ATOM     25  C   UNL A   1      38.459  21.542  25.685  1.00  0.00     0.338 C 
ATOM     26  O   UNL A   1      39.056  20.487  25.560  1.00  0.00    -0.246 OA
BRANCH  25  27
ATOM     27  C   UNL A   1      39.037  22.681  26.429  1.00  0.00     0.060 A 
ATOM     28  C   UNL A   1      38.629  23.984  26.160  1.00  0.00     0.016 A 
ATOM     29  C   UNL A   1      40.143  22.460  27.245  1.00  0.00     0.016 A 
ATOM     30  C   UNL A   1      39.427  25.057  26.541  1.00  0.00     0.010 A 
ATOM     31  C   UNL A   1      40.837  23.550  27.778  1.00  0.00     0.010 A 
ATOM     32  C   UNL A   1      40.524  24.865  27.387  1.00  0.00    -0.014 A 
BRANCH  32  33
ATOM     33  C   UNL A   1      41.343  26.017  27.860  1.00  0.00     0.031 A 
ATOM     34  C   UNL A   1      40.715  27.081  28.725  1.00  0.00     0.074 A 
ATOM     35  C   UNL A   1      42.633  26.140  27.483  1.00  0.00     0.049 A 
ATOM     36  N   UNL A   1      41.140  28.288  28.991  1.00  0.00    -0.248 NA
ATOM     37  C   UNL A   1      39.421  26.753  29.349  1.00  0.00     0.031 C 
ATOM     38  C   UNL A   1      43.386  25.172  26.680  1.00  0.00     0.029 A 
ATOM     39  N   UNL A   1      43.540  27.149  27.706  1.00  0.00    -0.354 N 
ATOM     40  C   UNL A   1      40.123  28.899  29.718  1.00  0.00     0.074 A 
ATOM     41  C   UNL A   1      39.069  27.920  29.871  1.00  0.00     0.031 C 
ATOM     42  C   UNL A   1      44.636  25.615  26.499  1.00  0.00     0.029 A 
ATOM     43  C   UNL A   1      44.738  26.955  27.055  1.00  0.00     0.049 A 
ATOM     44  H   UNL A   1      43.351  27.931  28.272  1.00  0.00     0.167 HD
ATOM     45  C   UNL A   1      40.075  30.162  30.205  1.00  0.00     0.034 A 
ATOM     46  C   UNL A   1      45.779  27.785  26.852  1.00  0.00     0.034 A 
ATOM     47  C   UNL A   1      41.168  31.095  30.109  1.00  0.00     0.049 A 
ATOM     48  C   UNL A   1      45.700  29.181  27.396  1.00  0.00     0.074 A 
ATOM     49  C   UNL A   1      41.246  32.383  30.607  1.00  0.00     0.029 A 
ATOM     50  N   UNL A   1      42.376  30.835  29.479  1.00  0.00    -0.354 N 
ATOM     51  N   UNL A   1      44.738  29.743  28.087  1.00  0.00    -0.248 NA
ATOM     52  C   UNL A   1      46.852  30.054  27.141  1.00  0.00     0.031 C 
ATOM     53  C   UNL A   1      42.492  32.912  30.253  1.00  0.00     0.029 A 
ATOM     54  C   UNL A   1      43.205  31.939  29.570  1.00  0.00     0.049 A 
ATOM     55  H   UNL A   1      42.609  29.990  29.032  1.00  0.00     0.167 HD
ATOM     56  C   UNL A   1      45.179  31.027  28.374  1.00  0.00     0.074 A 
ATOM     57  C   UNL A   1      46.506  31.150  27.801  1.00  0.00     0.031 C 
ATOM     58  C   UNL A   1      44.541  32.022  29.037  1.00  0.00     0.034 A 
BRANCH  45  59
ATOM     59  C   UNL A   1      38.805  30.616  30.880  1.00  0.00     0.023 A 
ATOM     60  C   UNL A   1      38.659  30.504  32.277  1.00  0.00     0.012 A 
ATOM     61  C   UNL A   1      37.769  31.207  30.126  1.00  0.00     0.148 A 
ATOM     62  C   UNL A   1      37.490  30.933  32.907  1.00  0.00     0.002 A 
ATOM     63  C   UNL A   1      36.630  31.679  30.767  1.00  0.00     0.091 A 
ATOM     64  F   UNL A   1      37.916  31.292  28.797  1.00  0.00    -0.205 F 
ATOM     65  C   UNL A   1      36.482  31.530  32.154  1.00  0.00     0.022 A 
BRANCH  63  66
ATOM     66  S   UNL A   1      35.313  32.539  29.898  1.00  0.00     0.127 S 
ATOM     67  O   UNL A   1      36.001  33.743  29.435  1.00  0.00    -0.237 OA
ATOM     68  O   UNL A   1      34.971  31.588  28.839  1.00  0.00    -0.237 OA
ATOM     69  O   UNL A   1      34.260  32.761  30.878  1.00  0.00    -0.744 OA
ENDBRANCH  63  66
ENDBRANCH  45  59
BRANCH  46  70
ATOM     70  C   UNL A   1      46.964  27.320  26.076  1.00  0.00     0.023 A 
ATOM     71  C   UNL A   1      47.874  26.426  26.672  1.00  0.00     0.012 A 
ATOM     72  C   UNL A   1      47.171  27.720  24.740  1.00  0.00     0.148 A 
ATOM     73  C   UNL A   1      48.982  25.962  25.962  1.00  0.00     0.002 A 
ATOM     74  C   UNL A   1      48.238  27.200  24.017  1.00  0.00     0.091 A 
ATOM     75  F   UNL A   1      46.303  28.583  24.193  1.00  0.00    -0.205 F 
ATOM     76  C   UNL A   1      49.156  26.336  24.632  1.00  0.00     0.022 A 
BRANCH  74  77
ATOM     77  S   UNL A   1      48.455  27.512  22.262  1.00  0.00     0.127 S 
ATOM     78  O   UNL A   1      47.183  28.138  21.910  1.00  0.00    -0.237 OA
ATOM     79  O   UNL A   1      49.609  28.412  22.255  1.00  0.00    -0.237 OA
ATOM     80  O   UNL A   1      48.708  26.210  21.659  1.00  0.00    -0.744 OA
ENDBRANCH  74  77
ENDBRANCH  46  70
BRANCH  58  81
ATOM     81  C   UNL A   1      45.292  33.310  29.235  1.00  0.00     0.023 A 
ATOM     82  C   UNL A   1      46.135  33.475  30.351  1.00  0.00     0.012 A 
ATOM     83  C   UNL A   1      45.205  34.335  28.273  1.00  0.00     0.148 A 
ATOM     84  C   UNL A   1      46.850  34.658  30.528  1.00  0.00     0.002 A 
ATOM     85  C   UNL A   1      45.963  35.488  28.426  1.00  0.00     0.091 A 
ATOM     86  F   UNL A   1      44.381  34.165  27.228  1.00  0.00    -0.205 F 
ATOM     87  C   UNL A   1      46.774  35.658  29.560  1.00  0.00     0.022 A 
BRANCH  85  88
ATOM     88  S   UNL A   1      46.005  36.782  27.183  1.00  0.00     0.127 S 
ATOM     89  O   UNL A   1      46.961  37.723  27.766  1.00  0.00    -0.237 OA
ATOM     90  O   UNL A   1      46.497  36.064  26.007  1.00  0.00    -0.237 OA
ATOM     91  O   UNL A   1      44.640  37.275  27.065  1.00  0.00    -0.744 OA
ENDBRANCH  85  88
ENDBRANCH  58  81
ENDBRANCH  32  33
ENDBRANCH  25  27
ENDBRANCH  24  25
ENDBRANCH  23  24
ENDBRANCH   1  23
TORSDOF 17
ENDMDL
