MODEL 1
REMARK VINA RESULT:     -11.5      0.000      0.000
REMARK SMILES NC(=O)[C@@H]1CCCCN1c1cncc(C(=O)OCCOC(=O)c2ccc(-c3c4nc(c(-c5cccc(S(=O)(=O)[O-])c5F)c5ccc([nH]5)c(-c5cccc(S(=O)(=O)[O-])c5F)c5nc(c(-c6cccc(S(=O)(=O)[O-])c6F)c6ccc3[nH]6)C=C5)C=C4)cc2)n1
REMARK SMILES IDX 19 1 18 2 17 3 15 4 16 5 14 6 10 7 11 8 86 9 12 10 13 11
REMARK SMILES IDX 9 12 4 13 5 14 6 15 8 16 7 17 2 18 1 19 3 22 20 23 21 24
REMARK SMILES IDX 22 25 23 26 24 27 85 28 25 29 84 30 26 31 27 32 28 33 78 34
REMARK SMILES IDX 29 35 83 36 77 37 79 38 30 39 82 40 76 41 75 42 31 44 63 45
REMARK SMILES IDX 43 46 62 47 44 48 47 49 61 50 80 51 45 52 46 53 60 55 81 56
REMARK SMILES IDX 48 57 32 58 33 59 41 60 34 61 36 62 42 63 35 64 37 65 38 66
REMARK SMILES IDX 39 67 40 68 64 69 65 70 73 71 66 72 68 73 74 74 67 75 69 76
REMARK SMILES IDX 70 77 71 78 72 79 49 80 50 81 58 82 51 83 53 84 59 85 52 86
REMARK SMILES IDX 54 87 55 88 56 89 57 90
REMARK H PARENT 1 20 1 21 79 43 47 54
REMARK Flexibility Score: inf
ROOT
ATOM      1  C   UNL A   1      35.986  20.907  24.996  1.00  0.00     0.275 C 
ENDROOT
BRANCH   1   2
ATOM      2  C   UNL A   1      34.923  21.963  24.693  1.00  0.00     0.275 C 
BRANCH   2   3
ATOM      3  O   UNL A   1      34.946  23.024  25.670  1.00  0.00    -0.457 OA
BRANCH   3   4
ATOM      4  C   UNL A   1      33.996  22.956  26.637  1.00  0.00     0.358 C 
ATOM      5  O   UNL A   1      34.007  22.224  27.616  1.00  0.00    -0.244 OA
BRANCH   4   6
ATOM      6  C   UNL A   1      32.956  23.985  26.435  1.00  0.00     0.169 A 
ATOM      7  C   UNL A   1      32.262  25.972  25.507  1.00  0.00     0.148 A 
ATOM      8  C   UNL A   1      30.982  25.708  26.025  1.00  0.00     0.157 A 
ATOM      9  N   UNL A   1      33.275  25.117  25.749  1.00  0.00    -0.220 NA
ATOM     10  N   UNL A   1      30.651  24.593  26.711  1.00  0.00    -0.258 NA
ATOM     11  C   UNL A   1      31.667  23.720  26.872  1.00  0.00     0.147 A 
BRANCH   7  12
ATOM     12  N   UNL A   1      32.459  27.054  24.663  1.00  0.00    -0.343 N 
ATOM     13  C   UNL A   1      32.652  28.421  25.207  1.00  0.00     0.172 C 
ATOM     14  C   UNL A   1      31.350  29.218  25.138  1.00  0.00     0.035 C 
ATOM     15  C   UNL A   1      30.792  29.204  23.716  1.00  0.00     0.004 C 
ATOM     16  C   UNL A   1      31.874  26.959  23.323  1.00  0.00     0.119 C 
ATOM     17  C   UNL A   1      30.577  27.768  23.245  1.00  0.00     0.022 C 
BRANCH  13  18
ATOM     18  C   UNL A   1      33.299  28.500  26.609  1.00  0.00     0.240 C 
ATOM     19  N   UNL A   1      32.446  28.832  27.629  1.00  0.00    -0.368 N 
ATOM     20  H   UNL A   1      32.785  28.901  28.551  1.00  0.00     0.159 HD
ATOM     21  H   UNL A   1      31.494  29.000  27.440  1.00  0.00     0.159 HD
ATOM     22  O   UNL A   1      34.464  28.203  26.861  1.00  0.00    -0.273 OA
ENDBRANCH  13  18
ENDBRANCH   7  12
ENDBRANCH   4   6
ENDBRANCH   3   4
ENDBRANCH   2   3
ENDBRANCH   1   2
BRANCH   1  23
ATOM     23  O   UNL A   1      36.855  21.379  26.040  1.00  0.00    -0.458 OA
BRANCH  23  24
ATOM     24  C   UNL A   1      38.182  21.274  25.803  1.00  0.00     0.338 C 
ATOM     25  O   UNL A   1      38.757  20.413  25.161  1.00  0.00    -0.246 OA
BRANCH  24  26
ATOM     26  C   UNL A   1      38.880  22.423  26.407  1.00  0.00     0.060 A 
ATOM     27  C   UNL A   1      38.430  23.712  26.138  1.00  0.00     0.016 A 
ATOM     28  C   UNL A   1      40.049  22.234  27.139  1.00  0.00     0.016 A 
ATOM     29  C   UNL A   1      39.201  24.815  26.489  1.00  0.00     0.010 A 
ATOM     30  C   UNL A   1      40.752  23.350  27.612  1.00  0.00     0.010 A 
ATOM     31  C   UNL A   1      40.358  24.655  27.264  1.00  0.00    -0.014 A 
BRANCH  31  32
ATOM     32  C   UNL A   1      41.143  25.842  27.717  1.00  0.00     0.031 A 
ATOM     33  C   UNL A   1      40.491  26.914  28.552  1.00  0.00     0.074 A 
ATOM     34  C   UNL A   1      42.436  25.980  27.353  1.00  0.00     0.049 A 
ATOM     35  N   UNL A   1      40.929  28.111  28.849  1.00  0.00    -0.248 NA
ATOM     36  C   UNL A   1      39.163  26.611  29.111  1.00  0.00     0.031 C 
ATOM     37  C   UNL A   1      43.203  25.017  26.560  1.00  0.00     0.029 A 
ATOM     38  N   UNL A   1      43.331  26.997  27.585  1.00  0.00    -0.354 N 
ATOM     39  C   UNL A   1      39.903  28.731  29.553  1.00  0.00     0.074 A 
ATOM     40  C   UNL A   1      38.824  27.772  29.654  1.00  0.00     0.031 C 
ATOM     41  C   UNL A   1      44.450  25.475  26.389  1.00  0.00     0.029 A 
ATOM     42  C   UNL A   1      44.547  26.807  26.969  1.00  0.00     0.049 A 
ATOM     43  H   UNL A   1      43.123  27.784  28.138  1.00  0.00     0.167 HD
ATOM     44  C   UNL A   1      39.866  29.981  30.075  1.00  0.00     0.034 A 
ATOM     45  C   UNL A   1      45.605  27.629  26.824  1.00  0.00     0.034 A 
ATOM     46  C   UNL A   1      40.973  30.900  30.044  1.00  0.00     0.049 A 
ATOM     47  C   UNL A   1      45.541  29.009  27.411  1.00  0.00     0.074 A 
ATOM     48  C   UNL A   1      41.053  32.168  30.592  1.00  0.00     0.029 A 
ATOM     49  N   UNL A   1      42.198  30.647  29.444  1.00  0.00    -0.354 N 
ATOM     50  N   UNL A   1      44.579  29.563  28.107  1.00  0.00    -0.248 NA
ATOM     51  C   UNL A   1      46.706  29.878  27.194  1.00  0.00     0.031 C 
ATOM     52  C   UNL A   1      42.322  32.688  30.312  1.00  0.00     0.029 A 
ATOM     53  C   UNL A   1      43.037  31.737  29.601  1.00  0.00     0.049 A 
ATOM     54  H   UNL A   1      42.435  29.815  28.973  1.00  0.00     0.167 HD
ATOM     55  C   UNL A   1      45.024  30.841  28.420  1.00  0.00     0.074 A 
ATOM     56  C   UNL A   1      46.357  30.967  27.865  1.00  0.00     0.031 C 
ATOM     57  C   UNL A   1      44.377  31.831  29.084  1.00  0.00     0.034 A 
BRANCH  44  58
ATOM     58  C   UNL A   1      38.596  30.426  30.751  1.00  0.00     0.023 A 
ATOM     59  C   UNL A   1      38.419  30.197  32.131  1.00  0.00     0.012 A 
ATOM     60  C   UNL A   1      37.607  31.130  30.035  1.00  0.00     0.148 A 
ATOM     61  C   UNL A   1      37.264  30.635  32.779  1.00  0.00     0.002 A 
ATOM     62  C   UNL A   1      36.477  31.598  30.698  1.00  0.00     0.091 A 
ATOM     63  F   UNL A   1      37.782  31.321  28.720  1.00  0.00    -0.205 F 
ATOM     64  C   UNL A   1      36.300  31.344  32.067  1.00  0.00     0.022 A 
BRANCH  62  65
ATOM     65  S   UNL A   1      35.217  32.585  29.880  1.00  0.00     0.127 S 
ATOM     66  O   UNL A   1      34.700  31.642  28.890  1.00  0.00    -0.237 OA
ATOM     67  O   UNL A   1      34.295  32.883  30.977  1.00  0.00    -0.237 OA
ATOM     68  O   UNL A   1      35.908  33.747  29.340  1.00  0.00    -0.744 OA
ENDBRANCH  62  65
ENDBRANCH  44  58
BRANCH  45  69
ATOM     69  C   UNL A   1      46.809  27.157  26.081  1.00  0.00     0.023 A 
ATOM     70  C   UNL A   1      46.909  27.399  24.698  1.00  0.00     0.012 A 
ATOM     71  C   UNL A   1      47.882  26.530  26.747  1.00  0.00     0.148 A 
ATOM     72  C   UNL A   1      48.050  27.018  23.991  1.00  0.00     0.002 A 
ATOM     73  C   UNL A   1      49.040  26.211  26.050  1.00  0.00     0.091 A 
ATOM     74  F   UNL A   1      47.758  26.281  28.059  1.00  0.00    -0.205 F 
ATOM     75  C   UNL A   1      49.121  26.440  24.669  1.00  0.00     0.022 A 
BRANCH  73  76
ATOM     76  S   UNL A   1      50.519  25.615  26.881  1.00  0.00     0.127 S 
ATOM     77  O   UNL A   1      50.040  24.378  27.492  1.00  0.00    -0.237 OA
ATOM     78  O   UNL A   1      51.445  25.431  25.763  1.00  0.00    -0.237 OA
ATOM     79  O   UNL A   1      50.900  26.677  27.801  1.00  0.00    -0.744 OA
ENDBRANCH  73  76
ENDBRANCH  45  69
BRANCH  57  80
ATOM     80  C   UNL A   1      45.102  33.136  29.259  1.00  0.00     0.023 A 
ATOM     81  C   UNL A   1      45.908  33.331  30.398  1.00  0.00     0.012 A 
ATOM     82  C   UNL A   1      45.050  34.133  28.266  1.00  0.00     0.148 A 
ATOM     83  C   UNL A   1      46.635  34.510  30.558  1.00  0.00     0.002 A 
ATOM     84  C   UNL A   1      45.809  35.288  28.412  1.00  0.00     0.091 A 
ATOM     85  F   UNL A   1      44.262  33.933  27.200  1.00  0.00    -0.205 F 
ATOM     86  C   UNL A   1      46.595  35.481  29.561  1.00  0.00     0.022 A 
BRANCH  84  87
ATOM     87  S   UNL A   1      45.887  36.558  27.144  1.00  0.00     0.127 S 
ATOM     88  O   UNL A   1      44.486  36.960  27.037  1.00  0.00    -0.237 OA
ATOM     89  O   UNL A   1      46.764  37.555  27.758  1.00  0.00    -0.237 OA
ATOM     90  O   UNL A   1      46.442  35.911  25.961  1.00  0.00    -0.744 OA
ENDBRANCH  84  87
ENDBRANCH  57  80
ENDBRANCH  31  32
ENDBRANCH  24  26
ENDBRANCH  23  24
ENDBRANCH   1  23
TORSDOF 16
ENDMDL
MODEL 2
REMARK VINA RESULT:     -11.4      4.844     10.000
REMARK SMILES NC(=O)[C@@H]1CCCCN1c1cncc(C(=O)OCCOC(=O)c2ccc(-c3c4nc(c(-c5cccc(S(=O)(=O)[O-])c5F)c5ccc([nH]5)c(-c5cccc(S(=O)(=O)[O-])c5F)c5nc(c(-c6cccc(S(=O)(=O)[O-])c6F)c6ccc3[nH]6)C=C5)C=C4)cc2)n1
REMARK SMILES IDX 19 1 18 2 17 3 15 4 16 5 14 6 10 7 11 8 86 9 12 10 13 11
REMARK SMILES IDX 9 12 4 13 5 14 6 15 8 16 7 17 2 18 1 19 3 22 20 23 21 24
REMARK SMILES IDX 22 25 23 26 24 27 85 28 25 29 84 30 26 31 27 32 28 33 78 34
REMARK SMILES IDX 29 35 83 36 77 37 79 38 30 39 82 40 76 41 75 42 31 44 63 45
REMARK SMILES IDX 43 46 62 47 44 48 47 49 61 50 80 51 45 52 46 53 60 55 81 56
REMARK SMILES IDX 48 57 32 58 33 59 41 60 34 61 36 62 42 63 35 64 37 65 38 66
REMARK SMILES IDX 39 67 40 68 64 69 65 70 73 71 66 72 68 73 74 74 67 75 69 76
REMARK SMILES IDX 70 77 71 78 72 79 49 80 50 81 58 82 51 83 53 84 59 85 52 86
REMARK SMILES IDX 54 87 55 88 56 89 57 90
REMARK H PARENT 1 20 1 21 79 43 47 54
REMARK Flexibility Score: inf
ROOT
ATOM      1  C   UNL A   1      31.629  29.590  25.867  1.00  0.00     0.275 C 
ENDROOT
BRANCH   1   2
ATOM      2  C   UNL A   1      31.564  28.618  24.690  1.00  0.00     0.275 C 
BRANCH   2   3
ATOM      3  O   UNL A   1      32.571  27.591  24.805  1.00  0.00    -0.457 OA
BRANCH   3   4
ATOM      4  C   UNL A   1      33.381  27.436  23.726  1.00  0.00     0.358 C 
ATOM      5  O   UNL A   1      33.976  28.323  23.131  1.00  0.00    -0.244 OA
BRANCH   4   6
ATOM      6  C   UNL A   1      33.568  26.007  23.401  1.00  0.00     0.169 A 
ATOM      7  C   UNL A   1      33.906  23.832  24.068  1.00  0.00     0.148 A 
ATOM      8  C   UNL A   1      33.762  23.451  22.722  1.00  0.00     0.157 A 
ATOM      9  N   UNL A   1      33.847  25.135  24.408  1.00  0.00    -0.220 NA
ATOM     10  N   UNL A   1      33.488  24.304  21.712  1.00  0.00    -0.258 NA
ATOM     11  C   UNL A   1      33.360  25.592  22.094  1.00  0.00     0.147 A 
BRANCH   7  12
ATOM     12  N   UNL A   1      34.003  22.865  25.056  1.00  0.00    -0.343 N 
ATOM     13  C   UNL A   1      35.316  22.275  25.418  1.00  0.00     0.172 C 
ATOM     14  C   UNL A   1      35.503  20.917  24.743  1.00  0.00     0.035 C 
ATOM     15  C   UNL A   1      34.320  20.002  25.052  1.00  0.00     0.004 C 
ATOM     16  C   UNL A   1      32.825  22.022  25.271  1.00  0.00     0.119 C 
ATOM     17  C   UNL A   1      33.014  20.655  24.608  1.00  0.00     0.022 C 
BRANCH  13  18
ATOM     18  C   UNL A   1      36.544  23.192  25.213  1.00  0.00     0.240 C 
ATOM     19  N   UNL A   1      37.198  23.035  24.019  1.00  0.00    -0.368 N 
ATOM     20  H   UNL A   1      37.989  23.584  23.815  1.00  0.00     0.159 HD
ATOM     21  H   UNL A   1      36.876  22.372  23.365  1.00  0.00     0.159 HD
ATOM     22  O   UNL A   1      36.893  24.081  25.986  1.00  0.00    -0.273 OA
ENDBRANCH  13  18
ENDBRANCH   7  12
ENDBRANCH   4   6
ENDBRANCH   3   4
ENDBRANCH   2   3
ENDBRANCH   1   2
BRANCH   1  23
ATOM     23  O   UNL A   1      32.867  30.318  25.830  1.00  0.00    -0.458 OA
BRANCH  23  24
ATOM     24  C   UNL A   1      33.074  31.197  26.836  1.00  0.00     0.338 C 
ATOM     25  O   UNL A   1      32.299  32.038  27.258  1.00  0.00    -0.246 OA
BRANCH  24  26
ATOM     26  C   UNL A   1      34.404  30.965  27.425  1.00  0.00     0.060 A 
ATOM     27  C   UNL A   1      34.784  29.669  27.760  1.00  0.00     0.016 A 
ATOM     28  C   UNL A   1      35.226  32.039  27.759  1.00  0.00     0.016 A 
ATOM     29  C   UNL A   1      35.920  29.445  28.532  1.00  0.00     0.010 A 
ATOM     30  C   UNL A   1      36.439  31.796  28.416  1.00  0.00     0.010 A 
ATOM     31  C   UNL A   1      36.786  30.501  28.843  1.00  0.00    -0.014 A 
BRANCH  31  32
ATOM     32  C   UNL A   1      38.051  30.254  29.597  1.00  0.00     0.031 A 
ATOM     33  C   UNL A   1      39.118  29.357  29.024  1.00  0.00     0.074 A 
ATOM     34  C   UNL A   1      38.234  30.806  30.815  1.00  0.00     0.049 A 
ATOM     35  N   UNL A   1      40.169  28.843  29.610  1.00  0.00    -0.248 NA
ATOM     36  C   UNL A   1      38.977  28.970  27.610  1.00  0.00     0.031 C 
ATOM     37  C   UNL A   1      37.296  31.705  31.490  1.00  0.00     0.029 A 
ATOM     38  N   UNL A   1      39.265  30.675  31.716  1.00  0.00    -0.354 N 
ATOM     39  C   UNL A   1      40.764  28.010  28.669  1.00  0.00     0.074 A 
ATOM     40  C   UNL A   1      39.966  28.098  27.466  1.00  0.00     0.031 C 
ATOM     41  C   UNL A   1      37.798  32.060  32.681  1.00  0.00     0.029 A 
ATOM     42  C   UNL A   1      39.043  31.337  32.902  1.00  0.00     0.049 A 
ATOM     43  H   UNL A   1      40.082  30.158  31.531  1.00  0.00     0.167 HD
ATOM     44  C   UNL A   1      41.877  27.247  28.795  1.00  0.00     0.034 A 
ATOM     45  C   UNL A   1      39.721  31.322  34.066  1.00  0.00     0.034 A 
ATOM     46  C   UNL A   1      42.713  27.228  29.966  1.00  0.00     0.049 A 
ATOM     47  C   UNL A   1      40.952  30.469  34.181  1.00  0.00     0.074 A 
ATOM     48  C   UNL A   1      43.891  26.530  30.170  1.00  0.00     0.029 A 
ATOM     49  N   UNL A   1      42.469  27.946  31.127  1.00  0.00    -0.354 N 
ATOM     50  N   UNL A   1      41.521  29.719  33.269  1.00  0.00    -0.248 NA
ATOM     51  C   UNL A   1      41.634  30.459  35.482  1.00  0.00     0.031 C 
ATOM     52  C   UNL A   1      44.353  26.817  31.459  1.00  0.00     0.029 A 
ATOM     53  C   UNL A   1      43.469  27.703  32.053  1.00  0.00     0.049 A 
ATOM     54  H   UNL A   1      41.697  28.540  31.272  1.00  0.00     0.167 HD
ATOM     55  C   UNL A   1      42.633  29.156  33.881  1.00  0.00     0.074 A 
ATOM     56  C   UNL A   1      42.676  29.676  35.232  1.00  0.00     0.031 C 
ATOM     57  C   UNL A   1      43.523  28.265  33.378  1.00  0.00     0.034 A 
BRANCH  44  58
ATOM     58  C   UNL A   1      42.278  26.386  27.626  1.00  0.00     0.023 A 
ATOM     59  C   UNL A   1      43.107  26.915  26.617  1.00  0.00     0.012 A 
ATOM     60  C   UNL A   1      41.888  25.033  27.559  1.00  0.00     0.148 A 
ATOM     61  C   UNL A   1      43.516  26.121  25.545  1.00  0.00     0.002 A 
ATOM     62  C   UNL A   1      42.333  24.237  26.510  1.00  0.00     0.091 A 
ATOM     63  F   UNL A   1      41.082  24.552  28.517  1.00  0.00    -0.205 F 
ATOM     64  C   UNL A   1      43.139  24.781  25.497  1.00  0.00     0.022 A 
BRANCH  62  65
ATOM     65  S   UNL A   1      41.960  22.482  26.403  1.00  0.00     0.127 S 
ATOM     66  O   UNL A   1      42.502  21.988  27.668  1.00  0.00    -0.237 OA
ATOM     67  O   UNL A   1      40.499  22.478  26.325  1.00  0.00    -0.237 OA
ATOM     68  O   UNL A   1      42.630  22.003  25.202  1.00  0.00    -0.744 OA
ENDBRANCH  62  65
ENDBRANCH  44  58
BRANCH  45  69
ATOM     69  C   UNL A   1      39.235  32.140  35.214  1.00  0.00     0.023 A 
ATOM     70  C   UNL A   1      38.348  31.570  36.146  1.00  0.00     0.012 A 
ATOM     71  C   UNL A   1      39.697  33.455  35.424  1.00  0.00     0.148 A 
ATOM     72  C   UNL A   1      37.922  32.296  37.259  1.00  0.00     0.002 A 
ATOM     73  C   UNL A   1      39.321  34.149  36.566  1.00  0.00     0.091 A 
ATOM     74  F   UNL A   1      40.520  33.994  34.511  1.00  0.00    -0.205 F 
ATOM     75  C   UNL A   1      38.422  33.578  37.478  1.00  0.00     0.022 A 
BRANCH  73  76
ATOM     76  S   UNL A   1      40.046  35.737  36.999  1.00  0.00     0.127 S 
ATOM     77  O   UNL A   1      39.655  36.564  35.861  1.00  0.00    -0.237 OA
ATOM     78  O   UNL A   1      39.363  36.053  38.254  1.00  0.00    -0.237 OA
ATOM     79  O   UNL A   1      41.473  35.483  37.145  1.00  0.00    -0.744 OA
ENDBRANCH  73  76
ENDBRANCH  45  69
BRANCH  57  80
ATOM     80  C   UNL A   1      44.629  27.804  34.286  1.00  0.00     0.023 A 
ATOM     81  C   UNL A   1      45.823  28.549  34.355  1.00  0.00     0.012 A 
ATOM     82  C   UNL A   1      44.459  26.684  35.124  1.00  0.00     0.148 A 
ATOM     83  C   UNL A   1      46.841  28.173  35.230  1.00  0.00     0.002 A 
ATOM     84  C   UNL A   1      45.461  26.341  36.023  1.00  0.00     0.091 A 
ATOM     85  F   UNL A   1      43.322  25.981  35.027  1.00  0.00    -0.205 F 
ATOM     86  C   UNL A   1      46.656  27.079  36.070  1.00  0.00     0.022 A 
BRANCH  84  87
ATOM     87  S   UNL A   1      45.281  24.999  37.203  1.00  0.00     0.127 S 
ATOM     88  O   UNL A   1      44.117  25.433  37.974  1.00  0.00    -0.237 OA
ATOM     89  O   UNL A   1      45.042  23.849  36.331  1.00  0.00    -0.237 OA
ATOM     90  O   UNL A   1      46.535  24.945  37.944  1.00  0.00    -0.744 OA
ENDBRANCH  84  87
ENDBRANCH  57  80
ENDBRANCH  31  32
ENDBRANCH  24  26
ENDBRANCH  23  24
ENDBRANCH   1  23
TORSDOF 16
ENDMDL
MODEL 3
REMARK VINA RESULT:     -11.4      1.750      2.255
REMARK SMILES NC(=O)[C@@H]1CCCCN1c1cncc(C(=O)OCCOC(=O)c2ccc(-c3c4nc(c(-c5cccc(S(=O)(=O)[O-])c5F)c5ccc([nH]5)c(-c5cccc(S(=O)(=O)[O-])c5F)c5nc(c(-c6cccc(S(=O)(=O)[O-])c6F)c6ccc3[nH]6)C=C5)C=C4)cc2)n1
REMARK SMILES IDX 19 1 18 2 17 3 15 4 16 5 14 6 10 7 11 8 86 9 12 10 13 11
REMARK SMILES IDX 9 12 4 13 5 14 6 15 8 16 7 17 2 18 1 19 3 22 20 23 21 24
REMARK SMILES IDX 22 25 23 26 24 27 85 28 25 29 84 30 26 31 27 32 28 33 78 34
REMARK SMILES IDX 29 35 83 36 77 37 79 38 30 39 82 40 76 41 75 42 31 44 63 45
REMARK SMILES IDX 43 46 62 47 44 48 47 49 61 50 80 51 45 52 46 53 60 55 81 56
REMARK SMILES IDX 48 57 32 58 33 59 41 60 34 61 36 62 42 63 35 64 37 65 38 66
REMARK SMILES IDX 39 67 40 68 64 69 65 70 73 71 66 72 68 73 74 74 67 75 69 76
REMARK SMILES IDX 70 77 71 78 72 79 49 80 50 81 58 82 51 83 53 84 59 85 52 86
REMARK SMILES IDX 54 87 55 88 56 89 57 90
REMARK H PARENT 1 20 1 21 79 43 47 54
REMARK Flexibility Score: inf
ROOT
ATOM      1  C   UNL A   1      37.254  20.260  24.848  1.00  0.00     0.275 C 
ENDROOT
BRANCH   1   2
ATOM      2  C   UNL A   1      35.737  20.341  25.013  1.00  0.00     0.275 C 
BRANCH   2   3
ATOM      3  O   UNL A   1      35.286  21.712  25.039  1.00  0.00    -0.457 OA
BRANCH   3   4
ATOM      4  C   UNL A   1      33.945  21.893  24.937  1.00  0.00     0.358 C 
ATOM      5  O   UNL A   1      33.086  21.027  25.018  1.00  0.00    -0.244 OA
BRANCH   4   6
ATOM      6  C   UNL A   1      33.609  23.327  24.826  1.00  0.00     0.169 A 
ATOM      7  C   UNL A   1      32.308  25.016  23.960  1.00  0.00     0.148 A 
ATOM      8  C   UNL A   1      33.001  25.908  24.797  1.00  0.00     0.157 A 
ATOM      9  N   UNL A   1      32.644  23.711  23.945  1.00  0.00    -0.220 NA
ATOM     10  N   UNL A   1      33.963  25.545  25.673  1.00  0.00    -0.258 NA
ATOM     11  C   UNL A   1      34.225  24.221  25.690  1.00  0.00     0.147 A 
BRANCH   7  12
ATOM     12  N   UNL A   1      31.216  25.456  23.231  1.00  0.00    -0.343 N 
ATOM     13  C   UNL A   1      31.396  26.278  22.008  1.00  0.00     0.172 C 
ATOM     14  C   UNL A   1      31.178  27.759  22.316  1.00  0.00     0.035 C 
ATOM     15  C   UNL A   1      29.826  27.968  22.995  1.00  0.00     0.004 C 
ATOM     16  C   UNL A   1      29.964  25.644  23.968  1.00  0.00     0.119 C 
ATOM     17  C   UNL A   1      29.735  27.128  24.266  1.00  0.00     0.022 C 
BRANCH  13  18
ATOM     18  C   UNL A   1      32.709  26.042  21.228  1.00  0.00     0.240 C 
ATOM     19  N   UNL A   1      32.640  25.095  20.239  1.00  0.00    -0.368 N 
ATOM     20  H   UNL A   1      33.436  24.889  19.698  1.00  0.00     0.159 HD
ATOM     21  H   UNL A   1      31.793  24.621  20.070  1.00  0.00     0.159 HD
ATOM     22  O   UNL A   1      33.740  26.695  21.374  1.00  0.00    -0.273 OA
ENDBRANCH  13  18
ENDBRANCH   7  12
ENDBRANCH   4   6
ENDBRANCH   3   4
ENDBRANCH   2   3
ENDBRANCH   1   2
BRANCH   1  23
ATOM     23  O   UNL A   1      37.880  21.332  25.573  1.00  0.00    -0.458 OA
BRANCH  23  24
ATOM     24  C   UNL A   1      39.110  21.077  26.071  1.00  0.00     0.338 C 
ATOM     25  O   UNL A   1      39.723  20.024  26.036  1.00  0.00    -0.246 OA
BRANCH  24  26
ATOM     26  C   UNL A   1      39.671  22.311  26.648  1.00  0.00     0.060 A 
ATOM     27  C   UNL A   1      39.250  23.544  26.161  1.00  0.00     0.016 A 
ATOM     28  C   UNL A   1      40.701  22.249  27.584  1.00  0.00     0.016 A 
ATOM     29  C   UNL A   1      39.927  24.709  26.509  1.00  0.00     0.010 A 
ATOM     30  C   UNL A   1      41.290  23.436  28.037  1.00  0.00     0.010 A 
ATOM     31  C   UNL A   1      40.936  24.680  27.480  1.00  0.00    -0.014 A 
BRANCH  31  32
ATOM     32  C   UNL A   1      41.609  25.938  27.921  1.00  0.00     0.031 A 
ATOM     33  C   UNL A   1      40.849  26.972  28.711  1.00  0.00     0.074 A 
ATOM     34  C   UNL A   1      42.894  26.175  27.583  1.00  0.00     0.049 A 
ATOM     35  N   UNL A   1      41.179  28.208  28.987  1.00  0.00    -0.248 NA
ATOM     36  C   UNL A   1      39.537  26.572  29.248  1.00  0.00     0.031 C 
ATOM     37  C   UNL A   1      43.758  25.261  26.833  1.00  0.00     0.029 A 
ATOM     38  N   UNL A   1      43.696  27.269  27.809  1.00  0.00    -0.354 N 
ATOM     39  C   UNL A   1      40.087  28.757  29.651  1.00  0.00     0.074 A 
ATOM     40  C   UNL A   1      39.089  27.714  29.751  1.00  0.00     0.031 C 
ATOM     41  C   UNL A   1      44.967  25.817  26.679  1.00  0.00     0.029 A 
ATOM     42  C   UNL A   1      44.939  27.167  27.227  1.00  0.00     0.049 A 
ATOM     43  H   UNL A   1      43.409  28.049  28.336  1.00  0.00     0.167 HD
ATOM     44  C   UNL A   1      39.934  30.012  30.139  1.00  0.00     0.034 A 
ATOM     45  C   UNL A   1      45.929  28.070  27.085  1.00  0.00     0.034 A 
ATOM     46  C   UNL A   1      40.960  31.019  30.109  1.00  0.00     0.049 A 
ATOM     47  C   UNL A   1      45.735  29.454  27.634  1.00  0.00     0.074 A 
ATOM     48  C   UNL A   1      40.921  32.303  30.625  1.00  0.00     0.029 A 
ATOM     49  N   UNL A   1      42.217  30.855  29.544  1.00  0.00    -0.354 N 
ATOM     50  N   UNL A   1      44.713  29.942  28.293  1.00  0.00    -0.248 NA
ATOM     51  C   UNL A   1      46.829  30.412  27.421  1.00  0.00     0.031 C 
ATOM     52  C   UNL A   1      42.149  32.919  30.362  1.00  0.00     0.029 A 
ATOM     53  C   UNL A   1      42.958  32.015  29.693  1.00  0.00     0.049 A 
ATOM     54  H   UNL A   1      42.534  30.035  29.102  1.00  0.00     0.167 HD
ATOM     55  C   UNL A   1      45.043  31.260  28.582  1.00  0.00     0.074 A 
ATOM     56  C   UNL A   1      46.373  31.484  28.056  1.00  0.00     0.031 C 
ATOM     57  C   UNL A   1      44.299  32.208  29.204  1.00  0.00     0.034 A 
BRANCH  44  58
ATOM     58  C   UNL A   1      38.614  30.366  30.773  1.00  0.00     0.023 A 
ATOM     59  C   UNL A   1      38.374  30.036  32.122  1.00  0.00     0.012 A 
ATOM     60  C   UNL A   1      37.637  31.084  30.053  1.00  0.00     0.148 A 
ATOM     61  C   UNL A   1      37.171  30.387  32.735  1.00  0.00     0.002 A 
ATOM     62  C   UNL A   1      36.458  31.466  30.683  1.00  0.00     0.091 A 
ATOM     63  F   UNL A   1      37.874  31.371  28.766  1.00  0.00    -0.205 F 
ATOM     64  C   UNL A   1      36.219  31.111  32.020  1.00  0.00     0.022 A 
BRANCH  62  65
ATOM     65  S   UNL A   1      35.206  32.464  29.867  1.00  0.00     0.127 S 
ATOM     66  O   UNL A   1      34.749  31.560  28.813  1.00  0.00    -0.237 OA
ATOM     67  O   UNL A   1      34.236  32.686  30.940  1.00  0.00    -0.237 OA
ATOM     68  O   UNL A   1      35.888  33.666  29.411  1.00  0.00    -0.744 OA
ENDBRANCH  62  65
ENDBRANCH  44  58
BRANCH  45  69
ATOM     69  C   UNL A   1      47.186  27.683  26.382  1.00  0.00     0.023 A 
ATOM     70  C   UNL A   1      48.194  27.002  27.088  1.00  0.00     0.012 A 
ATOM     71  C   UNL A   1      47.359  27.928  25.004  1.00  0.00     0.148 A 
ATOM     72  C   UNL A   1      49.355  26.579  26.439  1.00  0.00     0.002 A 
ATOM     73  C   UNL A   1      48.487  27.449  24.351  1.00  0.00     0.091 A 
ATOM     74  F   UNL A   1      46.401  28.603  24.353  1.00  0.00    -0.205 F 
ATOM     75  C   UNL A   1      49.494  26.787  25.069  1.00  0.00     0.022 A 
BRANCH  73  76
ATOM     76  S   UNL A   1      48.662  27.535  22.564  1.00  0.00     0.127 S 
ATOM     77  O   UNL A   1      49.941  28.225  22.422  1.00  0.00    -0.237 OA
ATOM     78  O   UNL A   1      48.679  26.121  22.188  1.00  0.00    -0.237 OA
ATOM     79  O   UNL A   1      47.489  28.261  22.095  1.00  0.00    -0.744 OA
ENDBRANCH  73  76
ENDBRANCH  45  69
BRANCH  57  80
ATOM     80  C   UNL A   1      44.909  33.573  29.362  1.00  0.00     0.023 A 
ATOM     81  C   UNL A   1      45.607  33.885  30.545  1.00  0.00     0.012 A 
ATOM     82  C   UNL A   1      44.858  34.515  28.316  1.00  0.00     0.148 A 
ATOM     83  C   UNL A   1      46.229  35.124  30.694  1.00  0.00     0.002 A 
ATOM     84  C   UNL A   1      45.515  35.731  28.455  1.00  0.00     0.091 A 
ATOM     85  F   UNL A   1      44.172  34.202  27.208  1.00  0.00    -0.205 F 
ATOM     86  C   UNL A   1      46.193  36.040  29.646  1.00  0.00     0.022 A 
BRANCH  84  87
ATOM     87  S   UNL A   1      45.596  36.941  27.130  1.00  0.00     0.127 S 
ATOM     88  O   UNL A   1      44.187  37.297  26.965  1.00  0.00    -0.237 OA
ATOM     89  O   UNL A   1      46.427  37.991  27.720  1.00  0.00    -0.237 OA
ATOM     90  O   UNL A   1      46.203  36.256  25.996  1.00  0.00    -0.744 OA
ENDBRANCH  84  87
ENDBRANCH  57  80
ENDBRANCH  31  32
ENDBRANCH  24  26
ENDBRANCH  23  24
ENDBRANCH   1  23
TORSDOF 16
ENDMDL
