MODEL 1
REMARK VINA RESULT:     -15.4      0.000      0.000
REMARK SMILES Cc1ccccc1/C=C1\SC(=O)N(CC(=O)Nc2ccccc2C(=O)OCCOC(=O)c2ccc(-c3c4nc(c(-c5cccc(S(=O)(=O)[O-])c5F)c5ccc([nH]5)c(-c5cccc(S(=O)(=O)[O-])c5F)c5nc(c(-c6cccc(S(=O)(=O)[O-])c6F)c6ccc3[nH]6)C=C5)C=C4)cc2)C1=O
REMARK SMILES IDX 27 1 26 2 24 3 25 4 23 5 18 6 19 7 20 8 22 9 21 10 17 11
REMARK SMILES IDX 15 12 16 13 14 15 13 16 8 17 9 18 10 19 95 20 11 21 96 22
REMARK SMILES IDX 12 23 7 24 1 25 2 26 3 27 4 28 6 29 5 30 28 31 29 32 30 33
REMARK SMILES IDX 31 34 32 35 33 36 94 37 34 38 93 39 35 40 36 41 37 42 87 43
REMARK SMILES IDX 38 44 92 45 86 46 88 47 39 48 91 49 85 50 84 51 40 53 72 54
REMARK SMILES IDX 52 55 71 56 53 57 56 58 70 59 89 60 54 61 55 62 69 64 90 65
REMARK SMILES IDX 57 66 41 67 42 68 50 69 43 70 45 71 51 72 44 73 46 74 47 75
REMARK SMILES IDX 48 76 49 77 73 78 74 79 82 80 75 81 77 82 83 83 76 84 78 85
REMARK SMILES IDX 79 86 80 87 81 88 58 89 59 90 67 91 60 92 62 93 68 94 61 95
REMARK SMILES IDX 63 96 64 97 65 98 66 99
REMARK H PARENT 17 14 88 52 56 63
REMARK Flexibility Score: inf
ROOT
ATOM      1  C   UNL A   1      46.365  18.502  25.632  1.00  0.00     0.275 C 
ENDROOT
BRANCH   1   2
ATOM      2  O   UNL A   1      44.315  18.345  25.525  1.00  0.00    -0.458 OA
BRANCH   2   3
ATOM      3  C   UNL A   1      42.943  19.038  25.942  1.00  0.00     0.340 C 
ATOM      4  O   UNL A   1      42.324  17.931  25.774  1.00  0.00    -0.246 OA
BRANCH   3   5
ATOM      5  C   UNL A   1      42.086  20.900  26.620  1.00  0.00     0.083 A 
ATOM      6  C   UNL A   1      40.373  21.213  26.406  1.00  0.00     0.055 A 
ATOM      7  C   UNL A   1      39.766  22.447  26.673  1.00  0.00     0.027 A 
ATOM      8  C   UNL A   1      40.533  23.465  27.235  1.00  0.00     0.002 A 
ATOM      9  C   UNL A   1      42.632  22.122  27.241  1.00  0.00     0.018 A 
ATOM     10  C   UNL A   1      41.894  23.301  27.529  1.00  0.00     0.001 A 
BRANCH   6  11
ATOM     11  N   UNL A   1      39.235  20.034  25.831  1.00  0.00    -0.324 N 
ATOM     12  C   UNL A   1      37.796  20.086  25.099  1.00  0.00     0.244 C 
ATOM     13  O   UNL A   1      37.350  18.964  24.782  1.00  0.00    -0.273 OA
ATOM     14  H   UNL A   1      39.541  19.112  25.989  1.00  0.00     0.170 HD
BRANCH  12  15
ATOM     15  C   UNL A   1      36.879  21.571  24.289  1.00  0.00     0.230 C 
BRANCH  15  16
ATOM     16  N   UNL A   1      35.302  22.440  24.365  1.00  0.00    -0.259 N 
ATOM     17  C   UNL A   1      34.073  26.533  25.203  1.00  0.00     0.029 C 
ATOM     18  C   UNL A   1      34.114  25.195  25.003  1.00  0.00     0.083 C 
ATOM     19  S   UNL A   1      32.442  24.341  23.861  1.00  0.00    -0.022 SA
ATOM     20  C   UNL A   1      35.578  23.962  25.277  1.00  0.00     0.268 C 
ATOM     21  C   UNL A   1      33.539  22.321  23.606  1.00  0.00     0.294 C 
ATOM     22  O   UNL A   1      36.435  24.086  26.150  1.00  0.00    -0.268 OA
ATOM     23  O   UNL A   1      32.688  21.498  23.279  1.00  0.00    -0.261 OA
BRANCH  17  24
ATOM     24  C   UNL A   1      33.038  27.477  24.679  1.00  0.00    -0.021 A 
ATOM     25  C   UNL A   1      31.569  27.450  26.766  1.00  0.00     0.045 C 
ATOM     26  C   UNL A   1      31.863  27.850  25.352  1.00  0.00    -0.044 A 
ATOM     27  C   UNL A   1      30.875  28.612  24.680  1.00  0.00     0.004 A 
ATOM     28  C   UNL A   1      31.072  29.091  23.388  1.00  0.00     0.000 A 
ATOM     29  C   UNL A   1      33.218  28.019  23.394  1.00  0.00     0.008 A 
ATOM     30  C   UNL A   1      32.268  28.822  22.756  1.00  0.00     0.001 A 
ENDBRANCH  17  24
ENDBRANCH  15  16
ENDBRANCH  12  15
ENDBRANCH   6  11
ENDBRANCH   3   5
ENDBRANCH   2   3
ENDBRANCH   1   2
BRANCH   1  31
ATOM     31  C   UNL A   1      47.093  19.813  24.520  1.00  0.00     0.275 C 
BRANCH  31  32
ATOM     32  O   UNL A   1      46.499  21.420  24.565  1.00  0.00    -0.458 OA
BRANCH  32  33
ATOM     33  C   UNL A   1      45.265  22.216  24.483  1.00  0.00     0.338 C 
ATOM     34  O   UNL A   1      44.311  21.737  23.875  1.00  0.00    -0.246 OA
BRANCH  33  35
ATOM     35  C   UNL A   1      45.191  23.841  24.862  1.00  0.00     0.060 A 
ATOM     36  C   UNL A   1      46.523  24.088  25.839  1.00  0.00     0.016 A 
ATOM     37  C   UNL A   1      43.966  25.105  24.961  1.00  0.00     0.016 A 
ATOM     38  C   UNL A   1      46.926  25.624  26.921  1.00  0.00     0.010 A 
ATOM     39  C   UNL A   1      44.136  26.568  26.027  1.00  0.00     0.010 A 
ATOM     40  C   UNL A   1      45.636  26.907  27.006  1.00  0.00    -0.014 A 
BRANCH  40  41
ATOM     41  C   UNL A   1      45.311  27.699  28.263  1.00  0.00     0.031 A 
ATOM     42  C   UNL A   1      44.745  26.861  29.367  1.00  0.00     0.074 A 
ATOM     43  C   UNL A   1      45.768  28.966  28.574  1.00  0.00     0.049 A 
ATOM     44  N   UNL A   1      44.581  27.262  30.574  1.00  0.00    -0.248 NA
ATOM     45  C   UNL A   1      44.318  25.468  29.208  1.00  0.00     0.031 C 
ATOM     46  C   UNL A   1      46.025  29.474  29.931  1.00  0.00     0.029 A 
ATOM     47  N   UNL A   1      46.241  30.053  27.824  1.00  0.00    -0.354 N 
ATOM     48  C   UNL A   1      44.203  26.212  31.368  1.00  0.00     0.074 A 
ATOM     49  C   UNL A   1      44.054  25.104  30.468  1.00  0.00     0.031 C 
ATOM     50  C   UNL A   1      46.632  30.669  29.926  1.00  0.00     0.029 A 
ATOM     51  C   UNL A   1      46.479  31.207  28.602  1.00  0.00     0.049 A 
ATOM     52  H   UNL A   1      46.393  30.014  26.853  1.00  0.00     0.167 HD
ATOM     53  C   UNL A   1      44.106  26.436  32.704  1.00  0.00     0.034 A 
ATOM     54  C   UNL A   1      45.844  32.420  28.440  1.00  0.00     0.034 A 
ATOM     55  C   UNL A   1      44.070  27.896  32.969  1.00  0.00     0.049 A 
ATOM     56  C   UNL A   1      44.640  32.546  29.399  1.00  0.00     0.074 A 
ATOM     57  C   UNL A   1      44.913  28.810  33.576  1.00  0.00     0.029 A 
ATOM     58  N   UNL A   1      43.114  28.668  32.289  1.00  0.00    -0.354 N 
ATOM     59  N   UNL A   1      44.443  31.830  30.475  1.00  0.00    -0.248 NA
ATOM     60  C   UNL A   1      43.528  33.466  29.174  1.00  0.00     0.031 C 
ATOM     61  C   UNL A   1      44.531  30.121  33.146  1.00  0.00     0.029 A 
ATOM     62  C   UNL A   1      43.405  30.025  32.345  1.00  0.00     0.049 A 
ATOM     63  H   UNL A   1      42.331  28.291  31.827  1.00  0.00     0.167 HD
ATOM     64  C   UNL A   1      43.124  31.909  30.842  1.00  0.00     0.074 A 
ATOM     65  C   UNL A   1      42.628  33.034  30.068  1.00  0.00     0.031 C 
ATOM     66  C   UNL A   1      42.527  31.001  31.682  1.00  0.00     0.034 A 
BRANCH  53  67
ATOM     67  C   UNL A   1      44.150  25.358  33.783  1.00  0.00     0.023 A 
ATOM     68  C   UNL A   1      43.121  25.375  34.750  1.00  0.00     0.012 A 
ATOM     69  C   UNL A   1      45.183  24.405  34.005  1.00  0.00     0.148 A 
ATOM     70  C   UNL A   1      43.119  24.527  35.867  1.00  0.00     0.002 A 
ATOM     71  C   UNL A   1      45.151  23.515  35.088  1.00  0.00     0.091 A 
ATOM     72  F   UNL A   1      46.267  24.394  33.227  1.00  0.00    -0.205 F 
ATOM     73  C   UNL A   1      44.128  23.588  36.033  1.00  0.00     0.022 A 
BRANCH  71  74
ATOM     74  S   UNL A   1      46.407  22.242  35.355  1.00  0.00     0.127 S 
ATOM     75  O   UNL A   1      47.612  23.040  35.577  1.00  0.00    -0.237 OA
ATOM     76  O   UNL A   1      45.907  21.555  36.547  1.00  0.00    -0.237 OA
ATOM     77  O   UNL A   1      46.426  21.421  34.151  1.00  0.00    -0.744 OA
ENDBRANCH  71  74
ENDBRANCH  53  67
BRANCH  54  78
ATOM     78  C   UNL A   1      45.829  32.938  27.027  1.00  0.00     0.023 A 
ATOM     79  C   UNL A   1      44.787  32.418  26.229  1.00  0.00     0.012 A 
ATOM     80  C   UNL A   1      46.179  34.278  26.886  1.00  0.00     0.148 A 
ATOM     81  C   UNL A   1      43.852  33.307  25.711  1.00  0.00     0.002 A 
ATOM     82  C   UNL A   1      45.199  35.161  26.527  1.00  0.00     0.091 A 
ATOM     83  F   UNL A   1      47.397  34.704  27.230  1.00  0.00    -0.205 F 
ATOM     84  C   UNL A   1      44.021  34.671  25.963  1.00  0.00     0.022 A 
BRANCH  82  85
ATOM     85  S   UNL A   1      45.359  36.848  27.116  1.00  0.00     0.127 S 
ATOM     86  O   UNL A   1      46.425  37.400  26.277  1.00  0.00    -0.237 OA
ATOM     87  O   UNL A   1      44.040  37.404  26.842  1.00  0.00    -0.237 OA
ATOM     88  O   UNL A   1      45.714  36.702  28.523  1.00  0.00    -0.744 OA
ENDBRANCH  82  85
ENDBRANCH  54  78
BRANCH  66  89
ATOM     89  C   UNL A   1      41.036  30.994  32.004  1.00  0.00     0.023 A 
ATOM     90  C   UNL A   1      40.456  31.786  33.015  1.00  0.00     0.012 A 
ATOM     91  C   UNL A   1      40.137  30.201  31.245  1.00  0.00     0.148 A 
ATOM     92  C   UNL A   1      39.109  31.667  33.374  1.00  0.00     0.002 A 
ATOM     93  C   UNL A   1      38.771  30.202  31.506  1.00  0.00     0.091 A 
ATOM     94  F   UNL A   1      40.601  29.393  30.282  1.00  0.00    -0.205 F 
ATOM     95  C   UNL A   1      38.261  30.881  32.612  1.00  0.00     0.022 A 
BRANCH  93  96
ATOM     96  S   UNL A   1      37.600  29.444  30.374  1.00  0.00     0.127 S 
ATOM     97  O   UNL A   1      36.341  29.594  31.100  1.00  0.00    -0.237 OA
ATOM     98  O   UNL A   1      37.726  30.294  29.189  1.00  0.00    -0.237 OA
ATOM     99  O   UNL A   1      38.067  28.078  30.179  1.00  0.00    -0.744 OA
ENDBRANCH  93  96
ENDBRANCH  66  89
ENDBRANCH  40  41
ENDBRANCH  33  35
ENDBRANCH  32  33
ENDBRANCH  31  32
ENDBRANCH   1  31
TORSDOF 18
ENDMDL
MODEL 2
REMARK VINA RESULT:     -15.1      5.148     11.514
REMARK SMILES Cc1ccccc1/C=C1\SC(=O)N(CC(=O)Nc2ccccc2C(=O)OCCOC(=O)c2ccc(-c3c4nc(c(-c5cccc(S(=O)(=O)[O-])c5F)c5ccc([nH]5)c(-c5cccc(S(=O)(=O)[O-])c5F)c5nc(c(-c6cccc(S(=O)(=O)[O-])c6F)c6ccc3[nH]6)C=C5)C=C4)cc2)C1=O
REMARK SMILES IDX 27 1 26 2 24 3 25 4 23 5 18 6 19 7 20 8 22 9 21 10 17 11
REMARK SMILES IDX 15 12 16 13 14 15 13 16 8 17 9 18 10 19 95 20 11 21 96 22
REMARK SMILES IDX 12 23 7 24 1 25 2 26 3 27 4 28 6 29 5 30 28 31 29 32 30 33
REMARK SMILES IDX 31 34 32 35 33 36 94 37 34 38 93 39 35 40 36 41 37 42 87 43
REMARK SMILES IDX 38 44 92 45 86 46 88 47 39 48 91 49 85 50 84 51 40 53 72 54
REMARK SMILES IDX 52 55 71 56 53 57 56 58 70 59 89 60 54 61 55 62 69 64 90 65
REMARK SMILES IDX 57 66 41 67 42 68 50 69 43 70 45 71 51 72 44 73 46 74 47 75
REMARK SMILES IDX 48 76 49 77 73 78 74 79 82 80 75 81 77 82 83 83 76 84 78 85
REMARK SMILES IDX 79 86 80 87 81 88 58 89 59 90 67 91 60 92 62 93 68 94 61 95
REMARK SMILES IDX 63 96 64 97 65 98 66 99
REMARK H PARENT 17 14 88 52 56 63
REMARK Flexibility Score: inf
ROOT
ATOM      1  C   UNL A   1      45.676  27.995  39.280  1.00  0.00     0.275 C 
ENDROOT
BRANCH   1   2
ATOM      2  O   UNL A   1      44.067  26.801  38.811  1.00  0.00    -0.458 OA
BRANCH   2   3
ATOM      3  C   UNL A   1      43.361  25.985  37.639  1.00  0.00     0.340 C 
ATOM      4  O   UNL A   1      42.240  26.533  37.921  1.00  0.00    -0.246 OA
BRANCH   3   5
ATOM      5  C   UNL A   1      43.740  24.585  36.040  1.00  0.00     0.083 A 
ATOM      6  C   UNL A   1      45.035  23.409  36.185  1.00  0.00     0.055 A 
ATOM      7  C   UNL A   1      45.449  22.572  35.141  1.00  0.00     0.027 A 
ATOM      8  C   UNL A   1      44.736  22.590  33.943  1.00  0.00     0.002 A 
ATOM      9  C   UNL A   1      43.161  24.366  34.702  1.00  0.00     0.018 A 
ATOM     10  C   UNL A   1      43.630  23.427  33.743  1.00  0.00     0.001 A 
BRANCH   6  11
ATOM     11  N   UNL A   1      45.958  23.154  37.633  1.00  0.00    -0.324 N 
ATOM     12  C   UNL A   1      47.526  23.194  38.020  1.00  0.00     0.244 C 
ATOM     13  O   UNL A   1      47.751  23.022  39.236  1.00  0.00    -0.273 OA
ATOM     14  H   UNL A   1      45.389  22.934  38.405  1.00  0.00     0.170 HD
BRANCH  12  15
ATOM     15  C   UNL A   1      49.026  23.855  37.013  1.00  0.00     0.230 C 
BRANCH  15  16
ATOM     16  N   UNL A   1      49.430  25.105  35.778  1.00  0.00    -0.259 N 
ATOM     17  C   UNL A   1      48.974  25.434  31.459  1.00  0.00     0.029 C 
ATOM     18  C   UNL A   1      49.342  25.598  32.752  1.00  0.00     0.083 C 
ATOM     19  S   UNL A   1      49.516  27.675  33.447  1.00  0.00    -0.022 SA
ATOM     20  C   UNL A   1      49.416  24.293  34.176  1.00  0.00     0.268 C 
ATOM     21  C   UNL A   1      49.650  27.011  35.659  1.00  0.00     0.294 C 
ATOM     22  O   UNL A   1      49.684  23.104  34.014  1.00  0.00    -0.268 OA
ATOM     23  O   UNL A   1      50.101  27.967  36.285  1.00  0.00    -0.261 OA
BRANCH  17  24
ATOM     24  C   UNL A   1      48.628  26.520  30.491  1.00  0.00    -0.021 A 
ATOM     25  C   UNL A   1      51.003  26.873  29.624  1.00  0.00     0.045 C 
ATOM     26  C   UNL A   1      49.548  27.228  29.700  1.00  0.00    -0.044 A 
ATOM     27  C   UNL A   1      49.120  28.352  28.953  1.00  0.00     0.004 A 
ATOM     28  C   UNL A   1      47.782  28.731  28.900  1.00  0.00     0.000 A 
ATOM     29  C   UNL A   1      47.281  26.906  30.374  1.00  0.00     0.008 A 
ATOM     30  C   UNL A   1      46.852  27.979  29.587  1.00  0.00     0.001 A 
ENDBRANCH  17  24
ENDBRANCH  15  16
ENDBRANCH  12  15
ENDBRANCH   6  11
ENDBRANCH   3   5
ENDBRANCH   2   3
ENDBRANCH   1   2
BRANCH   1  31
ATOM     31  C   UNL A   1      46.048  29.313  38.011  1.00  0.00     0.275 C 
BRANCH  31  32
ATOM     32  O   UNL A   1      44.776  30.092  37.167  1.00  0.00    -0.458 OA
BRANCH  32  33
ATOM     33  C   UNL A   1      43.400  29.899  36.684  1.00  0.00     0.338 C 
ATOM     34  O   UNL A   1      42.480  30.313  37.386  1.00  0.00    -0.246 OA
BRANCH  33  35
ATOM     35  C   UNL A   1      42.999  28.869  35.431  1.00  0.00     0.060 A 
ATOM     36  C   UNL A   1      44.474  28.329  34.866  1.00  0.00     0.016 A 
ATOM     37  C   UNL A   1      41.655  28.631  34.315  1.00  0.00     0.016 A 
ATOM     38  C   UNL A   1      44.840  27.373  33.240  1.00  0.00     0.010 A 
ATOM     39  C   UNL A   1      41.850  27.850  32.685  1.00  0.00     0.010 A 
ATOM     40  C   UNL A   1      43.431  27.151  32.107  1.00  0.00    -0.014 A 
BRANCH  40  41
ATOM     41  C   UNL A   1      43.545  27.213  30.591  1.00  0.00     0.031 A 
ATOM     42  C   UNL A   1      43.667  25.867  29.946  1.00  0.00     0.074 A 
ATOM     43  C   UNL A   1      43.232  28.295  29.789  1.00  0.00     0.049 A 
ATOM     44  N   UNL A   1      43.578  25.654  28.685  1.00  0.00    -0.248 NA
ATOM     45  C   UNL A   1      43.892  24.620  30.681  1.00  0.00     0.031 C 
ATOM     46  C   UNL A   1      42.721  28.220  28.412  1.00  0.00     0.029 A 
ATOM     47  N   UNL A   1      43.147  29.680  29.995  1.00  0.00    -0.354 N 
ATOM     48  C   UNL A   1      43.567  24.307  28.439  1.00  0.00     0.074 A 
ATOM     49  C   UNL A   1      43.762  23.696  29.722  1.00  0.00     0.031 C 
ATOM     50  C   UNL A   1      42.335  29.414  27.942  1.00  0.00     0.029 A 
ATOM     51  C   UNL A   1      42.906  30.407  28.809  1.00  0.00     0.049 A 
ATOM     52  H   UNL A   1      43.245  30.102  30.878  1.00  0.00     0.167 HD
ATOM     53  C   UNL A   1      43.352  23.903  27.160  1.00  0.00     0.034 A 
ATOM     54  C   UNL A   1      43.747  31.360  28.275  1.00  0.00     0.034 A 
ATOM     55  C   UNL A   1      43.552  25.043  26.231  1.00  0.00     0.049 A 
ATOM     56  C   UNL A   1      44.670  30.745  27.200  1.00  0.00     0.074 A 
ATOM     57  C   UNL A   1      42.739  25.793  25.399  1.00  0.00     0.029 A 
ATOM     58  N   UNL A   1      44.761  25.753  26.307  1.00  0.00    -0.354 N 
ATOM     59  N   UNL A   1      44.466  29.612  26.578  1.00  0.00    -0.248 NA
ATOM     60  C   UNL A   1      45.934  31.347  26.787  1.00  0.00     0.031 C 
ATOM     61  C   UNL A   1      43.423  27.012  25.090  1.00  0.00     0.029 A 
ATOM     62  C   UNL A   1      44.687  26.979  25.657  1.00  0.00     0.049 A 
ATOM     63  H   UNL A   1      45.566  25.421  26.766  1.00  0.00     0.167 HD
ATOM     64  C   UNL A   1      45.642  29.180  26.020  1.00  0.00     0.074 A 
ATOM     65  C   UNL A   1      46.493  30.355  26.080  1.00  0.00     0.031 C 
ATOM     66  C   UNL A   1      45.851  27.879  25.632  1.00  0.00     0.034 A 
BRANCH  53  67
ATOM     67  C   UNL A   1      42.860  22.519  26.744  1.00  0.00     0.023 A 
ATOM     68  C   UNL A   1      41.553  22.157  27.136  1.00  0.00     0.012 A 
ATOM     69  C   UNL A   1      43.616  21.494  26.110  1.00  0.00     0.148 A 
ATOM     70  C   UNL A   1      41.032  20.871  26.935  1.00  0.00     0.002 A 
ATOM     71  C   UNL A   1      43.076  20.226  25.852  1.00  0.00     0.091 A 
ATOM     72  F   UNL A   1      44.903  21.689  25.818  1.00  0.00    -0.205 F 
ATOM     73  C   UNL A   1      41.788  19.906  26.283  1.00  0.00     0.022 A 
BRANCH  71  74
ATOM     74  S   UNL A   1      43.981  18.927  24.979  1.00  0.00     0.127 S 
ATOM     75  O   UNL A   1      43.044  17.806  25.039  1.00  0.00    -0.237 OA
ATOM     76  O   UNL A   1      44.150  19.505  23.645  1.00  0.00    -0.237 OA
ATOM     77  O   UNL A   1      45.225  18.727  25.712  1.00  0.00    -0.744 OA
ENDBRANCH  71  74
ENDBRANCH  53  67
BRANCH  54  78
ATOM     78  C   UNL A   1      44.207  32.410  29.251  1.00  0.00     0.023 A 
ATOM     79  C   UNL A   1      45.398  32.085  29.935  1.00  0.00     0.012 A 
ATOM     80  C   UNL A   1      44.004  33.725  28.841  1.00  0.00     0.148 A 
ATOM     81  C   UNL A   1      46.501  32.913  29.761  1.00  0.00     0.002 A 
ATOM     82  C   UNL A   1      45.104  34.473  28.523  1.00  0.00     0.091 A 
ATOM     83  F   UNL A   1      42.771  34.191  28.630  1.00  0.00    -0.205 F 
ATOM     84  C   UNL A   1      46.359  34.050  28.961  1.00  0.00     0.022 A 
BRANCH  82  85
ATOM     85  S   UNL A   1      44.894  35.753  27.283  1.00  0.00     0.127 S 
ATOM     86  O   UNL A   1      46.268  36.172  26.995  1.00  0.00    -0.237 OA
ATOM     87  O   UNL A   1      44.252  35.032  26.191  1.00  0.00    -0.237 OA
ATOM     88  O   UNL A   1      44.082  36.764  27.949  1.00  0.00    -0.744 OA
ENDBRANCH  82  85
ENDBRANCH  54  78
BRANCH  66  89
ATOM     89  C   UNL A   1      47.188  27.346  25.129  1.00  0.00     0.023 A 
ATOM     90  C   UNL A   1      48.012  26.485  25.880  1.00  0.00     0.012 A 
ATOM     91  C   UNL A   1      47.650  27.669  23.827  1.00  0.00     0.148 A 
ATOM     92  C   UNL A   1      49.290  26.113  25.449  1.00  0.00     0.002 A 
ATOM     93  C   UNL A   1      48.854  27.171  23.341  1.00  0.00     0.091 A 
ATOM     94  F   UNL A   1      46.947  28.505  23.052  1.00  0.00    -0.205 F 
ATOM     95  C   UNL A   1      49.710  26.448  24.172  1.00  0.00     0.022 A 
BRANCH  93  96
ATOM     96  S   UNL A   1      49.301  27.325  21.608  1.00  0.00     0.127 S 
ATOM     97  O   UNL A   1      48.987  28.727  21.340  1.00  0.00    -0.237 OA
ATOM     98  O   UNL A   1      50.730  27.011  21.631  1.00  0.00    -0.237 OA
ATOM     99  O   UNL A   1      48.487  26.343  20.903  1.00  0.00    -0.744 OA
ENDBRANCH  93  96
ENDBRANCH  66  89
ENDBRANCH  40  41
ENDBRANCH  33  35
ENDBRANCH  32  33
ENDBRANCH  31  32
ENDBRANCH   1  31
TORSDOF 18
ENDMDL
MODEL 3
REMARK VINA RESULT:     -14.4      3.909      8.010
REMARK SMILES Cc1ccccc1/C=C1\SC(=O)N(CC(=O)Nc2ccccc2C(=O)OCCOC(=O)c2ccc(-c3c4nc(c(-c5cccc(S(=O)(=O)[O-])c5F)c5ccc([nH]5)c(-c5cccc(S(=O)(=O)[O-])c5F)c5nc(c(-c6cccc(S(=O)(=O)[O-])c6F)c6ccc3[nH]6)C=C5)C=C4)cc2)C1=O
REMARK SMILES IDX 27 1 26 2 24 3 25 4 23 5 18 6 19 7 20 8 22 9 21 10 17 11
REMARK SMILES IDX 15 12 16 13 14 15 13 16 8 17 9 18 10 19 95 20 11 21 96 22
REMARK SMILES IDX 12 23 7 24 1 25 2 26 3 27 4 28 6 29 5 30 28 31 29 32 30 33
REMARK SMILES IDX 31 34 32 35 33 36 94 37 34 38 93 39 35 40 36 41 37 42 87 43
REMARK SMILES IDX 38 44 92 45 86 46 88 47 39 48 91 49 85 50 84 51 40 53 72 54
REMARK SMILES IDX 52 55 71 56 53 57 56 58 70 59 89 60 54 61 55 62 69 64 90 65
REMARK SMILES IDX 57 66 41 67 42 68 50 69 43 70 45 71 51 72 44 73 46 74 47 75
REMARK SMILES IDX 48 76 49 77 73 78 74 79 82 80 75 81 77 82 83 83 76 84 78 85
REMARK SMILES IDX 79 86 80 87 81 88 58 89 59 90 67 91 60 92 62 93 68 94 61 95
REMARK SMILES IDX 63 96 64 97 65 98 66 99
REMARK H PARENT 17 14 88 52 56 63
REMARK Flexibility Score: inf
ROOT
ATOM      1  C   UNL A   1      44.640  19.694  25.062  1.00  0.00     0.275 C 
ENDROOT
BRANCH   1   2
ATOM      2  O   UNL A   1      42.737  20.369  25.461  1.00  0.00    -0.458 OA
BRANCH   2   3
ATOM      3  C   UNL A   1      41.808  21.035  26.570  1.00  0.00     0.340 C 
ATOM      4  O   UNL A   1      41.794  19.937  27.228  1.00  0.00    -0.246 OA
BRANCH   3   5
ATOM      5  C   UNL A   1      40.858  22.887  27.141  1.00  0.00     0.083 A 
ATOM      6  C   UNL A   1      39.173  23.174  26.745  1.00  0.00     0.055 A 
ATOM      7  C   UNL A   1      38.525  24.401  26.937  1.00  0.00     0.027 A 
ATOM      8  C   UNL A   1      39.213  25.433  27.572  1.00  0.00     0.002 A 
ATOM      9  C   UNL A   1      41.318  24.120  27.809  1.00  0.00     0.018 A 
ATOM     10  C   UNL A   1      40.537  25.289  28.010  1.00  0.00     0.001 A 
BRANCH   6  11
ATOM     11  N   UNL A   1      38.119  21.976  26.060  1.00  0.00    -0.324 N 
ATOM     12  C   UNL A   1      36.549  21.904  25.687  1.00  0.00     0.244 C 
ATOM     13  O   UNL A   1      36.214  20.843  25.121  1.00  0.00    -0.273 OA
ATOM     14  H   UNL A   1      38.593  21.140  25.847  1.00  0.00     0.170 HD
BRANCH  12  15
ATOM     15  C   UNL A   1      35.238  23.308  25.601  1.00  0.00     0.230 C 
BRANCH  15  16
ATOM     16  N   UNL A   1      33.893  23.893  24.552  1.00  0.00    -0.259 N 
ATOM     17  C   UNL A   1      30.622  26.729  25.027  1.00  0.00     0.029 C 
ATOM     18  C   UNL A   1      31.444  25.740  24.606  1.00  0.00     0.083 C 
ATOM     19  S   UNL A   1      31.726  25.582  22.433  1.00  0.00    -0.022 SA
ATOM     20  C   UNL A   1      32.672  24.652  25.629  1.00  0.00     0.268 C 
ATOM     21  C   UNL A   1      33.501  24.121  22.684  1.00  0.00     0.294 C 
ATOM     22  O   UNL A   1      32.490  24.313  26.797  1.00  0.00    -0.268 OA
ATOM     23  O   UNL A   1      33.665  23.578  21.595  1.00  0.00    -0.261 OA
BRANCH  17  24
ATOM     24  C   UNL A   1      29.941  27.744  24.165  1.00  0.00    -0.021 A 
ATOM     25  C   UNL A   1      31.739  29.541  24.397  1.00  0.00     0.045 C 
ATOM     26  C   UNL A   1      30.405  29.048  23.923  1.00  0.00    -0.044 A 
ATOM     27  C   UNL A   1      29.584  29.973  23.233  1.00  0.00     0.004 A 
ATOM     28  C   UNL A   1      28.355  29.603  22.695  1.00  0.00     0.000 A 
ATOM     29  C   UNL A   1      28.717  27.399  23.566  1.00  0.00     0.008 A 
ATOM     30  C   UNL A   1      27.937  28.297  22.832  1.00  0.00     0.001 A 
ENDBRANCH  17  24
ENDBRANCH  15  16
ENDBRANCH  12  15
ENDBRANCH   6  11
ENDBRANCH   3   5
ENDBRANCH   2   3
ENDBRANCH   1   2
BRANCH   1  31
ATOM     31  C   UNL A   1      45.920  21.046  24.929  1.00  0.00     0.275 C 
BRANCH  31  32
ATOM     32  O   UNL A   1      46.032  22.261  26.133  1.00  0.00    -0.458 OA
BRANCH  32  33
ATOM     33  C   UNL A   1      45.701  23.666  26.414  1.00  0.00     0.338 C 
ATOM     34  O   UNL A   1      45.563  24.427  25.459  1.00  0.00    -0.246 OA
BRANCH  33  35
ATOM     35  C   UNL A   1      45.833  24.358  27.929  1.00  0.00     0.060 A 
ATOM     36  C   UNL A   1      44.607  23.641  28.807  1.00  0.00     0.016 A 
ATOM     37  C   UNL A   1      46.470  25.842  28.637  1.00  0.00     0.016 A 
ATOM     38  C   UNL A   1      43.929  24.159  30.529  1.00  0.00     0.010 A 
ATOM     39  C   UNL A   1      45.858  26.535  30.201  1.00  0.00     0.010 A 
ATOM     40  C   UNL A   1      44.604  25.700  31.227  1.00  0.00    -0.014 A 
BRANCH  40  41
ATOM     41  C   UNL A   1      43.780  26.701  32.023  1.00  0.00     0.031 A 
ATOM     42  C   UNL A   1      42.897  27.559  31.170  1.00  0.00     0.074 A 
ATOM     43  C   UNL A   1      43.540  26.668  33.384  1.00  0.00     0.049 A 
ATOM     44  N   UNL A   1      41.977  28.329  31.621  1.00  0.00    -0.248 NA
ATOM     45  C   UNL A   1      42.967  27.615  29.707  1.00  0.00     0.031 C 
ATOM     46  C   UNL A   1      42.325  27.161  34.051  1.00  0.00     0.029 A 
ATOM     47  N   UNL A   1      44.197  26.098  34.485  1.00  0.00    -0.354 N 
ATOM     48  C   UNL A   1      41.247  28.843  30.582  1.00  0.00     0.074 A 
ATOM     49  C   UNL A   1      41.903  28.363  29.399  1.00  0.00     0.031 C 
ATOM     50  C   UNL A   1      42.286  26.838  35.351  1.00  0.00     0.029 A 
ATOM     51  C   UNL A   1      43.619  26.451  35.723  1.00  0.00     0.049 A 
ATOM     52  H   UNL A   1      44.981  25.510  34.401  1.00  0.00     0.167 HD
ATOM     53  C   UNL A   1      40.151  29.583  30.888  1.00  0.00     0.034 A 
ATOM     54  C   UNL A   1      44.260  27.140  36.732  1.00  0.00     0.034 A 
ATOM     55  C   UNL A   1      40.201  29.991  32.315  1.00  0.00     0.049 A 
ATOM     56  C   UNL A   1      43.958  28.652  36.648  1.00  0.00     0.074 A 
ATOM     57  C   UNL A   1      39.467  29.698  33.451  1.00  0.00     0.029 A 
ATOM     58  N   UNL A   1      41.356  30.642  32.776  1.00  0.00    -0.354 N 
ATOM     59  N   UNL A   1      42.962  29.197  35.999  1.00  0.00    -0.248 NA
ATOM     60  C   UNL A   1      44.807  29.674  37.255  1.00  0.00     0.031 C 
ATOM     61  C   UNL A   1      40.252  30.058  34.592  1.00  0.00     0.029 A 
ATOM     62  C   UNL A   1      41.430  30.651  34.163  1.00  0.00     0.049 A 
ATOM     63  H   UNL A   1      42.034  31.043  32.186  1.00  0.00     0.167 HD
ATOM     64  C   UNL A   1      43.224  30.527  35.793  1.00  0.00     0.074 A 
ATOM     65  C   UNL A   1      44.327  30.795  36.698  1.00  0.00     0.031 C 
ATOM     66  C   UNL A   1      42.574  31.277  34.843  1.00  0.00     0.034 A 
BRANCH  53  67
ATOM     67  C   UNL A   1      38.982  29.857  29.947  1.00  0.00     0.023 A 
ATOM     68  C   UNL A   1      38.706  28.882  28.964  1.00  0.00     0.012 A 
ATOM     69  C   UNL A   1      38.207  31.048  29.862  1.00  0.00     0.148 A 
ATOM     70  C   UNL A   1      37.749  29.072  27.957  1.00  0.00     0.002 A 
ATOM     71  C   UNL A   1      37.207  31.215  28.894  1.00  0.00     0.091 A 
ATOM     72  F   UNL A   1      38.477  32.084  30.658  1.00  0.00    -0.205 F 
ATOM     73  C   UNL A   1      36.990  30.234  27.926  1.00  0.00     0.022 A 
BRANCH  71  74
ATOM     74  S   UNL A   1      36.154  32.683  28.806  1.00  0.00     0.127 S 
ATOM     75  O   UNL A   1      35.393  32.442  27.580  1.00  0.00    -0.237 OA
ATOM     76  O   UNL A   1      35.369  32.578  30.037  1.00  0.00    -0.237 OA
ATOM     77  O   UNL A   1      37.049  33.831  28.758  1.00  0.00    -0.744 OA
ENDBRANCH  71  74
ENDBRANCH  53  67
BRANCH  54  78
ATOM     78  C   UNL A   1      45.608  26.589  37.111  1.00  0.00     0.023 A 
ATOM     79  C   UNL A   1      46.654  26.962  36.238  1.00  0.00     0.012 A 
ATOM     80  C   UNL A   1      45.861  26.536  38.479  1.00  0.00     0.148 A 
ATOM     81  C   UNL A   1      47.706  27.707  36.758  1.00  0.00     0.002 A 
ATOM     82  C   UNL A   1      46.795  27.394  38.991  1.00  0.00     0.091 A 
ATOM     83  F   UNL A   1      45.114  25.774  39.280  1.00  0.00    -0.205 F 
ATOM     84  C   UNL A   1      47.702  28.002  38.123  1.00  0.00     0.022 A 
BRANCH  82  85
ATOM     85  S   UNL A   1      46.568  27.935  40.687  1.00  0.00     0.127 S 
ATOM     86  O   UNL A   1      45.128  27.777  40.902  1.00  0.00    -0.237 OA
ATOM     87  O   UNL A   1      47.387  26.987  41.431  1.00  0.00    -0.237 OA
ATOM     88  O   UNL A   1      47.030  29.318  40.684  1.00  0.00    -0.744 OA
ENDBRANCH  82  85
ENDBRANCH  54  78
BRANCH  66  89
ATOM     89  C   UNL A   1      42.935  32.721  34.508  1.00  0.00     0.023 A 
ATOM     90  C   UNL A   1      43.856  33.077  33.504  1.00  0.00     0.012 A 
ATOM     91  C   UNL A   1      42.305  33.798  35.183  1.00  0.00     0.148 A 
ATOM     92  C   UNL A   1      44.264  34.400  33.302  1.00  0.00     0.002 A 
ATOM     93  C   UNL A   1      42.601  35.120  34.873  1.00  0.00     0.091 A 
ATOM     94  F   UNL A   1      41.436  33.555  36.174  1.00  0.00    -0.205 F 
ATOM     95  C   UNL A   1      43.628  35.427  33.981  1.00  0.00     0.022 A 
BRANCH  93  96
ATOM     96  S   UNL A   1      41.604  36.477  35.500  1.00  0.00     0.127 S 
ATOM     97  O   UNL A   1      42.134  37.612  34.748  1.00  0.00    -0.237 OA
ATOM     98  O   UNL A   1      40.252  36.067  35.116  1.00  0.00    -0.237 OA
ATOM     99  O   UNL A   1      41.832  36.501  36.939  1.00  0.00    -0.744 OA
ENDBRANCH  93  96
ENDBRANCH  66  89
ENDBRANCH  40  41
ENDBRANCH  33  35
ENDBRANCH  32  33
ENDBRANCH  31  32
ENDBRANCH   1  31
TORSDOF 18
ENDMDL
