MODEL 1
REMARK VINA RESULT:     -12.7      0.000      0.000
REMARK SMILES Cc1cc(C)c2c(c1)C=C(C(=O)OCCOC(=O)c1ccc(-c3c4nc(c(-c5cccc(S(=O)(=O)[O-])c5F)c5ccc([nH]5)c(-c5cccc(S(=O)(=O)[O-])c5F)c5nc(c(-c6cccc(S(=O)(=O)[O-])c6F)c6ccc3[nH]6)C=C5)C=C4)cc1)[C@@H](C(F)(F)F)O2
REMARK SMILES IDX 15 1 14 2 13 3 11 4 12 5 10 6 1 7 2 8 3 9 8 10 4 11 7 12
REMARK SMILES IDX 5 13 6 14 9 15 87 16 82 17 83 18 84 19 85 20 86 21 16 22
REMARK SMILES IDX 17 23 18 24 19 25 20 26 81 27 21 28 80 29 22 30 23 31 24 32
REMARK SMILES IDX 74 33 25 34 79 35 73 36 75 37 26 38 78 39 72 40 71 41 27 43
REMARK SMILES IDX 59 44 39 45 58 46 40 47 43 48 57 49 76 50 41 51 42 52 56 54
REMARK SMILES IDX 77 55 44 56 28 57 29 58 37 59 30 60 32 61 38 62 31 63 33 64
REMARK SMILES IDX 34 65 35 66 36 67 60 68 61 69 69 70 62 71 64 72 70 73 63 74
REMARK SMILES IDX 65 75 66 76 67 77 68 78 45 79 46 80 54 81 47 82 49 83 55 84
REMARK SMILES IDX 48 85 50 86 51 87 52 88 53 89
REMARK H PARENT 75 42 43 53
REMARK Flexibility Score: inf
ROOT
ATOM      1  C   UNL A   1      31.630  30.172  25.599  1.00  0.00     0.275 C 
ENDROOT
BRANCH   1   2
ATOM      2  C   UNL A   1      31.456  28.792  24.964  1.00  0.00     0.275 C 
BRANCH   2   3
ATOM      3  O   UNL A   1      32.336  27.815  25.560  1.00  0.00    -0.459 OA
BRANCH   3   4
ATOM      4  C   UNL A   1      31.724  26.860  26.297  1.00  0.00     0.338 C 
ATOM      5  O   UNL A   1      30.876  27.041  27.159  1.00  0.00    -0.246 OA
BRANCH   4   6
ATOM      6  C   UNL A   1      32.215  25.518  25.935  1.00  0.00     0.087 C 
ATOM      7  C   UNL A   1      37.473  22.459  24.948  1.00  0.00     0.044 C 
ATOM      8  C   UNL A   1      35.987  22.672  24.976  1.00  0.00    -0.050 A 
ATOM      9  C   UNL A   1      35.120  21.722  24.423  1.00  0.00     0.010 A 
ATOM     10  C   UNL A   1      35.446  23.834  25.527  1.00  0.00     0.015 A 
ATOM     11  C   UNL A   1      33.727  21.920  24.424  1.00  0.00    -0.008 A 
ATOM     12  C   UNL A   1      34.061  24.047  25.519  1.00  0.00     0.018 A 
ATOM     13  C   UNL A   1      32.823  20.884  23.820  1.00  0.00     0.048 C 
ATOM     14  C   UNL A   1      33.198  23.094  24.978  1.00  0.00     0.130 A 
ATOM     15  C   UNL A   1      33.527  25.290  26.032  1.00  0.00     0.027 C 
ATOM     16  O   UNL A   1      31.836  23.246  24.970  1.00  0.00    -0.475 OA
ATOM     17  C   UNL A   1      31.262  24.534  25.329  1.00  0.00     0.316 C 
BRANCH  17  18
ATOM     18  C   UNL A   1      30.558  25.124  24.096  1.00  0.00     0.430 C 
ATOM     19  F   UNL A   1      31.419  25.844  23.336  1.00  0.00    -0.167 F 
ATOM     20  F   UNL A   1      30.064  24.152  23.290  1.00  0.00    -0.167 F 
ATOM     21  F   UNL A   1      29.531  25.938  24.425  1.00  0.00    -0.167 F 
ENDBRANCH  17  18
ENDBRANCH   4   6
ENDBRANCH   3   4
ENDBRANCH   2   3
ENDBRANCH   1   2
BRANCH   1  22
ATOM     22  O   UNL A   1      32.398  30.082  26.811  1.00  0.00    -0.458 OA
BRANCH  22  23
ATOM     23  C   UNL A   1      33.017  31.229  27.170  1.00  0.00     0.338 C 
ATOM     24  O   UNL A   1      32.500  32.320  27.350  1.00  0.00    -0.246 OA
BRANCH  23  25
ATOM     25  C   UNL A   1      34.444  30.995  27.432  1.00  0.00     0.060 A 
ATOM     26  C   UNL A   1      34.868  29.688  27.628  1.00  0.00     0.016 A 
ATOM     27  C   UNL A   1      35.284  32.057  27.752  1.00  0.00     0.016 A 
ATOM     28  C   UNL A   1      36.032  29.441  28.346  1.00  0.00     0.010 A 
ATOM     29  C   UNL A   1      36.536  31.794  28.314  1.00  0.00     0.010 A 
ATOM     30  C   UNL A   1      36.898  30.486  28.691  1.00  0.00    -0.014 A 
BRANCH  30  31
ATOM     31  C   UNL A   1      38.149  30.230  29.465  1.00  0.00     0.031 A 
ATOM     32  C   UNL A   1      39.231  29.346  28.885  1.00  0.00     0.074 A 
ATOM     33  C   UNL A   1      38.326  30.769  30.689  1.00  0.00     0.049 A 
ATOM     34  N   UNL A   1      40.254  28.791  29.482  1.00  0.00    -0.248 NA
ATOM     35  C   UNL A   1      39.139  29.031  27.448  1.00  0.00     0.031 C 
ATOM     36  C   UNL A   1      37.400  31.686  31.358  1.00  0.00     0.029 A 
ATOM     37  N   UNL A   1      39.343  30.612  31.601  1.00  0.00    -0.354 N 
ATOM     38  C   UNL A   1      40.873  27.995  28.522  1.00  0.00     0.074 A 
ATOM     39  C   UNL A   1      40.116  28.147  27.299  1.00  0.00     0.031 C 
ATOM     40  C   UNL A   1      37.899  32.032  32.552  1.00  0.00     0.029 A 
ATOM     41  C   UNL A   1      39.114  31.268  32.791  1.00  0.00     0.049 A 
ATOM     42  H   UNL A   1      40.154  30.083  31.421  1.00  0.00     0.167 HD
ATOM     43  C   UNL A   1      41.975  27.216  28.649  1.00  0.00     0.034 A 
ATOM     44  C   UNL A   1      39.761  31.212  33.970  1.00  0.00     0.034 A 
ATOM     45  C   UNL A   1      42.764  27.134  29.852  1.00  0.00     0.049 A 
ATOM     46  C   UNL A   1      40.955  30.312  34.100  1.00  0.00     0.074 A 
ATOM     47  C   UNL A   1      43.913  26.395  30.077  1.00  0.00     0.029 A 
ATOM     48  N   UNL A   1      42.497  27.822  31.026  1.00  0.00    -0.354 N 
ATOM     49  N   UNL A   1      41.528  29.566  33.187  1.00  0.00    -0.248 NA
ATOM     50  C   UNL A   1      41.596  30.250  35.420  1.00  0.00     0.031 C 
ATOM     51  C   UNL A   1      44.324  26.616  31.395  1.00  0.00     0.029 A 
ATOM     52  C   UNL A   1      43.454  27.520  31.982  1.00  0.00     0.049 A 
ATOM     53  H   UNL A   1      41.740  28.435  31.161  1.00  0.00     0.167 HD
ATOM     54  C   UNL A   1      42.607  28.958  33.816  1.00  0.00     0.074 A 
ATOM     55  C   UNL A   1      42.629  29.455  35.177  1.00  0.00     0.031 C 
ATOM     56  C   UNL A   1      43.486  28.051  33.321  1.00  0.00     0.034 A 
BRANCH  43  57
ATOM     57  C   UNL A   1      42.416  26.399  27.459  1.00  0.00     0.023 A 
ATOM     58  C   UNL A   1      43.280  26.962  26.497  1.00  0.00     0.012 A 
ATOM     59  C   UNL A   1      42.047  25.042  27.341  1.00  0.00     0.148 A 
ATOM     60  C   UNL A   1      43.745  26.198  25.426  1.00  0.00     0.002 A 
ATOM     61  C   UNL A   1      42.556  24.274  26.299  1.00  0.00     0.091 A 
ATOM     62  F   UNL A   1      41.212  24.526  28.254  1.00  0.00    -0.205 F 
ATOM     63  C   UNL A   1      43.395  24.854  25.334  1.00  0.00     0.022 A 
BRANCH  61  64
ATOM     64  S   UNL A   1      42.240  22.512  26.142  1.00  0.00     0.127 S 
ATOM     65  O   UNL A   1      42.926  22.199  24.888  1.00  0.00    -0.237 OA
ATOM     66  O   UNL A   1      42.887  21.977  27.339  1.00  0.00    -0.237 OA
ATOM     67  O   UNL A   1      40.792  22.361  26.109  1.00  0.00    -0.744 OA
ENDBRANCH  61  64
ENDBRANCH  43  57
BRANCH  44  68
ATOM     68  C   UNL A   1      39.280  32.038  35.117  1.00  0.00     0.023 A 
ATOM     69  C   UNL A   1      38.394  31.467  36.050  1.00  0.00     0.012 A 
ATOM     70  C   UNL A   1      39.742  33.354  35.326  1.00  0.00     0.148 A 
ATOM     71  C   UNL A   1      37.966  32.194  37.162  1.00  0.00     0.002 A 
ATOM     72  C   UNL A   1      39.367  34.047  36.471  1.00  0.00     0.091 A 
ATOM     73  F   UNL A   1      40.572  33.887  34.418  1.00  0.00    -0.205 F 
ATOM     74  C   UNL A   1      38.465  33.476  37.381  1.00  0.00     0.022 A 
BRANCH  72  75
ATOM     75  S   UNL A   1      40.079  35.635  36.917  1.00  0.00     0.127 S 
ATOM     76  O   UNL A   1      39.630  36.483  35.815  1.00  0.00    -0.237 OA
ATOM     77  O   UNL A   1      39.434  35.902  38.203  1.00  0.00    -0.237 OA
ATOM     78  O   UNL A   1      41.517  35.417  36.998  1.00  0.00    -0.744 OA
ENDBRANCH  72  75
ENDBRANCH  44  68
BRANCH  56  79
ATOM     79  C   UNL A   1      44.559  27.545  34.250  1.00  0.00     0.023 A 
ATOM     80  C   UNL A   1      45.743  28.291  34.421  1.00  0.00     0.012 A 
ATOM     81  C   UNL A   1      44.366  26.372  35.005  1.00  0.00     0.148 A 
ATOM     82  C   UNL A   1      46.734  27.856  35.298  1.00  0.00     0.002 A 
ATOM     83  C   UNL A   1      45.334  25.976  35.920  1.00  0.00     0.091 A 
ATOM     84  F   UNL A   1      43.242  25.666  34.817  1.00  0.00    -0.205 F 
ATOM     85  C   UNL A   1      46.526  26.707  36.056  1.00  0.00     0.022 A 
BRANCH  83  86
ATOM     86  S   UNL A   1      45.108  24.571  37.017  1.00  0.00     0.127 S 
ATOM     87  O   UNL A   1      46.448  24.414  37.580  1.00  0.00    -0.237 OA
ATOM     88  O   UNL A   1      44.106  25.072  37.958  1.00  0.00    -0.237 OA
ATOM     89  O   UNL A   1      44.653  23.473  36.175  1.00  0.00    -0.744 OA
ENDBRANCH  83  86
ENDBRANCH  56  79
ENDBRANCH  30  31
ENDBRANCH  23  25
ENDBRANCH  22  23
ENDBRANCH   1  22
TORSDOF 15
ENDMDL
MODEL 2
REMARK VINA RESULT:     -12.6      4.742      9.909
REMARK SMILES Cc1cc(C)c2c(c1)C=C(C(=O)OCCOC(=O)c1ccc(-c3c4nc(c(-c5cccc(S(=O)(=O)[O-])c5F)c5ccc([nH]5)c(-c5cccc(S(=O)(=O)[O-])c5F)c5nc(c(-c6cccc(S(=O)(=O)[O-])c6F)c6ccc3[nH]6)C=C5)C=C4)cc1)[C@@H](C(F)(F)F)O2
REMARK SMILES IDX 15 1 14 2 13 3 11 4 12 5 10 6 1 7 2 8 3 9 8 10 4 11 7 12
REMARK SMILES IDX 5 13 6 14 9 15 87 16 82 17 83 18 84 19 85 20 86 21 16 22
REMARK SMILES IDX 17 23 18 24 19 25 20 26 81 27 21 28 80 29 22 30 23 31 24 32
REMARK SMILES IDX 74 33 25 34 79 35 73 36 75 37 26 38 78 39 72 40 71 41 27 43
REMARK SMILES IDX 59 44 39 45 58 46 40 47 43 48 57 49 76 50 41 51 42 52 56 54
REMARK SMILES IDX 77 55 44 56 28 57 29 58 37 59 30 60 32 61 38 62 31 63 33 64
REMARK SMILES IDX 34 65 35 66 36 67 60 68 61 69 69 70 62 71 64 72 70 73 63 74
REMARK SMILES IDX 65 75 66 76 67 77 68 78 45 79 46 80 54 81 47 82 49 83 55 84
REMARK SMILES IDX 48 85 50 86 51 87 52 88 53 89
REMARK H PARENT 75 42 43 53
REMARK Flexibility Score: inf
ROOT
ATOM      1  C   UNL A   1      36.434  20.633  24.947  1.00  0.00     0.275 C 
ENDROOT
BRANCH   1   2
ATOM      2  C   UNL A   1      35.119  21.415  24.946  1.00  0.00     0.275 C 
BRANCH   2   3
ATOM      3  O   UNL A   1      35.344  22.837  24.833  1.00  0.00    -0.459 OA
BRANCH   3   4
ATOM      4  C   UNL A   1      35.070  23.371  23.620  1.00  0.00     0.338 C 
ATOM      5  O   UNL A   1      35.546  23.022  22.550  1.00  0.00    -0.246 OA
BRANCH   4   6
ATOM      6  C   UNL A   1      34.094  24.469  23.735  1.00  0.00     0.087 C 
ATOM      7  C   UNL A   1      32.672  29.235  27.375  1.00  0.00     0.044 C 
ATOM      8  C   UNL A   1      32.489  28.257  26.251  1.00  0.00    -0.050 A 
ATOM      9  C   UNL A   1      31.299  28.233  25.513  1.00  0.00     0.010 A 
ATOM     10  C   UNL A   1      33.490  27.336  25.939  1.00  0.00     0.015 A 
ATOM     11  C   UNL A   1      31.108  27.308  24.470  1.00  0.00    -0.008 A 
ATOM     12  C   UNL A   1      33.302  26.401  24.913  1.00  0.00     0.018 A 
ATOM     13  C   UNL A   1      29.819  27.305  23.699  1.00  0.00     0.048 C 
ATOM     14  C   UNL A   1      32.121  26.387  24.172  1.00  0.00     0.130 A 
ATOM     15  C   UNL A   1      34.324  25.410  24.655  1.00  0.00     0.027 C 
ATOM     16  O   UNL A   1      31.902  25.509  23.142  1.00  0.00    -0.475 OA
ATOM     17  C   UNL A   1      32.824  24.400  22.944  1.00  0.00     0.316 C 
BRANCH  17  18
ATOM     18  C   UNL A   1      32.077  23.082  23.200  1.00  0.00     0.430 C 
ATOM     19  F   UNL A   1      32.176  22.704  24.499  1.00  0.00    -0.167 F 
ATOM     20  F   UNL A   1      30.751  23.200  22.941  1.00  0.00    -0.167 F 
ATOM     21  F   UNL A   1      32.547  22.064  22.446  1.00  0.00    -0.167 F 
ENDBRANCH  17  18
ENDBRANCH   4   6
ENDBRANCH   3   4
ENDBRANCH   2   3
ENDBRANCH   1   2
BRANCH   1  22
ATOM     22  O   UNL A   1      37.558  21.526  24.850  1.00  0.00    -0.458 OA
BRANCH  22  23
ATOM     23  C   UNL A   1      38.627  21.165  25.593  1.00  0.00     0.338 C 
ATOM     24  O   UNL A   1      39.231  20.105  25.549  1.00  0.00    -0.246 OA
BRANCH  23  25
ATOM     25  C   UNL A   1      39.075  22.278  26.442  1.00  0.00     0.060 A 
ATOM     26  C   UNL A   1      38.590  23.549  26.165  1.00  0.00     0.016 A 
ATOM     27  C   UNL A   1      40.156  22.115  27.302  1.00  0.00     0.016 A 
ATOM     28  C   UNL A   1      39.315  24.666  26.565  1.00  0.00     0.010 A 
ATOM     29  C   UNL A   1      40.774  23.245  27.846  1.00  0.00     0.010 A 
ATOM     30  C   UNL A   1      40.413  24.539  27.425  1.00  0.00    -0.014 A 
BRANCH  30  31
ATOM     31  C   UNL A   1      41.198  25.733  27.857  1.00  0.00     0.031 A 
ATOM     32  C   UNL A   1      40.543  26.809  28.695  1.00  0.00     0.074 A 
ATOM     33  C   UNL A   1      42.491  25.875  27.497  1.00  0.00     0.049 A 
ATOM     34  N   UNL A   1      40.953  28.024  28.950  1.00  0.00    -0.248 NA
ATOM     35  C   UNL A   1      39.246  26.478  29.313  1.00  0.00     0.031 C 
ATOM     36  C   UNL A   1      43.277  24.899  26.740  1.00  0.00     0.029 A 
ATOM     37  N   UNL A   1      43.373  26.908  27.709  1.00  0.00    -0.354 N 
ATOM     38  C   UNL A   1      39.933  28.630  29.677  1.00  0.00     0.074 A 
ATOM     39  C   UNL A   1      38.886  27.644  29.833  1.00  0.00     0.031 C 
ATOM     40  C   UNL A   1      44.523  25.360  26.576  1.00  0.00     0.029 A 
ATOM     41  C   UNL A   1      44.594  26.715  27.102  1.00  0.00     0.049 A 
ATOM     42  H   UNL A   1      43.154  27.707  28.242  1.00  0.00     0.167 HD
ATOM     43  C   UNL A   1      39.879  29.890  30.175  1.00  0.00     0.034 A 
ATOM     44  C   UNL A   1      45.634  27.552  26.919  1.00  0.00     0.034 A 
ATOM     45  C   UNL A   1      40.960  30.836  30.078  1.00  0.00     0.049 A 
ATOM     46  C   UNL A   1      45.535  28.954  27.444  1.00  0.00     0.074 A 
ATOM     47  C   UNL A   1      41.017  32.129  30.570  1.00  0.00     0.029 A 
ATOM     48  N   UNL A   1      42.178  30.592  29.461  1.00  0.00    -0.354 N 
ATOM     49  N   UNL A   1      44.568  29.513  28.128  1.00  0.00    -0.248 NA
ATOM     50  C   UNL A   1      46.676  29.841  27.177  1.00  0.00     0.031 C 
ATOM     51  C   UNL A   1      42.258  32.673  30.228  1.00  0.00     0.029 A 
ATOM     52  C   UNL A   1      42.991  31.710  29.553  1.00  0.00     0.049 A 
ATOM     53  H   UNL A   1      42.429  29.747  29.023  1.00  0.00     0.167 HD
ATOM     54  C   UNL A   1      44.987  30.811  28.389  1.00  0.00     0.074 A 
ATOM     55  C   UNL A   1      46.314  30.941  27.821  1.00  0.00     0.031 C 
ATOM     56  C   UNL A   1      44.324  31.814  29.018  1.00  0.00     0.034 A 
BRANCH  43  57
ATOM     57  C   UNL A   1      38.622  30.324  30.888  1.00  0.00     0.023 A 
ATOM     58  C   UNL A   1      38.492  30.123  32.277  1.00  0.00     0.012 A 
ATOM     59  C   UNL A   1      37.605  31.016  30.196  1.00  0.00     0.148 A 
ATOM     60  C   UNL A   1      37.363  30.577  32.959  1.00  0.00     0.002 A 
ATOM     61  C   UNL A   1      36.507  31.511  30.893  1.00  0.00     0.091 A 
ATOM     62  F   UNL A   1      37.734  31.186  28.873  1.00  0.00    -0.205 F 
ATOM     63  C   UNL A   1      36.378  31.280  32.272  1.00  0.00     0.022 A 
BRANCH  61  64
ATOM     64  S   UNL A   1      35.228  32.508  30.117  1.00  0.00     0.127 S 
ATOM     65  O   UNL A   1      34.300  32.715  31.229  1.00  0.00    -0.237 OA
ATOM     66  O   UNL A   1      35.973  33.702  29.717  1.00  0.00    -0.237 OA
ATOM     67  O   UNL A   1      34.707  31.714  29.014  1.00  0.00    -0.744 OA
ENDBRANCH  61  64
ENDBRANCH  43  57
BRANCH  44  68
ATOM     68  C   UNL A   1      46.852  27.071  26.202  1.00  0.00     0.023 A 
ATOM     69  C   UNL A   1      46.985  27.330  24.825  1.00  0.00     0.012 A 
ATOM     70  C   UNL A   1      47.903  26.422  26.883  1.00  0.00     0.148 A 
ATOM     71  C   UNL A   1      48.135  26.942  24.136  1.00  0.00     0.002 A 
ATOM     72  C   UNL A   1      49.073  26.100  26.206  1.00  0.00     0.091 A 
ATOM     73  F   UNL A   1      47.751  26.168  28.191  1.00  0.00    -0.205 F 
ATOM     74  C   UNL A   1      49.184  26.343  24.829  1.00  0.00     0.022 A 
BRANCH  72  75
ATOM     75  S   UNL A   1      50.533  25.472  27.044  1.00  0.00     0.127 S 
ATOM     76  O   UNL A   1      50.864  26.580  27.937  1.00  0.00    -0.237 OA
ATOM     77  O   UNL A   1      50.007  24.280  27.709  1.00  0.00    -0.237 OA
ATOM     78  O   UNL A   1      51.506  25.197  25.995  1.00  0.00    -0.744 OA
ENDBRANCH  72  75
ENDBRANCH  44  68
BRANCH  56  79
ATOM     79  C   UNL A   1      45.029  33.140  29.142  1.00  0.00     0.023 A 
ATOM     80  C   UNL A   1      45.870  33.382  30.247  1.00  0.00     0.012 A 
ATOM     81  C   UNL A   1      44.913  34.117  28.134  1.00  0.00     0.148 A 
ATOM     82  C   UNL A   1      46.554  34.590  30.365  1.00  0.00     0.002 A 
ATOM     83  C   UNL A   1      45.642  35.296  28.231  1.00  0.00     0.091 A 
ATOM     84  F   UNL A   1      44.094  33.877  27.100  1.00  0.00    -0.205 F 
ATOM     85  C   UNL A   1      46.451  35.541  29.354  1.00  0.00     0.022 A 
BRANCH  83  86
ATOM     86  S   UNL A   1      45.657  36.532  26.928  1.00  0.00     0.127 S 
ATOM     87  O   UNL A   1      46.151  35.759  25.790  1.00  0.00    -0.237 OA
ATOM     88  O   UNL A   1      44.244  36.907  26.843  1.00  0.00    -0.237 OA
ATOM     89  O   UNL A   1      46.539  37.595  27.391  1.00  0.00    -0.744 OA
ENDBRANCH  83  86
ENDBRANCH  56  79
ENDBRANCH  30  31
ENDBRANCH  23  25
ENDBRANCH  22  23
ENDBRANCH   1  22
TORSDOF 15
ENDMDL
MODEL 3
REMARK VINA RESULT:     -12.6      1.276      1.600
REMARK SMILES Cc1cc(C)c2c(c1)C=C(C(=O)OCCOC(=O)c1ccc(-c3c4nc(c(-c5cccc(S(=O)(=O)[O-])c5F)c5ccc([nH]5)c(-c5cccc(S(=O)(=O)[O-])c5F)c5nc(c(-c6cccc(S(=O)(=O)[O-])c6F)c6ccc3[nH]6)C=C5)C=C4)cc1)[C@@H](C(F)(F)F)O2
REMARK SMILES IDX 15 1 14 2 13 3 11 4 12 5 10 6 1 7 2 8 3 9 8 10 4 11 7 12
REMARK SMILES IDX 5 13 6 14 9 15 87 16 82 17 83 18 84 19 85 20 86 21 16 22
REMARK SMILES IDX 17 23 18 24 19 25 20 26 81 27 21 28 80 29 22 30 23 31 24 32
REMARK SMILES IDX 74 33 25 34 79 35 73 36 75 37 26 38 78 39 72 40 71 41 27 43
REMARK SMILES IDX 59 44 39 45 58 46 40 47 43 48 57 49 76 50 41 51 42 52 56 54
REMARK SMILES IDX 77 55 44 56 28 57 29 58 37 59 30 60 32 61 38 62 31 63 33 64
REMARK SMILES IDX 34 65 35 66 36 67 60 68 61 69 69 70 62 71 64 72 70 73 63 74
REMARK SMILES IDX 65 75 66 76 67 77 68 78 45 79 46 80 54 81 47 82 49 83 55 84
REMARK SMILES IDX 48 85 50 86 51 87 52 88 53 89
REMARK H PARENT 75 42 43 53
REMARK Flexibility Score: inf
ROOT
ATOM      1  C   UNL A   1      31.946  30.560  26.260  1.00  0.00     0.275 C 
ENDROOT
BRANCH   1   2
ATOM      2  C   UNL A   1      32.101  29.294  25.416  1.00  0.00     0.275 C 
BRANCH   2   3
ATOM      3  O   UNL A   1      32.723  28.227  26.163  1.00  0.00    -0.459 OA
BRANCH   3   4
ATOM      4  C   UNL A   1      31.878  27.282  26.635  1.00  0.00     0.338 C 
ATOM      5  O   UNL A   1      30.929  27.466  27.384  1.00  0.00    -0.246 OA
BRANCH   4   6
ATOM      6  C   UNL A   1      32.242  25.947  26.129  1.00  0.00     0.087 C 
ATOM      7  C   UNL A   1      37.155  22.711  24.291  1.00  0.00     0.044 C 
ATOM      8  C   UNL A   1      35.698  22.994  24.520  1.00  0.00    -0.050 A 
ATOM      9  C   UNL A   1      34.716  22.129  24.021  1.00  0.00     0.010 A 
ATOM     10  C   UNL A   1      35.296  24.139  25.208  1.00  0.00     0.015 A 
ATOM     11  C   UNL A   1      33.348  22.395  24.210  1.00  0.00    -0.008 A 
ATOM     12  C   UNL A   1      33.936  24.420  25.388  1.00  0.00     0.018 A 
ATOM     13  C   UNL A   1      32.318  21.451  23.660  1.00  0.00     0.048 C 
ATOM     14  C   UNL A   1      32.960  23.551  24.901  1.00  0.00     0.130 A 
ATOM     15  C   UNL A   1      33.541  25.648  26.043  1.00  0.00     0.027 C 
ATOM     16  O   UNL A   1      31.618  23.770  25.075  1.00  0.00    -0.475 OA
ATOM     17  C   UNL A   1      31.167  25.057  25.586  1.00  0.00     0.316 C 
BRANCH  17  18
ATOM     18  C   UNL A   1      30.352  25.766  24.492  1.00  0.00     0.430 C 
ATOM     19  F   UNL A   1      29.260  26.380  25.012  1.00  0.00    -0.167 F 
ATOM     20  F   UNL A   1      31.075  26.735  23.879  1.00  0.00    -0.167 F 
ATOM     21  F   UNL A   1      29.920  24.915  23.534  1.00  0.00    -0.167 F 
ENDBRANCH  17  18
ENDBRANCH   4   6
ENDBRANCH   3   4
ENDBRANCH   2   3
ENDBRANCH   1   2
BRANCH   1  22
ATOM     22  O   UNL A   1      32.805  30.512  27.413  1.00  0.00    -0.458 OA
BRANCH  22  23
ATOM     23  C   UNL A   1      33.571  31.612  27.588  1.00  0.00     0.338 C 
ATOM     24  O   UNL A   1      33.191  32.769  27.670  1.00  0.00    -0.246 OA
BRANCH  23  25
ATOM     25  C   UNL A   1      34.981  31.243  27.777  1.00  0.00     0.060 A 
ATOM     26  C   UNL A   1      35.285  29.906  27.992  1.00  0.00     0.016 A 
ATOM     27  C   UNL A   1      35.939  32.224  28.015  1.00  0.00     0.016 A 
ATOM     28  C   UNL A   1      36.459  29.563  28.652  1.00  0.00     0.010 A 
ATOM     29  C   UNL A   1      37.190  31.852  28.515  1.00  0.00     0.010 A 
ATOM     30  C   UNL A   1      37.442  30.526  28.915  1.00  0.00    -0.014 A 
BRANCH  30  31
ATOM     31  C   UNL A   1      38.706  30.166  29.625  1.00  0.00     0.031 A 
ATOM     32  C   UNL A   1      39.668  29.177  29.007  1.00  0.00     0.074 A 
ATOM     33  C   UNL A   1      38.998  30.707  30.827  1.00  0.00     0.049 A 
ATOM     34  N   UNL A   1      40.667  28.539  29.560  1.00  0.00    -0.248 NA
ATOM     35  C   UNL A   1      39.469  28.848  27.585  1.00  0.00     0.031 C 
ATOM     36  C   UNL A   1      38.199  31.716  31.525  1.00  0.00     0.029 A 
ATOM     37  N   UNL A   1      40.045  30.470  31.686  1.00  0.00    -0.354 N 
ATOM     38  C   UNL A   1      41.157  27.673  28.586  1.00  0.00     0.074 A 
ATOM     39  C   UNL A   1      40.351  27.875  27.402  1.00  0.00     0.031 C 
ATOM     40  C   UNL A   1      38.793  32.034  32.682  1.00  0.00     0.029 A 
ATOM     41  C   UNL A   1      39.944  31.163  32.872  1.00  0.00     0.049 A 
ATOM     42  H   UNL A   1      40.793  29.866  31.475  1.00  0.00     0.167 HD
ATOM     43  C   UNL A   1      42.188  26.797  28.671  1.00  0.00     0.034 A 
ATOM     44  C   UNL A   1      40.647  31.067  34.017  1.00  0.00     0.034 A 
ATOM     45  C   UNL A   1      43.031  26.661  29.830  1.00  0.00     0.049 A 
ATOM     46  C   UNL A   1      41.758  30.062  34.101  1.00  0.00     0.074 A 
ATOM     47  C   UNL A   1      44.117  25.823  30.010  1.00  0.00     0.029 A 
ATOM     48  N   UNL A   1      42.893  27.390  31.003  1.00  0.00    -0.354 N 
ATOM     49  N   UNL A   1      42.209  29.251  33.175  1.00  0.00    -0.248 NA
ATOM     50  C   UNL A   1      42.463  29.962  35.386  1.00  0.00     0.031 C 
ATOM     51  C   UNL A   1      44.619  26.026  31.299  1.00  0.00     0.029 A 
ATOM     52  C   UNL A   1      43.869  27.016  31.912  1.00  0.00     0.049 A 
ATOM     53  H   UNL A   1      42.204  28.073  31.165  1.00  0.00     0.167 HD
ATOM     54  C   UNL A   1      43.261  28.556  33.758  1.00  0.00     0.074 A 
ATOM     55  C   UNL A   1      43.403  29.070  35.105  1.00  0.00     0.031 C 
ATOM     56  C   UNL A   1      44.024  27.563  33.236  1.00  0.00     0.034 A 
BRANCH  43  57
ATOM     57  C   UNL A   1      42.485  25.924  27.476  1.00  0.00     0.023 A 
ATOM     58  C   UNL A   1      43.309  26.404  26.437  1.00  0.00     0.012 A 
ATOM     59  C   UNL A   1      42.022  24.592  27.425  1.00  0.00     0.148 A 
ATOM     60  C   UNL A   1      43.643  25.585  25.358  1.00  0.00     0.002 A 
ATOM     61  C   UNL A   1      42.402  23.766  26.372  1.00  0.00     0.091 A 
ATOM     62  F   UNL A   1      41.227  24.154  28.412  1.00  0.00    -0.205 F 
ATOM     63  C   UNL A   1      43.202  24.266  25.331  1.00  0.00     0.022 A 
BRANCH  61  64
ATOM     64  S   UNL A   1      41.963  22.025  26.290  1.00  0.00     0.127 S 
ATOM     65  O   UNL A   1      40.518  22.095  26.074  1.00  0.00    -0.237 OA
ATOM     66  O   UNL A   1      42.730  21.571  25.130  1.00  0.00    -0.237 OA
ATOM     67  O   UNL A   1      42.372  21.444  27.561  1.00  0.00    -0.744 OA
ENDBRANCH  61  64
ENDBRANCH  43  57
BRANCH  44  68
ATOM     68  C   UNL A   1      40.308  31.952  35.170  1.00  0.00     0.023 A 
ATOM     69  C   UNL A   1      40.986  33.175  35.320  1.00  0.00     0.012 A 
ATOM     70  C   UNL A   1      39.278  31.622  36.076  1.00  0.00     0.148 A 
ATOM     71  C   UNL A   1      40.657  34.050  36.356  1.00  0.00     0.002 A 
ATOM     72  C   UNL A   1      38.909  32.528  37.064  1.00  0.00     0.091 A 
ATOM     73  F   UNL A   1      38.655  30.445  35.929  1.00  0.00    -0.205 F 
ATOM     74  C   UNL A   1      39.608  33.734  37.217  1.00  0.00     0.022 A 
BRANCH  72  75
ATOM     75  S   UNL A   1      37.473  32.279  38.115  1.00  0.00     0.127 S 
ATOM     76  O   UNL A   1      37.900  32.915  39.359  1.00  0.00    -0.237 OA
ATOM     77  O   UNL A   1      36.434  33.001  37.379  1.00  0.00    -0.237 OA
ATOM     78  O   UNL A   1      37.273  30.838  38.180  1.00  0.00    -0.744 OA
ENDBRANCH  72  75
ENDBRANCH  44  68
BRANCH  56  79
ATOM     79  C   UNL A   1      45.095  26.975  34.117  1.00  0.00     0.023 A 
ATOM     80  C   UNL A   1      46.355  27.601  34.196  1.00  0.00     0.012 A 
ATOM     81  C   UNL A   1      44.833  25.846  34.918  1.00  0.00     0.148 A 
ATOM     82  C   UNL A   1      47.349  27.090  35.028  1.00  0.00     0.002 A 
ATOM     83  C   UNL A   1      45.810  25.376  35.787  1.00  0.00     0.091 A 
ATOM     84  F   UNL A   1      43.635  25.252  34.816  1.00  0.00    -0.205 F 
ATOM     85  C   UNL A   1      47.074  25.987  35.831  1.00  0.00     0.022 A 
BRANCH  83  86
ATOM     86  S   UNL A   1      45.512  24.029  36.937  1.00  0.00     0.127 S 
ATOM     87  O   UNL A   1      46.843  23.825  37.507  1.00  0.00    -0.237 OA
ATOM     88  O   UNL A   1      44.538  24.618  37.857  1.00  0.00    -0.237 OA
ATOM     89  O   UNL A   1      44.999  22.924  36.138  1.00  0.00    -0.744 OA
ENDBRANCH  83  86
ENDBRANCH  56  79
ENDBRANCH  30  31
ENDBRANCH  23  25
ENDBRANCH  22  23
ENDBRANCH   1  22
TORSDOF 15
ENDMDL
