MODEL 1
REMARK VINA RESULT:     -11.0      0.000      0.000
REMARK SMILES C[C@@H]([C@H](C)O)[C@@H](Cc1ccccc1)C(=O)OCCOC(=O)c1ccc(-c2c3nc(c(-c4cccc(S(=O)(=O)[O-])c4F)c4ccc([nH]4)c(-c4cccc(S(=O)(=O)[O-])c4F)c4nc(c(-c5cccc(S(=O)(=O)[O-])c5F)c5ccc2[nH]5)C=C4)C=C3)cc1
REMARK SMILES IDX 17 1 16 2 14 3 15 4 6 5 2 6 1 7 3 8 4 9 5 10 7 12 8 13 9 14
REMARK SMILES IDX 13 15 10 16 12 17 11 18 18 19 19 20 20 21 21 22 22 23 23 24
REMARK SMILES IDX 84 25 24 26 83 27 25 28 26 29 27 30 77 31 28 32 82 33 76 34
REMARK SMILES IDX 78 35 29 36 81 37 75 38 74 39 30 41 62 42 42 43 61 44 43 45
REMARK SMILES IDX 46 46 60 47 79 48 44 49 45 50 59 52 80 53 47 54 31 55 32 56
REMARK SMILES IDX 40 57 33 58 35 59 41 60 34 61 36 62 37 63 38 64 39 65 63 66
REMARK SMILES IDX 64 67 72 68 65 69 67 70 73 71 66 72 68 73 69 74 70 75 71 76
REMARK SMILES IDX 48 77 49 78 57 79 50 80 52 81 58 82 51 83 53 84 54 85 55 86
REMARK SMILES IDX 56 87
REMARK H PARENT 5 11 78 40 46 51
REMARK Flexibility Score: inf
ROOT
ATOM      1  C   UNL A   1      32.908  28.754  25.046  1.00  0.00     0.274 C 
ENDROOT
BRANCH   1   2
ATOM      2  O   UNL A   1      32.585  27.667  25.933  1.00  0.00    -0.462 OA
BRANCH   2   3
ATOM      3  C   UNL A   1      31.451  26.991  25.622  1.00  0.00     0.309 C 
ATOM      4  O   UNL A   1      30.656  26.542  26.443  1.00  0.00    -0.252 OA
BRANCH   3   5
ATOM      5  C   UNL A   1      31.283  26.719  24.132  1.00  0.00     0.109 C 
BRANCH   5   6
ATOM      6  C   UNL A   1      31.930  25.416  23.571  1.00  0.00     0.029 C 
ATOM      7  C   UNL A   1      30.870  24.309  23.418  1.00  0.00     0.011 C 
BRANCH   6   8
ATOM      8  C   UNL A   1      32.714  25.648  22.242  1.00  0.00     0.115 C 
ATOM      9  C   UNL A   1      33.492  26.957  22.108  1.00  0.00     0.038 C 
BRANCH   8  10
ATOM     10  O   UNL A   1      31.770  25.603  21.165  1.00  0.00    -0.393 OA
ATOM     11  H   UNL A   1      31.734  24.703  20.806  1.00  0.00     0.210 HD
ENDBRANCH   8  10
ENDBRANCH   6   8
ENDBRANCH   5   6
BRANCH   5  12
ATOM     12  C   UNL A   1      29.764  26.888  23.856  1.00  0.00     0.051 C 
BRANCH  12  13
ATOM     13  C   UNL A   1      29.376  28.159  23.127  1.00  0.00    -0.047 A 
ATOM     14  C   UNL A   1      30.317  28.907  22.409  1.00  0.00     0.004 A 
ATOM     15  C   UNL A   1      28.040  28.590  23.130  1.00  0.00     0.004 A 
ATOM     16  C   UNL A   1      29.930  30.030  21.677  1.00  0.00     0.000 A 
ATOM     17  C   UNL A   1      27.657  29.725  22.414  1.00  0.00     0.000 A 
ATOM     18  C   UNL A   1      28.599  30.439  21.679  1.00  0.00     0.000 A 
ENDBRANCH  12  13
ENDBRANCH   5  12
ENDBRANCH   3   5
ENDBRANCH   2   3
ENDBRANCH   1   2
BRANCH   1  19
ATOM     19  C   UNL A   1      32.267  30.064  25.498  1.00  0.00     0.275 C 
BRANCH  19  20
ATOM     20  O   UNL A   1      32.469  30.248  26.908  1.00  0.00    -0.458 OA
BRANCH  20  21
ATOM     21  C   UNL A   1      33.127  31.376  27.259  1.00  0.00     0.338 C 
ATOM     22  O   UNL A   1      32.729  32.524  27.178  1.00  0.00    -0.246 OA
BRANCH  21  23
ATOM     23  C   UNL A   1      34.469  31.031  27.751  1.00  0.00     0.060 A 
ATOM     24  C   UNL A   1      34.793  29.715  28.091  1.00  0.00     0.016 A 
ATOM     25  C   UNL A   1      35.374  32.067  27.982  1.00  0.00     0.016 A 
ATOM     26  C   UNL A   1      36.009  29.436  28.713  1.00  0.00     0.010 A 
ATOM     27  C   UNL A   1      36.611  31.778  28.556  1.00  0.00     0.010 A 
ATOM     28  C   UNL A   1      36.923  30.469  28.956  1.00  0.00    -0.014 A 
BRANCH  28  29
ATOM     29  C   UNL A   1      38.194  30.210  29.673  1.00  0.00     0.031 A 
ATOM     30  C   UNL A   1      39.200  29.264  29.077  1.00  0.00     0.074 A 
ATOM     31  C   UNL A   1      38.416  30.774  30.875  1.00  0.00     0.049 A 
ATOM     32  N   UNL A   1      40.290  28.776  29.608  1.00  0.00    -0.248 NA
ATOM     33  C   UNL A   1      38.937  28.797  27.705  1.00  0.00     0.031 C 
ATOM     34  C   UNL A   1      37.514  31.709  31.547  1.00  0.00     0.029 A 
ATOM     35  N   UNL A   1      39.453  30.613  31.758  1.00  0.00    -0.354 N 
ATOM     36  C   UNL A   1      40.814  27.903  28.663  1.00  0.00     0.074 A 
ATOM     37  C   UNL A   1      39.926  27.932  27.520  1.00  0.00     0.031 C 
ATOM     38  C   UNL A   1      38.027  32.024  32.747  1.00  0.00     0.029 A 
ATOM     39  C   UNL A   1      39.266  31.278  32.946  1.00  0.00     0.049 A 
ATOM     40  H   UNL A   1      40.254  30.075  31.560  1.00  0.00     0.167 HD
ATOM     41  C   UNL A   1      41.938  27.154  28.735  1.00  0.00     0.034 A 
ATOM     42  C   UNL A   1      39.992  31.260  34.081  1.00  0.00     0.034 A 
ATOM     43  C   UNL A   1      42.840  27.166  29.855  1.00  0.00     0.049 A 
ATOM     44  C   UNL A   1      41.241  30.422  34.134  1.00  0.00     0.074 A 
ATOM     45  C   UNL A   1      44.031  26.477  30.009  1.00  0.00     0.029 A 
ATOM     46  N   UNL A   1      42.653  27.907  31.011  1.00  0.00    -0.354 N 
ATOM     47  N   UNL A   1      41.769  29.669  33.198  1.00  0.00    -0.248 NA
ATOM     48  C   UNL A   1      42.005  30.446  35.389  1.00  0.00     0.031 C 
ATOM     49  C   UNL A   1      44.561  26.798  31.264  1.00  0.00     0.029 A 
ATOM     50  C   UNL A   1      43.706  27.693  31.886  1.00  0.00     0.049 A 
ATOM     51  H   UNL A   1      41.886  28.498  31.186  1.00  0.00     0.167 HD
ATOM     52  C   UNL A   1      42.941  29.155  33.740  1.00  0.00     0.074 A 
ATOM     53  C   UNL A   1      43.055  29.698  35.078  1.00  0.00     0.031 C 
ATOM     54  C   UNL A   1      43.831  28.293  33.189  1.00  0.00     0.034 A 
BRANCH  41  55
ATOM     55  C   UNL A   1      42.278  26.285  27.554  1.00  0.00     0.023 A 
ATOM     56  C   UNL A   1      42.988  26.835  26.468  1.00  0.00     0.012 A 
ATOM     57  C   UNL A   1      41.945  24.915  27.540  1.00  0.00     0.148 A 
ATOM     58  C   UNL A   1      43.338  26.044  25.375  1.00  0.00     0.002 A 
ATOM     59  C   UNL A   1      42.330  24.125  26.462  1.00  0.00     0.091 A 
ATOM     60  F   UNL A   1      41.247  24.416  28.570  1.00  0.00    -0.205 F 
ATOM     61  C   UNL A   1      43.019  24.689  25.377  1.00  0.00     0.022 A 
BRANCH  59  62
ATOM     62  S   UNL A   1      42.025  22.355  26.408  1.00  0.00     0.127 S 
ATOM     63  O   UNL A   1      40.564  22.308  26.387  1.00  0.00    -0.237 OA
ATOM     64  O   UNL A   1      42.664  21.968  25.150  1.00  0.00    -0.237 OA
ATOM     65  O   UNL A   1      42.656  21.805  27.600  1.00  0.00    -0.744 OA
ENDBRANCH  59  62
ENDBRANCH  41  55
BRANCH  42  66
ATOM     66  C   UNL A   1      39.574  32.094  35.243  1.00  0.00     0.023 A 
ATOM     67  C   UNL A   1      39.895  33.464  35.255  1.00  0.00     0.012 A 
ATOM     68  C   UNL A   1      38.827  31.552  36.307  1.00  0.00     0.148 A 
ATOM     69  C   UNL A   1      39.499  34.278  36.318  1.00  0.00     0.002 A 
ATOM     70  C   UNL A   1      38.389  32.379  37.335  1.00  0.00     0.091 A 
ATOM     71  F   UNL A   1      38.551  30.241  36.289  1.00  0.00    -0.205 F 
ATOM     72  C   UNL A   1      38.735  33.739  37.351  1.00  0.00     0.022 A 
BRANCH  70  73
ATOM     73  S   UNL A   1      37.291  31.792  38.630  1.00  0.00     0.127 S 
ATOM     74  O   UNL A   1      36.157  32.702  38.499  1.00  0.00    -0.237 OA
ATOM     75  O   UNL A   1      37.026  30.415  38.208  1.00  0.00    -0.237 OA
ATOM     76  O   UNL A   1      38.056  31.899  39.865  1.00  0.00    -0.744 OA
ENDBRANCH  70  73
ENDBRANCH  42  66
BRANCH  54  77
ATOM     77  C   UNL A   1      45.025  27.904  34.018  1.00  0.00     0.023 A 
ATOM     78  C   UNL A   1      46.192  28.690  33.969  1.00  0.00     0.012 A 
ATOM     79  C   UNL A   1      44.965  26.806  34.900  1.00  0.00     0.148 A 
ATOM     80  C   UNL A   1      47.291  28.376  34.766  1.00  0.00     0.002 A 
ATOM     81  C   UNL A   1      46.049  26.525  35.723  1.00  0.00     0.091 A 
ATOM     82  F   UNL A   1      43.853  26.057  34.915  1.00  0.00    -0.205 F 
ATOM     83  C   UNL A   1      47.216  27.303  35.651  1.00  0.00     0.022 A 
BRANCH  81  84
ATOM     84  S   UNL A   1      45.999  25.216  36.952  1.00  0.00     0.127 S 
ATOM     85  O   UNL A   1      45.898  24.023  36.114  1.00  0.00    -0.237 OA
ATOM     86  O   UNL A   1      47.284  25.375  37.634  1.00  0.00    -0.237 OA
ATOM     87  O   UNL A   1      44.839  25.501  37.786  1.00  0.00    -0.744 OA
ENDBRANCH  81  84
ENDBRANCH  54  77
ENDBRANCH  28  29
ENDBRANCH  21  23
ENDBRANCH  20  21
ENDBRANCH  19  20
ENDBRANCH   1  19
TORSDOF 19
ENDMDL
MODEL 2
REMARK VINA RESULT:     -10.8      5.803     10.568
REMARK SMILES C[C@@H]([C@H](C)O)[C@@H](Cc1ccccc1)C(=O)OCCOC(=O)c1ccc(-c2c3nc(c(-c4cccc(S(=O)(=O)[O-])c4F)c4ccc([nH]4)c(-c4cccc(S(=O)(=O)[O-])c4F)c4nc(c(-c5cccc(S(=O)(=O)[O-])c5F)c5ccc2[nH]5)C=C4)C=C3)cc1
REMARK SMILES IDX 17 1 16 2 14 3 15 4 6 5 2 6 1 7 3 8 4 9 5 10 7 12 8 13 9 14
REMARK SMILES IDX 13 15 10 16 12 17 11 18 18 19 19 20 20 21 21 22 22 23 23 24
REMARK SMILES IDX 84 25 24 26 83 27 25 28 26 29 27 30 77 31 28 32 82 33 76 34
REMARK SMILES IDX 78 35 29 36 81 37 75 38 74 39 30 41 62 42 42 43 61 44 43 45
REMARK SMILES IDX 46 46 60 47 79 48 44 49 45 50 59 52 80 53 47 54 31 55 32 56
REMARK SMILES IDX 40 57 33 58 35 59 41 60 34 61 36 62 37 63 38 64 39 65 63 66
REMARK SMILES IDX 64 67 72 68 65 69 67 70 73 71 66 72 68 73 69 74 70 75 71 76
REMARK SMILES IDX 48 77 49 78 57 79 50 80 52 81 58 82 51 83 53 84 54 85 55 86
REMARK SMILES IDX 56 87
REMARK H PARENT 5 11 78 40 46 51
REMARK Flexibility Score: inf
ROOT
ATOM      1  C   UNL A   1      36.001  21.517  24.468  1.00  0.00     0.274 C 
ENDROOT
BRANCH   1   2
ATOM      2  O   UNL A   1      35.453  22.820  24.191  1.00  0.00    -0.462 OA
BRANCH   2   3
ATOM      3  C   UNL A   1      34.162  22.823  23.776  1.00  0.00     0.309 C 
ATOM      4  O   UNL A   1      33.747  23.416  22.784  1.00  0.00    -0.252 OA
BRANCH   3   5
ATOM      5  C   UNL A   1      33.206  22.105  24.721  1.00  0.00     0.109 C 
BRANCH   5   6
ATOM      6  C   UNL A   1      32.456  22.980  25.771  1.00  0.00     0.029 C 
ATOM      7  C   UNL A   1      30.935  22.760  25.671  1.00  0.00     0.011 C 
BRANCH   6   8
ATOM      8  C   UNL A   1      32.973  22.763  27.227  1.00  0.00     0.115 C 
ATOM      9  C   UNL A   1      34.016  21.666  27.444  1.00  0.00     0.038 C 
BRANCH   8  10
ATOM     10  O   UNL A   1      31.844  22.444  28.048  1.00  0.00    -0.393 OA
ATOM     11  H   UNL A   1      31.110  23.041  27.835  1.00  0.00     0.210 HD
ENDBRANCH   8  10
ENDBRANCH   6   8
ENDBRANCH   5   6
BRANCH   5  12
ATOM     12  C   UNL A   1      32.305  21.234  23.805  1.00  0.00     0.051 C 
BRANCH  12  13
ATOM     13  C   UNL A   1      32.684  19.767  23.730  1.00  0.00    -0.047 A 
ATOM     14  C   UNL A   1      32.296  18.967  22.649  1.00  0.00     0.004 A 
ATOM     15  C   UNL A   1      33.471  19.193  24.739  1.00  0.00     0.004 A 
ATOM     16  C   UNL A   1      32.719  17.640  22.553  1.00  0.00     0.000 A 
ATOM     17  C   UNL A   1      33.877  17.860  24.654  1.00  0.00     0.000 A 
ATOM     18  C   UNL A   1      33.509  17.087  23.556  1.00  0.00     0.000 A 
ENDBRANCH  12  13
ENDBRANCH   5  12
ENDBRANCH   3   5
ENDBRANCH   2   3
ENDBRANCH   1   2
BRANCH   1  19
ATOM     19  C   UNL A   1      37.522  21.558  24.593  1.00  0.00     0.275 C 
BRANCH  19  20
ATOM     20  O   UNL A   1      37.898  21.636  25.976  1.00  0.00    -0.458 OA
BRANCH  20  21
ATOM     21  C   UNL A   1      39.225  21.554  26.224  1.00  0.00     0.338 C 
ATOM     22  O   UNL A   1      39.959  20.601  26.036  1.00  0.00    -0.246 OA
BRANCH  21  23
ATOM     23  C   UNL A   1      39.696  22.818  26.809  1.00  0.00     0.060 A 
ATOM     24  C   UNL A   1      39.148  24.042  26.412  1.00  0.00     0.016 A 
ATOM     25  C   UNL A   1      40.782  22.778  27.681  1.00  0.00     0.016 A 
ATOM     26  C   UNL A   1      39.721  25.235  26.848  1.00  0.00     0.010 A 
ATOM     27  C   UNL A   1      41.321  23.972  28.159  1.00  0.00     0.010 A 
ATOM     28  C   UNL A   1      40.817  25.207  27.720  1.00  0.00    -0.014 A 
BRANCH  28  29
ATOM     29  C   UNL A   1      41.484  26.459  28.148  1.00  0.00     0.031 A 
ATOM     30  C   UNL A   1      40.689  27.511  28.870  1.00  0.00     0.074 A 
ATOM     31  C   UNL A   1      42.777  26.673  27.838  1.00  0.00     0.049 A 
ATOM     32  N   UNL A   1      41.030  28.733  29.186  1.00  0.00    -0.248 NA
ATOM     33  C   UNL A   1      39.324  27.142  29.283  1.00  0.00     0.031 C 
ATOM     34  C   UNL A   1      43.646  25.723  27.144  1.00  0.00     0.029 A 
ATOM     35  N   UNL A   1      43.571  27.773  28.036  1.00  0.00    -0.354 N 
ATOM     36  C   UNL A   1      39.909  29.298  29.781  1.00  0.00     0.074 A 
ATOM     37  C   UNL A   1      38.878  28.283  29.790  1.00  0.00     0.031 C 
ATOM     38  C   UNL A   1      44.849  26.289  26.955  1.00  0.00     0.029 A 
ATOM     39  C   UNL A   1      44.819  27.654  27.472  1.00  0.00     0.049 A 
ATOM     40  H   UNL A   1      43.278  28.570  28.535  1.00  0.00     0.167 HD
ATOM     41  C   UNL A   1      39.757  30.544  30.285  1.00  0.00     0.034 A 
ATOM     42  C   UNL A   1      45.813  28.555  27.353  1.00  0.00     0.034 A 
ATOM     43  C   UNL A   1      40.803  31.531  30.315  1.00  0.00     0.049 A 
ATOM     44  C   UNL A   1      45.620  29.933  27.926  1.00  0.00     0.074 A 
ATOM     45  C   UNL A   1      40.765  32.810  30.842  1.00  0.00     0.029 A 
ATOM     46  N   UNL A   1      42.076  31.349  29.797  1.00  0.00    -0.354 N 
ATOM     47  N   UNL A   1      44.584  30.424  28.564  1.00  0.00    -0.248 NA
ATOM     48  C   UNL A   1      46.738  30.876  27.782  1.00  0.00     0.031 C 
ATOM     49  C   UNL A   1      42.016  33.404  30.638  1.00  0.00     0.029 A 
ATOM     50  C   UNL A   1      42.834  32.491  29.992  1.00  0.00     0.049 A 
ATOM     51  H   UNL A   1      42.394  30.529  29.356  1.00  0.00     0.167 HD
ATOM     52  C   UNL A   1      44.937  31.719  28.922  1.00  0.00     0.074 A 
ATOM     53  C   UNL A   1      46.289  31.930  28.449  1.00  0.00     0.031 C 
ATOM     54  C   UNL A   1      44.200  32.658  29.567  1.00  0.00     0.034 A 
BRANCH  41  55
ATOM     55  C   UNL A   1      38.422  30.901  30.881  1.00  0.00     0.023 A 
ATOM     56  C   UNL A   1      38.155  30.582  32.227  1.00  0.00     0.012 A 
ATOM     57  C   UNL A   1      37.454  31.596  30.129  1.00  0.00     0.148 A 
ATOM     58  C   UNL A   1      36.936  30.926  32.809  1.00  0.00     0.002 A 
ATOM     59  C   UNL A   1      36.255  31.968  30.729  1.00  0.00     0.091 A 
ATOM     60  F   UNL A   1      37.715  31.867  28.843  1.00  0.00    -0.205 F 
ATOM     61  C   UNL A   1      35.992  31.627  32.065  1.00  0.00     0.022 A 
BRANCH  59  62
ATOM     62  S   UNL A   1      35.007  32.934  29.870  1.00  0.00     0.127 S 
ATOM     63  O   UNL A   1      34.502  31.967  28.897  1.00  0.00    -0.237 OA
ATOM     64  O   UNL A   1      34.071  33.261  30.945  1.00  0.00    -0.237 OA
ATOM     65  O   UNL A   1      35.707  34.082  29.310  1.00  0.00    -0.744 OA
ENDBRANCH  59  62
ENDBRANCH  41  55
BRANCH  42  66
ATOM     66  C   UNL A   1      47.093  28.165  26.698  1.00  0.00     0.023 A 
ATOM     67  C   UNL A   1      48.188  27.791  27.498  1.00  0.00     0.012 A 
ATOM     68  C   UNL A   1      47.219  28.121  25.295  1.00  0.00     0.148 A 
ATOM     69  C   UNL A   1      49.394  27.399  26.916  1.00  0.00     0.002 A 
ATOM     70  C   UNL A   1      48.405  27.677  24.721  1.00  0.00     0.091 A 
ATOM     71  F   UNL A   1      46.173  28.503  24.549  1.00  0.00    -0.205 F 
ATOM     72  C   UNL A   1      49.499  27.330  25.528  1.00  0.00     0.022 A 
BRANCH  70  73
ATOM     73  S   UNL A   1      48.574  27.432  22.950  1.00  0.00     0.127 S 
ATOM     74  O   UNL A   1      49.956  27.844  22.720  1.00  0.00    -0.237 OA
ATOM     75  O   UNL A   1      48.329  25.995  22.813  1.00  0.00    -0.237 OA
ATOM     76  O   UNL A   1      47.549  28.271  22.343  1.00  0.00    -0.744 OA
ENDBRANCH  70  73
ENDBRANCH  42  66
BRANCH  54  77
ATOM     77  C   UNL A   1      44.847  33.991  29.826  1.00  0.00     0.023 A 
ATOM     78  C   UNL A   1      45.428  34.249  31.082  1.00  0.00     0.012 A 
ATOM     79  C   UNL A   1      44.946  34.956  28.804  1.00  0.00     0.148 A 
ATOM     80  C   UNL A   1      46.077  35.459  31.327  1.00  0.00     0.002 A 
ATOM     81  C   UNL A   1      45.632  36.142  29.042  1.00  0.00     0.091 A 
ATOM     82  F   UNL A   1      44.367  34.700  27.622  1.00  0.00    -0.205 F 
ATOM     83  C   UNL A   1      46.190  36.398  30.305  1.00  0.00     0.022 A 
BRANCH  81  84
ATOM     84  S   UNL A   1      45.898  37.364  27.753  1.00  0.00     0.127 S 
ATOM     85  O   UNL A   1      46.715  38.358  28.448  1.00  0.00    -0.237 OA
ATOM     86  O   UNL A   1      46.611  36.596  26.732  1.00  0.00    -0.237 OA
ATOM     87  O   UNL A   1      44.570  37.810  27.351  1.00  0.00    -0.744 OA
ENDBRANCH  81  84
ENDBRANCH  54  77
ENDBRANCH  28  29
ENDBRANCH  21  23
ENDBRANCH  20  21
ENDBRANCH  19  20
ENDBRANCH   1  19
TORSDOF 19
ENDMDL
MODEL 3
REMARK VINA RESULT:     -10.8      5.423     10.016
REMARK SMILES C[C@@H]([C@H](C)O)[C@@H](Cc1ccccc1)C(=O)OCCOC(=O)c1ccc(-c2c3nc(c(-c4cccc(S(=O)(=O)[O-])c4F)c4ccc([nH]4)c(-c4cccc(S(=O)(=O)[O-])c4F)c4nc(c(-c5cccc(S(=O)(=O)[O-])c5F)c5ccc2[nH]5)C=C4)C=C3)cc1
REMARK SMILES IDX 17 1 16 2 14 3 15 4 6 5 2 6 1 7 3 8 4 9 5 10 7 12 8 13 9 14
REMARK SMILES IDX 13 15 10 16 12 17 11 18 18 19 19 20 20 21 21 22 22 23 23 24
REMARK SMILES IDX 84 25 24 26 83 27 25 28 26 29 27 30 77 31 28 32 82 33 76 34
REMARK SMILES IDX 78 35 29 36 81 37 75 38 74 39 30 41 62 42 42 43 61 44 43 45
REMARK SMILES IDX 46 46 60 47 79 48 44 49 45 50 59 52 80 53 47 54 31 55 32 56
REMARK SMILES IDX 40 57 33 58 35 59 41 60 34 61 36 62 37 63 38 64 39 65 63 66
REMARK SMILES IDX 64 67 72 68 65 69 67 70 73 71 66 72 68 73 69 74 70 75 71 76
REMARK SMILES IDX 48 77 49 78 57 79 50 80 52 81 58 82 51 83 53 84 54 85 55 86
REMARK SMILES IDX 56 87
REMARK H PARENT 5 11 78 40 46 51
REMARK Flexibility Score: inf
ROOT
ATOM      1  C   UNL A   1      35.192  20.823  24.980  1.00  0.00     0.274 C 
ENDROOT
BRANCH   1   2
ATOM      2  O   UNL A   1      35.105  22.206  24.590  1.00  0.00    -0.462 OA
BRANCH   2   3
ATOM      3  C   UNL A   1      34.247  22.957  25.325  1.00  0.00     0.309 C 
ATOM      4  O   UNL A   1      33.996  22.771  26.512  1.00  0.00    -0.252 OA
BRANCH   3   5
ATOM      5  C   UNL A   1      33.505  24.015  24.518  1.00  0.00     0.109 C 
BRANCH   5   6
ATOM      6  C   UNL A   1      33.034  23.615  23.086  1.00  0.00     0.029 C 
ATOM      7  C   UNL A   1      31.666  22.909  23.144  1.00  0.00     0.011 C 
BRANCH   6   8
ATOM      8  C   UNL A   1      33.018  24.817  22.092  1.00  0.00     0.115 C 
ATOM      9  C   UNL A   1      31.907  25.853  22.262  1.00  0.00     0.038 C 
BRANCH   8  10
ATOM     10  O   UNL A   1      32.905  24.286  20.767  1.00  0.00    -0.393 OA
ATOM     11  H   UNL A   1      33.764  24.341  20.322  1.00  0.00     0.210 HD
ENDBRANCH   8  10
ENDBRANCH   6   8
ENDBRANCH   5   6
BRANCH   5  12
ATOM     12  C   UNL A   1      32.396  24.547  25.466  1.00  0.00     0.051 C 
BRANCH  12  13
ATOM     13  C   UNL A   1      32.582  25.973  25.945  1.00  0.00    -0.047 A 
ATOM     14  C   UNL A   1      33.790  26.656  25.757  1.00  0.00     0.004 A 
ATOM     15  C   UNL A   1      31.518  26.652  26.559  1.00  0.00     0.004 A 
ATOM     16  C   UNL A   1      33.921  27.994  26.131  1.00  0.00     0.000 A 
ATOM     17  C   UNL A   1      31.656  27.984  26.952  1.00  0.00     0.000 A 
ATOM     18  C   UNL A   1      32.853  28.658  26.728  1.00  0.00     0.000 A 
ENDBRANCH  12  13
ENDBRANCH   5  12
ENDBRANCH   3   5
ENDBRANCH   2   3
ENDBRANCH   1   2
BRANCH   1  19
ATOM     19  C   UNL A   1      36.637  20.330  25.001  1.00  0.00     0.275 C 
BRANCH  19  20
ATOM     20  O   UNL A   1      37.531  21.439  25.186  1.00  0.00    -0.458 OA
BRANCH  20  21
ATOM     21  C   UNL A   1      38.705  21.146  25.789  1.00  0.00     0.338 C 
ATOM     22  O   UNL A   1      39.239  20.056  25.886  1.00  0.00    -0.246 OA
BRANCH  21  23
ATOM     23  C   UNL A   1      39.276  22.367  26.374  1.00  0.00     0.060 A 
ATOM     24  C   UNL A   1      38.742  23.624  26.077  1.00  0.00     0.016 A 
ATOM     25  C   UNL A   1      40.437  22.253  27.139  1.00  0.00     0.016 A 
ATOM     26  C   UNL A   1      39.399  24.778  26.503  1.00  0.00     0.010 A 
ATOM     27  C   UNL A   1      41.063  23.406  27.608  1.00  0.00     0.010 A 
ATOM     28  C   UNL A   1      40.569  24.676  27.265  1.00  0.00    -0.014 A 
BRANCH  28  29
ATOM     29  C   UNL A   1      41.321  25.885  27.676  1.00  0.00     0.031 A 
ATOM     30  C   UNL A   1      40.624  26.956  28.469  1.00  0.00     0.074 A 
ATOM     31  C   UNL A   1      42.600  26.045  27.290  1.00  0.00     0.049 A 
ATOM     32  N   UNL A   1      41.042  28.153  28.787  1.00  0.00    -0.248 NA
ATOM     33  C   UNL A   1      39.271  26.641  28.959  1.00  0.00     0.031 C 
ATOM     34  C   UNL A   1      43.378  25.073  26.522  1.00  0.00     0.029 A 
ATOM     35  N   UNL A   1      43.457  27.102  27.460  1.00  0.00    -0.354 N 
ATOM     36  C   UNL A   1      39.989  28.755  29.463  1.00  0.00     0.074 A 
ATOM     37  C   UNL A   1      38.912  27.790  29.517  1.00  0.00     0.031 C 
ATOM     38  C   UNL A   1      44.593  25.586  26.270  1.00  0.00     0.029 A 
ATOM     39  C   UNL A   1      44.661  26.938  26.815  1.00  0.00     0.049 A 
ATOM     40  H   UNL A   1      43.234  27.900  27.992  1.00  0.00     0.167 HD
ATOM     41  C   UNL A   1      39.928  29.995  30.001  1.00  0.00     0.034 A 
ATOM     42  C   UNL A   1      45.688  27.794  26.652  1.00  0.00     0.034 A 
ATOM     43  C   UNL A   1      41.020  30.931  29.985  1.00  0.00     0.049 A 
ATOM     44  C   UNL A   1      45.597  29.166  27.264  1.00  0.00     0.074 A 
ATOM     45  C   UNL A   1      41.076  32.198  30.540  1.00  0.00     0.029 A 
ATOM     46  N   UNL A   1      42.248  30.702  29.384  1.00  0.00    -0.354 N 
ATOM     47  N   UNL A   1      44.627  29.690  27.976  1.00  0.00    -0.248 NA
ATOM     48  C   UNL A   1      46.748  30.059  27.069  1.00  0.00     0.031 C 
ATOM     49  C   UNL A   1      42.339  32.737  30.269  1.00  0.00     0.029 A 
ATOM     50  C   UNL A   1      43.070  31.803  29.554  1.00  0.00     0.049 A 
ATOM     51  H   UNL A   1      42.498  29.878  28.907  1.00  0.00     0.167 HD
ATOM     52  C   UNL A   1      45.063  30.959  28.338  1.00  0.00     0.074 A 
ATOM     53  C   UNL A   1      46.392  31.117  27.784  1.00  0.00     0.031 C 
ATOM     54  C   UNL A   1      44.414  31.915  29.047  1.00  0.00     0.034 A 
BRANCH  41  55
ATOM     55  C   UNL A   1      38.651  30.399  30.687  1.00  0.00     0.023 A 
ATOM     56  C   UNL A   1      38.468  30.093  32.051  1.00  0.00     0.012 A 
ATOM     57  C   UNL A   1      37.658  31.128  30.003  1.00  0.00     0.148 A 
ATOM     58  C   UNL A   1      37.306  30.480  32.715  1.00  0.00     0.002 A 
ATOM     59  C   UNL A   1      36.517  31.542  30.682  1.00  0.00     0.091 A 
ATOM     60  F   UNL A   1      37.837  31.387  28.699  1.00  0.00    -0.205 F 
ATOM     61  C   UNL A   1      36.337  31.213  32.036  1.00  0.00     0.022 A 
BRANCH  59  62
ATOM     62  S   UNL A   1      35.247  32.550  29.909  1.00  0.00     0.127 S 
ATOM     63  O   UNL A   1      34.767  31.661  28.852  1.00  0.00    -0.237 OA
ATOM     64  O   UNL A   1      34.302  32.757  31.007  1.00  0.00    -0.237 OA
ATOM     65  O   UNL A   1      35.920  33.760  29.455  1.00  0.00    -0.744 OA
ENDBRANCH  59  62
ENDBRANCH  41  55
BRANCH  42  66
ATOM     66  C   UNL A   1      46.904  27.361  25.909  1.00  0.00     0.023 A 
ATOM     67  C   UNL A   1      47.013  27.658  24.538  1.00  0.00     0.012 A 
ATOM     68  C   UNL A   1      47.966  26.700  26.557  1.00  0.00     0.148 A 
ATOM     69  C   UNL A   1      48.149  27.286  23.818  1.00  0.00     0.002 A 
ATOM     70  C   UNL A   1      49.118  26.382  25.846  1.00  0.00     0.091 A 
ATOM     71  F   UNL A   1      47.835  26.406  27.858  1.00  0.00    -0.205 F 
ATOM     72  C   UNL A   1      49.207  26.660  24.474  1.00  0.00     0.022 A 
BRANCH  70  73
ATOM     73  S   UNL A   1      50.574  25.697  26.646  1.00  0.00     0.127 S 
ATOM     74  O   UNL A   1      51.498  25.561  25.524  1.00  0.00    -0.237 OA
ATOM     75  O   UNL A   1      50.921  26.747  27.605  1.00  0.00    -0.237 OA
ATOM     76  O   UNL A   1      50.129  24.454  27.261  1.00  0.00    -0.744 OA
ENDBRANCH  70  73
ENDBRANCH  42  66
BRANCH  54  77
ATOM     77  C   UNL A   1      45.140  33.211  29.292  1.00  0.00     0.023 A 
ATOM     78  C   UNL A   1      45.957  33.345  30.430  1.00  0.00     0.012 A 
ATOM     79  C   UNL A   1      45.071  34.264  28.358  1.00  0.00     0.148 A 
ATOM     80  C   UNL A   1      46.678  34.518  30.650  1.00  0.00     0.002 A 
ATOM     81  C   UNL A   1      45.825  35.413  28.562  1.00  0.00     0.091 A 
ATOM     82  F   UNL A   1      44.269  34.125  27.293  1.00  0.00    -0.205 F 
ATOM     83  C   UNL A   1      46.622  35.546  29.711  1.00  0.00     0.022 A 
BRANCH  81  84
ATOM     84  S   UNL A   1      45.878  36.745  27.358  1.00  0.00     0.127 S 
ATOM     85  O   UNL A   1      46.372  36.054  26.168  1.00  0.00    -0.237 OA
ATOM     86  O   UNL A   1      44.477  37.160  27.284  1.00  0.00    -0.237 OA
ATOM     87  O   UNL A   1      46.772  37.750  27.920  1.00  0.00    -0.744 OA
ENDBRANCH  81  84
ENDBRANCH  54  77
ENDBRANCH  28  29
ENDBRANCH  21  23
ENDBRANCH  20  21
ENDBRANCH  19  20
ENDBRANCH   1  19
TORSDOF 19
ENDMDL
