MODEL 1
REMARK VINA RESULT:     -12.1      0.000      0.000
REMARK SMILES COc1cc(NC(=O)c2ccc([N+](=O)[O-])cc2)c(C(=O)OCCOC(=O)c2ccc(-c3c4nc(c(-c5cccc(S(=O)(=O)[O-])c5F)c5ccc([nH]5)c(-c5cccc(S(=O)(=O)[O-])c5F)c5nc(c(-c6cccc(S(=O)(=O)[O-])c6F)c6ccc3[nH]6)C=C5)C=C4)cc2)cc1OC
REMARK SMILES IDX 22 1 21 2 19 3 20 4 18 5 3 6 4 7 91 8 5 9 90 10 2 11 1 12
REMARK SMILES IDX 92 13 93 14 6 15 7 16 8 18 9 19 10 20 17 21 11 22 16 23
REMARK SMILES IDX 12 24 13 25 14 26 15 27 23 28 24 29 25 30 26 31 27 32 28 33
REMARK SMILES IDX 89 34 29 35 88 36 30 37 31 38 32 39 82 40 33 41 87 42 81 43
REMARK SMILES IDX 83 44 34 45 86 46 80 47 79 48 35 50 67 51 47 52 66 53 48 54
REMARK SMILES IDX 51 55 65 56 84 57 49 58 50 59 64 61 85 62 52 63 36 64 37 65
REMARK SMILES IDX 45 66 38 67 40 68 46 69 39 70 41 71 42 72 43 73 44 74 68 75
REMARK SMILES IDX 69 76 77 77 70 78 72 79 78 80 71 81 73 82 74 83 75 84 76 85
REMARK SMILES IDX 53 86 54 87 62 88 55 89 57 90 63 91 56 92 58 93 59 94 60 95
REMARK SMILES IDX 61 96
REMARK H PARENT 6 17 83 49 51 60
REMARK Flexibility Score: inf
ROOT
ATOM      1  C   UNL A   1      35.979  21.554  24.197  1.00  0.00     0.275 C 
ENDROOT
BRANCH   1   2
ATOM      2  O   UNL A   1      34.739  22.119  24.680  1.00  0.00    -0.458 OA
BRANCH   2   3
ATOM      3  C   UNL A   1      34.106  22.980  23.846  1.00  0.00     0.340 C 
ATOM      4  O   UNL A   1      34.274  23.091  22.646  1.00  0.00    -0.246 OA
BRANCH   3   5
ATOM      5  C   UNL A   1      33.227  23.895  24.605  1.00  0.00     0.087 A 
ATOM      6  C   UNL A   1      31.921  25.499  26.474  1.00  0.00     0.162 A 
ATOM      7  C   UNL A   1      32.597  26.080  25.394  1.00  0.00     0.077 A 
ATOM      8  C   UNL A   1      31.807  24.111  26.575  1.00  0.00     0.161 A 
ATOM      9  C   UNL A   1      33.267  25.294  24.450  1.00  0.00     0.060 A 
ATOM     10  C   UNL A   1      32.485  23.318  25.646  1.00  0.00     0.068 A 
BRANCH   6  11
ATOM     11  O   UNL A   1      31.335  26.346  27.377  1.00  0.00    -0.493 OA
ATOM     12  C   UNL A   1      31.550  27.712  27.010  1.00  0.00     0.278 C 
ENDBRANCH   6  11
BRANCH   8  13
ATOM     13  O   UNL A   1      31.121  23.380  27.503  1.00  0.00    -0.493 OA
ATOM     14  C   UNL A   1      29.855  22.854  27.133  1.00  0.00     0.278 C 
ENDBRANCH   8  13
BRANCH   9  15
ATOM     15  N   UNL A   1      33.833  25.885  23.298  1.00  0.00    -0.321 N 
ATOM     16  C   UNL A   1      33.241  26.559  22.247  1.00  0.00     0.255 C 
ATOM     17  H   UNL A   1      34.812  25.804  23.234  1.00  0.00     0.170 HD
ATOM     18  O   UNL A   1      33.692  26.420  21.113  1.00  0.00    -0.269 OA
BRANCH  16  19
ATOM     19  C   UNL A   1      32.084  27.472  22.451  1.00  0.00     0.040 A 
ATOM     20  C   UNL A   1      32.335  28.853  22.478  1.00  0.00     0.021 A 
ATOM     21  C   UNL A   1      30.770  27.004  22.584  1.00  0.00     0.021 A 
ATOM     22  C   UNL A   1      31.276  29.764  22.467  1.00  0.00     0.086 A 
ATOM     23  C   UNL A   1      29.703  27.907  22.553  1.00  0.00     0.086 A 
ATOM     24  C   UNL A   1      29.963  29.282  22.444  1.00  0.00     0.269 A 
BRANCH  24  25
ATOM     25  N   UNL A   1      28.852  30.209  22.203  1.00  0.00     0.062 N 
ATOM     26  O   UNL A   1      28.775  31.224  22.909  1.00  0.00    -0.258 OA
ATOM     27  O   UNL A   1      28.092  29.955  21.256  1.00  0.00    -0.258 OA
ENDBRANCH  24  25
ENDBRANCH  16  19
ENDBRANCH   9  15
ENDBRANCH   3   5
ENDBRANCH   2   3
ENDBRANCH   1   2
BRANCH   1  28
ATOM     28  C   UNL A   1      36.959  21.281  25.339  1.00  0.00     0.275 C 
BRANCH  28  29
ATOM     29  O   UNL A   1      38.208  21.959  25.115  1.00  0.00    -0.458 OA
BRANCH  29  30
ATOM     30  C   UNL A   1      39.194  21.618  25.972  1.00  0.00     0.338 C 
ATOM     31  O   UNL A   1      39.869  20.600  25.951  1.00  0.00    -0.246 OA
BRANCH  30  32
ATOM     32  C   UNL A   1      39.499  22.726  26.887  1.00  0.00     0.060 A 
ATOM     33  C   UNL A   1      38.897  23.947  26.628  1.00  0.00     0.016 A 
ATOM     34  C   UNL A   1      40.586  22.649  27.757  1.00  0.00     0.016 A 
ATOM     35  C   UNL A   1      39.507  25.111  27.079  1.00  0.00     0.010 A 
ATOM     36  C   UNL A   1      41.095  23.823  28.334  1.00  0.00     0.010 A 
ATOM     37  C   UNL A   1      40.617  25.086  27.941  1.00  0.00    -0.014 A 
BRANCH  37  38
ATOM     38  C   UNL A   1      41.296  26.365  28.352  1.00  0.00     0.031 A 
ATOM     39  C   UNL A   1      40.551  27.442  29.121  1.00  0.00     0.074 A 
ATOM     40  C   UNL A   1      42.604  26.572  28.073  1.00  0.00     0.049 A 
ATOM     41  N   UNL A   1      40.884  28.696  29.316  1.00  0.00    -0.248 NA
ATOM     42  C   UNL A   1      39.262  27.078  29.732  1.00  0.00     0.031 C 
ATOM     43  C   UNL A   1      43.487  25.633  27.378  1.00  0.00     0.029 A 
ATOM     44  N   UNL A   1      43.425  27.645  28.338  1.00  0.00    -0.354 N 
ATOM     45  C   UNL A   1      39.808  29.287  29.977  1.00  0.00     0.074 A 
ATOM     46  C   UNL A   1      38.820  28.249  30.174  1.00  0.00     0.031 C 
ATOM     47  C   UNL A   1      44.727  26.132  27.330  1.00  0.00     0.029 A 
ATOM     48  C   UNL A   1      44.695  27.498  27.826  1.00  0.00     0.049 A 
ATOM     49  H   UNL A   1      43.133  28.438  28.844  1.00  0.00     0.167 HD
ATOM     50  C   UNL A   1      39.661  30.572  30.387  1.00  0.00     0.034 A 
ATOM     51  C   UNL A   1      45.703  28.377  27.666  1.00  0.00     0.034 A 
ATOM     52  C   UNL A   1      40.692  31.576  30.289  1.00  0.00     0.049 A 
ATOM     53  C   UNL A   1      45.508  29.796  28.103  1.00  0.00     0.074 A 
ATOM     54  C   UNL A   1      40.645  32.899  30.700  1.00  0.00     0.029 A 
ATOM     55  N   UNL A   1      41.959  31.366  29.773  1.00  0.00    -0.354 N 
ATOM     56  N   UNL A   1      44.472  30.343  28.688  1.00  0.00    -0.248 NA
ATOM     57  C   UNL A   1      46.621  30.722  27.857  1.00  0.00     0.031 C 
ATOM     58  C   UNL A   1      41.879  33.491  30.415  1.00  0.00     0.029 A 
ATOM     59  C   UNL A   1      42.705  32.531  29.859  1.00  0.00     0.049 A 
ATOM     60  H   UNL A   1      42.284  30.515  29.399  1.00  0.00     0.167 HD
ATOM     61  C   UNL A   1      44.816  31.672  28.899  1.00  0.00     0.074 A 
ATOM     62  C   UNL A   1      46.170  31.837  28.411  1.00  0.00     0.031 C 
ATOM     63  C   UNL A   1      44.069  32.670  29.425  1.00  0.00     0.034 A 
BRANCH  50  64
ATOM     64  C   UNL A   1      38.350  30.993  31.010  1.00  0.00     0.023 A 
ATOM     65  C   UNL A   1      38.168  30.903  32.404  1.00  0.00     0.012 A 
ATOM     66  C   UNL A   1      37.349  31.603  30.223  1.00  0.00     0.148 A 
ATOM     67  C   UNL A   1      37.007  31.397  33.002  1.00  0.00     0.002 A 
ATOM     68  C   UNL A   1      36.215  32.134  30.832  1.00  0.00     0.091 A 
ATOM     69  F   UNL A   1      37.534  31.675  28.898  1.00  0.00    -0.205 F 
ATOM     70  C   UNL A   1      36.039  32.023  32.220  1.00  0.00     0.022 A 
BRANCH  68  71
ATOM     71  S   UNL A   1      34.955  33.042  29.926  1.00  0.00     0.127 S 
ATOM     72  O   UNL A   1      35.748  34.090  29.286  1.00  0.00    -0.237 OA
ATOM     73  O   UNL A   1      34.441  32.023  29.010  1.00  0.00    -0.237 OA
ATOM     74  O   UNL A   1      33.998  33.507  30.920  1.00  0.00    -0.744 OA
ENDBRANCH  68  71
ENDBRANCH  50  64
BRANCH  51  75
ATOM     75  C   UNL A   1      46.964  27.948  26.991  1.00  0.00     0.023 A 
ATOM     76  C   UNL A   1      48.021  27.417  27.752  1.00  0.00     0.012 A 
ATOM     77  C   UNL A   1      47.104  28.039  25.592  1.00  0.00     0.148 A 
ATOM     78  C   UNL A   1      49.204  27.010  27.133  1.00  0.00     0.002 A 
ATOM     79  C   UNL A   1      48.250  27.553  24.974  1.00  0.00     0.091 A 
ATOM     80  F   UNL A   1      46.102  28.579  24.882  1.00  0.00    -0.205 F 
ATOM     81  C   UNL A   1      49.312  27.060  25.744  1.00  0.00     0.022 A 
BRANCH  79  82
ATOM     82  S   UNL A   1      48.373  27.417  23.189  1.00  0.00     0.127 S 
ATOM     83  O   UNL A   1      47.200  28.164  22.748  1.00  0.00    -0.237 OA
ATOM     84  O   UNL A   1      49.658  28.067  22.920  1.00  0.00    -0.237 OA
ATOM     85  O   UNL A   1      48.365  25.987  22.910  1.00  0.00    -0.744 OA
ENDBRANCH  79  82
ENDBRANCH  51  75
BRANCH  63  86
ATOM     86  C   UNL A   1      44.722  34.019  29.560  1.00  0.00     0.023 A 
ATOM     87  C   UNL A   1      45.397  34.359  30.749  1.00  0.00     0.012 A 
ATOM     88  C   UNL A   1      44.692  34.938  28.493  1.00  0.00     0.148 A 
ATOM     89  C   UNL A   1      45.996  35.610  30.890  1.00  0.00     0.002 A 
ATOM     90  C   UNL A   1      45.334  36.161  28.621  1.00  0.00     0.091 A 
ATOM     91  F   UNL A   1      44.026  34.600  27.379  1.00  0.00    -0.205 F 
ATOM     92  C   UNL A   1      45.974  36.505  29.824  1.00  0.00     0.022 A 
BRANCH  90  93
ATOM     93  S   UNL A   1      45.433  37.343  27.273  1.00  0.00     0.127 S 
ATOM     94  O   UNL A   1      44.021  37.558  26.962  1.00  0.00    -0.237 OA
ATOM     95  O   UNL A   1      46.098  38.481  27.908  1.00  0.00    -0.237 OA
ATOM     96  O   UNL A   1      46.210  36.695  26.225  1.00  0.00    -0.744 OA
ENDBRANCH  90  93
ENDBRANCH  63  86
ENDBRANCH  37  38
ENDBRANCH  30  32
ENDBRANCH  29  30
ENDBRANCH  28  29
ENDBRANCH   1  28
TORSDOF 19
ENDMDL
MODEL 2
REMARK VINA RESULT:     -11.5      4.974     10.321
REMARK SMILES COc1cc(NC(=O)c2ccc([N+](=O)[O-])cc2)c(C(=O)OCCOC(=O)c2ccc(-c3c4nc(c(-c5cccc(S(=O)(=O)[O-])c5F)c5ccc([nH]5)c(-c5cccc(S(=O)(=O)[O-])c5F)c5nc(c(-c6cccc(S(=O)(=O)[O-])c6F)c6ccc3[nH]6)C=C5)C=C4)cc2)cc1OC
REMARK SMILES IDX 22 1 21 2 19 3 20 4 18 5 3 6 4 7 91 8 5 9 90 10 2 11 1 12
REMARK SMILES IDX 92 13 93 14 6 15 7 16 8 18 9 19 10 20 17 21 11 22 16 23
REMARK SMILES IDX 12 24 13 25 14 26 15 27 23 28 24 29 25 30 26 31 27 32 28 33
REMARK SMILES IDX 89 34 29 35 88 36 30 37 31 38 32 39 82 40 33 41 87 42 81 43
REMARK SMILES IDX 83 44 34 45 86 46 80 47 79 48 35 50 67 51 47 52 66 53 48 54
REMARK SMILES IDX 51 55 65 56 84 57 49 58 50 59 64 61 85 62 52 63 36 64 37 65
REMARK SMILES IDX 45 66 38 67 40 68 46 69 39 70 41 71 42 72 43 73 44 74 68 75
REMARK SMILES IDX 69 76 77 77 70 78 72 79 78 80 71 81 73 82 74 83 75 84 76 85
REMARK SMILES IDX 53 86 54 87 62 88 55 89 57 90 63 91 56 92 58 93 59 94 60 95
REMARK SMILES IDX 61 96
REMARK H PARENT 6 17 83 49 51 60
REMARK Flexibility Score: inf
ROOT
ATOM      1  C   UNL A   1      32.483  30.421  26.818  1.00  0.00     0.275 C 
ENDROOT
BRANCH   1   2
ATOM      2  O   UNL A   1      31.335  29.655  26.389  1.00  0.00    -0.458 OA
BRANCH   2   3
ATOM      3  C   UNL A   1      31.385  28.318  26.615  1.00  0.00     0.340 C 
ATOM      4  O   UNL A   1      31.688  27.765  27.655  1.00  0.00    -0.246 OA
BRANCH   3   5
ATOM      5  C   UNL A   1      31.131  27.566  25.368  1.00  0.00     0.087 A 
ATOM      6  C   UNL A   1      31.179  26.325  22.872  1.00  0.00     0.162 A 
ATOM      7  C   UNL A   1      31.180  25.557  24.043  1.00  0.00     0.077 A 
ATOM      8  C   UNL A   1      31.053  27.714  22.935  1.00  0.00     0.161 A 
ATOM      9  C   UNL A   1      31.166  26.159  25.305  1.00  0.00     0.060 A 
ATOM     10  C   UNL A   1      31.054  28.326  24.191  1.00  0.00     0.068 A 
BRANCH   6  11
ATOM     11  O   UNL A   1      31.243  25.653  21.680  1.00  0.00    -0.493 OA
ATOM     12  C   UNL A   1      32.590  25.272  21.380  1.00  0.00     0.278 C 
ENDBRANCH   6  11
BRANCH   8  13
ATOM     13  O   UNL A   1      30.949  28.606  21.906  1.00  0.00    -0.493 OA
ATOM     14  C   UNL A   1      30.113  29.738  22.087  1.00  0.00     0.278 C 
ENDBRANCH   8  13
BRANCH   9  15
ATOM     15  N   UNL A   1      31.037  25.374  26.473  1.00  0.00    -0.321 N 
ATOM     16  C   UNL A   1      31.678  24.210  26.852  1.00  0.00     0.255 C 
ATOM     17  H   UNL A   1      30.382  25.712  27.125  1.00  0.00     0.170 HD
ATOM     18  O   UNL A   1      31.054  23.354  27.475  1.00  0.00    -0.269 OA
BRANCH  16  19
ATOM     19  C   UNL A   1      33.115  23.970  26.550  1.00  0.00     0.040 A 
ATOM     20  C   UNL A   1      33.678  22.753  26.962  1.00  0.00     0.021 A 
ATOM     21  C   UNL A   1      33.901  24.896  25.849  1.00  0.00     0.021 A 
ATOM     22  C   UNL A   1      34.958  22.386  26.537  1.00  0.00     0.086 A 
ATOM     23  C   UNL A   1      35.175  24.530  25.403  1.00  0.00     0.086 A 
ATOM     24  C   UNL A   1      35.676  23.255  25.709  1.00  0.00     0.269 A 
BRANCH  24  25
ATOM     25  N   UNL A   1      36.914  22.794  25.071  1.00  0.00     0.062 N 
ATOM     26  O   UNL A   1      36.983  21.609  24.718  1.00  0.00    -0.258 OA
ATOM     27  O   UNL A   1      37.796  23.641  24.860  1.00  0.00    -0.258 OA
ENDBRANCH  24  25
ENDBRANCH  16  19
ENDBRANCH   9  15
ENDBRANCH   3   5
ENDBRANCH   2   3
ENDBRANCH   1   2
BRANCH   1  28
ATOM     28  C   UNL A   1      32.090  31.830  27.263  1.00  0.00     0.275 C 
BRANCH  28  29
ATOM     29  O   UNL A   1      33.195  32.739  27.121  1.00  0.00    -0.458 OA
BRANCH  29  30
ATOM     30  C   UNL A   1      33.841  33.023  28.272  1.00  0.00     0.338 C 
ATOM     31  O   UNL A   1      33.393  33.618  29.241  1.00  0.00    -0.246 OA
BRANCH  30  32
ATOM     32  C   UNL A   1      35.157  32.371  28.310  1.00  0.00     0.060 A 
ATOM     33  C   UNL A   1      35.204  31.061  28.762  1.00  0.00     0.016 A 
ATOM     34  C   UNL A   1      36.326  33.126  28.223  1.00  0.00     0.016 A 
ATOM     35  C   UNL A   1      36.383  30.579  29.315  1.00  0.00     0.010 A 
ATOM     36  C   UNL A   1      37.544  32.566  28.639  1.00  0.00     0.010 A 
ATOM     37  C   UNL A   1      37.583  31.310  29.270  1.00  0.00    -0.014 A 
BRANCH  37  38
ATOM     38  C   UNL A   1      38.824  30.786  29.942  1.00  0.00     0.031 A 
ATOM     39  C   UNL A   1      39.721  29.770  29.259  1.00  0.00     0.074 A 
ATOM     40  C   UNL A   1      39.189  31.238  31.164  1.00  0.00     0.049 A 
ATOM     41  N   UNL A   1      40.660  29.015  29.781  1.00  0.00    -0.248 NA
ATOM     42  C   UNL A   1      39.533  29.552  27.815  1.00  0.00     0.031 C 
ATOM     43  C   UNL A   1      38.471  32.242  31.953  1.00  0.00     0.029 A 
ATOM     44  N   UNL A   1      40.259  30.909  31.966  1.00  0.00    -0.354 N 
ATOM     45  C   UNL A   1      41.097  28.173  28.760  1.00  0.00     0.074 A 
ATOM     46  C   UNL A   1      40.339  28.524  27.578  1.00  0.00     0.031 C 
ATOM     47  C   UNL A   1      39.145  32.496  33.079  1.00  0.00     0.029 A 
ATOM     48  C   UNL A   1      40.243  31.550  33.185  1.00  0.00     0.049 A 
ATOM     49  H   UNL A   1      40.966  30.279  31.694  1.00  0.00     0.167 HD
ATOM     50  C   UNL A   1      42.045  27.203  28.801  1.00  0.00     0.034 A 
ATOM     51  C   UNL A   1      40.951  31.347  34.312  1.00  0.00     0.034 A 
ATOM     52  C   UNL A   1      42.875  26.932  29.949  1.00  0.00     0.049 A 
ATOM     53  C   UNL A   1      41.975  30.254  34.342  1.00  0.00     0.074 A 
ATOM     54  C   UNL A   1      43.880  25.986  30.079  1.00  0.00     0.029 A 
ATOM     55  N   UNL A   1      42.821  27.619  31.150  1.00  0.00    -0.354 N 
ATOM     56  N   UNL A   1      42.344  29.444  33.381  1.00  0.00    -0.248 NA
ATOM     57  C   UNL A   1      42.679  30.043  35.613  1.00  0.00     0.031 C 
ATOM     58  C   UNL A   1      44.421  26.092  31.364  1.00  0.00     0.029 A 
ATOM     59  C   UNL A   1      43.777  27.124  32.023  1.00  0.00     0.049 A 
ATOM     60  H   UNL A   1      42.196  28.353  31.354  1.00  0.00     0.167 HD
ATOM     61  C   UNL A   1      43.338  28.642  33.925  1.00  0.00     0.074 A 
ATOM     62  C   UNL A   1      43.537  29.088  35.289  1.00  0.00     0.031 C 
ATOM     63  C   UNL A   1      44.008  27.612  33.356  1.00  0.00     0.034 A 
BRANCH  50  64
ATOM     64  C   UNL A   1      42.277  26.358  27.570  1.00  0.00     0.023 A 
ATOM     65  C   UNL A   1      43.030  26.868  26.494  1.00  0.00     0.012 A 
ATOM     66  C   UNL A   1      41.861  25.009  27.541  1.00  0.00     0.148 A 
ATOM     67  C   UNL A   1      43.349  26.056  25.404  1.00  0.00     0.002 A 
ATOM     68  C   UNL A   1      42.222  24.194  26.472  1.00  0.00     0.091 A 
ATOM     69  F   UNL A   1      41.140  24.541  28.569  1.00  0.00    -0.205 F 
ATOM     70  C   UNL A   1      42.959  24.719  25.399  1.00  0.00     0.022 A 
BRANCH  68  71
ATOM     71  S   UNL A   1      41.849  22.436  26.414  1.00  0.00     0.127 S 
ATOM     72  O   UNL A   1      42.488  22.039  25.161  1.00  0.00    -0.237 OA
ATOM     73  O   UNL A   1      42.514  21.942  27.620  1.00  0.00    -0.237 OA
ATOM     74  O   UNL A   1      40.396  22.330  26.431  1.00  0.00    -0.744 OA
ENDBRANCH  68  71
ENDBRANCH  50  64
BRANCH  51  75
ATOM     75  C   UNL A   1      40.657  32.155  35.532  1.00  0.00     0.023 A 
ATOM     76  C   UNL A   1      41.491  33.235  35.876  1.00  0.00     0.012 A 
ATOM     77  C   UNL A   1      39.533  31.874  36.335  1.00  0.00     0.148 A 
ATOM     78  C   UNL A   1      41.224  34.001  37.012  1.00  0.00     0.002 A 
ATOM     79  C   UNL A   1      39.227  32.692  37.415  1.00  0.00     0.091 A 
ATOM     80  F   UNL A   1      38.766  30.820  36.016  1.00  0.00    -0.205 F 
ATOM     81  C   UNL A   1      40.084  33.742  37.770  1.00  0.00     0.022 A 
BRANCH  79  82
ATOM     82  S   UNL A   1      37.682  32.529  38.314  1.00  0.00     0.127 S 
ATOM     83  O   UNL A   1      37.905  33.407  39.458  1.00  0.00    -0.237 OA
ATOM     84  O   UNL A   1      36.706  33.020  37.338  1.00  0.00    -0.237 OA
ATOM     85  O   UNL A   1      37.557  31.107  38.611  1.00  0.00    -0.744 OA
ENDBRANCH  79  82
ENDBRANCH  51  75
BRANCH  63  86
ATOM     86  C   UNL A   1      45.065  26.937  34.185  1.00  0.00     0.023 A 
ATOM     87  C   UNL A   1      46.398  27.390  34.132  1.00  0.00     0.012 A 
ATOM     88  C   UNL A   1      44.729  25.872  35.043  1.00  0.00     0.148 A 
ATOM     89  C   UNL A   1      47.389  26.765  34.888  1.00  0.00     0.002 A 
ATOM     90  C   UNL A   1      45.711  25.287  35.830  1.00  0.00     0.091 A 
ATOM     91  F   UNL A   1      43.458  25.444  35.061  1.00  0.00    -0.205 F 
ATOM     92  C   UNL A   1      47.044  25.722  35.743  1.00  0.00     0.022 A 
BRANCH  90  93
ATOM     93  S   UNL A   1      45.346  23.997  37.025  1.00  0.00     0.127 S 
ATOM     94  O   UNL A   1      46.639  23.832  37.689  1.00  0.00    -0.237 OA
ATOM     95  O   UNL A   1      44.313  24.623  37.850  1.00  0.00    -0.237 OA
ATOM     96  O   UNL A   1      44.892  22.849  36.253  1.00  0.00    -0.744 OA
ENDBRANCH  90  93
ENDBRANCH  63  86
ENDBRANCH  37  38
ENDBRANCH  30  32
ENDBRANCH  29  30
ENDBRANCH  28  29
ENDBRANCH   1  28
TORSDOF 19
ENDMDL
MODEL 3
REMARK VINA RESULT:     -10.6      4.804      8.121
REMARK SMILES COc1cc(NC(=O)c2ccc([N+](=O)[O-])cc2)c(C(=O)OCCOC(=O)c2ccc(-c3c4nc(c(-c5cccc(S(=O)(=O)[O-])c5F)c5ccc([nH]5)c(-c5cccc(S(=O)(=O)[O-])c5F)c5nc(c(-c6cccc(S(=O)(=O)[O-])c6F)c6ccc3[nH]6)C=C5)C=C4)cc2)cc1OC
REMARK SMILES IDX 22 1 21 2 19 3 20 4 18 5 3 6 4 7 91 8 5 9 90 10 2 11 1 12
REMARK SMILES IDX 92 13 93 14 6 15 7 16 8 18 9 19 10 20 17 21 11 22 16 23
REMARK SMILES IDX 12 24 13 25 14 26 15 27 23 28 24 29 25 30 26 31 27 32 28 33
REMARK SMILES IDX 89 34 29 35 88 36 30 37 31 38 32 39 82 40 33 41 87 42 81 43
REMARK SMILES IDX 83 44 34 45 86 46 80 47 79 48 35 50 67 51 47 52 66 53 48 54
REMARK SMILES IDX 51 55 65 56 84 57 49 58 50 59 64 61 85 62 52 63 36 64 37 65
REMARK SMILES IDX 45 66 38 67 40 68 46 69 39 70 41 71 42 72 43 73 44 74 68 75
REMARK SMILES IDX 69 76 77 77 70 78 72 79 78 80 71 81 73 82 74 83 75 84 76 85
REMARK SMILES IDX 53 86 54 87 62 88 55 89 57 90 63 91 56 92 58 93 59 94 60 95
REMARK SMILES IDX 61 96
REMARK H PARENT 6 17 83 49 51 60
REMARK Flexibility Score: inf
ROOT
ATOM      1  C   UNL A   1      33.840  29.471  26.767  1.00  0.00     0.275 C 
ENDROOT
BRANCH   1   2
ATOM      2  O   UNL A   1      32.403  29.619  26.802  1.00  0.00    -0.458 OA
BRANCH   2   3
ATOM      3  C   UNL A   1      31.685  28.482  26.976  1.00  0.00     0.340 C 
ATOM      4  O   UNL A   1      31.419  27.940  28.032  1.00  0.00    -0.246 OA
BRANCH   3   5
ATOM      5  C   UNL A   1      31.338  27.876  25.672  1.00  0.00     0.087 A 
ATOM      6  C   UNL A   1      31.211  26.907  23.062  1.00  0.00     0.162 A 
ATOM      7  C   UNL A   1      31.236  26.020  24.145  1.00  0.00     0.077 A 
ATOM      8  C   UNL A   1      31.149  28.285  23.276  1.00  0.00     0.161 A 
ATOM      9  C   UNL A   1      31.309  26.484  25.462  1.00  0.00     0.060 A 
ATOM     10  C   UNL A   1      31.238  28.760  24.587  1.00  0.00     0.068 A 
BRANCH   6  11
ATOM     11  O   UNL A   1      31.188  26.364  21.804  1.00  0.00    -0.493 OA
ATOM     12  C   UNL A   1      32.447  25.762  21.485  1.00  0.00     0.278 C 
ENDBRANCH   6  11
BRANCH   8  13
ATOM     13  O   UNL A   1      31.035  29.285  22.352  1.00  0.00    -0.493 OA
ATOM     14  C   UNL A   1      29.741  29.809  22.094  1.00  0.00     0.278 C 
ENDBRANCH   8  13
BRANCH   9  15
ATOM     15  N   UNL A   1      31.203  25.584  26.545  1.00  0.00    -0.321 N 
ATOM     16  C   UNL A   1      31.502  24.238  26.633  1.00  0.00     0.255 C 
ATOM     17  H   UNL A   1      30.858  25.983  27.378  1.00  0.00     0.170 HD
ATOM     18  O   UNL A   1      30.794  23.507  27.322  1.00  0.00    -0.269 OA
BRANCH  16  19
ATOM     19  C   UNL A   1      32.677  23.648  25.936  1.00  0.00     0.040 A 
ATOM     20  C   UNL A   1      33.954  24.095  26.308  1.00  0.00     0.021 A 
ATOM     21  C   UNL A   1      32.549  22.653  24.957  1.00  0.00     0.021 A 
ATOM     22  C   UNL A   1      35.096  23.444  25.837  1.00  0.00     0.086 A 
ATOM     23  C   UNL A   1      33.685  21.982  24.495  1.00  0.00     0.086 A 
ATOM     24  C   UNL A   1      34.951  22.350  24.978  1.00  0.00     0.269 A 
BRANCH  24  25
ATOM     25  N   UNL A   1      36.116  21.517  24.657  1.00  0.00     0.062 N 
ATOM     26  O   UNL A   1      36.129  20.350  25.070  1.00  0.00    -0.258 OA
ATOM     27  O   UNL A   1      36.989  22.014  23.929  1.00  0.00    -0.258 OA
ENDBRANCH  24  25
ENDBRANCH  16  19
ENDBRANCH   9  15
ENDBRANCH   3   5
ENDBRANCH   2   3
ENDBRANCH   1   2
BRANCH   1  28
ATOM     28  C   UNL A   1      34.539  30.519  27.633  1.00  0.00     0.275 C 
BRANCH  28  29
ATOM     29  O   UNL A   1      34.244  31.847  27.167  1.00  0.00    -0.458 OA
BRANCH  29  30
ATOM     30  C   UNL A   1      34.255  32.795  28.128  1.00  0.00     0.338 C 
ATOM     31  O   UNL A   1      33.377  33.610  28.371  1.00  0.00    -0.246 OA
BRANCH  30  32
ATOM     32  C   UNL A   1      35.424  32.640  29.005  1.00  0.00     0.060 A 
ATOM     33  C   UNL A   1      36.641  33.102  28.527  1.00  0.00     0.016 A 
ATOM     34  C   UNL A   1      35.381  31.779  30.100  1.00  0.00     0.016 A 
ATOM     35  C   UNL A   1      37.815  32.543  29.016  1.00  0.00     0.010 A 
ATOM     36  C   UNL A   1      36.580  31.347  30.688  1.00  0.00     0.010 A 
ATOM     37  C   UNL A   1      37.822  31.655  30.106  1.00  0.00    -0.014 A 
BRANCH  37  38
ATOM     38  C   UNL A   1      39.105  31.015  30.562  1.00  0.00     0.031 A 
ATOM     39  C   UNL A   1      39.793  31.453  31.843  1.00  0.00     0.074 A 
ATOM     40  C   UNL A   1      39.661  30.004  29.856  1.00  0.00     0.049 A 
ATOM     41  N   UNL A   1      41.019  31.213  32.245  1.00  0.00    -0.248 NA
ATOM     42  C   UNL A   1      39.022  32.281  32.786  1.00  0.00     0.031 C 
ATOM     43  C   UNL A   1      39.120  29.425  28.623  1.00  0.00     0.029 A 
ATOM     44  N   UNL A   1      40.812  29.278  30.070  1.00  0.00    -0.354 N 
ATOM     45  C   UNL A   1      41.192  31.938  33.424  1.00  0.00     0.074 A 
ATOM     46  C   UNL A   1      39.937  32.607  33.688  1.00  0.00     0.031 C 
ATOM     47  C   UNL A   1      39.889  28.404  28.230  1.00  0.00     0.029 A 
ATOM     48  C   UNL A   1      41.073  28.366  29.072  1.00  0.00     0.049 A 
ATOM     49  H   UNL A   1      41.390  29.401  30.857  1.00  0.00     0.167 HD
ATOM     50  C   UNL A   1      42.292  32.030  34.214  1.00  0.00     0.034 A 
ATOM     51  C   UNL A   1      42.173  27.643  28.785  1.00  0.00     0.034 A 
ATOM     52  C   UNL A   1      43.502  31.274  34.008  1.00  0.00     0.049 A 
ATOM     53  C   UNL A   1      43.383  27.781  29.657  1.00  0.00     0.074 A 
ATOM     54  C   UNL A   1      44.660  31.282  34.769  1.00  0.00     0.029 A 
ATOM     55  N   UNL A   1      43.704  30.358  32.989  1.00  0.00    -0.354 N 
ATOM     56  N   UNL A   1      43.540  28.500  30.741  1.00  0.00    -0.248 NA
ATOM     57  C   UNL A   1      44.570  27.010  29.267  1.00  0.00     0.031 C 
ATOM     58  C   UNL A   1      45.567  30.382  34.200  1.00  0.00     0.029 A 
ATOM     59  C   UNL A   1      44.963  29.790  33.104  1.00  0.00     0.049 A 
ATOM     60  H   UNL A   1      43.049  30.141  32.286  1.00  0.00     0.167 HD
ATOM     61  C   UNL A   1      44.836  28.252  31.173  1.00  0.00     0.074 A 
ATOM     62  C   UNL A   1      45.407  27.289  30.254  1.00  0.00     0.031 C 
ATOM     63  C   UNL A   1      45.501  28.791  32.221  1.00  0.00     0.034 A 
BRANCH  50  64
ATOM     64  C   UNL A   1      42.257  32.961  35.404  1.00  0.00     0.023 A 
ATOM     65  C   UNL A   1      42.644  34.308  35.258  1.00  0.00     0.012 A 
ATOM     66  C   UNL A   1      41.713  32.530  36.633  1.00  0.00     0.148 A 
ATOM     67  C   UNL A   1      42.506  35.205  36.320  1.00  0.00     0.002 A 
ATOM     68  C   UNL A   1      41.536  33.441  37.671  1.00  0.00     0.091 A 
ATOM     69  F   UNL A   1      41.357  31.244  36.757  1.00  0.00    -0.205 F 
ATOM     70  C   UNL A   1      41.940  34.776  37.518  1.00  0.00     0.022 A 
BRANCH  68  71
ATOM     71  S   UNL A   1      40.733  33.011  39.221  1.00  0.00     0.127 S 
ATOM     72  O   UNL A   1      39.435  32.522  38.756  1.00  0.00    -0.237 OA
ATOM     73  O   UNL A   1      41.620  31.973  39.748  1.00  0.00    -0.237 OA
ATOM     74  O   UNL A   1      40.689  34.235  40.008  1.00  0.00    -0.744 OA
ENDBRANCH  68  71
ENDBRANCH  50  64
BRANCH  51  75
ATOM     75  C   UNL A   1      42.199  26.779  27.568  1.00  0.00     0.023 A 
ATOM     76  C   UNL A   1      42.679  27.297  26.351  1.00  0.00     0.012 A 
ATOM     77  C   UNL A   1      41.777  25.436  27.623  1.00  0.00     0.148 A 
ATOM     78  C   UNL A   1      42.712  26.498  25.206  1.00  0.00     0.002 A 
ATOM     79  C   UNL A   1      41.892  24.624  26.502  1.00  0.00     0.091 A 
ATOM     80  F   UNL A   1      41.289  24.965  28.781  1.00  0.00    -0.205 F 
ATOM     81  C   UNL A   1      42.337  25.158  25.285  1.00  0.00     0.022 A 
BRANCH  79  82
ATOM     82  S   UNL A   1      41.605  22.854  26.585  1.00  0.00     0.127 S 
ATOM     83  O   UNL A   1      42.258  22.502  27.842  1.00  0.00    -0.237 OA
ATOM     84  O   UNL A   1      40.142  22.781  26.608  1.00  0.00    -0.237 OA
ATOM     85  O   UNL A   1      42.205  22.308  25.375  1.00  0.00    -0.744 OA
ENDBRANCH  79  82
ENDBRANCH  51  75
BRANCH  63  86
ATOM     86  C   UNL A   1      46.903  28.305  32.470  1.00  0.00     0.023 A 
ATOM     87  C   UNL A   1      47.998  29.015  31.940  1.00  0.00     0.012 A 
ATOM     88  C   UNL A   1      47.133  27.160  33.257  1.00  0.00     0.148 A 
ATOM     89  C   UNL A   1      49.302  28.568  32.155  1.00  0.00     0.002 A 
ATOM     90  C   UNL A   1      48.435  26.750  33.509  1.00  0.00     0.091 A 
ATOM     91  F   UNL A   1      46.074  26.490  33.734  1.00  0.00    -0.205 F 
ATOM     92  C   UNL A   1      49.519  27.443  32.946  1.00  0.00     0.022 A 
BRANCH  90  93
ATOM     93  S   UNL A   1      48.817  25.366  34.587  1.00  0.00     0.127 S 
ATOM     94  O   UNL A   1      50.183  25.040  34.180  1.00  0.00    -0.237 OA
ATOM     95  O   UNL A   1      48.704  25.969  35.915  1.00  0.00    -0.237 OA
ATOM     96  O   UNL A   1      47.821  24.344  34.299  1.00  0.00    -0.744 OA
ENDBRANCH  90  93
ENDBRANCH  63  86
ENDBRANCH  37  38
ENDBRANCH  30  32
ENDBRANCH  29  30
ENDBRANCH  28  29
ENDBRANCH   1  28
TORSDOF 19
ENDMDL
