MODEL 1
REMARK VINA RESULT:     -10.6      0.000      0.000
REMARK SMILES CC(C)C[C@H](CNc1cccc(F)c1C#N)CC(=O)OCCOC(=O)c1ccc(-c2c3nc(c(-c4cccc(S(=O)(=O)[O-])c4F)c4ccc([nH]4)c(-c4cccc(S(=O)(=O)[O-])c4F)c4nc(c(-c5cccc(S(=O)(=O)[O-])c5F)c5ccc2[nH]5)C=C4)C=C3)cc1
REMARK SMILES IDX 21 1 20 2 18 3 19 4 17 5 5 6 4 7 2 8 1 9 3 10 6 11 7 12 8 14
REMARK SMILES IDX 9 15 14 16 10 17 12 18 11 19 13 20 15 21 16 22 22 23 23 24
REMARK SMILES IDX 24 25 25 26 26 27 27 28 88 29 28 30 87 31 29 32 30 33 31 34
REMARK SMILES IDX 81 35 32 36 86 37 80 38 82 39 33 40 85 41 79 42 78 43 34 45
REMARK SMILES IDX 66 46 46 47 65 48 47 49 50 50 64 51 83 52 48 53 49 54 63 56
REMARK SMILES IDX 84 57 51 58 35 59 36 60 44 61 37 62 39 63 45 64 38 65 40 66
REMARK SMILES IDX 41 67 42 68 43 69 67 70 68 71 76 72 69 73 71 74 77 75 70 76
REMARK SMILES IDX 72 77 73 78 74 79 75 80 52 81 53 82 61 83 54 84 56 85 62 86
REMARK SMILES IDX 55 87 57 88 58 89 59 90 60 91
REMARK H PARENT 7 13 82 44 50 55
REMARK Flexibility Score: inf
ROOT
ATOM      1  C   UNL A   1      35.832  20.958  24.954  1.00  0.00     0.274 C 
ENDROOT
BRANCH   1   2
ATOM      2  O   UNL A   1      35.710  22.055  25.883  1.00  0.00    -0.462 OA
BRANCH   2   3
ATOM      3  C   UNL A   1      34.629  22.861  25.753  1.00  0.00     0.306 C 
ATOM      4  O   UNL A   1      33.467  22.475  25.781  1.00  0.00    -0.252 OA
BRANCH   3   5
ATOM      5  C   UNL A   1      34.999  24.313  25.487  1.00  0.00     0.128 C 
BRANCH   5   6
ATOM      6  C   UNL A   1      33.926  25.163  24.777  1.00  0.00     0.019 C 
BRANCH   6   7
ATOM      7  C   UNL A   1      34.073  25.194  23.224  1.00  0.00     0.009 C 
BRANCH   7   8
ATOM      8  C   UNL A   1      32.962  24.548  22.374  1.00  0.00    -0.017 C 
ATOM      9  C   UNL A   1      31.877  23.895  23.222  1.00  0.00     0.007 C 
ATOM     10  C   UNL A   1      32.314  25.610  21.477  1.00  0.00     0.007 C 
ENDBRANCH   7   8
ENDBRANCH   6   7
BRANCH   6  11
ATOM     11  C   UNL A   1      33.889  26.619  25.312  1.00  0.00     0.117 C 
BRANCH  11  12
ATOM     12  N   UNL A   1      32.586  26.958  25.897  1.00  0.00    -0.384 N 
ATOM     13  H   UNL A   1      32.451  26.970  26.872  1.00  0.00     0.160 HD
BRANCH  12  14
ATOM     14  C   UNL A   1      31.545  27.266  25.018  1.00  0.00     0.055 A 
ATOM     15  C   UNL A   1      31.765  28.282  24.069  1.00  0.00     0.027 A 
ATOM     16  C   UNL A   1      30.344  26.536  24.950  1.00  0.00     0.111 A 
ATOM     17  C   UNL A   1      30.825  28.565  23.075  1.00  0.00     0.005 A 
ATOM     18  C   UNL A   1      29.410  26.835  23.956  1.00  0.00     0.143 A 
ATOM     19  C   UNL A   1      29.644  27.835  23.017  1.00  0.00     0.041 A 
ATOM     20  F   UNL A   1      28.255  26.156  23.885  1.00  0.00    -0.205 F 
BRANCH  16  21
ATOM     21  C   UNL A   1      30.018  25.522  25.912  1.00  0.00     0.104 C 
ATOM     22  N   UNL A   1      29.765  24.691  26.678  1.00  0.00    -0.192 NA
ENDBRANCH  16  21
ENDBRANCH  12  14
ENDBRANCH  11  12
ENDBRANCH   6  11
ENDBRANCH   5   6
ENDBRANCH   3   5
ENDBRANCH   2   3
ENDBRANCH   1   2
BRANCH   1  23
ATOM     23  C   UNL A   1      37.150  20.201  25.138  1.00  0.00     0.275 C 
BRANCH  23  24
ATOM     24  O   UNL A   1      38.279  21.088  25.056  1.00  0.00    -0.458 OA
BRANCH  24  25
ATOM     25  C   UNL A   1      39.241  20.859  25.975  1.00  0.00     0.338 C 
ATOM     26  O   UNL A   1      39.825  19.807  26.185  1.00  0.00    -0.246 OA
BRANCH  25  27
ATOM     27  C   UNL A   1      39.617  22.109  26.648  1.00  0.00     0.060 A 
ATOM     28  C   UNL A   1      39.033  23.286  26.187  1.00  0.00     0.016 A 
ATOM     29  C   UNL A   1      40.651  22.152  27.583  1.00  0.00     0.016 A 
ATOM     30  C   UNL A   1      39.554  24.518  26.570  1.00  0.00     0.010 A 
ATOM     31  C   UNL A   1      41.133  23.397  28.013  1.00  0.00     0.010 A 
ATOM     32  C   UNL A   1      40.627  24.591  27.468  1.00  0.00    -0.014 A 
BRANCH  32  33
ATOM     33  C   UNL A   1      41.241  25.915  27.769  1.00  0.00     0.031 A 
ATOM     34  C   UNL A   1      42.633  26.239  27.287  1.00  0.00     0.074 A 
ATOM     35  C   UNL A   1      40.536  26.846  28.443  1.00  0.00     0.049 A 
ATOM     36  N   UNL A   1      43.342  27.324  27.478  1.00  0.00    -0.248 NA
ATOM     37  C   UNL A   1      43.323  25.210  26.493  1.00  0.00     0.031 C 
ATOM     38  C   UNL A   1      39.179  26.666  28.960  1.00  0.00     0.029 A 
ATOM     39  N   UNL A   1      40.866  28.126  28.812  1.00  0.00    -0.354 N 
ATOM     40  C   UNL A   1      44.576  27.087  26.881  1.00  0.00     0.074 A 
ATOM     41  C   UNL A   1      44.521  25.753  26.323  1.00  0.00     0.031 C 
ATOM     42  C   UNL A   1      38.789  27.793  29.573  1.00  0.00     0.029 A 
ATOM     43  C   UNL A   1      39.884  28.758  29.540  1.00  0.00     0.049 A 
ATOM     44  H   UNL A   1      41.723  28.551  28.579  1.00  0.00     0.167 HD
ATOM     45  C   UNL A   1      45.652  27.908  26.790  1.00  0.00     0.034 A 
ATOM     46  C   UNL A   1      39.871  29.966  30.135  1.00  0.00     0.034 A 
ATOM     47  C   UNL A   1      45.689  29.254  27.298  1.00  0.00     0.049 A 
ATOM     48  C   UNL A   1      41.074  30.860  30.009  1.00  0.00     0.074 A 
ATOM     49  C   UNL A   1      46.715  30.180  27.208  1.00  0.00     0.029 A 
ATOM     50  N   UNL A   1      44.659  29.871  27.991  1.00  0.00    -0.354 N 
ATOM     51  N   UNL A   1      42.196  30.650  29.363  1.00  0.00    -0.248 NA
ATOM     52  C   UNL A   1      40.996  32.171  30.669  1.00  0.00     0.031 C 
ATOM     53  C   UNL A   1      46.315  31.346  27.869  1.00  0.00     0.029 A 
ATOM     54  C   UNL A   1      45.027  31.161  28.342  1.00  0.00     0.049 A 
ATOM     55  H   UNL A   1      43.793  29.453  28.204  1.00  0.00     0.167 HD
ATOM     56  C   UNL A   1      42.945  31.812  29.513  1.00  0.00     0.074 A 
ATOM     57  C   UNL A   1      42.135  32.733  30.285  1.00  0.00     0.031 C 
ATOM     58  C   UNL A   1      44.195  32.087  29.069  1.00  0.00     0.034 A 
BRANCH  45  59
ATOM     59  C   UNL A   1      46.881  27.381  26.092  1.00  0.00     0.023 A 
ATOM     60  C   UNL A   1      47.061  27.613  24.714  1.00  0.00     0.012 A 
ATOM     61  C   UNL A   1      47.886  26.706  26.814  1.00  0.00     0.148 A 
ATOM     62  C   UNL A   1      48.203  27.152  24.057  1.00  0.00     0.002 A 
ATOM     63  C   UNL A   1      49.042  26.289  26.164  1.00  0.00     0.091 A 
ATOM     64  F   UNL A   1      47.691  26.477  28.120  1.00  0.00    -0.205 F 
ATOM     65  C   UNL A   1      49.197  26.500  24.784  1.00  0.00     0.022 A 
BRANCH  63  66
ATOM     66  S   UNL A   1      50.415  25.515  27.026  1.00  0.00     0.127 S 
ATOM     67  O   UNL A   1      51.362  25.294  25.933  1.00  0.00    -0.237 OA
ATOM     68  O   UNL A   1      50.812  26.559  27.972  1.00  0.00    -0.237 OA
ATOM     69  O   UNL A   1      49.877  24.311  27.641  1.00  0.00    -0.744 OA
ENDBRANCH  63  66
ENDBRANCH  45  59
BRANCH  46  70
ATOM     70  C   UNL A   1      38.663  30.412  30.886  1.00  0.00     0.023 A 
ATOM     71  C   UNL A   1      38.574  30.168  32.270  1.00  0.00     0.012 A 
ATOM     72  C   UNL A   1      37.615  31.094  30.239  1.00  0.00     0.148 A 
ATOM     73  C   UNL A   1      37.448  30.569  32.991  1.00  0.00     0.002 A 
ATOM     74  C   UNL A   1      36.525  31.545  30.973  1.00  0.00     0.091 A 
ATOM     75  F   UNL A   1      37.710  31.299  28.918  1.00  0.00    -0.205 F 
ATOM     76  C   UNL A   1      36.430  31.267  32.345  1.00  0.00     0.022 A 
BRANCH  74  77
ATOM     77  S   UNL A   1      35.236  32.567  30.253  1.00  0.00     0.127 S 
ATOM     78  O   UNL A   1      34.308  32.709  31.371  1.00  0.00    -0.237 OA
ATOM     79  O   UNL A   1      35.974  33.782  29.906  1.00  0.00    -0.237 OA
ATOM     80  O   UNL A   1      34.737  31.820  29.106  1.00  0.00    -0.744 OA
ENDBRANCH  74  77
ENDBRANCH  46  70
BRANCH  58  81
ATOM     81  C   UNL A   1      44.756  33.453  29.372  1.00  0.00     0.023 A 
ATOM     82  C   UNL A   1      45.372  33.702  30.614  1.00  0.00     0.012 A 
ATOM     83  C   UNL A   1      44.707  34.480  28.408  1.00  0.00     0.148 A 
ATOM     84  C   UNL A   1      45.888  34.964  30.911  1.00  0.00     0.002 A 
ATOM     85  C   UNL A   1      45.269  35.719  28.692  1.00  0.00     0.091 A 
ATOM     86  F   UNL A   1      44.100  34.235  27.239  1.00  0.00    -0.205 F 
ATOM     87  C   UNL A   1      45.846  35.968  29.948  1.00  0.00     0.022 A 
BRANCH  85  88
ATOM     88  S   UNL A   1      45.345  37.039  27.474  1.00  0.00     0.127 S 
ATOM     89  O   UNL A   1      46.263  37.981  28.111  1.00  0.00    -0.237 OA
ATOM     90  O   UNL A   1      45.892  36.352  26.304  1.00  0.00    -0.237 OA
ATOM     91  O   UNL A   1      43.976  37.508  27.310  1.00  0.00    -0.744 OA
ENDBRANCH  85  88
ENDBRANCH  58  81
ENDBRANCH  32  33
ENDBRANCH  25  27
ENDBRANCH  24  25
ENDBRANCH  23  24
ENDBRANCH   1  23
TORSDOF 21
ENDMDL
MODEL 2
REMARK VINA RESULT:      -9.9      1.833      7.887
REMARK SMILES CC(C)C[C@H](CNc1cccc(F)c1C#N)CC(=O)OCCOC(=O)c1ccc(-c2c3nc(c(-c4cccc(S(=O)(=O)[O-])c4F)c4ccc([nH]4)c(-c4cccc(S(=O)(=O)[O-])c4F)c4nc(c(-c5cccc(S(=O)(=O)[O-])c5F)c5ccc2[nH]5)C=C4)C=C3)cc1
REMARK SMILES IDX 21 1 20 2 18 3 19 4 17 5 5 6 4 7 2 8 1 9 3 10 6 11 7 12 8 14
REMARK SMILES IDX 9 15 14 16 10 17 12 18 11 19 13 20 15 21 16 22 22 23 23 24
REMARK SMILES IDX 24 25 25 26 26 27 27 28 88 29 28 30 87 31 29 32 30 33 31 34
REMARK SMILES IDX 81 35 32 36 86 37 80 38 82 39 33 40 85 41 79 42 78 43 34 45
REMARK SMILES IDX 66 46 46 47 65 48 47 49 50 50 64 51 83 52 48 53 49 54 63 56
REMARK SMILES IDX 84 57 51 58 35 59 36 60 44 61 37 62 39 63 45 64 38 65 40 66
REMARK SMILES IDX 41 67 42 68 43 69 67 70 68 71 76 72 69 73 71 74 77 75 70 76
REMARK SMILES IDX 72 77 73 78 74 79 75 80 52 81 53 82 61 83 54 84 56 85 62 86
REMARK SMILES IDX 55 87 57 88 58 89 59 90 60 91
REMARK H PARENT 7 13 82 44 50 55
REMARK Flexibility Score: inf
ROOT
ATOM      1  C   UNL A   1      37.333  20.150  24.602  1.00  0.00     0.274 C 
ENDROOT
BRANCH   1   2
ATOM      2  O   UNL A   1      36.130  20.262  25.391  1.00  0.00    -0.462 OA
BRANCH   2   3
ATOM      3  C   UNL A   1      35.001  19.712  24.885  1.00  0.00     0.306 C 
ATOM      4  O   UNL A   1      34.908  18.554  24.494  1.00  0.00    -0.252 OA
BRANCH   3   5
ATOM      5  C   UNL A   1      33.855  20.704  24.770  1.00  0.00     0.128 C 
BRANCH   5   6
ATOM      6  C   UNL A   1      34.172  22.021  24.033  1.00  0.00     0.019 C 
BRANCH   6   7
ATOM      7  C   UNL A   1      34.575  23.193  24.981  1.00  0.00     0.009 C 
BRANCH   7   8
ATOM      8  C   UNL A   1      35.911  23.915  24.719  1.00  0.00    -0.017 C 
ATOM      9  C   UNL A   1      36.847  23.875  25.921  1.00  0.00     0.007 C 
ATOM     10  C   UNL A   1      36.621  23.272  23.522  1.00  0.00     0.007 C 
ENDBRANCH   7   8
ENDBRANCH   6   7
BRANCH   6  11
ATOM     11  C   UNL A   1      32.998  22.480  23.129  1.00  0.00     0.117 C 
BRANCH  11  12
ATOM     12  N   UNL A   1      31.774  22.732  23.899  1.00  0.00    -0.384 N 
ATOM     13  H   UNL A   1      31.250  21.992  24.282  1.00  0.00     0.160 HD
BRANCH  12  14
ATOM     14  C   UNL A   1      31.382  24.062  24.068  1.00  0.00     0.055 A 
ATOM     15  C   UNL A   1      31.193  24.843  22.913  1.00  0.00     0.027 A 
ATOM     16  C   UNL A   1      31.047  24.621  25.315  1.00  0.00     0.111 A 
ATOM     17  C   UNL A   1      30.682  26.142  22.988  1.00  0.00     0.005 A 
ATOM     18  C   UNL A   1      30.544  25.922  25.377  1.00  0.00     0.143 A 
ATOM     19  C   UNL A   1      30.353  26.681  24.226  1.00  0.00     0.041 A 
ATOM     20  F   UNL A   1      30.231  26.473  26.559  1.00  0.00    -0.205 F 
BRANCH  16  21
ATOM     21  C   UNL A   1      31.260  23.912  26.545  1.00  0.00     0.104 C 
ATOM     22  N   UNL A   1      31.447  23.349  27.540  1.00  0.00    -0.192 NA
ENDBRANCH  16  21
ENDBRANCH  12  14
ENDBRANCH  11  12
ENDBRANCH   6  11
ENDBRANCH   5   6
ENDBRANCH   3   5
ENDBRANCH   2   3
ENDBRANCH   1   2
BRANCH   1  23
ATOM     23  C   UNL A   1      38.328  19.162  25.218  1.00  0.00     0.275 C 
BRANCH  23  24
ATOM     24  O   UNL A   1      38.926  19.698  26.411  1.00  0.00    -0.458 OA
BRANCH  24  25
ATOM     25  C   UNL A   1      40.228  20.034  26.284  1.00  0.00     0.338 C 
ATOM     26  O   UNL A   1      41.104  19.393  25.724  1.00  0.00    -0.246 OA
BRANCH  25  27
ATOM     27  C   UNL A   1      40.464  21.383  26.814  1.00  0.00     0.060 A 
ATOM     28  C   UNL A   1      40.060  22.459  26.029  1.00  0.00     0.016 A 
ATOM     29  C   UNL A   1      41.227  21.593  27.962  1.00  0.00     0.016 A 
ATOM     30  C   UNL A   1      40.510  23.743  26.322  1.00  0.00     0.010 A 
ATOM     31  C   UNL A   1      41.627  22.897  28.288  1.00  0.00     0.010 A 
ATOM     32  C   UNL A   1      41.320  23.977  27.440  1.00  0.00    -0.014 A 
BRANCH  32  33
ATOM     33  C   UNL A   1      41.884  25.337  27.664  1.00  0.00     0.031 A 
ATOM     34  C   UNL A   1      41.084  26.388  28.394  1.00  0.00     0.074 A 
ATOM     35  C   UNL A   1      43.133  25.625  27.246  1.00  0.00     0.049 A 
ATOM     36  N   UNL A   1      41.396  27.632  28.655  1.00  0.00    -0.248 NA
ATOM     37  C   UNL A   1      39.756  25.991  28.891  1.00  0.00     0.031 C 
ATOM     38  C   UNL A   1      44.018  24.702  26.533  1.00  0.00     0.029 A 
ATOM     39  N   UNL A   1      43.873  26.776  27.355  1.00  0.00    -0.354 N 
ATOM     40  C   UNL A   1      40.288  28.182  29.292  1.00  0.00     0.074 A 
ATOM     41  C   UNL A   1      39.292  27.135  29.376  1.00  0.00     0.031 C 
ATOM     42  C   UNL A   1      45.180  25.318  26.275  1.00  0.00     0.029 A 
ATOM     43  C   UNL A   1      45.108  26.694  26.755  1.00  0.00     0.049 A 
ATOM     44  H   UNL A   1      43.550  27.583  27.818  1.00  0.00     0.167 HD
ATOM     45  C   UNL A   1      40.118  29.436  29.778  1.00  0.00     0.034 A 
ATOM     46  C   UNL A   1      46.066  27.626  26.587  1.00  0.00     0.034 A 
ATOM     47  C   UNL A   1      41.127  30.463  29.742  1.00  0.00     0.049 A 
ATOM     48  C   UNL A   1      45.854  29.007  27.145  1.00  0.00     0.074 A 
ATOM     49  C   UNL A   1      41.065  31.748  30.254  1.00  0.00     0.029 A 
ATOM     50  N   UNL A   1      42.379  30.327  29.163  1.00  0.00    -0.354 N 
ATOM     51  N   UNL A   1      44.835  29.477  27.822  1.00  0.00    -0.248 NA
ATOM     52  C   UNL A   1      46.941  29.976  26.941  1.00  0.00     0.031 C 
ATOM     53  C   UNL A   1      42.270  32.396  29.962  1.00  0.00     0.029 A 
ATOM     54  C   UNL A   1      43.096  31.505  29.298  1.00  0.00     0.049 A 
ATOM     55  H   UNL A   1      42.710  29.512  28.721  1.00  0.00     0.167 HD
ATOM     56  C   UNL A   1      45.170  30.787  28.151  1.00  0.00     0.074 A 
ATOM     57  C   UNL A   1      46.498  31.023  27.625  1.00  0.00     0.031 C 
ATOM     58  C   UNL A   1      44.437  31.715  28.813  1.00  0.00     0.034 A 
BRANCH  45  59
ATOM     59  C   UNL A   1      38.791  29.769  30.415  1.00  0.00     0.023 A 
ATOM     60  C   UNL A   1      38.513  29.336  31.726  1.00  0.00     0.012 A 
ATOM     61  C   UNL A   1      37.844  30.562  29.734  1.00  0.00     0.148 A 
ATOM     62  C   UNL A   1      37.300  29.655  32.339  1.00  0.00     0.002 A 
ATOM     63  C   UNL A   1      36.657  30.914  30.367  1.00  0.00     0.091 A 
ATOM     64  F   UNL A   1      38.117  30.950  28.481  1.00  0.00    -0.205 F 
ATOM     65  C   UNL A   1      36.378  30.452  31.663  1.00  0.00     0.022 A 
BRANCH  63  66
ATOM     66  S   UNL A   1      35.443  32.004  29.614  1.00  0.00     0.127 S 
ATOM     67  O   UNL A   1      34.858  31.133  28.594  1.00  0.00    -0.237 OA
ATOM     68  O   UNL A   1      34.557  32.302  30.740  1.00  0.00    -0.237 OA
ATOM     69  O   UNL A   1      36.188  33.148  29.108  1.00  0.00    -0.744 OA
ENDBRANCH  63  66
ENDBRANCH  45  59
BRANCH  46  70
ATOM     70  C   UNL A   1      47.328  27.274  25.877  1.00  0.00     0.023 A 
ATOM     71  C   UNL A   1      48.343  26.579  26.563  1.00  0.00     0.012 A 
ATOM     72  C   UNL A   1      47.518  27.605  24.521  1.00  0.00     0.148 A 
ATOM     73  C   UNL A   1      49.537  26.247  25.921  1.00  0.00     0.002 A 
ATOM     74  C   UNL A   1      48.683  27.217  23.870  1.00  0.00     0.091 A 
ATOM     75  F   UNL A   1      46.549  28.282  23.890  1.00  0.00    -0.205 F 
ATOM     76  C   UNL A   1      49.701  26.555  24.573  1.00  0.00     0.022 A 
BRANCH  74  77
ATOM     77  S   UNL A   1      48.923  27.451  22.106  1.00  0.00     0.127 S 
ATOM     78  O   UNL A   1      50.334  27.823  22.043  1.00  0.00    -0.237 OA
ATOM     79  O   UNL A   1      48.611  26.121  21.581  1.00  0.00    -0.237 OA
ATOM     80  O   UNL A   1      47.977  28.487  21.716  1.00  0.00    -0.744 OA
ENDBRANCH  74  77
ENDBRANCH  46  70
BRANCH  58  81
ATOM     81  C   UNL A   1      45.069  33.065  29.041  1.00  0.00     0.023 A 
ATOM     82  C   UNL A   1      45.811  33.306  30.215  1.00  0.00     0.012 A 
ATOM     83  C   UNL A   1      44.960  34.083  28.074  1.00  0.00     0.148 A 
ATOM     84  C   UNL A   1      46.395  34.552  30.443  1.00  0.00     0.002 A 
ATOM     85  C   UNL A   1      45.588  35.305  28.285  1.00  0.00     0.091 A 
ATOM     86  F   UNL A   1      44.233  33.846  26.972  1.00  0.00    -0.205 F 
ATOM     87  C   UNL A   1      46.292  35.547  29.475  1.00  0.00     0.022 A 
BRANCH  85  88
ATOM     88  S   UNL A   1      45.587  36.608  27.047  1.00  0.00     0.127 S 
ATOM     89  O   UNL A   1      46.163  35.923  25.892  1.00  0.00    -0.237 OA
ATOM     90  O   UNL A   1      44.163  36.920  26.923  1.00  0.00    -0.237 OA
ATOM     91  O   UNL A   1      46.392  37.687  27.604  1.00  0.00    -0.744 OA
ENDBRANCH  85  88
ENDBRANCH  58  81
ENDBRANCH  32  33
ENDBRANCH  25  27
ENDBRANCH  24  25
ENDBRANCH  23  24
ENDBRANCH   1  23
TORSDOF 21
ENDMDL
MODEL 3
REMARK VINA RESULT:      -9.9      5.311      8.277
REMARK SMILES CC(C)C[C@H](CNc1cccc(F)c1C#N)CC(=O)OCCOC(=O)c1ccc(-c2c3nc(c(-c4cccc(S(=O)(=O)[O-])c4F)c4ccc([nH]4)c(-c4cccc(S(=O)(=O)[O-])c4F)c4nc(c(-c5cccc(S(=O)(=O)[O-])c5F)c5ccc2[nH]5)C=C4)C=C3)cc1
REMARK SMILES IDX 21 1 20 2 18 3 19 4 17 5 5 6 4 7 2 8 1 9 3 10 6 11 7 12 8 14
REMARK SMILES IDX 9 15 14 16 10 17 12 18 11 19 13 20 15 21 16 22 22 23 23 24
REMARK SMILES IDX 24 25 25 26 26 27 27 28 88 29 28 30 87 31 29 32 30 33 31 34
REMARK SMILES IDX 81 35 32 36 86 37 80 38 82 39 33 40 85 41 79 42 78 43 34 45
REMARK SMILES IDX 66 46 46 47 65 48 47 49 50 50 64 51 83 52 48 53 49 54 63 56
REMARK SMILES IDX 84 57 51 58 35 59 36 60 44 61 37 62 39 63 45 64 38 65 40 66
REMARK SMILES IDX 41 67 42 68 43 69 67 70 68 71 76 72 69 73 71 74 77 75 70 76
REMARK SMILES IDX 72 77 73 78 74 79 75 80 52 81 53 82 61 83 54 84 56 85 62 86
REMARK SMILES IDX 55 87 57 88 58 89 59 90 60 91
REMARK H PARENT 7 13 82 44 50 55
REMARK Flexibility Score: inf
ROOT
ATOM      1  C   UNL A   1      31.394  31.135  26.115  1.00  0.00     0.274 C 
ENDROOT
BRANCH   1   2
ATOM      2  O   UNL A   1      32.199  30.003  26.503  1.00  0.00    -0.462 OA
BRANCH   2   3
ATOM      3  C   UNL A   1      32.565  29.138  25.527  1.00  0.00     0.306 C 
ATOM      4  O   UNL A   1      32.365  29.314  24.331  1.00  0.00    -0.252 OA
BRANCH   3   5
ATOM      5  C   UNL A   1      33.193  27.862  26.068  1.00  0.00     0.128 C 
BRANCH   5   6
ATOM      6  C   UNL A   1      32.827  26.561  25.326  1.00  0.00     0.019 C 
BRANCH   6   7
ATOM      7  C   UNL A   1      31.325  26.162  25.461  1.00  0.00     0.009 C 
BRANCH   7   8
ATOM      8  C   UNL A   1      30.544  25.817  24.178  1.00  0.00    -0.017 C 
ATOM      9  C   UNL A   1      29.142  26.415  24.164  1.00  0.00     0.007 C 
ATOM     10  C   UNL A   1      31.311  26.332  22.953  1.00  0.00     0.007 C 
ENDBRANCH   7   8
ENDBRANCH   6   7
BRANCH   6  11
ATOM     11  C   UNL A   1      33.711  25.368  25.772  1.00  0.00     0.117 C 
BRANCH  11  12
ATOM     12  N   UNL A   1      34.138  24.542  24.636  1.00  0.00    -0.384 N 
ATOM     13  H   UNL A   1      34.771  24.884  23.965  1.00  0.00     0.160 HD
BRANCH  12  14
ATOM     14  C   UNL A   1      33.611  23.252  24.543  1.00  0.00     0.055 A 
ATOM     15  C   UNL A   1      33.476  22.510  25.731  1.00  0.00     0.027 A 
ATOM     16  C   UNL A   1      33.096  22.706  23.352  1.00  0.00     0.111 A 
ATOM     17  C   UNL A   1      32.845  21.263  25.743  1.00  0.00     0.005 A 
ATOM     18  C   UNL A   1      32.474  21.456  23.377  1.00  0.00     0.143 A 
ATOM     19  C   UNL A   1      32.339  20.737  24.561  1.00  0.00     0.041 A 
ATOM     20  F   UNL A   1      31.988  20.918  22.249  1.00  0.00    -0.205 F 
BRANCH  16  21
ATOM     21  C   UNL A   1      33.240  23.372  22.089  1.00  0.00     0.104 C 
ATOM     22  N   UNL A   1      33.369  23.898  21.065  1.00  0.00    -0.192 NA
ENDBRANCH  16  21
ENDBRANCH  12  14
ENDBRANCH  11  12
ENDBRANCH   6  11
ENDBRANCH   5   6
ENDBRANCH   3   5
ENDBRANCH   2   3
ENDBRANCH   1   2
BRANCH   1  23
ATOM     23  C   UNL A   1      31.514  32.288  27.116  1.00  0.00     0.275 C 
BRANCH  23  24
ATOM     24  O   UNL A   1      32.643  33.127  26.815  1.00  0.00    -0.458 OA
BRANCH  24  25
ATOM     25  C   UNL A   1      33.225  33.693  27.894  1.00  0.00     0.338 C 
ATOM     26  O   UNL A   1      32.770  34.583  28.596  1.00  0.00    -0.246 OA
BRANCH  25  27
ATOM     27  C   UNL A   1      34.478  33.001  28.224  1.00  0.00     0.060 A 
ATOM     28  C   UNL A   1      34.381  31.704  28.723  1.00  0.00     0.016 A 
ATOM     29  C   UNL A   1      35.703  33.667  28.220  1.00  0.00     0.016 A 
ATOM     30  C   UNL A   1      35.484  31.107  29.326  1.00  0.00     0.010 A 
ATOM     31  C   UNL A   1      36.826  33.037  28.773  1.00  0.00     0.010 A 
ATOM     32  C   UNL A   1      36.715  31.774  29.382  1.00  0.00    -0.014 A 
BRANCH  32  33
ATOM     33  C   UNL A   1      37.845  31.162  30.136  1.00  0.00     0.031 A 
ATOM     34  C   UNL A   1      38.765  30.171  29.466  1.00  0.00     0.074 A 
ATOM     35  C   UNL A   1      38.074  31.522  31.415  1.00  0.00     0.049 A 
ATOM     36  N   UNL A   1      39.779  29.514  29.970  1.00  0.00    -0.248 NA
ATOM     37  C   UNL A   1      38.508  29.874  28.048  1.00  0.00     0.031 C 
ATOM     38  C   UNL A   1      37.266  32.473  32.181  1.00  0.00     0.029 A 
ATOM     39  N   UNL A   1      39.049  31.127  32.297  1.00  0.00    -0.354 N 
ATOM     40  C   UNL A   1      40.245  28.687  28.952  1.00  0.00     0.074 A 
ATOM     41  C   UNL A   1      39.398  28.923  27.802  1.00  0.00     0.031 C 
ATOM     42  C   UNL A   1      37.781  32.593  33.414  1.00  0.00     0.029 A 
ATOM     43  C   UNL A   1      38.921  31.692  33.545  1.00  0.00     0.049 A 
ATOM     44  H   UNL A   1      39.769  30.500  32.059  1.00  0.00     0.167 HD
ATOM     45  C   UNL A   1      41.289  27.821  28.966  1.00  0.00     0.034 A 
ATOM     46  C   UNL A   1      39.625  31.491  34.676  1.00  0.00     0.034 A 
ATOM     47  C   UNL A   1      42.163  27.625  30.093  1.00  0.00     0.049 A 
ATOM     48  C   UNL A   1      40.785  30.534  34.660  1.00  0.00     0.074 A 
ATOM     49  C   UNL A   1      43.278  26.808  30.184  1.00  0.00     0.029 A 
ATOM     50  N   UNL A   1      42.026  28.247  31.324  1.00  0.00    -0.354 N 
ATOM     51  N   UNL A   1      41.262  29.830  33.661  1.00  0.00    -0.248 NA
ATOM     52  C   UNL A   1      41.522  30.366  35.920  1.00  0.00     0.031 C 
ATOM     53  C   UNL A   1      43.798  26.918  31.478  1.00  0.00     0.029 A 
ATOM     54  C   UNL A   1      43.029  27.828  32.183  1.00  0.00     0.049 A 
ATOM     55  H   UNL A   1      41.318  28.892  31.554  1.00  0.00     0.167 HD
ATOM     56  C   UNL A   1      42.372  29.160  34.165  1.00  0.00     0.074 A 
ATOM     57  C   UNL A   1      42.513  29.567  35.547  1.00  0.00     0.031 C 
ATOM     58  C   UNL A   1      43.190  28.275  33.544  1.00  0.00     0.034 A 
BRANCH  45  59
ATOM     59  C   UNL A   1      41.563  27.030  27.711  1.00  0.00     0.023 A 
ATOM     60  C   UNL A   1      42.077  27.677  26.570  1.00  0.00     0.012 A 
ATOM     61  C   UNL A   1      41.364  25.635  27.682  1.00  0.00     0.148 A 
ATOM     62  C   UNL A   1      42.358  26.956  25.408  1.00  0.00     0.002 A 
ATOM     63  C   UNL A   1      41.689  24.915  26.536  1.00  0.00     0.091 A 
ATOM     64  F   UNL A   1      40.857  25.037  28.769  1.00  0.00    -0.205 F 
ATOM     65  C   UNL A   1      42.173  25.576  25.396  1.00  0.00     0.022 A 
BRANCH  63  66
ATOM     66  S   UNL A   1      41.565  23.125  26.448  1.00  0.00     0.127 S 
ATOM     67  O   UNL A   1      42.288  22.720  27.654  1.00  0.00    -0.237 OA
ATOM     68  O   UNL A   1      40.118  22.913  26.507  1.00  0.00    -0.237 OA
ATOM     69  O   UNL A   1      42.185  22.741  25.188  1.00  0.00    -0.744 OA
ENDBRANCH  63  66
ENDBRANCH  45  59
BRANCH  46  70
ATOM     70  C   UNL A   1      39.266  32.235  35.916  1.00  0.00     0.023 A 
ATOM     71  C   UNL A   1      39.799  33.519  36.138  1.00  0.00     0.012 A 
ATOM     72  C   UNL A   1      38.383  31.685  36.866  1.00  0.00     0.148 A 
ATOM     73  C   UNL A   1      39.484  34.230  37.296  1.00  0.00     0.002 A 
ATOM     74  C   UNL A   1      38.024  32.423  37.988  1.00  0.00     0.091 A 
ATOM     75  F   UNL A   1      37.900  30.454  36.647  1.00  0.00    -0.205 F 
ATOM     76  C   UNL A   1      38.587  33.688  38.214  1.00  0.00     0.022 A 
BRANCH  74  77
ATOM     77  S   UNL A   1      36.776  31.861  39.150  1.00  0.00     0.127 S 
ATOM     78  O   UNL A   1      37.414  32.144  40.433  1.00  0.00    -0.237 OA
ATOM     79  O   UNL A   1      35.644  32.727  38.819  1.00  0.00    -0.237 OA
ATOM     80  O   UNL A   1      36.562  30.452  38.846  1.00  0.00    -0.744 OA
ENDBRANCH  74  77
ENDBRANCH  46  70
BRANCH  58  81
ATOM     81  C   UNL A   1      44.338  27.712  34.343  1.00  0.00     0.023 A 
ATOM     82  C   UNL A   1      45.577  28.383  34.366  1.00  0.00     0.012 A 
ATOM     83  C   UNL A   1      44.176  26.538  35.105  1.00  0.00     0.148 A 
ATOM     84  C   UNL A   1      46.649  27.869  35.094  1.00  0.00     0.002 A 
ATOM     85  C   UNL A   1      45.234  26.061  35.870  1.00  0.00     0.091 A 
ATOM     86  F   UNL A   1      42.997  25.900  35.057  1.00  0.00    -0.205 F 
ATOM     87  C   UNL A   1      46.476  26.716  35.854  1.00  0.00     0.022 A 
BRANCH  85  88
ATOM     88  S   UNL A   1      45.067  24.636  36.952  1.00  0.00     0.127 S 
ATOM     89  O   UNL A   1      44.590  23.611  36.025  1.00  0.00    -0.237 OA
ATOM     90  O   UNL A   1      46.438  24.440  37.425  1.00  0.00    -0.237 OA
ATOM     91  O   UNL A   1      44.125  25.032  37.990  1.00  0.00    -0.744 OA
ENDBRANCH  85  88
ENDBRANCH  58  81
ENDBRANCH  32  33
ENDBRANCH  25  27
ENDBRANCH  24  25
ENDBRANCH  23  24
ENDBRANCH   1  23
TORSDOF 21
ENDMDL
