MODEL 1
REMARK VINA RESULT:     -12.5      0.000      0.000
REMARK SMILES Cc1cc(Br)cc2c1O[C@H](C(F)(F)F)C(C(=O)OCCOC(=O)c1ccc(-c3c4nc(c(-c5cccc(S(=O)(=O)[O-])c5F)c5ccc([nH]5)c(-c5cccc(S(=O)(=O)[O-])c5F)c5nc(c(-c6cccc(S(=O)(=O)[O-])c6F)c6ccc3[nH]6)C=C5)C=C4)cc1)=C2
REMARK SMILES IDX 20 1 19 2 18 3 16 4 17 5 15 6 1 7 2 8 3 9 8 10 4 11 7 12
REMARK SMILES IDX 9 13 5 14 6 15 87 16 10 17 11 18 12 19 13 20 14 21 21 22
REMARK SMILES IDX 22 23 23 24 24 25 25 26 86 27 26 28 85 29 27 30 28 31 29 32
REMARK SMILES IDX 79 33 30 34 84 35 78 36 80 37 31 38 83 39 77 40 76 41 32 43
REMARK SMILES IDX 64 44 44 45 63 46 45 47 48 48 62 49 81 50 46 51 47 52 61 54
REMARK SMILES IDX 82 55 49 56 33 57 34 58 42 59 35 60 37 61 43 62 36 63 38 64
REMARK SMILES IDX 39 65 40 66 41 67 65 68 66 69 74 70 67 71 69 72 75 73 68 74
REMARK SMILES IDX 70 75 71 76 72 77 73 78 50 79 51 80 59 81 52 82 54 83 60 84
REMARK SMILES IDX 53 85 55 86 56 87 57 88 58 89
REMARK H PARENT 80 42 48 53
REMARK Flexibility Score: inf
ROOT
ATOM      1  C   UNL A   1      36.442  20.353  24.970  1.00  0.00     0.275 C 
ENDROOT
BRANCH   1   2
ATOM      2  C   UNL A   1      35.009  20.751  25.329  1.00  0.00     0.275 C 
BRANCH   2   3
ATOM      3  O   UNL A   1      34.933  22.118  25.788  1.00  0.00    -0.459 OA
BRANCH   3   4
ATOM      4  C   UNL A   1      33.717  22.700  25.671  1.00  0.00     0.338 C 
ATOM      5  O   UNL A   1      32.638  22.187  25.930  1.00  0.00    -0.246 OA
BRANCH   4   6
ATOM      6  C   UNL A   1      33.837  24.080  25.167  1.00  0.00     0.087 C 
ATOM      7  C   UNL A   1      33.824  28.237  22.165  1.00  0.00     0.048 C 
ATOM      8  C   UNL A   1      33.571  27.960  23.618  1.00  0.00    -0.007 A 
ATOM      9  C   UNL A   1      33.117  28.991  24.458  1.00  0.00     0.023 A 
ATOM     10  C   UNL A   1      33.731  26.668  24.141  1.00  0.00     0.130 A 
ATOM     11  C   UNL A   1      32.852  28.740  25.802  1.00  0.00     0.019 A 
ATOM     12  C   UNL A   1      33.445  26.425  25.485  1.00  0.00     0.019 A 
ATOM     13  O   UNL A   1      34.179  25.690  23.291  1.00  0.00    -0.475 OA
ATOM     14  Br  UNL A   1      32.234  30.135  26.918  1.00  0.00    -0.051 Br
ATOM     15  C   UNL A   1      33.019  27.464  26.323  1.00  0.00     0.027 A 
ATOM     16  C   UNL A   1      33.531  25.077  26.002  1.00  0.00     0.027 C 
ATOM     17  C   UNL A   1      34.125  24.298  23.713  1.00  0.00     0.316 C 
BRANCH  17  18
ATOM     18  C   UNL A   1      33.121  23.552  22.820  1.00  0.00     0.430 C 
ATOM     19  F   UNL A   1      33.182  23.995  21.540  1.00  0.00    -0.167 F 
ATOM     20  F   UNL A   1      33.381  22.223  22.774  1.00  0.00    -0.167 F 
ATOM     21  F   UNL A   1      31.845  23.703  23.240  1.00  0.00    -0.167 F 
ENDBRANCH  17  18
ENDBRANCH   4   6
ENDBRANCH   3   4
ENDBRANCH   2   3
ENDBRANCH   1   2
BRANCH   1  22
ATOM     22  O   UNL A   1      37.336  21.471  25.116  1.00  0.00    -0.458 OA
BRANCH  22  23
ATOM     23  C   UNL A   1      38.533  21.165  25.665  1.00  0.00     0.338 C 
ATOM     24  O   UNL A   1      39.186  20.150  25.491  1.00  0.00    -0.246 OA
BRANCH  23  25
ATOM     25  C   UNL A   1      39.046  22.292  26.455  1.00  0.00     0.060 A 
ATOM     26  C   UNL A   1      38.550  23.558  26.177  1.00  0.00     0.016 A 
ATOM     27  C   UNL A   1      40.169  22.144  27.261  1.00  0.00     0.016 A 
ATOM     28  C   UNL A   1      39.289  24.683  26.523  1.00  0.00     0.010 A 
ATOM     29  C   UNL A   1      40.807  23.285  27.763  1.00  0.00     0.010 A 
ATOM     30  C   UNL A   1      40.415  24.572  27.347  1.00  0.00    -0.014 A 
BRANCH  30  31
ATOM     31  C   UNL A   1      41.171  25.789  27.770  1.00  0.00     0.031 A 
ATOM     32  C   UNL A   1      40.503  26.855  28.604  1.00  0.00     0.074 A 
ATOM     33  C   UNL A   1      42.458  25.949  27.396  1.00  0.00     0.049 A 
ATOM     34  N   UNL A   1      40.912  28.067  28.876  1.00  0.00    -0.248 NA
ATOM     35  C   UNL A   1      39.196  26.522  29.198  1.00  0.00     0.031 C 
ATOM     36  C   UNL A   1      43.247  24.984  26.623  1.00  0.00     0.029 A 
ATOM     37  N   UNL A   1      43.335  26.987  27.604  1.00  0.00    -0.354 N 
ATOM     38  C   UNL A   1      39.885  28.667  29.599  1.00  0.00     0.074 A 
ATOM     39  C   UNL A   1      38.833  27.682  29.731  1.00  0.00     0.031 C 
ATOM     40  C   UNL A   1      44.489  25.452  26.458  1.00  0.00     0.029 A 
ATOM     41  C   UNL A   1      44.557  26.801  26.998  1.00  0.00     0.049 A 
ATOM     42  H   UNL A   1      43.111  27.785  28.135  1.00  0.00     0.167 HD
ATOM     43  C   UNL A   1      39.831  29.920  30.112  1.00  0.00     0.034 A 
ATOM     44  C   UNL A   1      45.599  27.637  26.828  1.00  0.00     0.034 A 
ATOM     45  C   UNL A   1      40.913  30.866  30.033  1.00  0.00     0.049 A 
ATOM     46  C   UNL A   1      45.501  29.031  27.375  1.00  0.00     0.074 A 
ATOM     47  C   UNL A   1      40.968  32.152  30.540  1.00  0.00     0.029 A 
ATOM     48  N   UNL A   1      42.134  30.626  29.420  1.00  0.00    -0.354 N 
ATOM     49  N   UNL A   1      44.527  29.579  28.060  1.00  0.00    -0.248 NA
ATOM     50  C   UNL A   1      46.645  29.919  27.136  1.00  0.00     0.031 C 
ATOM     51  C   UNL A   1      42.210  32.701  30.209  1.00  0.00     0.029 A 
ATOM     52  C   UNL A   1      42.947  31.743  29.530  1.00  0.00     0.049 A 
ATOM     53  H   UNL A   1      42.387  29.787  28.973  1.00  0.00     0.167 HD
ATOM     54  C   UNL A   1      44.949  30.868  28.357  1.00  0.00     0.074 A 
ATOM     55  C   UNL A   1      46.280  31.008  27.800  1.00  0.00     0.031 C 
ATOM     56  C   UNL A   1      44.287  31.852  29.013  1.00  0.00     0.034 A 
BRANCH  43  57
ATOM     57  C   UNL A   1      38.572  30.350  30.828  1.00  0.00     0.023 A 
ATOM     58  C   UNL A   1      38.433  30.118  32.211  1.00  0.00     0.012 A 
ATOM     59  C   UNL A   1      37.569  31.073  30.148  1.00  0.00     0.148 A 
ATOM     60  C   UNL A   1      37.307  30.574  32.899  1.00  0.00     0.002 A 
ATOM     61  C   UNL A   1      36.475  31.568  30.850  1.00  0.00     0.091 A 
ATOM     62  F   UNL A   1      37.708  31.270  28.829  1.00  0.00    -0.205 F 
ATOM     63  C   UNL A   1      36.337  31.309  32.223  1.00  0.00     0.022 A 
BRANCH  61  64
ATOM     64  S   UNL A   1      35.218  32.605  30.092  1.00  0.00     0.127 S 
ATOM     65  O   UNL A   1      34.726  31.737  29.022  1.00  0.00    -0.237 OA
ATOM     66  O   UNL A   1      34.278  32.803  31.196  1.00  0.00    -0.237 OA
ATOM     67  O   UNL A   1      35.902  33.811  29.647  1.00  0.00    -0.744 OA
ENDBRANCH  61  64
ENDBRANCH  43  57
BRANCH  44  68
ATOM     68  C   UNL A   1      46.819  27.162  26.113  1.00  0.00     0.023 A 
ATOM     69  C   UNL A   1      46.976  27.460  24.746  1.00  0.00     0.012 A 
ATOM     70  C   UNL A   1      47.855  26.486  26.789  1.00  0.00     0.148 A 
ATOM     71  C   UNL A   1      48.134  27.085  24.064  1.00  0.00     0.002 A 
ATOM     72  C   UNL A   1      49.034  26.177  26.123  1.00  0.00     0.091 A 
ATOM     73  F   UNL A   1      47.682  26.195  28.087  1.00  0.00    -0.205 F 
ATOM     74  C   UNL A   1      49.169  26.460  24.755  1.00  0.00     0.022 A 
BRANCH  72  75
ATOM     75  S   UNL A   1      50.479  25.518  26.966  1.00  0.00     0.127 S 
ATOM     76  O   UNL A   1      51.405  25.310  25.856  1.00  0.00    -0.237 OA
ATOM     77  O   UNL A   1      50.830  26.620  27.864  1.00  0.00    -0.237 OA
ATOM     78  O   UNL A   1      50.025  24.311  27.643  1.00  0.00    -0.744 OA
ENDBRANCH  72  75
ENDBRANCH  44  68
BRANCH  56  79
ATOM     79  C   UNL A   1      44.998  33.166  29.197  1.00  0.00     0.023 A 
ATOM     80  C   UNL A   1      45.825  33.365  30.321  1.00  0.00     0.012 A 
ATOM     81  C   UNL A   1      44.916  34.171  28.211  1.00  0.00     0.148 A 
ATOM     82  C   UNL A   1      46.534  34.555  30.477  1.00  0.00     0.002 A 
ATOM     83  C   UNL A   1      45.670  35.330  28.346  1.00  0.00     0.091 A 
ATOM     84  F   UNL A   1      44.110  33.970  27.159  1.00  0.00    -0.205 F 
ATOM     85  C   UNL A   1      46.468  35.530  29.484  1.00  0.00     0.022 A 
BRANCH  83  86
ATOM     86  S   UNL A   1      45.737  36.591  27.069  1.00  0.00     0.127 S 
ATOM     87  O   UNL A   1      46.716  37.525  27.624  1.00  0.00    -0.237 OA
ATOM     88  O   UNL A   1      46.207  35.832  25.910  1.00  0.00    -0.237 OA
ATOM     89  O   UNL A   1      44.383  37.112  26.945  1.00  0.00    -0.744 OA
ENDBRANCH  83  86
ENDBRANCH  56  79
ENDBRANCH  30  31
ENDBRANCH  23  25
ENDBRANCH  22  23
ENDBRANCH   1  22
TORSDOF 15
ENDMDL
MODEL 2
REMARK VINA RESULT:     -12.3      4.866      9.892
REMARK SMILES Cc1cc(Br)cc2c1O[C@H](C(F)(F)F)C(C(=O)OCCOC(=O)c1ccc(-c3c4nc(c(-c5cccc(S(=O)(=O)[O-])c5F)c5ccc([nH]5)c(-c5cccc(S(=O)(=O)[O-])c5F)c5nc(c(-c6cccc(S(=O)(=O)[O-])c6F)c6ccc3[nH]6)C=C5)C=C4)cc1)=C2
REMARK SMILES IDX 20 1 19 2 18 3 16 4 17 5 15 6 1 7 2 8 3 9 8 10 4 11 7 12
REMARK SMILES IDX 9 13 5 14 6 15 87 16 10 17 11 18 12 19 13 20 14 21 21 22
REMARK SMILES IDX 22 23 23 24 24 25 25 26 86 27 26 28 85 29 27 30 28 31 29 32
REMARK SMILES IDX 79 33 30 34 84 35 78 36 80 37 31 38 83 39 77 40 76 41 32 43
REMARK SMILES IDX 64 44 44 45 63 46 45 47 48 48 62 49 81 50 46 51 47 52 61 54
REMARK SMILES IDX 82 55 49 56 33 57 34 58 42 59 35 60 37 61 43 62 36 63 38 64
REMARK SMILES IDX 39 65 40 66 41 67 65 68 66 69 74 70 67 71 69 72 75 73 68 74
REMARK SMILES IDX 70 75 71 76 72 77 73 78 50 79 51 80 59 81 52 82 54 83 60 84
REMARK SMILES IDX 53 85 55 86 56 87 57 88 58 89
REMARK H PARENT 80 42 48 53
REMARK Flexibility Score: inf
ROOT
ATOM      1  C   UNL A   1      31.691  30.060  25.522  1.00  0.00     0.275 C 
ENDROOT
BRANCH   1   2
ATOM      2  C   UNL A   1      31.606  28.662  24.907  1.00  0.00     0.275 C 
BRANCH   2   3
ATOM      3  O   UNL A   1      32.383  27.701  25.655  1.00  0.00    -0.459 OA
BRANCH   3   4
ATOM      4  C   UNL A   1      31.663  26.780  26.336  1.00  0.00     0.338 C 
ATOM      5  O   UNL A   1      30.782  27.006  27.152  1.00  0.00    -0.246 OA
BRANCH   4   6
ATOM      6  C   UNL A   1      32.079  25.411  25.978  1.00  0.00     0.087 C 
ATOM      7  C   UNL A   1      32.484  20.828  23.715  1.00  0.00     0.048 C 
ATOM      8  C   UNL A   1      33.421  21.767  24.416  1.00  0.00    -0.007 A 
ATOM      9  C   UNL A   1      34.798  21.487  24.447  1.00  0.00     0.023 A 
ATOM     10  C   UNL A   1      32.948  22.953  24.997  1.00  0.00     0.130 A 
ATOM     11  C   UNL A   1      35.682  22.365  25.070  1.00  0.00     0.019 A 
ATOM     12  C   UNL A   1      33.846  23.833  25.603  1.00  0.00     0.019 A 
ATOM     13  O   UNL A   1      31.599  23.189  24.949  1.00  0.00    -0.475 OA
ATOM     14  Br  UNL A   1      37.533  21.979  25.097  1.00  0.00    -0.051 Br
ATOM     15  C   UNL A   1      35.214  23.534  25.654  1.00  0.00     0.027 A 
ATOM     16  C   UNL A   1      33.368  25.093  26.128  1.00  0.00     0.027 C 
ATOM     17  C   UNL A   1      31.091  24.504  25.312  1.00  0.00     0.316 C 
BRANCH  17  18
ATOM     18  C   UNL A   1      30.479  25.156  24.061  1.00  0.00     0.430 C 
ATOM     19  F   UNL A   1      29.495  26.027  24.395  1.00  0.00    -0.167 F 
ATOM     20  F   UNL A   1      31.399  25.871  23.368  1.00  0.00    -0.167 F 
ATOM     21  F   UNL A   1      29.946  24.248  23.214  1.00  0.00    -0.167 F 
ENDBRANCH  17  18
ENDBRANCH   4   6
ENDBRANCH   3   4
ENDBRANCH   2   3
ENDBRANCH   1   2
BRANCH   1  22
ATOM     22  O   UNL A   1      32.398  30.027  26.775  1.00  0.00    -0.458 OA
BRANCH  22  23
ATOM     23  C   UNL A   1      32.991  31.192  27.117  1.00  0.00     0.338 C 
ATOM     24  O   UNL A   1      32.459  32.283  27.235  1.00  0.00    -0.246 OA
BRANCH  23  25
ATOM     25  C   UNL A   1      34.404  30.978  27.453  1.00  0.00     0.060 A 
ATOM     26  C   UNL A   1      34.820  29.680  27.713  1.00  0.00     0.016 A 
ATOM     27  C   UNL A   1      35.234  32.051  27.762  1.00  0.00     0.016 A 
ATOM     28  C   UNL A   1      35.964  29.456  28.470  1.00  0.00     0.010 A 
ATOM     29  C   UNL A   1      36.476  31.806  28.361  1.00  0.00     0.010 A 
ATOM     30  C   UNL A   1      36.830  30.510  28.782  1.00  0.00    -0.014 A 
BRANCH  30  31
ATOM     31  C   UNL A   1      38.092  30.258  29.541  1.00  0.00     0.031 A 
ATOM     32  C   UNL A   1      39.185  29.404  28.947  1.00  0.00     0.074 A 
ATOM     33  C   UNL A   1      38.257  30.785  30.773  1.00  0.00     0.049 A 
ATOM     34  N   UNL A   1      40.239  28.890  29.528  1.00  0.00    -0.248 NA
ATOM     35  C   UNL A   1      39.073  29.067  27.517  1.00  0.00     0.031 C 
ATOM     36  C   UNL A   1      37.303  31.662  31.459  1.00  0.00     0.029 A 
ATOM     37  N   UNL A   1      39.282  30.654  31.679  1.00  0.00    -0.354 N 
ATOM     38  C   UNL A   1      40.868  28.109  28.563  1.00  0.00     0.074 A 
ATOM     39  C   UNL A   1      40.082  28.221  27.353  1.00  0.00     0.031 C 
ATOM     40  C   UNL A   1      37.800  32.021  32.648  1.00  0.00     0.029 A 
ATOM     41  C   UNL A   1      39.045  31.302  32.871  1.00  0.00     0.049 A 
ATOM     42  H   UNL A   1      40.105  30.147  31.494  1.00  0.00     0.167 HD
ATOM     43  C   UNL A   1      42.002  27.375  28.675  1.00  0.00     0.034 A 
ATOM     44  C   UNL A   1      39.710  31.276  34.042  1.00  0.00     0.034 A 
ATOM     45  C   UNL A   1      42.812  27.329  29.865  1.00  0.00     0.049 A 
ATOM     46  C   UNL A   1      40.943  30.429  34.151  1.00  0.00     0.074 A 
ATOM     47  C   UNL A   1      43.991  26.636  30.074  1.00  0.00     0.029 A 
ATOM     48  N   UNL A   1      42.537  28.012  31.040  1.00  0.00    -0.354 N 
ATOM     49  N   UNL A   1      41.526  29.702  33.230  1.00  0.00    -0.248 NA
ATOM     50  C   UNL A   1      41.616  30.402  35.456  1.00  0.00     0.031 C 
ATOM     51  C   UNL A   1      44.413  26.875  31.384  1.00  0.00     0.029 A 
ATOM     52  C   UNL A   1      43.520  27.751  31.981  1.00  0.00     0.049 A 
ATOM     53  H   UNL A   1      41.759  28.597  31.185  1.00  0.00     0.167 HD
ATOM     54  C   UNL A   1      42.649  29.151  33.833  1.00  0.00     0.074 A 
ATOM     55  C   UNL A   1      42.677  29.652  35.193  1.00  0.00     0.031 C 
ATOM     56  C   UNL A   1      43.561  28.293  33.315  1.00  0.00     0.034 A 
BRANCH  43  57
ATOM     57  C   UNL A   1      42.459  26.572  27.481  1.00  0.00     0.023 A 
ATOM     58  C   UNL A   1      43.323  27.152  26.530  1.00  0.00     0.012 A 
ATOM     59  C   UNL A   1      42.112  25.210  27.354  1.00  0.00     0.148 A 
ATOM     60  C   UNL A   1      43.812  26.399  25.461  1.00  0.00     0.002 A 
ATOM     61  C   UNL A   1      42.644  24.454  26.314  1.00  0.00     0.091 A 
ATOM     62  F   UNL A   1      41.276  24.678  28.257  1.00  0.00    -0.205 F 
ATOM     63  C   UNL A   1      43.484  25.050  25.361  1.00  0.00     0.022 A 
BRANCH  61  64
ATOM     64  S   UNL A   1      42.358  22.687  26.149  1.00  0.00     0.127 S 
ATOM     65  O   UNL A   1      40.897  22.619  26.197  1.00  0.00    -0.237 OA
ATOM     66  O   UNL A   1      42.937  22.405  24.836  1.00  0.00    -0.237 OA
ATOM     67  O   UNL A   1      43.045  22.059  27.269  1.00  0.00    -0.744 OA
ENDBRANCH  61  64
ENDBRANCH  43  57
BRANCH  44  68
ATOM     68  C   UNL A   1      39.214  32.089  35.192  1.00  0.00     0.023 A 
ATOM     69  C   UNL A   1      38.330  31.503  36.117  1.00  0.00     0.012 A 
ATOM     70  C   UNL A   1      39.669  33.404  35.416  1.00  0.00     0.148 A 
ATOM     71  C   UNL A   1      37.899  32.216  37.236  1.00  0.00     0.002 A 
ATOM     72  C   UNL A   1      39.291  34.082  36.568  1.00  0.00     0.091 A 
ATOM     73  F   UNL A   1      40.498  33.952  34.515  1.00  0.00    -0.205 F 
ATOM     74  C   UNL A   1      38.391  33.497  37.471  1.00  0.00     0.022 A 
BRANCH  72  75
ATOM     75  S   UNL A   1      39.998  35.669  37.032  1.00  0.00     0.127 S 
ATOM     76  O   UNL A   1      41.420  35.345  37.131  1.00  0.00    -0.237 OA
ATOM     77  O   UNL A   1      39.635  36.506  35.888  1.00  0.00    -0.237 OA
ATOM     78  O   UNL A   1      39.348  36.041  38.281  1.00  0.00    -0.744 OA
ENDBRANCH  72  75
ENDBRANCH  44  68
BRANCH  56  79
ATOM     79  C   UNL A   1      44.694  27.858  34.207  1.00  0.00     0.023 A 
ATOM     80  C   UNL A   1      45.877  28.621  34.261  1.00  0.00     0.012 A 
ATOM     81  C   UNL A   1      44.549  26.743  35.057  1.00  0.00     0.148 A 
ATOM     82  C   UNL A   1      46.911  28.262  35.124  1.00  0.00     0.002 A 
ATOM     83  C   UNL A   1      45.560  26.426  35.954  1.00  0.00     0.091 A 
ATOM     84  F   UNL A   1      43.423  26.020  34.977  1.00  0.00    -0.205 F 
ATOM     85  C   UNL A   1      46.748  27.175  35.980  1.00  0.00     0.022 A 
BRANCH  83  86
ATOM     86  S   UNL A   1      45.396  25.114  37.170  1.00  0.00     0.127 S 
ATOM     87  O   UNL A   1      44.236  25.565  37.939  1.00  0.00    -0.237 OA
ATOM     88  O   UNL A   1      45.153  23.942  36.329  1.00  0.00    -0.237 OA
ATOM     89  O   UNL A   1      46.654  25.084  37.903  1.00  0.00    -0.744 OA
ENDBRANCH  83  86
ENDBRANCH  56  79
ENDBRANCH  30  31
ENDBRANCH  23  25
ENDBRANCH  22  23
ENDBRANCH   1  22
TORSDOF 15
ENDMDL
MODEL 3
REMARK VINA RESULT:     -12.1      5.234     10.012
REMARK SMILES Cc1cc(Br)cc2c1O[C@H](C(F)(F)F)C(C(=O)OCCOC(=O)c1ccc(-c3c4nc(c(-c5cccc(S(=O)(=O)[O-])c5F)c5ccc([nH]5)c(-c5cccc(S(=O)(=O)[O-])c5F)c5nc(c(-c6cccc(S(=O)(=O)[O-])c6F)c6ccc3[nH]6)C=C5)C=C4)cc1)=C2
REMARK SMILES IDX 20 1 19 2 18 3 16 4 17 5 15 6 1 7 2 8 3 9 8 10 4 11 7 12
REMARK SMILES IDX 9 13 5 14 6 15 87 16 10 17 11 18 12 19 13 20 14 21 21 22
REMARK SMILES IDX 22 23 23 24 24 25 25 26 86 27 26 28 85 29 27 30 28 31 29 32
REMARK SMILES IDX 79 33 30 34 84 35 78 36 80 37 31 38 83 39 77 40 76 41 32 43
REMARK SMILES IDX 64 44 44 45 63 46 45 47 48 48 62 49 81 50 46 51 47 52 61 54
REMARK SMILES IDX 82 55 49 56 33 57 34 58 42 59 35 60 37 61 43 62 36 63 38 64
REMARK SMILES IDX 39 65 40 66 41 67 65 68 66 69 74 70 67 71 69 72 75 73 68 74
REMARK SMILES IDX 70 75 71 76 72 77 73 78 50 79 51 80 59 81 52 82 54 83 60 84
REMARK SMILES IDX 53 85 55 86 56 87 57 88 58 89
REMARK H PARENT 80 42 48 53
REMARK Flexibility Score: inf
ROOT
ATOM      1  C   UNL A   1      32.016  30.773  26.321  1.00  0.00     0.275 C 
ENDROOT
BRANCH   1   2
ATOM      2  C   UNL A   1      32.312  29.575  25.417  1.00  0.00     0.275 C 
BRANCH   2   3
ATOM      3  O   UNL A   1      32.865  28.468  26.162  1.00  0.00    -0.459 OA
BRANCH   3   4
ATOM      4  C   UNL A   1      31.963  27.562  26.604  1.00  0.00     0.338 C 
ATOM      5  O   UNL A   1      31.052  27.769  27.392  1.00  0.00    -0.246 OA
BRANCH   4   6
ATOM      6  C   UNL A   1      32.212  26.234  26.013  1.00  0.00     0.087 C 
ATOM      7  C   UNL A   1      32.086  22.096  22.989  1.00  0.00     0.048 C 
ATOM      8  C   UNL A   1      33.120  22.774  23.839  1.00  0.00    -0.007 A 
ATOM      9  C   UNL A   1      34.450  22.321  23.818  1.00  0.00     0.023 A 
ATOM     10  C   UNL A   1      32.787  23.893  24.618  1.00  0.00     0.130 A 
ATOM     11  C   UNL A   1      35.425  22.960  24.581  1.00  0.00     0.019 A 
ATOM     12  C   UNL A   1      33.775  24.534  25.365  1.00  0.00     0.019 A 
ATOM     13  O   UNL A   1      31.479  24.301  24.615  1.00  0.00    -0.475 OA
ATOM     14  Br  UNL A   1      37.212  22.346  24.535  1.00  0.00    -0.051 Br
ATOM     15  C   UNL A   1      35.094  24.061  25.360  1.00  0.00     0.027 A 
ATOM     16  C   UNL A   1      33.448  25.735  26.102  1.00  0.00     0.027 C 
ATOM     17  C   UNL A   1      31.131  25.588  25.203  1.00  0.00     0.316 C 
BRANCH  17  18
ATOM     18  C   UNL A   1      30.630  26.517  24.086  1.00  0.00     0.430 C 
ATOM     19  F   UNL A   1      31.665  27.107  23.438  1.00  0.00    -0.167 F 
ATOM     20  F   UNL A   1      29.931  25.837  23.144  1.00  0.00    -0.167 F 
ATOM     21  F   UNL A   1      29.831  27.502  24.553  1.00  0.00    -0.167 F 
ENDBRANCH  17  18
ENDBRANCH   4   6
ENDBRANCH   3   4
ENDBRANCH   2   3
ENDBRANCH   1   2
BRANCH   1  22
ATOM     22  O   UNL A   1      32.852  30.752  27.492  1.00  0.00    -0.458 OA
BRANCH  22  23
ATOM     23  C   UNL A   1      33.654  31.831  27.631  1.00  0.00     0.338 C 
ATOM     24  O   UNL A   1      33.315  33.003  27.644  1.00  0.00    -0.246 OA
BRANCH  23  25
ATOM     25  C   UNL A   1      35.040  31.421  27.885  1.00  0.00     0.060 A 
ATOM     26  C   UNL A   1      35.280  30.084  28.171  1.00  0.00     0.016 A 
ATOM     27  C   UNL A   1      36.037  32.369  28.096  1.00  0.00     0.016 A 
ATOM     28  C   UNL A   1      36.428  29.718  28.862  1.00  0.00     0.010 A 
ATOM     29  C   UNL A   1      37.268  31.961  28.624  1.00  0.00     0.010 A 
ATOM     30  C   UNL A   1      37.458  30.642  29.075  1.00  0.00    -0.014 A 
BRANCH  30  31
ATOM     31  C   UNL A   1      38.719  30.229  29.761  1.00  0.00     0.031 A 
ATOM     32  C   UNL A   1      39.661  29.247  29.108  1.00  0.00     0.074 A 
ATOM     33  C   UNL A   1      39.019  30.726  30.980  1.00  0.00     0.049 A 
ATOM     34  N   UNL A   1      40.673  28.602  29.629  1.00  0.00    -0.248 NA
ATOM     35  C   UNL A   1      39.426  28.934  27.687  1.00  0.00     0.031 C 
ATOM     36  C   UNL A   1      38.224  31.713  31.717  1.00  0.00     0.029 A 
ATOM     37  N   UNL A   1      40.069  30.463  31.827  1.00  0.00    -0.354 N 
ATOM     38  C   UNL A   1      41.144  27.753  28.632  1.00  0.00     0.074 A 
ATOM     39  C   UNL A   1      40.310  27.968  27.469  1.00  0.00     0.031 C 
ATOM     40  C   UNL A   1      38.828  32.001  32.875  1.00  0.00     0.029 A 
ATOM     41  C   UNL A   1      39.984  31.130  33.028  1.00  0.00     0.049 A 
ATOM     42  H   UNL A   1      40.810  29.858  31.597  1.00  0.00     0.167 HD
ATOM     43  C   UNL A   1      42.181  26.882  28.682  1.00  0.00     0.034 A 
ATOM     44  C   UNL A   1      40.706  31.016  34.159  1.00  0.00     0.034 A 
ATOM     45  C   UNL A   1      43.045  26.729  29.824  1.00  0.00     0.049 A 
ATOM     46  C   UNL A   1      41.827  30.020  34.201  1.00  0.00     0.074 A 
ATOM     47  C   UNL A   1      44.137  25.892  29.967  1.00  0.00     0.029 A 
ATOM     48  N   UNL A   1      42.925  27.436  31.011  1.00  0.00    -0.354 N 
ATOM     49  N   UNL A   1      42.261  29.230  33.249  1.00  0.00    -0.248 NA
ATOM     50  C   UNL A   1      42.564  29.903  35.466  1.00  0.00     0.031 C 
ATOM     51  C   UNL A   1      44.660  26.071  31.251  1.00  0.00     0.029 A 
ATOM     52  C   UNL A   1      43.920  27.049  31.894  1.00  0.00     0.049 A 
ATOM     53  H   UNL A   1      42.236  28.113  31.198  1.00  0.00     0.167 HD
ATOM     54  C   UNL A   1      43.338  28.540  33.790  1.00  0.00     0.074 A 
ATOM     55  C   UNL A   1      43.506  29.027  35.145  1.00  0.00     0.031 C 
ATOM     56  C   UNL A   1      44.104  27.576  33.223  1.00  0.00     0.034 A 
BRANCH  43  57
ATOM     57  C   UNL A   1      42.465  26.033  27.466  1.00  0.00     0.023 A 
ATOM     58  C   UNL A   1      43.257  26.544  26.418  1.00  0.00     0.012 A 
ATOM     59  C   UNL A   1      42.028  24.692  27.406  1.00  0.00     0.148 A 
ATOM     60  C   UNL A   1      43.589  25.746  25.322  1.00  0.00     0.002 A 
ATOM     61  C   UNL A   1      42.405  23.888  26.335  1.00  0.00     0.091 A 
ATOM     62  F   UNL A   1      41.262  24.226  28.402  1.00  0.00    -0.205 F 
ATOM     63  C   UNL A   1      43.175  24.417  25.287  1.00  0.00     0.022 A 
BRANCH  61  64
ATOM     64  S   UNL A   1      42.002  22.139  26.240  1.00  0.00     0.127 S 
ATOM     65  O   UNL A   1      42.749  21.729  25.051  1.00  0.00    -0.237 OA
ATOM     66  O   UNL A   1      42.540  21.633  27.502  1.00  0.00    -0.237 OA
ATOM     67  O   UNL A   1      40.553  22.063  26.118  1.00  0.00    -0.744 OA
ENDBRANCH  61  64
ENDBRANCH  43  57
BRANCH  44  68
ATOM     68  C   UNL A   1      40.383  31.879  35.333  1.00  0.00     0.023 A 
ATOM     69  C   UNL A   1      41.109  33.068  35.535  1.00  0.00     0.012 A 
ATOM     70  C   UNL A   1      39.317  31.572  36.204  1.00  0.00     0.148 A 
ATOM     71  C   UNL A   1      40.790  33.927  36.586  1.00  0.00     0.002 A 
ATOM     72  C   UNL A   1      38.959  32.466  37.206  1.00  0.00     0.091 A 
ATOM     73  F   UNL A   1      38.646  30.428  36.007  1.00  0.00    -0.205 F 
ATOM     74  C   UNL A   1      39.705  33.636  37.410  1.00  0.00     0.022 A 
BRANCH  72  75
ATOM     75  S   UNL A   1      37.483  32.253  38.210  1.00  0.00     0.127 S 
ATOM     76  O   UNL A   1      37.895  32.852  39.477  1.00  0.00    -0.237 OA
ATOM     77  O   UNL A   1      36.494  33.024  37.457  1.00  0.00    -0.237 OA
ATOM     78  O   UNL A   1      37.231  30.819  38.243  1.00  0.00    -0.744 OA
ENDBRANCH  72  75
ENDBRANCH  44  68
BRANCH  56  79
ATOM     79  C   UNL A   1      45.222  26.998  34.050  1.00  0.00     0.023 A 
ATOM     80  C   UNL A   1      46.506  27.576  33.996  1.00  0.00     0.012 A 
ATOM     81  C   UNL A   1      44.976  25.939  34.947  1.00  0.00     0.148 A 
ATOM     82  C   UNL A   1      47.536  27.087  34.798  1.00  0.00     0.002 A 
ATOM     83  C   UNL A   1      45.992  25.496  35.783  1.00  0.00     0.091 A 
ATOM     84  F   UNL A   1      43.752  25.391  34.970  1.00  0.00    -0.205 F 
ATOM     85  C   UNL A   1      47.276  26.059  35.701  1.00  0.00     0.022 A 
BRANCH  83  86
ATOM     86  S   UNL A   1      45.724  24.254  37.054  1.00  0.00     0.127 S 
ATOM     87  O   UNL A   1      46.987  24.307  37.791  1.00  0.00    -0.237 OA
ATOM     88  O   UNL A   1      44.573  24.794  37.775  1.00  0.00    -0.237 OA
ATOM     89  O   UNL A   1      45.468  23.006  36.349  1.00  0.00    -0.744 OA
ENDBRANCH  83  86
ENDBRANCH  56  79
ENDBRANCH  30  31
ENDBRANCH  23  25
ENDBRANCH  22  23
ENDBRANCH   1  22
TORSDOF 15
ENDMDL
