MODEL 1
REMARK VINA RESULT:     -12.6      0.000      0.000
REMARK SMILES CC[C@@H]1CC[C@](C[C@@H]2CCCc3ccccc32)(C(=O)OCCOC(=O)c2ccc(-c3c4nc(c(-c5cccc(S(=O)(=O)[O-])c5F)c5ccc([nH]5)c(-c5cccc(S(=O)(=O)[O-])c5F)c5nc(c(-c6cccc(S(=O)(=O)[O-])c6F)c6ccc3[nH]6)C=C5)C=C4)cc2)C1
REMARK SMILES IDX 22 1 21 2 20 3 18 4 19 5 6 6 3 7 4 8 89 9 5 10 2 11 1 12
REMARK SMILES IDX 7 13 8 14 9 15 17 16 10 17 12 18 16 19 11 20 13 21 15 22
REMARK SMILES IDX 14 23 23 24 24 25 25 26 26 27 27 28 88 29 28 30 87 31 29 32
REMARK SMILES IDX 30 33 31 34 81 35 32 36 86 37 80 38 82 39 33 40 85 41 79 42
REMARK SMILES IDX 78 43 34 45 66 46 46 47 65 48 47 49 50 50 64 51 83 52 48 53
REMARK SMILES IDX 49 54 63 56 84 57 51 58 35 59 36 60 44 61 37 62 39 63 45 64
REMARK SMILES IDX 38 65 40 66 41 67 42 68 43 69 67 70 68 71 76 72 69 73 71 74
REMARK SMILES IDX 77 75 70 76 72 77 73 78 74 79 75 80 52 81 53 82 61 83 54 84
REMARK SMILES IDX 56 85 62 86 55 87 57 88 58 89 59 90 60 91
REMARK H PARENT 82 44 50 55
REMARK Flexibility Score: inf
ROOT
ATOM      1  C   UNL A   1      35.785  20.981  25.254  1.00  0.00     0.275 C 
ENDROOT
BRANCH   1   2
ATOM      2  C   UNL A   1      35.013  21.738  26.327  1.00  0.00     0.274 C 
BRANCH   2   3
ATOM      3  O   UNL A   1      33.689  22.092  25.876  1.00  0.00    -0.462 OA
BRANCH   3   4
ATOM      4  C   UNL A   1      33.049  23.029  26.637  1.00  0.00     0.312 C 
ATOM      5  O   UNL A   1      32.784  22.863  27.821  1.00  0.00    -0.252 OA
BRANCH   4   6
ATOM      6  C   UNL A   1      32.625  24.272  25.811  1.00  0.00     0.069 C 
ATOM      7  C   UNL A   1      33.101  24.927  23.510  1.00  0.00    -0.010 C 
ATOM      8  C   UNL A   1      34.395  25.087  24.280  1.00  0.00     0.005 C 
ATOM      9  C   UNL A   1      32.339  23.885  24.341  1.00  0.00     0.022 C 
ATOM     10  C   UNL A   1      33.881  25.198  25.719  1.00  0.00     0.019 C 
BRANCH   7  11
ATOM     11  C   UNL A   1      33.118  24.684  22.001  1.00  0.00     0.000 C 
ATOM     12  C   UNL A   1      32.674  25.830  21.119  1.00  0.00     0.004 C 
ENDBRANCH   7  11
BRANCH   6  13
ATOM     13  C   UNL A   1      31.371  24.853  26.550  1.00  0.00     0.027 C 
BRANCH  13  14
ATOM     14  C   UNL A   1      30.572  26.137  26.170  1.00  0.00     0.020 C 
ATOM     15  C   UNL A   1      29.529  26.015  25.046  1.00  0.00     0.009 C 
ATOM     16  C   UNL A   1      31.395  27.395  26.104  1.00  0.00    -0.042 A 
ATOM     17  C   UNL A   1      29.954  26.490  23.667  1.00  0.00     0.005 C 
ATOM     18  C   UNL A   1      31.579  28.087  24.900  1.00  0.00    -0.045 A 
ATOM     19  C   UNL A   1      32.058  27.835  27.268  1.00  0.00     0.004 A 
ATOM     20  C   UNL A   1      30.793  27.769  23.653  1.00  0.00     0.036 C 
ATOM     21  C   UNL A   1      32.504  29.145  24.862  1.00  0.00     0.004 A 
ATOM     22  C   UNL A   1      32.959  28.894  27.219  1.00  0.00     0.000 A 
ATOM     23  C   UNL A   1      33.200  29.533  26.009  1.00  0.00     0.000 A 
ENDBRANCH  13  14
ENDBRANCH   6  13
ENDBRANCH   4   6
ENDBRANCH   3   4
ENDBRANCH   2   3
ENDBRANCH   1   2
BRANCH   1  24
ATOM     24  O   UNL A   1      36.959  21.720  24.887  1.00  0.00    -0.458 OA
BRANCH  24  25
ATOM     25  C   UNL A   1      38.110  21.299  25.451  1.00  0.00     0.338 C 
ATOM     26  O   UNL A   1      38.595  20.175  25.391  1.00  0.00    -0.246 OA
BRANCH  25  27
ATOM     27  C   UNL A   1      38.753  22.407  26.173  1.00  0.00     0.060 A 
ATOM     28  C   UNL A   1      38.293  23.714  26.018  1.00  0.00     0.016 A 
ATOM     29  C   UNL A   1      39.903  22.153  26.919  1.00  0.00     0.016 A 
ATOM     30  C   UNL A   1      39.037  24.776  26.532  1.00  0.00     0.010 A 
ATOM     31  C   UNL A   1      40.595  23.216  27.504  1.00  0.00     0.010 A 
ATOM     32  C   UNL A   1      40.199  24.545  27.281  1.00  0.00    -0.014 A 
BRANCH  32  33
ATOM     33  C   UNL A   1      41.037  25.665  27.796  1.00  0.00     0.031 A 
ATOM     34  C   UNL A   1      40.405  26.748  28.636  1.00  0.00     0.074 A 
ATOM     35  C   UNL A   1      42.347  25.749  27.486  1.00  0.00     0.049 A 
ATOM     36  N   UNL A   1      40.846  27.949  28.905  1.00  0.00    -0.248 NA
ATOM     37  C   UNL A   1      39.099  26.441  29.245  1.00  0.00     0.031 C 
ATOM     38  C   UNL A   1      43.115  24.747  26.747  1.00  0.00     0.029 A 
ATOM     39  N   UNL A   1      43.257  26.751  27.727  1.00  0.00    -0.354 N 
ATOM     40  C   UNL A   1      39.839  28.568  29.639  1.00  0.00     0.074 A 
ATOM     41  C   UNL A   1      38.777  27.601  29.803  1.00  0.00     0.031 C 
ATOM     42  C   UNL A   1      44.374  25.180  26.593  1.00  0.00     0.029 A 
ATOM     43  C   UNL A   1      44.473  26.535  27.117  1.00  0.00     0.049 A 
ATOM     44  H   UNL A   1      43.060  27.542  28.278  1.00  0.00     0.167 HD
ATOM     45  C   UNL A   1      39.803  29.831  30.126  1.00  0.00     0.034 A 
ATOM     46  C   UNL A   1      45.524  27.356  26.926  1.00  0.00     0.034 A 
ATOM     47  C   UNL A   1      40.890  30.766  30.013  1.00  0.00     0.049 A 
ATOM     48  C   UNL A   1      45.447  28.768  27.433  1.00  0.00     0.074 A 
ATOM     49  C   UNL A   1      40.955  32.072  30.466  1.00  0.00     0.029 A 
ATOM     50  N   UNL A   1      42.112  30.485  29.421  1.00  0.00    -0.354 N 
ATOM     51  N   UNL A   1      44.484  29.351  28.103  1.00  0.00    -0.248 NA
ATOM     52  C   UNL A   1      46.600  29.636  27.154  1.00  0.00     0.031 C 
ATOM     53  C   UNL A   1      42.217  32.582  30.145  1.00  0.00     0.029 A 
ATOM     54  C   UNL A   1      42.940  31.591  29.503  1.00  0.00     0.049 A 
ATOM     55  H   UNL A   1      42.355  29.626  29.006  1.00  0.00     0.167 HD
ATOM     56  C   UNL A   1      44.924  30.645  28.351  1.00  0.00     0.074 A 
ATOM     57  C   UNL A   1      46.247  30.757  27.772  1.00  0.00     0.031 C 
ATOM     58  C   UNL A   1      44.281  31.657  28.982  1.00  0.00     0.034 A 
BRANCH  45  59
ATOM     59  C   UNL A   1      38.557  30.281  30.839  1.00  0.00     0.023 A 
ATOM     60  C   UNL A   1      38.419  30.046  32.220  1.00  0.00     0.012 A 
ATOM     61  C   UNL A   1      37.557  31.000  30.154  1.00  0.00     0.148 A 
ATOM     62  C   UNL A   1      37.294  30.505  32.907  1.00  0.00     0.002 A 
ATOM     63  C   UNL A   1      36.455  31.484  30.852  1.00  0.00     0.091 A 
ATOM     64  F   UNL A   1      37.695  31.190  28.835  1.00  0.00    -0.205 F 
ATOM     65  C   UNL A   1      36.319  31.231  32.227  1.00  0.00     0.022 A 
BRANCH  63  66
ATOM     66  S   UNL A   1      35.186  32.486  30.070  1.00  0.00     0.127 S 
ATOM     67  O   UNL A   1      34.241  32.678  31.169  1.00  0.00    -0.237 OA
ATOM     68  O   UNL A   1      35.927  33.689  29.688  1.00  0.00    -0.237 OA
ATOM     69  O   UNL A   1      34.695  31.700  28.946  1.00  0.00    -0.744 OA
ENDBRANCH  63  66
ENDBRANCH  45  59
BRANCH  46  70
ATOM     70  C   UNL A   1      46.726  26.855  26.200  1.00  0.00     0.023 A 
ATOM     71  C   UNL A   1      46.807  27.016  24.805  1.00  0.00     0.012 A 
ATOM     72  C   UNL A   1      47.817  26.288  26.890  1.00  0.00     0.148 A 
ATOM     73  C   UNL A   1      47.948  26.615  24.110  1.00  0.00     0.002 A 
ATOM     74  C   UNL A   1      48.975  25.951  26.200  1.00  0.00     0.091 A 
ATOM     75  F   UNL A   1      47.712  26.110  28.215  1.00  0.00    -0.205 F 
ATOM     76  C   UNL A   1      49.038  26.101  24.808  1.00  0.00     0.022 A 
BRANCH  74  77
ATOM     77  S   UNL A   1      50.469  25.441  27.059  1.00  0.00     0.127 S 
ATOM     78  O   UNL A   1      50.026  24.231  27.743  1.00  0.00    -0.237 OA
ATOM     79  O   UNL A   1      51.403  25.218  25.954  1.00  0.00    -0.237 OA
ATOM     80  O   UNL A   1      50.821  26.569  27.911  1.00  0.00    -0.744 OA
ENDBRANCH  74  77
ENDBRANCH  46  70
BRANCH  58  81
ATOM     81  C   UNL A   1      45.009  32.963  29.131  1.00  0.00     0.023 A 
ATOM     82  C   UNL A   1      45.901  33.142  30.204  1.00  0.00     0.012 A 
ATOM     83  C   UNL A   1      44.882  33.969  28.154  1.00  0.00     0.148 A 
ATOM     84  C   UNL A   1      46.650  34.314  30.312  1.00  0.00     0.002 A 
ATOM     85  C   UNL A   1      45.659  35.117  28.246  1.00  0.00     0.091 A 
ATOM     86  F   UNL A   1      44.009  33.781  27.154  1.00  0.00    -0.205 F 
ATOM     87  C   UNL A   1      46.538  35.294  29.327  1.00  0.00     0.022 A 
BRANCH  85  88
ATOM     88  S   UNL A   1      45.641  36.390  26.979  1.00  0.00     0.127 S 
ATOM     89  O   UNL A   1      46.333  35.725  25.878  1.00  0.00    -0.237 OA
ATOM     90  O   UNL A   1      44.208  36.596  26.765  1.00  0.00    -0.237 OA
ATOM     91  O   UNL A   1      46.334  37.536  27.554  1.00  0.00    -0.744 OA
ENDBRANCH  85  88
ENDBRANCH  58  81
ENDBRANCH  32  33
ENDBRANCH  25  27
ENDBRANCH  24  25
ENDBRANCH   1  24
TORSDOF 17
ENDMDL
MODEL 2
REMARK VINA RESULT:     -12.3      4.704      9.794
REMARK SMILES CC[C@@H]1CC[C@](C[C@@H]2CCCc3ccccc32)(C(=O)OCCOC(=O)c2ccc(-c3c4nc(c(-c5cccc(S(=O)(=O)[O-])c5F)c5ccc([nH]5)c(-c5cccc(S(=O)(=O)[O-])c5F)c5nc(c(-c6cccc(S(=O)(=O)[O-])c6F)c6ccc3[nH]6)C=C5)C=C4)cc2)C1
REMARK SMILES IDX 22 1 21 2 20 3 18 4 19 5 6 6 3 7 4 8 89 9 5 10 2 11 1 12
REMARK SMILES IDX 7 13 8 14 9 15 17 16 10 17 12 18 16 19 11 20 13 21 15 22
REMARK SMILES IDX 14 23 23 24 24 25 25 26 26 27 27 28 88 29 28 30 87 31 29 32
REMARK SMILES IDX 30 33 31 34 81 35 32 36 86 37 80 38 82 39 33 40 85 41 79 42
REMARK SMILES IDX 78 43 34 45 66 46 46 47 65 48 47 49 50 50 64 51 83 52 48 53
REMARK SMILES IDX 49 54 63 56 84 57 51 58 35 59 36 60 44 61 37 62 39 63 45 64
REMARK SMILES IDX 38 65 40 66 41 67 42 68 43 69 67 70 68 71 76 72 69 73 71 74
REMARK SMILES IDX 77 75 70 76 72 77 73 78 74 79 75 80 52 81 53 82 61 83 54 84
REMARK SMILES IDX 56 85 62 86 55 87 57 88 58 89 59 90 60 91
REMARK H PARENT 82 44 50 55
REMARK Flexibility Score: inf
ROOT
ATOM      1  C   UNL A   1      31.578  29.394  25.566  1.00  0.00     0.275 C 
ENDROOT
BRANCH   1   2
ATOM      2  C   UNL A   1      31.373  28.839  24.162  1.00  0.00     0.274 C 
BRANCH   2   3
ATOM      3  O   UNL A   1      32.487  28.021  23.749  1.00  0.00    -0.462 OA
BRANCH   3   4
ATOM      4  C   UNL A   1      32.149  26.835  23.160  1.00  0.00     0.312 C 
ATOM      5  O   UNL A   1      31.285  26.739  22.297  1.00  0.00    -0.252 OA
BRANCH   4   6
ATOM      6  C   UNL A   1      32.915  25.633  23.771  1.00  0.00     0.069 C 
ATOM      7  C   UNL A   1      32.707  24.504  25.923  1.00  0.00    -0.010 C 
ATOM      8  C   UNL A   1      33.321  25.859  26.205  1.00  0.00     0.005 C 
ATOM      9  C   UNL A   1      31.964  24.738  24.600  1.00  0.00     0.022 C 
ATOM     10  C   UNL A   1      33.899  26.222  24.833  1.00  0.00     0.019 C 
BRANCH   7  11
ATOM     11  C   UNL A   1      31.914  23.770  27.004  1.00  0.00     0.000 C 
ATOM     12  C   UNL A   1      30.477  23.423  26.681  1.00  0.00     0.004 C 
ENDBRANCH   7  11
BRANCH   6  13
ATOM     13  C   UNL A   1      33.555  24.886  22.551  1.00  0.00     0.027 C 
BRANCH  13  14
ATOM     14  C   UNL A   1      33.889  23.366  22.454  1.00  0.00     0.020 C 
ATOM     15  C   UNL A   1      32.733  22.407  22.125  1.00  0.00     0.009 C 
ATOM     16  C   UNL A   1      34.821  22.856  23.520  1.00  0.00    -0.042 A 
ATOM     17  C   UNL A   1      32.104  21.672  23.297  1.00  0.00     0.005 C 
ATOM     18  C   UNL A   1      34.401  21.914  24.469  1.00  0.00    -0.045 A 
ATOM     19  C   UNL A   1      36.117  23.402  23.608  1.00  0.00     0.004 A 
ATOM     20  C   UNL A   1      33.090  21.178  24.356  1.00  0.00     0.036 C 
ATOM     21  C   UNL A   1      35.252  21.615  25.547  1.00  0.00     0.004 A 
ATOM     22  C   UNL A   1      36.955  23.085  24.673  1.00  0.00     0.000 A 
ATOM     23  C   UNL A   1      36.511  22.209  25.657  1.00  0.00     0.000 A 
ENDBRANCH  13  14
ENDBRANCH   6  13
ENDBRANCH   4   6
ENDBRANCH   3   4
ENDBRANCH   2   3
ENDBRANCH   1   2
BRANCH   1  24
ATOM     24  O   UNL A   1      32.863  30.026  25.656  1.00  0.00    -0.458 OA
BRANCH  24  25
ATOM     25  C   UNL A   1      33.057  30.794  26.749  1.00  0.00     0.338 C 
ATOM     26  O   UNL A   1      32.241  31.534  27.287  1.00  0.00    -0.246 OA
BRANCH  25  27
ATOM     27  C   UNL A   1      34.428  30.620  27.251  1.00  0.00     0.060 A 
ATOM     28  C   UNL A   1      34.956  29.343  27.440  1.00  0.00     0.016 A 
ATOM     29  C   UNL A   1      35.151  31.742  27.650  1.00  0.00     0.016 A 
ATOM     30  C   UNL A   1      36.167  29.187  28.113  1.00  0.00     0.010 A 
ATOM     31  C   UNL A   1      36.403  31.581  28.247  1.00  0.00     0.010 A 
ATOM     32  C   UNL A   1      36.909  30.301  28.528  1.00  0.00    -0.014 A 
BRANCH  32  33
ATOM     33  C   UNL A   1      38.180  30.157  29.295  1.00  0.00     0.031 A 
ATOM     34  C   UNL A   1      39.284  29.280  28.756  1.00  0.00     0.074 A 
ATOM     35  C   UNL A   1      38.342  30.765  30.487  1.00  0.00     0.049 A 
ATOM     36  N   UNL A   1      40.305  28.758  29.382  1.00  0.00    -0.248 NA
ATOM     37  C   UNL A   1      39.223  28.939  27.324  1.00  0.00     0.031 C 
ATOM     38  C   UNL A   1      37.399  31.698  31.104  1.00  0.00     0.029 A 
ATOM     39  N   UNL A   1      39.352  30.657  31.414  1.00  0.00    -0.354 N 
ATOM     40  C   UNL A   1      40.958  27.962  28.448  1.00  0.00     0.074 A 
ATOM     41  C   UNL A   1      40.238  28.093  27.201  1.00  0.00     0.031 C 
ATOM     42  C   UNL A   1      37.869  32.076  32.301  1.00  0.00     0.029 A 
ATOM     43  C   UNL A   1      39.084  31.326  32.587  1.00  0.00     0.049 A 
ATOM     44  H   UNL A   1      40.182  30.152  31.254  1.00  0.00     0.167 HD
ATOM     45  C   UNL A   1      42.055  27.186  28.618  1.00  0.00     0.034 A 
ATOM     46  C   UNL A   1      39.695  31.284  33.787  1.00  0.00     0.034 A 
ATOM     47  C   UNL A   1      42.802  27.110  29.844  1.00  0.00     0.049 A 
ATOM     48  C   UNL A   1      40.883  30.383  33.969  1.00  0.00     0.074 A 
ATOM     49  C   UNL A   1      43.924  26.351  30.124  1.00  0.00     0.029 A 
ATOM     50  N   UNL A   1      42.512  27.836  30.989  1.00  0.00    -0.354 N 
ATOM     51  N   UNL A   1      41.478  29.617  33.089  1.00  0.00    -0.248 NA
ATOM     52  C   UNL A   1      41.482  30.338  35.311  1.00  0.00     0.031 C 
ATOM     53  C   UNL A   1      44.312  26.617  31.441  1.00  0.00     0.029 A 
ATOM     54  C   UNL A   1      43.438  27.548  31.976  1.00  0.00     0.049 A 
ATOM     55  H   UNL A   1      41.760  28.463  31.085  1.00  0.00     0.167 HD
ATOM     56  C   UNL A   1      42.537  29.018  33.760  1.00  0.00     0.074 A 
ATOM     57  C   UNL A   1      42.511  29.523  35.118  1.00  0.00     0.031 C 
ATOM     58  C   UNL A   1      43.437  28.116  33.299  1.00  0.00     0.034 A 
BRANCH  45  59
ATOM     59  C   UNL A   1      42.529  26.363  27.450  1.00  0.00     0.023 A 
ATOM     60  C   UNL A   1      43.420  26.926  26.515  1.00  0.00     0.012 A 
ATOM     61  C   UNL A   1      42.150  25.013  27.320  1.00  0.00     0.148 A 
ATOM     62  C   UNL A   1      43.913  26.159  25.458  1.00  0.00     0.002 A 
ATOM     63  C   UNL A   1      42.670  24.246  26.283  1.00  0.00     0.091 A 
ATOM     64  F   UNL A   1      41.280  24.504  28.205  1.00  0.00    -0.205 F 
ATOM     65  C   UNL A   1      43.547  24.820  25.348  1.00  0.00     0.022 A 
BRANCH  63  66
ATOM     66  S   UNL A   1      42.306  22.496  26.105  1.00  0.00     0.127 S 
ATOM     67  O   UNL A   1      40.846  22.503  26.032  1.00  0.00    -0.237 OA
ATOM     68  O   UNL A   1      42.977  22.162  24.848  1.00  0.00    -0.237 OA
ATOM     69  O   UNL A   1      42.876  21.850  27.281  1.00  0.00    -0.744 OA
ENDBRANCH  63  66
ENDBRANCH  45  59
BRANCH  46  70
ATOM     70  C   UNL A   1      39.170  32.113  34.909  1.00  0.00     0.023 A 
ATOM     71  C   UNL A   1      38.212  31.567  35.782  1.00  0.00     0.012 A 
ATOM     72  C   UNL A   1      39.665  33.410  35.159  1.00  0.00     0.148 A 
ATOM     73  C   UNL A   1      37.750  32.297  36.877  1.00  0.00     0.002 A 
ATOM     74  C   UNL A   1      39.250  34.106  36.288  1.00  0.00     0.091 A 
ATOM     75  F   UNL A   1      40.553  33.931  34.300  1.00  0.00    -0.205 F 
ATOM     76  C   UNL A   1      38.282  33.557  37.141  1.00  0.00     0.022 A 
BRANCH  74  77
ATOM     77  S   UNL A   1      40.017  35.657  36.774  1.00  0.00     0.127 S 
ATOM     78  O   UNL A   1      39.652  36.533  35.666  1.00  0.00    -0.237 OA
ATOM     79  O   UNL A   1      39.345  35.953  38.041  1.00  0.00    -0.237 OA
ATOM     80  O   UNL A   1      41.435  35.352  36.914  1.00  0.00    -0.744 OA
ENDBRANCH  74  77
ENDBRANCH  46  70
BRANCH  58  81
ATOM     81  C   UNL A   1      44.503  27.646  34.247  1.00  0.00     0.023 A 
ATOM     82  C   UNL A   1      45.668  28.417  34.419  1.00  0.00     0.012 A 
ATOM     83  C   UNL A   1      44.305  26.497  35.036  1.00  0.00     0.148 A 
ATOM     84  C   UNL A   1      46.630  28.042  35.356  1.00  0.00     0.002 A 
ATOM     85  C   UNL A   1      45.248  26.151  35.995  1.00  0.00     0.091 A 
ATOM     86  F   UNL A   1      43.196  25.769  34.837  1.00  0.00    -0.205 F 
ATOM     87  C   UNL A   1      46.414  26.919  36.152  1.00  0.00     0.022 A 
BRANCH  85  88
ATOM     88  S   UNL A   1      45.012  24.770  37.119  1.00  0.00     0.127 S 
ATOM     89  O   UNL A   1      46.207  24.858  37.955  1.00  0.00    -0.237 OA
ATOM     90  O   UNL A   1      43.765  25.130  37.796  1.00  0.00    -0.237 OA
ATOM     91  O   UNL A   1      44.919  23.583  36.280  1.00  0.00    -0.744 OA
ENDBRANCH  85  88
ENDBRANCH  58  81
ENDBRANCH  32  33
ENDBRANCH  25  27
ENDBRANCH  24  25
ENDBRANCH   1  24
TORSDOF 17
ENDMDL
MODEL 3
REMARK VINA RESULT:     -12.0      5.024      9.883
REMARK SMILES CC[C@@H]1CC[C@](C[C@@H]2CCCc3ccccc32)(C(=O)OCCOC(=O)c2ccc(-c3c4nc(c(-c5cccc(S(=O)(=O)[O-])c5F)c5ccc([nH]5)c(-c5cccc(S(=O)(=O)[O-])c5F)c5nc(c(-c6cccc(S(=O)(=O)[O-])c6F)c6ccc3[nH]6)C=C5)C=C4)cc2)C1
REMARK SMILES IDX 22 1 21 2 20 3 18 4 19 5 6 6 3 7 4 8 89 9 5 10 2 11 1 12
REMARK SMILES IDX 7 13 8 14 9 15 17 16 10 17 12 18 16 19 11 20 13 21 15 22
REMARK SMILES IDX 14 23 23 24 24 25 25 26 26 27 27 28 88 29 28 30 87 31 29 32
REMARK SMILES IDX 30 33 31 34 81 35 32 36 86 37 80 38 82 39 33 40 85 41 79 42
REMARK SMILES IDX 78 43 34 45 66 46 46 47 65 48 47 49 50 50 64 51 83 52 48 53
REMARK SMILES IDX 49 54 63 56 84 57 51 58 35 59 36 60 44 61 37 62 39 63 45 64
REMARK SMILES IDX 38 65 40 66 41 67 42 68 43 69 67 70 68 71 76 72 69 73 71 74
REMARK SMILES IDX 77 75 70 76 72 77 73 78 74 79 75 80 52 81 53 82 61 83 54 84
REMARK SMILES IDX 56 85 62 86 55 87 57 88 58 89 59 90 60 91
REMARK H PARENT 82 44 50 55
REMARK Flexibility Score: inf
ROOT
ATOM      1  C   UNL A   1      31.810  30.355  25.943  1.00  0.00     0.275 C 
ENDROOT
BRANCH   1   2
ATOM      2  C   UNL A   1      32.181  29.285  24.924  1.00  0.00     0.274 C 
BRANCH   2   3
ATOM      3  O   UNL A   1      31.758  27.974  25.356  1.00  0.00    -0.462 OA
BRANCH   3   4
ATOM      4  C   UNL A   1      31.480  27.095  24.349  1.00  0.00     0.312 C 
ATOM      5  O   UNL A   1      30.718  27.354  23.426  1.00  0.00    -0.252 OA
BRANCH   4   6
ATOM      6  C   UNL A   1      32.164  25.719  24.560  1.00  0.00     0.069 C 
ATOM      7  C   UNL A   1      31.463  23.734  25.793  1.00  0.00    -0.010 C 
ATOM      8  C   UNL A   1      31.811  24.783  26.827  1.00  0.00     0.005 C 
ATOM      9  C   UNL A   1      31.119  24.578  24.558  1.00  0.00     0.022 C 
ATOM     10  C   UNL A   1      32.720  25.715  26.021  1.00  0.00     0.019 C 
BRANCH   7  11
ATOM     11  C   UNL A   1      30.477  22.614  26.122  1.00  0.00     0.000 C 
ATOM     12  C   UNL A   1      29.506  22.869  27.254  1.00  0.00     0.004 C 
ENDBRANCH   7  11
BRANCH   6  13
ATOM     13  C   UNL A   1      33.214  25.595  23.403  1.00  0.00     0.027 C 
BRANCH  13  14
ATOM     14  C   UNL A   1      33.949  24.300  22.941  1.00  0.00     0.020 C 
ATOM     15  C   UNL A   1      33.246  23.424  21.889  1.00  0.00     0.009 C 
ATOM     16  C   UNL A   1      34.603  23.517  24.047  1.00  0.00    -0.042 A 
ATOM     17  C   UNL A   1      32.502  22.205  22.405  1.00  0.00     0.005 C 
ATOM     18  C   UNL A   1      34.173  22.227  24.384  1.00  0.00    -0.045 A 
ATOM     19  C   UNL A   1      35.616  24.134  24.808  1.00  0.00     0.004 A 
ATOM     20  C   UNL A   1      33.205  21.446  23.532  1.00  0.00     0.036 C 
ATOM     21  C   UNL A   1      34.695  21.621  25.540  1.00  0.00     0.004 A 
ATOM     22  C   UNL A   1      36.135  23.515  25.942  1.00  0.00     0.000 A 
ATOM     23  C   UNL A   1      35.655  22.267  26.321  1.00  0.00     0.000 A 
ENDBRANCH  13  14
ENDBRANCH   6  13
ENDBRANCH   4   6
ENDBRANCH   3   4
ENDBRANCH   2   3
ENDBRANCH   1   2
BRANCH   1  24
ATOM     24  O   UNL A   1      32.690  30.278  27.073  1.00  0.00    -0.458 OA
BRANCH  24  25
ATOM     25  C   UNL A   1      33.359  31.413  27.366  1.00  0.00     0.338 C 
ATOM     26  O   UNL A   1      32.930  32.559  27.313  1.00  0.00    -0.246 OA
BRANCH  25  27
ATOM     27  C   UNL A   1      34.732  31.094  27.789  1.00  0.00     0.060 A 
ATOM     28  C   UNL A   1      35.096  29.780  28.077  1.00  0.00     0.016 A 
ATOM     29  C   UNL A   1      35.630  32.135  28.016  1.00  0.00     0.016 A 
ATOM     30  C   UNL A   1      36.326  29.518  28.679  1.00  0.00     0.010 A 
ATOM     31  C   UNL A   1      36.893  31.855  28.540  1.00  0.00     0.010 A 
ATOM     32  C   UNL A   1      37.243  30.549  28.922  1.00  0.00    -0.014 A 
BRANCH  32  33
ATOM     33  C   UNL A   1      38.541  30.300  29.611  1.00  0.00     0.031 A 
ATOM     34  C   UNL A   1      39.546  29.355  28.998  1.00  0.00     0.074 A 
ATOM     35  C   UNL A   1      38.815  30.874  30.800  1.00  0.00     0.049 A 
ATOM     36  N   UNL A   1      40.560  28.750  29.556  1.00  0.00    -0.248 NA
ATOM     37  C   UNL A   1      39.379  29.044  27.567  1.00  0.00     0.031 C 
ATOM     38  C   UNL A   1      37.980  31.862  31.483  1.00  0.00     0.029 A 
ATOM     39  N   UNL A   1      39.866  30.677  31.665  1.00  0.00    -0.354 N 
ATOM     40  C   UNL A   1      41.099  27.925  28.575  1.00  0.00     0.074 A 
ATOM     41  C   UNL A   1      40.320  28.130  27.373  1.00  0.00     0.031 C 
ATOM     42  C   UNL A   1      38.544  32.184  32.656  1.00  0.00     0.029 A 
ATOM     43  C   UNL A   1      39.716  31.343  32.860  1.00  0.00     0.049 A 
ATOM     44  H   UNL A   1      40.646  30.116  31.450  1.00  0.00     0.167 HD
ATOM     45  C   UNL A   1      42.143  27.069  28.670  1.00  0.00     0.034 A 
ATOM     46  C   UNL A   1      40.389  31.236  34.023  1.00  0.00     0.034 A 
ATOM     47  C   UNL A   1      42.952  26.917  29.850  1.00  0.00     0.049 A 
ATOM     48  C   UNL A   1      41.516  30.248  34.123  1.00  0.00     0.074 A 
ATOM     49  C   UNL A   1      44.029  26.074  30.054  1.00  0.00     0.029 A 
ATOM     50  N   UNL A   1      42.781  27.642  31.019  1.00  0.00    -0.354 N 
ATOM     51  N   UNL A   1      42.002  29.456  33.199  1.00  0.00    -0.248 NA
ATOM     52  C   UNL A   1      42.185  30.136  35.427  1.00  0.00     0.031 C 
ATOM     53  C   UNL A   1      44.510  26.288  31.350  1.00  0.00     0.029 A 
ATOM     54  C   UNL A   1      43.738  27.270  31.947  1.00  0.00     0.049 A 
ATOM     55  H   UNL A   1      42.084  28.320  31.167  1.00  0.00     0.167 HD
ATOM     56  C   UNL A   1      43.051  28.771  33.800  1.00  0.00     0.074 A 
ATOM     57  C   UNL A   1      43.140  29.252  35.164  1.00  0.00     0.031 C 
ATOM     58  C   UNL A   1      43.854  27.814  33.276  1.00  0.00     0.034 A 
BRANCH  45  59
ATOM     59  C   UNL A   1      42.489  26.234  27.466  1.00  0.00     0.023 A 
ATOM     60  C   UNL A   1      43.287  26.781  26.443  1.00  0.00     0.012 A 
ATOM     61  C   UNL A   1      42.083  24.887  27.384  1.00  0.00     0.148 A 
ATOM     62  C   UNL A   1      43.662  26.003  25.347  1.00  0.00     0.002 A 
ATOM     63  C   UNL A   1      42.488  24.109  26.305  1.00  0.00     0.091 A 
ATOM     64  F   UNL A   1      41.302  24.394  28.355  1.00  0.00    -0.205 F 
ATOM     65  C   UNL A   1      43.273  24.668  25.283  1.00  0.00     0.022 A 
BRANCH  63  66
ATOM     66  S   UNL A   1      42.090  22.362  26.176  1.00  0.00     0.127 S 
ATOM     67  O   UNL A   1      42.759  21.997  24.928  1.00  0.00    -0.237 OA
ATOM     68  O   UNL A   1      42.708  21.809  27.382  1.00  0.00    -0.237 OA
ATOM     69  O   UNL A   1      40.635  22.287  26.157  1.00  0.00    -0.744 OA
ENDBRANCH  63  66
ENDBRANCH  45  59
BRANCH  46  70
ATOM     70  C   UNL A   1      39.990  32.081  35.184  1.00  0.00     0.023 A 
ATOM     71  C   UNL A   1      40.417  33.420  35.243  1.00  0.00     0.012 A 
ATOM     72  C   UNL A   1      39.134  31.589  36.191  1.00  0.00     0.148 A 
ATOM     73  C   UNL A   1      40.005  34.251  36.285  1.00  0.00     0.002 A 
ATOM     74  C   UNL A   1      38.676  32.439  37.189  1.00  0.00     0.091 A 
ATOM     75  F   UNL A   1      38.762  30.301  36.140  1.00  0.00    -0.205 F 
ATOM     76  C   UNL A   1      39.120  33.768  37.246  1.00  0.00     0.022 A 
BRANCH  74  77
ATOM     77  S   UNL A   1      37.410  31.926  38.357  1.00  0.00     0.127 S 
ATOM     78  O   UNL A   1      36.334  32.868  38.069  1.00  0.00    -0.237 OA
ATOM     79  O   UNL A   1      37.148  30.545  37.945  1.00  0.00    -0.237 OA
ATOM     80  O   UNL A   1      38.033  32.042  39.669  1.00  0.00    -0.744 OA
ENDBRANCH  74  77
ENDBRANCH  46  70
BRANCH  58  81
ATOM     81  C   UNL A   1      44.935  27.251  34.154  1.00  0.00     0.023 A 
ATOM     82  C   UNL A   1      46.162  27.932  34.267  1.00  0.00     0.012 A 
ATOM     83  C   UNL A   1      44.698  26.106  34.938  1.00  0.00     0.148 A 
ATOM     84  C   UNL A   1      47.146  27.472  35.142  1.00  0.00     0.002 A 
ATOM     85  C   UNL A   1      45.667  25.676  35.835  1.00  0.00     0.091 A 
ATOM     86  F   UNL A   1      43.530  25.464  34.794  1.00  0.00    -0.205 F 
ATOM     87  C   UNL A   1      46.893  26.354  35.934  1.00  0.00     0.022 A 
BRANCH  85  88
ATOM     88  S   UNL A   1      45.394  24.296  36.953  1.00  0.00     0.127 S 
ATOM     89  O   UNL A   1      44.566  24.911  37.988  1.00  0.00    -0.237 OA
ATOM     90  O   UNL A   1      44.691  23.337  36.099  1.00  0.00    -0.237 OA
ATOM     91  O   UNL A   1      46.717  23.863  37.383  1.00  0.00    -0.744 OA
ENDBRANCH  85  88
ENDBRANCH  58  81
ENDBRANCH  32  33
ENDBRANCH  25  27
ENDBRANCH  24  25
ENDBRANCH   1  24
TORSDOF 17
ENDMDL
