MODEL 1
REMARK VINA RESULT:     -12.6      0.000      0.000
REMARK SMILES COc1cc(NC(=O)CN2C(=O)c3ccccc3C2=O)c(C(=O)OCCOC(=O)c2ccc(-c3c4nc(c(-c5cccc(S(=O)(=O)[O-])c5F)c5ccc([nH]5)c(-c5cccc(S(=O)(=O)[O-])c5F)c5nc(c(-c6cccc(S(=O)(=O)[O-])c6F)c6ccc3[nH]6)C=C5)C=C4)cc2)cc1OC
REMARK SMILES IDX 25 1 24 2 22 3 23 4 21 5 3 6 4 7 94 8 5 9 93 10 2 11 1 12
REMARK SMILES IDX 95 13 96 14 6 15 7 16 8 18 9 19 10 20 11 21 19 22 12 23
REMARK SMILES IDX 13 24 18 25 20 26 14 27 17 28 15 29 16 30 26 31 27 32 28 33
REMARK SMILES IDX 29 34 30 35 31 36 92 37 32 38 91 39 33 40 34 41 35 42 85 43
REMARK SMILES IDX 36 44 90 45 84 46 86 47 37 48 89 49 83 50 82 51 38 53 70 54
REMARK SMILES IDX 50 55 69 56 51 57 54 58 68 59 87 60 52 61 53 62 67 64 88 65
REMARK SMILES IDX 55 66 39 67 40 68 48 69 41 70 43 71 49 72 42 73 44 74 45 75
REMARK SMILES IDX 46 76 47 77 71 78 72 79 80 80 73 81 75 82 81 83 74 84 76 85
REMARK SMILES IDX 77 86 78 87 79 88 56 89 57 90 65 91 58 92 60 93 66 94 59 95
REMARK SMILES IDX 61 96 62 97 63 98 64 99
REMARK H PARENT 6 17 86 52 54 63
REMARK Flexibility Score: inf
ROOT
ATOM      1  C   UNL A   1      35.877  20.635  24.758  1.00  0.00     0.275 C 
ENDROOT
BRANCH   1   2
ATOM      2  O   UNL A   1      35.087  21.525  25.580  1.00  0.00    -0.458 OA
BRANCH   2   3
ATOM      3  C   UNL A   1      33.740  21.413  25.467  1.00  0.00     0.340 C 
ATOM      4  O   UNL A   1      33.122  20.414  25.144  1.00  0.00    -0.246 OA
BRANCH   3   5
ATOM      5  C   UNL A   1      33.058  22.704  25.739  1.00  0.00     0.087 A 
ATOM      6  C   UNL A   1      31.863  25.065  26.619  1.00  0.00     0.162 A 
ATOM      7  C   UNL A   1      33.037  25.102  25.845  1.00  0.00     0.077 A 
ATOM      8  C   UNL A   1      31.249  23.843  26.909  1.00  0.00     0.161 A 
ATOM      9  C   UNL A   1      33.618  23.943  25.343  1.00  0.00     0.059 A 
ATOM     10  C   UNL A   1      31.877  22.666  26.494  1.00  0.00     0.068 A 
BRANCH   6  11
ATOM     11  O   UNL A   1      31.273  26.242  26.997  1.00  0.00    -0.493 OA
ATOM     12  C   UNL A   1      32.044  27.400  26.677  1.00  0.00     0.278 C 
ENDBRANCH   6  11
BRANCH   8  13
ATOM     13  O   UNL A   1      30.088  23.610  27.592  1.00  0.00    -0.493 OA
ATOM     14  C   UNL A   1      29.294  22.497  27.210  1.00  0.00     0.278 C 
ENDBRANCH   8  13
BRANCH   9  15
ATOM     15  N   UNL A   1      34.636  23.956  24.370  1.00  0.00    -0.324 N 
ATOM     16  C   UNL A   1      34.754  23.576  23.070  1.00  0.00     0.244 C 
ATOM     17  H   UNL A   1      35.474  24.336  24.719  1.00  0.00     0.170 HD
ATOM     18  O   UNL A   1      35.903  23.274  22.731  1.00  0.00    -0.273 OA
BRANCH  16  19
ATOM     19  C   UNL A   1      33.650  23.353  22.054  1.00  0.00     0.229 C 
BRANCH  19  20
ATOM     20  N   UNL A   1      32.633  24.363  22.257  1.00  0.00    -0.265 N 
ATOM     21  C   UNL A   1      31.405  24.129  22.806  1.00  0.00     0.262 C 
ATOM     22  C   UNL A   1      32.746  25.659  21.842  1.00  0.00     0.262 C 
ATOM     23  O   UNL A   1      30.839  23.089  23.085  1.00  0.00    -0.269 OA
ATOM     24  C   UNL A   1      30.815  25.436  23.049  1.00  0.00     0.053 A 
ATOM     25  C   UNL A   1      31.629  26.374  22.446  1.00  0.00     0.053 A 
ATOM     26  O   UNL A   1      33.581  26.167  21.131  1.00  0.00    -0.269 OA
ATOM     27  C   UNL A   1      29.732  25.791  23.824  1.00  0.00     0.015 A 
ATOM     28  C   UNL A   1      31.401  27.728  22.565  1.00  0.00     0.015 A 
ATOM     29  C   UNL A   1      29.488  27.157  23.978  1.00  0.00     0.001 A 
ATOM     30  C   UNL A   1      30.312  28.117  23.350  1.00  0.00     0.001 A 
ENDBRANCH  19  20
ENDBRANCH  16  19
ENDBRANCH   9  15
ENDBRANCH   3   5
ENDBRANCH   2   3
ENDBRANCH   1   2
BRANCH   1  31
ATOM     31  C   UNL A   1      37.256  20.379  25.359  1.00  0.00     0.275 C 
BRANCH  31  32
ATOM     32  O   UNL A   1      37.991  21.613  25.423  1.00  0.00    -0.458 OA
BRANCH  32  33
ATOM     33  C   UNL A   1      39.247  21.534  25.919  1.00  0.00     0.338 C 
ATOM     34  O   UNL A   1      40.087  20.693  25.644  1.00  0.00    -0.246 OA
BRANCH  33  35
ATOM     35  C   UNL A   1      39.510  22.678  26.818  1.00  0.00     0.060 A 
ATOM     36  C   UNL A   1      38.855  23.881  26.598  1.00  0.00     0.016 A 
ATOM     37  C   UNL A   1      40.551  22.622  27.743  1.00  0.00     0.016 A 
ATOM     38  C   UNL A   1      39.382  25.051  27.143  1.00  0.00     0.010 A 
ATOM     39  C   UNL A   1      40.985  23.792  28.390  1.00  0.00     0.010 A 
ATOM     40  C   UNL A   1      40.483  25.053  28.025  1.00  0.00    -0.014 A 
BRANCH  40  41
ATOM     41  C   UNL A   1      41.169  26.340  28.436  1.00  0.00     0.031 A 
ATOM     42  C   UNL A   1      40.427  27.416  29.223  1.00  0.00     0.074 A 
ATOM     43  C   UNL A   1      42.476  26.572  28.176  1.00  0.00     0.049 A 
ATOM     44  N   UNL A   1      40.731  28.685  29.381  1.00  0.00    -0.248 NA
ATOM     45  C   UNL A   1      39.175  27.034  29.893  1.00  0.00     0.031 C 
ATOM     46  C   UNL A   1      43.388  25.663  27.484  1.00  0.00     0.029 A 
ATOM     47  N   UNL A   1      43.276  27.660  28.471  1.00  0.00    -0.354 N 
ATOM     48  C   UNL A   1      39.651  29.265  30.047  1.00  0.00     0.074 A 
ATOM     49  C   UNL A   1      38.702  28.205  30.301  1.00  0.00     0.031 C 
ATOM     50  C   UNL A   1      44.621  26.179  27.477  1.00  0.00     0.029 A 
ATOM     51  C   UNL A   1      44.561  27.538  27.994  1.00  0.00     0.049 A 
ATOM     52  H   UNL A   1      42.957  28.444  28.972  1.00  0.00     0.167 HD
ATOM     53  C   UNL A   1      39.471  30.557  30.423  1.00  0.00     0.034 A 
ATOM     54  C   UNL A   1      45.568  28.429  27.875  1.00  0.00     0.034 A 
ATOM     55  C   UNL A   1      40.486  31.577  30.346  1.00  0.00     0.049 A 
ATOM     56  C   UNL A   1      45.358  29.847  28.311  1.00  0.00     0.074 A 
ATOM     57  C   UNL A   1      40.410  32.898  30.762  1.00  0.00     0.029 A 
ATOM     58  N   UNL A   1      41.771  31.386  29.869  1.00  0.00    -0.354 N 
ATOM     59  N   UNL A   1      44.312  30.388  28.882  1.00  0.00    -0.248 NA
ATOM     60  C   UNL A   1      46.467  30.783  28.074  1.00  0.00     0.031 C 
ATOM     61  C   UNL A   1      41.647  33.507  30.528  1.00  0.00     0.029 A 
ATOM     62  C   UNL A   1      42.497  32.562  29.981  1.00  0.00     0.049 A 
ATOM     63  H   UNL A   1      42.118  30.540  29.504  1.00  0.00     0.167 HD
ATOM     64  C   UNL A   1      44.635  31.725  29.074  1.00  0.00     0.074 A 
ATOM     65  C   UNL A   1      45.992  31.903  28.601  1.00  0.00     0.031 C 
ATOM     66  C   UNL A   1      43.864  32.723  29.566  1.00  0.00     0.034 A 
BRANCH  53  67
ATOM     67  C   UNL A   1      38.134  30.979  30.986  1.00  0.00     0.023 A 
ATOM     68  C   UNL A   1      37.883  30.892  32.367  1.00  0.00     0.012 A 
ATOM     69  C   UNL A   1      37.189  31.617  30.150  1.00  0.00     0.148 A 
ATOM     70  C   UNL A   1      36.711  31.425  32.909  1.00  0.00     0.002 A 
ATOM     71  C   UNL A   1      36.046  32.182  30.703  1.00  0.00     0.091 A 
ATOM     72  F   UNL A   1      37.443  31.683  28.835  1.00  0.00    -0.205 F 
ATOM     73  C   UNL A   1      35.803  32.082  32.082  1.00  0.00     0.022 A 
BRANCH  71  74
ATOM     74  S   UNL A   1      34.865  33.134  29.736  1.00  0.00     0.127 S 
ATOM     75  O   UNL A   1      33.991  33.670  30.778  1.00  0.00    -0.237 OA
ATOM     76  O   UNL A   1      35.724  34.129  29.092  1.00  0.00    -0.237 OA
ATOM     77  O   UNL A   1      34.238  32.191  28.821  1.00  0.00    -0.744 OA
ENDBRANCH  71  74
ENDBRANCH  53  67
BRANCH  54  78
ATOM     78  C   UNL A   1      46.852  28.005  27.243  1.00  0.00     0.023 A 
ATOM     79  C   UNL A   1      47.885  27.475  28.036  1.00  0.00     0.012 A 
ATOM     80  C   UNL A   1      47.030  28.074  25.845  1.00  0.00     0.148 A 
ATOM     81  C   UNL A   1      49.071  27.028  27.452  1.00  0.00     0.002 A 
ATOM     82  C   UNL A   1      48.174  27.543  25.264  1.00  0.00     0.091 A 
ATOM     83  F   UNL A   1      46.060  28.626  25.102  1.00  0.00    -0.205 F 
ATOM     84  C   UNL A   1      49.206  27.040  26.064  1.00  0.00     0.022 A 
BRANCH  82  85
ATOM     85  S   UNL A   1      48.294  27.340  23.482  1.00  0.00     0.127 S 
ATOM     86  O   UNL A   1      48.166  25.894  23.332  1.00  0.00    -0.237 OA
ATOM     87  O   UNL A   1      47.147  28.113  23.000  1.00  0.00    -0.237 OA
ATOM     88  O   UNL A   1      49.584  27.917  23.126  1.00  0.00    -0.744 OA
ENDBRANCH  82  85
ENDBRANCH  54  78
BRANCH  66  89
ATOM     89  C   UNL A   1      44.475  34.094  29.650  1.00  0.00     0.023 A 
ATOM     90  C   UNL A   1      45.147  34.482  30.826  1.00  0.00     0.012 A 
ATOM     91  C   UNL A   1      44.420  34.981  28.559  1.00  0.00     0.148 A 
ATOM     92  C   UNL A   1      45.724  35.747  30.927  1.00  0.00     0.002 A 
ATOM     93  C   UNL A   1      45.033  36.225  28.651  1.00  0.00     0.091 A 
ATOM     94  F   UNL A   1      43.758  34.600  27.456  1.00  0.00    -0.205 F 
ATOM     95  C   UNL A   1      45.677  36.613  29.838  1.00  0.00     0.022 A 
BRANCH  93  96
ATOM     96  S   UNL A   1      45.085  37.375  27.272  1.00  0.00     0.127 S 
ATOM     97  O   UNL A   1      45.749  38.530  27.871  1.00  0.00    -0.237 OA
ATOM     98  O   UNL A   1      45.892  36.649  26.289  1.00  0.00    -0.237 OA
ATOM     99  O   UNL A   1      43.699  37.584  26.874  1.00  0.00    -0.744 OA
ENDBRANCH  93  96
ENDBRANCH  66  89
ENDBRANCH  40  41
ENDBRANCH  33  35
ENDBRANCH  32  33
ENDBRANCH  31  32
ENDBRANCH   1  31
TORSDOF 19
ENDMDL
MODEL 2
REMARK VINA RESULT:     -12.6      4.726      9.461
REMARK SMILES COc1cc(NC(=O)CN2C(=O)c3ccccc3C2=O)c(C(=O)OCCOC(=O)c2ccc(-c3c4nc(c(-c5cccc(S(=O)(=O)[O-])c5F)c5ccc([nH]5)c(-c5cccc(S(=O)(=O)[O-])c5F)c5nc(c(-c6cccc(S(=O)(=O)[O-])c6F)c6ccc3[nH]6)C=C5)C=C4)cc2)cc1OC
REMARK SMILES IDX 25 1 24 2 22 3 23 4 21 5 3 6 4 7 94 8 5 9 93 10 2 11 1 12
REMARK SMILES IDX 95 13 96 14 6 15 7 16 8 18 9 19 10 20 11 21 19 22 12 23
REMARK SMILES IDX 13 24 18 25 20 26 14 27 17 28 15 29 16 30 26 31 27 32 28 33
REMARK SMILES IDX 29 34 30 35 31 36 92 37 32 38 91 39 33 40 34 41 35 42 85 43
REMARK SMILES IDX 36 44 90 45 84 46 86 47 37 48 89 49 83 50 82 51 38 53 70 54
REMARK SMILES IDX 50 55 69 56 51 57 54 58 68 59 87 60 52 61 53 62 67 64 88 65
REMARK SMILES IDX 55 66 39 67 40 68 48 69 41 70 43 71 49 72 42 73 44 74 45 75
REMARK SMILES IDX 46 76 47 77 71 78 72 79 80 80 73 81 75 82 81 83 74 84 76 85
REMARK SMILES IDX 77 86 78 87 79 88 56 89 57 90 65 91 58 92 60 93 66 94 59 95
REMARK SMILES IDX 61 96 62 97 63 98 64 99
REMARK H PARENT 6 17 86 52 54 63
REMARK Flexibility Score: inf
ROOT
ATOM      1  C   UNL A   1      31.843  27.246  26.931  1.00  0.00     0.275 C 
ENDROOT
BRANCH   1   2
ATOM      2  O   UNL A   1      30.913  26.837  25.902  1.00  0.00    -0.458 OA
BRANCH   2   3
ATOM      3  C   UNL A   1      30.228  25.689  26.129  1.00  0.00     0.340 C 
ATOM      4  O   UNL A   1      29.258  25.558  26.855  1.00  0.00    -0.246 OA
BRANCH   3   5
ATOM      5  C   UNL A   1      30.835  24.538  25.413  1.00  0.00     0.087 A 
ATOM      6  C   UNL A   1      31.709  22.161  24.245  1.00  0.00     0.162 A 
ATOM      7  C   UNL A   1      31.086  23.153  23.468  1.00  0.00     0.077 A 
ATOM      8  C   UNL A   1      31.949  22.380  25.605  1.00  0.00     0.161 A 
ATOM      9  C   UNL A   1      30.696  24.372  24.014  1.00  0.00     0.059 A 
ATOM     10  C   UNL A   1      31.474  23.557  26.186  1.00  0.00     0.068 A 
BRANCH   6  11
ATOM     11  O   UNL A   1      32.170  21.025  23.635  1.00  0.00    -0.493 OA
ATOM     12  C   UNL A   1      31.921  20.984  22.231  1.00  0.00     0.278 C 
ENDBRANCH   6  11
BRANCH   8  13
ATOM     13  O   UNL A   1      32.584  21.566  26.503  1.00  0.00    -0.493 OA
ATOM     14  C   UNL A   1      33.153  22.157  27.661  1.00  0.00     0.278 C 
ENDBRANCH   8  13
BRANCH   9  15
ATOM     15  N   UNL A   1      30.302  25.472  23.227  1.00  0.00    -0.324 N 
ATOM     16  C   UNL A   1      30.894  26.284  22.312  1.00  0.00     0.244 C 
ATOM     17  H   UNL A   1      29.361  25.715  23.380  1.00  0.00     0.170 HD
ATOM     18  O   UNL A   1      30.399  27.413  22.239  1.00  0.00    -0.273 OA
BRANCH  16  19
ATOM     19  C   UNL A   1      32.143  26.020  21.492  1.00  0.00     0.229 C 
BRANCH  19  20
ATOM     20  N   UNL A   1      33.158  25.478  22.370  1.00  0.00    -0.265 N 
ATOM     21  C   UNL A   1      33.662  26.121  23.465  1.00  0.00     0.262 C 
ATOM     22  C   UNL A   1      33.801  24.292  22.159  1.00  0.00     0.262 C 
ATOM     23  O   UNL A   1      33.525  27.266  23.853  1.00  0.00    -0.269 OA
ATOM     24  C   UNL A   1      34.454  25.136  24.184  1.00  0.00     0.053 A 
ATOM     25  C   UNL A   1      34.552  24.018  23.378  1.00  0.00     0.053 A 
ATOM     26  O   UNL A   1      33.781  23.570  21.190  1.00  0.00    -0.269 OA
ATOM     27  C   UNL A   1      34.948  25.161  25.470  1.00  0.00     0.015 A 
ATOM     28  C   UNL A   1      35.166  22.860  23.802  1.00  0.00     0.015 A 
ATOM     29  C   UNL A   1      35.558  23.993  25.934  1.00  0.00     0.001 A 
ATOM     30  C   UNL A   1      35.671  22.855  25.105  1.00  0.00     0.001 A 
ENDBRANCH  19  20
ENDBRANCH  16  19
ENDBRANCH   9  15
ENDBRANCH   3   5
ENDBRANCH   2   3
ENDBRANCH   1   2
BRANCH   1  31
ATOM     31  C   UNL A   1      31.640  28.704  27.335  1.00  0.00     0.275 C 
BRANCH  31  32
ATOM     32  O   UNL A   1      32.374  29.558  26.442  1.00  0.00    -0.458 OA
BRANCH  32  33
ATOM     33  C   UNL A   1      32.796  30.736  26.955  1.00  0.00     0.338 C 
ATOM     34  O   UNL A   1      32.100  31.696  27.243  1.00  0.00    -0.246 OA
BRANCH  33  35
ATOM     35  C   UNL A   1      34.254  30.691  27.197  1.00  0.00     0.060 A 
ATOM     36  C   UNL A   1      34.937  29.496  27.020  1.00  0.00     0.016 A 
ATOM     37  C   UNL A   1      34.903  31.770  27.796  1.00  0.00     0.016 A 
ATOM     38  C   UNL A   1      36.180  29.328  27.629  1.00  0.00     0.010 A 
ATOM     39  C   UNL A   1      36.212  31.625  28.286  1.00  0.00     0.010 A 
ATOM     40  C   UNL A   1      36.842  30.368  28.311  1.00  0.00    -0.014 A 
BRANCH  40  41
ATOM     41  C   UNL A   1      38.084  30.111  29.141  1.00  0.00     0.031 A 
ATOM     42  C   UNL A   1      39.243  29.282  28.595  1.00  0.00     0.074 A 
ATOM     43  C   UNL A   1      38.248  30.643  30.374  1.00  0.00     0.049 A 
ATOM     44  N   UNL A   1      40.220  28.693  29.248  1.00  0.00    -0.248 NA
ATOM     45  C   UNL A   1      39.301  29.059  27.143  1.00  0.00     0.031 C 
ATOM     46  C   UNL A   1      37.294  31.505  31.069  1.00  0.00     0.029 A 
ATOM     47  N   UNL A   1      39.292  30.536  31.272  1.00  0.00    -0.354 N 
ATOM     48  C   UNL A   1      40.917  27.935  28.307  1.00  0.00     0.074 A 
ATOM     49  C   UNL A   1      40.279  28.168  27.031  1.00  0.00     0.031 C 
ATOM     50  C   UNL A   1      37.817  31.914  32.230  1.00  0.00     0.029 A 
ATOM     51  C   UNL A   1      39.063  31.197  32.458  1.00  0.00     0.049 A 
ATOM     52  H   UNL A   1      40.118  30.037  31.082  1.00  0.00     0.167 HD
ATOM     53  C   UNL A   1      41.995  27.129  28.485  1.00  0.00     0.034 A 
ATOM     54  C   UNL A   1      39.704  31.170  33.644  1.00  0.00     0.034 A 
ATOM     55  C   UNL A   1      42.751  27.039  29.708  1.00  0.00     0.049 A 
ATOM     56  C   UNL A   1      40.903  30.287  33.819  1.00  0.00     0.074 A 
ATOM     57  C   UNL A   1      43.895  26.294  29.958  1.00  0.00     0.029 A 
ATOM     58  N   UNL A   1      42.478  27.744  30.866  1.00  0.00    -0.354 N 
ATOM     59  N   UNL A   1      41.508  29.535  32.936  1.00  0.00    -0.248 NA
ATOM     60  C   UNL A   1      41.500  30.242  35.162  1.00  0.00     0.031 C 
ATOM     61  C   UNL A   1      44.306  26.545  31.271  1.00  0.00     0.029 A 
ATOM     62  C   UNL A   1      43.429  27.456  31.832  1.00  0.00     0.049 A 
ATOM     63  H   UNL A   1      41.719  28.361  30.986  1.00  0.00     0.167 HD
ATOM     64  C   UNL A   1      42.558  28.928  33.613  1.00  0.00     0.074 A 
ATOM     65  C   UNL A   1      42.535  29.434  34.969  1.00  0.00     0.031 C 
ATOM     66  C   UNL A   1      43.440  28.005  33.161  1.00  0.00     0.034 A 
BRANCH  53  67
ATOM     67  C   UNL A   1      42.471  26.274  27.334  1.00  0.00     0.023 A 
ATOM     68  C   UNL A   1      43.472  26.744  26.464  1.00  0.00     0.012 A 
ATOM     69  C   UNL A   1      42.034  24.935  27.224  1.00  0.00     0.148 A 
ATOM     70  C   UNL A   1      44.024  25.901  25.498  1.00  0.00     0.002 A 
ATOM     71  C   UNL A   1      42.618  24.089  26.288  1.00  0.00     0.091 A 
ATOM     72  F   UNL A   1      41.073  24.507  28.057  1.00  0.00    -0.205 F 
ATOM     73  C   UNL A   1      43.610  24.572  25.420  1.00  0.00     0.022 A 
BRANCH  71  74
ATOM     74  S   UNL A   1      42.223  22.338  26.178  1.00  0.00     0.127 S 
ATOM     75  O   UNL A   1      43.059  21.915  25.054  1.00  0.00    -0.237 OA
ATOM     76  O   UNL A   1      42.662  21.839  27.482  1.00  0.00    -0.237 OA
ATOM     77  O   UNL A   1      40.787  22.260  25.950  1.00  0.00    -0.744 OA
ENDBRANCH  71  74
ENDBRANCH  53  67
BRANCH  54  78
ATOM     78  C   UNL A   1      39.166  31.963  34.788  1.00  0.00     0.023 A 
ATOM     79  C   UNL A   1      38.252  31.376  35.682  1.00  0.00     0.012 A 
ATOM     80  C   UNL A   1      39.602  33.283  35.025  1.00  0.00     0.148 A 
ATOM     81  C   UNL A   1      37.780  32.090  36.785  1.00  0.00     0.002 A 
ATOM     82  C   UNL A   1      39.199  33.953  36.172  1.00  0.00     0.091 A 
ATOM     83  F   UNL A   1      40.435  33.852  34.141  1.00  0.00    -0.205 F 
ATOM     84  C   UNL A   1      38.271  33.369  37.043  1.00  0.00     0.022 A 
BRANCH  82  85
ATOM     85  S   UNL A   1      39.970  35.503  36.656  1.00  0.00     0.127 S 
ATOM     86  O   UNL A   1      39.354  35.757  37.954  1.00  0.00    -0.237 OA
ATOM     87  O   UNL A   1      41.389  35.145  36.707  1.00  0.00    -0.237 OA
ATOM     88  O   UNL A   1      39.637  36.435  35.586  1.00  0.00    -0.744 OA
ENDBRANCH  82  85
ENDBRANCH  54  78
BRANCH  66  89
ATOM     89  C   UNL A   1      44.477  27.505  34.128  1.00  0.00     0.023 A 
ATOM     90  C   UNL A   1      45.690  28.206  34.268  1.00  0.00     0.012 A 
ATOM     91  C   UNL A   1      44.238  26.368  34.924  1.00  0.00     0.148 A 
ATOM     92  C   UNL A   1      46.665  27.764  35.160  1.00  0.00     0.002 A 
ATOM     93  C   UNL A   1      45.197  25.956  35.841  1.00  0.00     0.091 A 
ATOM     94  F   UNL A   1      43.084  25.703  34.761  1.00  0.00    -0.205 F 
ATOM     95  C   UNL A   1      46.415  26.646  35.953  1.00  0.00     0.022 A 
BRANCH  93  96
ATOM     96  S   UNL A   1      44.928  24.572  36.955  1.00  0.00     0.127 S 
ATOM     97  O   UNL A   1      46.190  24.531  37.689  1.00  0.00    -0.237 OA
ATOM     98  O   UNL A   1      43.780  25.023  37.742  1.00  0.00    -0.237 OA
ATOM     99  O   UNL A   1      44.658  23.421  36.104  1.00  0.00    -0.744 OA
ENDBRANCH  93  96
ENDBRANCH  66  89
ENDBRANCH  40  41
ENDBRANCH  33  35
ENDBRANCH  32  33
ENDBRANCH  31  32
ENDBRANCH   1  31
TORSDOF 19
ENDMDL
MODEL 3
REMARK VINA RESULT:     -12.5      4.768      9.527
REMARK SMILES COc1cc(NC(=O)CN2C(=O)c3ccccc3C2=O)c(C(=O)OCCOC(=O)c2ccc(-c3c4nc(c(-c5cccc(S(=O)(=O)[O-])c5F)c5ccc([nH]5)c(-c5cccc(S(=O)(=O)[O-])c5F)c5nc(c(-c6cccc(S(=O)(=O)[O-])c6F)c6ccc3[nH]6)C=C5)C=C4)cc2)cc1OC
REMARK SMILES IDX 25 1 24 2 22 3 23 4 21 5 3 6 4 7 94 8 5 9 93 10 2 11 1 12
REMARK SMILES IDX 95 13 96 14 6 15 7 16 8 18 9 19 10 20 11 21 19 22 12 23
REMARK SMILES IDX 13 24 18 25 20 26 14 27 17 28 15 29 16 30 26 31 27 32 28 33
REMARK SMILES IDX 29 34 30 35 31 36 92 37 32 38 91 39 33 40 34 41 35 42 85 43
REMARK SMILES IDX 36 44 90 45 84 46 86 47 37 48 89 49 83 50 82 51 38 53 70 54
REMARK SMILES IDX 50 55 69 56 51 57 54 58 68 59 87 60 52 61 53 62 67 64 88 65
REMARK SMILES IDX 55 66 39 67 40 68 48 69 41 70 43 71 49 72 42 73 44 74 45 75
REMARK SMILES IDX 46 76 47 77 71 78 72 79 80 80 73 81 75 82 81 83 74 84 76 85
REMARK SMILES IDX 77 86 78 87 79 88 56 89 57 90 65 91 58 92 60 93 66 94 59 95
REMARK SMILES IDX 61 96 62 97 63 98 64 99
REMARK H PARENT 6 17 86 52 54 63
REMARK Flexibility Score: inf
ROOT
ATOM      1  C   UNL A   1      31.899  28.638  26.043  1.00  0.00     0.275 C 
ENDROOT
BRANCH   1   2
ATOM      2  O   UNL A   1      32.923  27.621  26.119  1.00  0.00    -0.458 OA
BRANCH   2   3
ATOM      3  C   UNL A   1      32.494  26.343  26.272  1.00  0.00     0.340 C 
ATOM      4  O   UNL A   1      31.469  25.986  26.825  1.00  0.00    -0.246 OA
BRANCH   3   5
ATOM      5  C   UNL A   1      33.467  25.368  25.716  1.00  0.00     0.087 A 
ATOM      6  C   UNL A   1      34.996  23.294  24.648  1.00  0.00     0.162 A 
ATOM      7  C   UNL A   1      34.741  24.456  23.897  1.00  0.00     0.077 A 
ATOM      8  C   UNL A   1      34.532  23.190  25.962  1.00  0.00     0.161 A 
ATOM      9  C   UNL A   1      34.034  25.529  24.429  1.00  0.00     0.059 A 
ATOM     10  C   UNL A   1      33.737  24.219  26.473  1.00  0.00     0.068 A 
BRANCH   6  11
ATOM     11  O   UNL A   1      35.789  22.314  24.115  1.00  0.00    -0.493 OA
ATOM     12  C   UNL A   1      37.138  22.348  24.581  1.00  0.00     0.278 C 
ENDBRANCH   6  11
BRANCH   8  13
ATOM     13  O   UNL A   1      34.723  22.175  26.859  1.00  0.00    -0.493 OA
ATOM     14  C   UNL A   1      33.622  21.335  27.170  1.00  0.00     0.278 C 
ENDBRANCH   8  13
BRANCH   9  15
ATOM     15  N   UNL A   1      33.975  26.791  23.805  1.00  0.00    -0.324 N 
ATOM     16  C   UNL A   1      33.408  27.303  22.681  1.00  0.00     0.244 C 
ATOM     17  H   UNL A   1      34.470  27.475  24.311  1.00  0.00     0.170 HD
ATOM     18  O   UNL A   1      33.994  28.287  22.219  1.00  0.00    -0.273 OA
BRANCH  16  19
ATOM     19  C   UNL A   1      32.253  26.740  21.872  1.00  0.00     0.229 C 
BRANCH  19  20
ATOM     20  N   UNL A   1      31.015  27.174  22.483  1.00  0.00    -0.265 N 
ATOM     21  C   UNL A   1      30.521  28.445  22.420  1.00  0.00     0.262 C 
ATOM     22  C   UNL A   1      30.232  26.382  23.274  1.00  0.00     0.262 C 
ATOM     23  O   UNL A   1      31.022  29.478  22.019  1.00  0.00    -0.269 OA
ATOM     24  C   UNL A   1      29.165  28.378  22.942  1.00  0.00     0.053 A 
ATOM     25  C   UNL A   1      28.991  27.118  23.478  1.00  0.00     0.053 A 
ATOM     26  O   UNL A   1      30.463  25.287  23.731  1.00  0.00    -0.269 OA
ATOM     27  C   UNL A   1      28.135  29.289  22.854  1.00  0.00     0.015 A 
ATOM     28  C   UNL A   1      27.779  26.694  23.978  1.00  0.00     0.015 A 
ATOM     29  C   UNL A   1      26.889  28.880  23.335  1.00  0.00     0.001 A 
ATOM     30  C   UNL A   1      26.714  27.596  23.897  1.00  0.00     0.001 A 
ENDBRANCH  19  20
ENDBRANCH  16  19
ENDBRANCH   9  15
ENDBRANCH   3   5
ENDBRANCH   2   3
ENDBRANCH   1   2
BRANCH   1  31
ATOM     31  C   UNL A   1      32.134  29.759  27.052  1.00  0.00     0.275 C 
BRANCH  31  32
ATOM     32  O   UNL A   1      33.200  30.606  26.591  1.00  0.00    -0.458 OA
BRANCH  32  33
ATOM     33  C   UNL A   1      33.762  31.415  27.518  1.00  0.00     0.338 C 
ATOM     34  O   UNL A   1      33.187  32.240  28.210  1.00  0.00    -0.246 OA
BRANCH  33  35
ATOM     35  C   UNL A   1      35.205  31.118  27.642  1.00  0.00     0.060 A 
ATOM     36  C   UNL A   1      35.643  29.807  27.520  1.00  0.00     0.016 A 
ATOM     37  C   UNL A   1      36.091  32.100  28.084  1.00  0.00     0.016 A 
ATOM     38  C   UNL A   1      36.889  29.456  28.037  1.00  0.00     0.010 A 
ATOM     39  C   UNL A   1      37.394  31.750  28.476  1.00  0.00     0.010 A 
ATOM     40  C   UNL A   1      37.790  30.404  28.565  1.00  0.00    -0.014 A 
BRANCH  40  41
ATOM     41  C   UNL A   1      39.040  29.983  29.310  1.00  0.00     0.031 A 
ATOM     42  C   UNL A   1      40.028  28.991  28.703  1.00  0.00     0.074 A 
ATOM     43  C   UNL A   1      39.368  30.502  30.516  1.00  0.00     0.049 A 
ATOM     44  N   UNL A   1      40.958  28.278  29.298  1.00  0.00    -0.248 NA
ATOM     45  C   UNL A   1      39.947  28.743  27.256  1.00  0.00     0.031 C 
ATOM     46  C   UNL A   1      38.599  31.500  31.257  1.00  0.00     0.029 A 
ATOM     47  N   UNL A   1      40.450  30.259  31.340  1.00  0.00    -0.354 N 
ATOM     48  C   UNL A   1      41.469  27.416  28.327  1.00  0.00     0.074 A 
ATOM     49  C   UNL A   1      40.778  27.721  27.095  1.00  0.00     0.031 C 
ATOM     50  C   UNL A   1      39.258  31.844  32.368  1.00  0.00     0.029 A 
ATOM     51  C   UNL A   1      40.405  30.961  32.523  1.00  0.00     0.049 A 
ATOM     52  H   UNL A   1      41.182  29.645  31.103  1.00  0.00     0.167 HD
ATOM     53  C   UNL A   1      42.433  26.467  28.447  1.00  0.00     0.034 A 
ATOM     54  C   UNL A   1      41.121  30.858  33.662  1.00  0.00     0.034 A 
ATOM     55  C   UNL A   1      43.257  26.286  29.615  1.00  0.00     0.049 A 
ATOM     56  C   UNL A   1      42.193  29.816  33.771  1.00  0.00     0.074 A 
ATOM     57  C   UNL A   1      44.300  25.390  29.800  1.00  0.00     0.029 A 
ATOM     58  N   UNL A   1      43.172  27.038  30.773  1.00  0.00    -0.354 N 
ATOM     59  N   UNL A   1      42.620  28.974  32.865  1.00  0.00    -0.248 NA
ATOM     60  C   UNL A   1      42.875  29.703  35.068  1.00  0.00     0.031 C 
ATOM     61  C   UNL A   1      44.837  25.595  31.074  1.00  0.00     0.029 A 
ATOM     62  C   UNL A   1      44.141  26.629  31.675  1.00  0.00     0.049 A 
ATOM     63  H   UNL A   1      42.519  27.758  30.932  1.00  0.00     0.167 HD
ATOM     64  C   UNL A   1      43.620  28.232  33.479  1.00  0.00     0.074 A 
ATOM     65  C   UNL A   1      43.768  28.754  34.821  1.00  0.00     0.031 C 
ATOM     66  C   UNL A   1      44.328  27.188  32.987  1.00  0.00     0.034 A 
BRANCH  53  67
ATOM     67  C   UNL A   1      42.699  25.539  27.285  1.00  0.00     0.023 A 
ATOM     68  C   UNL A   1      43.631  25.889  26.292  1.00  0.00     0.012 A 
ATOM     69  C   UNL A   1      42.135  24.243  27.277  1.00  0.00     0.148 A 
ATOM     70  C   UNL A   1      43.994  24.970  25.304  1.00  0.00     0.002 A 
ATOM     71  C   UNL A   1      42.532  23.320  26.316  1.00  0.00     0.091 A 
ATOM     72  F   UNL A   1      41.241  23.930  28.227  1.00  0.00    -0.205 F 
ATOM     73  C   UNL A   1      43.458  23.684  25.326  1.00  0.00     0.022 A 
BRANCH  71  74
ATOM     74  S   UNL A   1      41.974  21.610  26.319  1.00  0.00     0.127 S 
ATOM     75  O   UNL A   1      42.288  21.197  27.687  1.00  0.00    -0.237 OA
ATOM     76  O   UNL A   1      40.544  21.750  26.041  1.00  0.00    -0.237 OA
ATOM     77  O   UNL A   1      42.732  20.935  25.275  1.00  0.00    -0.744 OA
ENDBRANCH  71  74
ENDBRANCH  53  67
BRANCH  54  78
ATOM     78  C   UNL A   1      40.785  31.734  34.822  1.00  0.00     0.023 A 
ATOM     79  C   UNL A   1      41.538  32.896  35.066  1.00  0.00     0.012 A 
ATOM     80  C   UNL A   1      39.682  31.447  35.653  1.00  0.00     0.148 A 
ATOM     81  C   UNL A   1      41.203  33.751  36.117  1.00  0.00     0.002 A 
ATOM     82  C   UNL A   1      39.301  32.348  36.638  1.00  0.00     0.091 A 
ATOM     83  F   UNL A   1      39.000  30.311  35.444  1.00  0.00    -0.205 F 
ATOM     84  C   UNL A   1      40.070  33.490  36.888  1.00  0.00     0.022 A 
BRANCH  82  85
ATOM     85  S   UNL A   1      37.736  32.164  37.502  1.00  0.00     0.127 S 
ATOM     86  O   UNL A   1      37.977  32.913  38.731  1.00  0.00    -0.237 OA
ATOM     87  O   UNL A   1      36.790  32.789  36.575  1.00  0.00    -0.237 OA
ATOM     88  O   UNL A   1      37.555  30.725  37.645  1.00  0.00    -0.744 OA
ENDBRANCH  82  85
ENDBRANCH  54  78
BRANCH  66  89
ATOM     89  C   UNL A   1      45.352  26.558  33.889  1.00  0.00     0.023 A 
ATOM     90  C   UNL A   1      46.677  27.035  33.873  1.00  0.00     0.012 A 
ATOM     91  C   UNL A   1      44.998  25.524  34.777  1.00  0.00     0.148 A 
ATOM     92  C   UNL A   1      47.644  26.468  34.702  1.00  0.00     0.002 A 
ATOM     93  C   UNL A   1      45.957  24.992  35.630  1.00  0.00     0.091 A 
ATOM     94  F   UNL A   1      43.736  25.071  34.762  1.00  0.00    -0.205 F 
ATOM     95  C   UNL A   1      47.282  25.455  35.588  1.00  0.00     0.022 A 
BRANCH  93  96
ATOM     96  S   UNL A   1      45.562  23.737  36.854  1.00  0.00     0.127 S 
ATOM     97  O   UNL A   1      44.612  24.443  37.710  1.00  0.00    -0.237 OA
ATOM     98  O   UNL A   1      44.973  22.676  36.036  1.00  0.00    -0.237 OA
ATOM     99  O   UNL A   1      46.827  23.378  37.481  1.00  0.00    -0.744 OA
ENDBRANCH  93  96
ENDBRANCH  66  89
ENDBRANCH  40  41
ENDBRANCH  33  35
ENDBRANCH  32  33
ENDBRANCH  31  32
ENDBRANCH   1  31
TORSDOF 19
ENDMDL
