MODEL 1
REMARK VINA RESULT:     -12.3      0.000      0.000
REMARK SMILES O=C(C[N@@H+]1C[C@@]2([N+](=O)[O-])CC=C(Cl)[C@@]([N+](=O)[O-])(C1)C2)OCCOC(=O)c1ccc(-c2c3nc(c(-c4cccc(S(=O)(=O)[O-])c4F)c4ccc([nH]4)c(-c4cccc(S(=O)(=O)[O-])c4F)c4nc(c(-c5cccc(S(=O)(=O)[O-])c5F)c5ccc2[nH]5)C=C4)C=C3)cc1
REMARK SMILES IDX 22 1 21 2 20 3 2 4 1 5 3 6 4 7 5 8 18 9 6 11 14 12 10 13
REMARK SMILES IDX 19 14 12 15 11 16 13 17 7 18 8 19 9 20 15 21 16 22 17 23
REMARK SMILES IDX 23 24 24 25 25 26 26 27 27 28 88 29 28 30 87 31 29 32 30 33
REMARK SMILES IDX 31 34 81 35 32 36 86 37 80 38 82 39 33 40 85 41 79 42 78 43
REMARK SMILES IDX 34 45 66 46 46 47 65 48 47 49 50 50 64 51 83 52 48 53 49 54
REMARK SMILES IDX 63 56 84 57 51 58 35 59 36 60 44 61 37 62 39 63 45 64 38 65
REMARK SMILES IDX 40 66 41 67 42 68 43 69 67 70 68 71 76 72 69 73 71 74 77 75
REMARK SMILES IDX 70 76 72 77 73 78 74 79 75 80 52 81 53 82 61 83 54 84 56 85
REMARK SMILES IDX 62 86 55 87 57 88 58 89 59 90 60 91
REMARK H PARENT 4 10 82 44 50 55
REMARK Flexibility Score: inf
ROOT
ATOM      1  C   UNL A   1      37.176  20.034  24.921  1.00  0.00     0.275 C 
ENDROOT
BRANCH   1   2
ATOM      2  C   UNL A   1      35.686  20.289  25.163  1.00  0.00     0.274 C 
BRANCH   2   3
ATOM      3  O   UNL A   1      34.839  19.276  24.586  1.00  0.00    -0.458 OA
BRANCH   3   4
ATOM      4  C   UNL A   1      33.535  19.119  24.943  1.00  0.00     0.361 C 
ATOM      5  O   UNL A   1      33.191  18.150  25.616  1.00  0.00    -0.245 OA
BRANCH   4   6
ATOM      6  C   UNL A   1      32.533  20.141  24.404  1.00  0.00     0.386 C 
BRANCH   6   7
ATOM      7  N   UNL A   1      32.932  21.549  24.613  1.00  0.00    -0.313 N 
ATOM      8  C   UNL A   1      31.975  22.203  25.538  1.00  0.00     0.350 C 
ATOM      9  C   UNL A   1      33.075  22.312  23.352  1.00  0.00     0.356 C 
ATOM     10  H   UNL A   1      33.861  21.545  25.033  1.00  0.00     0.349 HD
ATOM     11  C   UNL A   1      32.284  23.699  25.786  1.00  0.00     0.280 C 
ATOM     12  C   UNL A   1      33.484  23.782  23.615  1.00  0.00     0.311 C 
ATOM     13  C   UNL A   1      33.600  23.931  26.569  1.00  0.00     0.121 C 
ATOM     14  C   UNL A   1      32.364  24.445  24.441  1.00  0.00     0.191 C 
ATOM     15  C   UNL A   1      34.804  23.836  24.363  1.00  0.00     0.097 C 
ATOM     16  C   UNL A   1      34.847  23.904  25.706  1.00  0.00     0.004 C 
ATOM     17  Cl  UNL A   1      36.278  23.661  23.474  1.00  0.00    -0.081 Cl
BRANCH  11  18
ATOM     18  N   UNL A   1      31.107  24.227  26.590  1.00  0.00     0.032 N 
ATOM     19  O   UNL A   1      30.900  25.442  26.570  1.00  0.00    -0.264 OA
ATOM     20  O   UNL A   1      30.478  23.406  27.273  1.00  0.00    -0.264 OA
ENDBRANCH  11  18
BRANCH  12  21
ATOM     21  N   UNL A   1      33.577  24.538  22.294  1.00  0.00     0.038 N 
ATOM     22  O   UNL A   1      33.951  25.720  22.323  1.00  0.00    -0.263 OA
ATOM     23  O   UNL A   1      33.328  23.908  21.254  1.00  0.00    -0.263 OA
ENDBRANCH  12  21
ENDBRANCH   6   7
ENDBRANCH   4   6
ENDBRANCH   3   4
ENDBRANCH   2   3
ENDBRANCH   1   2
BRANCH   1  24
ATOM     24  O   UNL A   1      37.959  21.201  25.227  1.00  0.00    -0.458 OA
BRANCH  24  25
ATOM     25  C   UNL A   1      39.112  20.951  25.898  1.00  0.00     0.338 C 
ATOM     26  O   UNL A   1      39.755  19.914  25.862  1.00  0.00    -0.246 OA
BRANCH  25  27
ATOM     27  C   UNL A   1      39.604  22.188  26.547  1.00  0.00     0.060 A 
ATOM     28  C   UNL A   1      39.045  23.401  26.124  1.00  0.00     0.016 A 
ATOM     29  C   UNL A   1      40.579  22.181  27.550  1.00  0.00     0.016 A 
ATOM     30  C   UNL A   1      39.497  24.607  26.660  1.00  0.00     0.010 A 
ATOM     31  C   UNL A   1      41.032  23.395  28.087  1.00  0.00     0.010 A 
ATOM     32  C   UNL A   1      40.521  24.616  27.617  1.00  0.00    -0.014 A 
BRANCH  32  33
ATOM     33  C   UNL A   1      41.143  25.909  27.998  1.00  0.00     0.031 A 
ATOM     34  C   UNL A   1      42.565  26.186  27.583  1.00  0.00     0.074 A 
ATOM     35  C   UNL A   1      40.450  26.846  28.669  1.00  0.00     0.049 A 
ATOM     36  N   UNL A   1      43.264  27.284  27.711  1.00  0.00    -0.248 NA
ATOM     37  C   UNL A   1      43.292  25.081  26.935  1.00  0.00     0.031 C 
ATOM     38  C   UNL A   1      39.079  26.701  29.159  1.00  0.00     0.029 A 
ATOM     39  N   UNL A   1      40.816  28.109  29.066  1.00  0.00    -0.354 N 
ATOM     40  C   UNL A   1      44.508  27.007  27.157  1.00  0.00     0.074 A 
ATOM     41  C   UNL A   1      44.482  25.627  26.727  1.00  0.00     0.031 C 
ATOM     42  C   UNL A   1      38.729  27.822  29.813  1.00  0.00     0.029 A 
ATOM     43  C   UNL A   1      39.845  28.768  29.781  1.00  0.00     0.049 A 
ATOM     44  H   UNL A   1      41.692  28.505  28.858  1.00  0.00     0.167 HD
ATOM     45  C   UNL A   1      45.567  27.834  26.987  1.00  0.00     0.034 A 
ATOM     46  C   UNL A   1      39.854  29.994  30.342  1.00  0.00     0.034 A 
ATOM     47  C   UNL A   1      45.603  29.208  27.407  1.00  0.00     0.049 A 
ATOM     48  C   UNL A   1      41.052  30.891  30.150  1.00  0.00     0.074 A 
ATOM     49  C   UNL A   1      46.621  30.131  27.244  1.00  0.00     0.029 A 
ATOM     50  N   UNL A   1      44.581  29.856  28.082  1.00  0.00    -0.354 N 
ATOM     51  N   UNL A   1      42.154  30.669  29.475  1.00  0.00    -0.248 NA
ATOM     52  C   UNL A   1      40.985  32.230  30.757  1.00  0.00     0.031 C 
ATOM     53  C   UNL A   1      46.220  31.335  27.834  1.00  0.00     0.029 A 
ATOM     54  C   UNL A   1      44.946  31.165  28.351  1.00  0.00     0.049 A 
ATOM     55  H   UNL A   1      43.722  29.446  28.334  1.00  0.00     0.167 HD
ATOM     56  C   UNL A   1      42.893  31.846  29.549  1.00  0.00     0.074 A 
ATOM     57  C   UNL A   1      42.100  32.790  30.308  1.00  0.00     0.031 C 
ATOM     58  C   UNL A   1      44.127  32.116  29.054  1.00  0.00     0.034 A 
BRANCH  45  59
ATOM     59  C   UNL A   1      46.763  27.287  26.256  1.00  0.00     0.023 A 
ATOM     60  C   UNL A   1      47.571  26.322  26.894  1.00  0.00     0.012 A 
ATOM     61  C   UNL A   1      47.051  27.669  24.934  1.00  0.00     0.148 A 
ATOM     62  C   UNL A   1      48.660  25.761  26.232  1.00  0.00     0.002 A 
ATOM     63  C   UNL A   1      48.119  27.079  24.267  1.00  0.00     0.091 A 
ATOM     64  F   UNL A   1      46.285  28.605  24.356  1.00  0.00    -0.205 F 
ATOM     65  C   UNL A   1      48.929  26.131  24.917  1.00  0.00     0.022 A 
BRANCH  63  66
ATOM     66  S   UNL A   1      48.511  27.437  22.552  1.00  0.00     0.127 S 
ATOM     67  O   UNL A   1      48.615  26.092  21.986  1.00  0.00    -0.237 OA
ATOM     68  O   UNL A   1      47.337  28.194  22.118  1.00  0.00    -0.237 OA
ATOM     69  O   UNL A   1      49.752  28.199  22.575  1.00  0.00    -0.744 OA
ENDBRANCH  63  66
ENDBRANCH  45  59
BRANCH  46  70
ATOM     70  C   UNL A   1      38.666  30.483  31.098  1.00  0.00     0.023 A 
ATOM     71  C   UNL A   1      38.568  30.232  32.480  1.00  0.00     0.012 A 
ATOM     72  C   UNL A   1      37.623  31.175  30.451  1.00  0.00     0.148 A 
ATOM     73  C   UNL A   1      37.437  30.625  33.198  1.00  0.00     0.002 A 
ATOM     74  C   UNL A   1      36.523  31.610  31.181  1.00  0.00     0.091 A 
ATOM     75  F   UNL A   1      37.724  31.386  29.131  1.00  0.00    -0.205 F 
ATOM     76  C   UNL A   1      36.419  31.320  32.551  1.00  0.00     0.022 A 
BRANCH  74  77
ATOM     77  S   UNL A   1      35.223  32.613  30.454  1.00  0.00     0.127 S 
ATOM     78  O   UNL A   1      34.302  32.771  31.576  1.00  0.00    -0.237 OA
ATOM     79  O   UNL A   1      35.951  33.826  30.077  1.00  0.00    -0.237 OA
ATOM     80  O   UNL A   1      34.724  31.841  29.325  1.00  0.00    -0.744 OA
ENDBRANCH  74  77
ENDBRANCH  46  70
BRANCH  58  81
ATOM     81  C   UNL A   1      44.695  33.492  29.296  1.00  0.00     0.023 A 
ATOM     82  C   UNL A   1      45.409  33.753  30.482  1.00  0.00     0.012 A 
ATOM     83  C   UNL A   1      44.574  34.509  28.326  1.00  0.00     0.148 A 
ATOM     84  C   UNL A   1      45.962  35.011  30.717  1.00  0.00     0.002 A 
ATOM     85  C   UNL A   1      45.168  35.747  28.548  1.00  0.00     0.091 A 
ATOM     86  F   UNL A   1      43.875  34.253  27.211  1.00  0.00    -0.205 F 
ATOM     87  C   UNL A   1      45.850  36.004  29.748  1.00  0.00     0.022 A 
BRANCH  85  88
ATOM     88  S   UNL A   1      45.150  37.050  27.310  1.00  0.00     0.127 S 
ATOM     89  O   UNL A   1      45.766  38.160  28.034  1.00  0.00    -0.237 OA
ATOM     90  O   UNL A   1      45.977  36.485  26.243  1.00  0.00    -0.237 OA
ATOM     91  O   UNL A   1      43.750  37.230  26.948  1.00  0.00    -0.744 OA
ENDBRANCH  85  88
ENDBRANCH  58  81
ENDBRANCH  32  33
ENDBRANCH  25  27
ENDBRANCH  24  25
ENDBRANCH   1  24
TORSDOF 17
ENDMDL
MODEL 2
REMARK VINA RESULT:     -12.0      5.195     10.256
REMARK SMILES O=C(C[N@@H+]1C[C@@]2([N+](=O)[O-])CC=C(Cl)[C@@]([N+](=O)[O-])(C1)C2)OCCOC(=O)c1ccc(-c2c3nc(c(-c4cccc(S(=O)(=O)[O-])c4F)c4ccc([nH]4)c(-c4cccc(S(=O)(=O)[O-])c4F)c4nc(c(-c5cccc(S(=O)(=O)[O-])c5F)c5ccc2[nH]5)C=C4)C=C3)cc1
REMARK SMILES IDX 22 1 21 2 20 3 2 4 1 5 3 6 4 7 5 8 18 9 6 11 14 12 10 13
REMARK SMILES IDX 19 14 12 15 11 16 13 17 7 18 8 19 9 20 15 21 16 22 17 23
REMARK SMILES IDX 23 24 24 25 25 26 26 27 27 28 88 29 28 30 87 31 29 32 30 33
REMARK SMILES IDX 31 34 81 35 32 36 86 37 80 38 82 39 33 40 85 41 79 42 78 43
REMARK SMILES IDX 34 45 66 46 46 47 65 48 47 49 50 50 64 51 83 52 48 53 49 54
REMARK SMILES IDX 63 56 84 57 51 58 35 59 36 60 44 61 37 62 39 63 45 64 38 65
REMARK SMILES IDX 40 66 41 67 42 68 43 69 67 70 68 71 76 72 69 73 71 74 77 75
REMARK SMILES IDX 70 76 72 77 73 78 74 79 75 80 52 81 53 82 61 83 54 84 56 85
REMARK SMILES IDX 62 86 55 87 57 88 58 89 59 90 60 91
REMARK H PARENT 4 10 82 44 50 55
REMARK Flexibility Score: inf
ROOT
ATOM      1  C   UNL A   1      31.662  30.830  25.747  1.00  0.00     0.275 C 
ENDROOT
BRANCH   1   2
ATOM      2  C   UNL A   1      31.396  29.435  25.174  1.00  0.00     0.274 C 
BRANCH   2   3
ATOM      3  O   UNL A   1      31.576  29.368  23.745  1.00  0.00    -0.458 OA
BRANCH   3   4
ATOM      4  C   UNL A   1      30.596  28.949  22.901  1.00  0.00     0.361 C 
ATOM      5  O   UNL A   1      29.660  29.695  22.620  1.00  0.00    -0.245 OA
BRANCH   4   6
ATOM      6  C   UNL A   1      30.673  27.506  22.398  1.00  0.00     0.386 C 
BRANCH   6   7
ATOM      7  N   UNL A   1      31.416  26.593  23.292  1.00  0.00    -0.313 N 
ATOM      8  C   UNL A   1      31.964  25.463  22.502  1.00  0.00     0.350 C 
ATOM      9  C   UNL A   1      30.612  26.112  24.439  1.00  0.00     0.356 C 
ATOM     10  H   UNL A   1      32.183  27.123  23.703  1.00  0.00     0.349 HD
ATOM     11  C   UNL A   1      32.724  24.424  23.360  1.00  0.00     0.280 C 
ATOM     12  C   UNL A   1      31.422  25.151  25.344  1.00  0.00     0.311 C 
ATOM     13  C   UNL A   1      34.037  24.975  23.969  1.00  0.00     0.121 C 
ATOM     14  C   UNL A   1      31.816  23.924  24.499  1.00  0.00     0.191 C 
ATOM     15  C   UNL A   1      32.658  25.851  25.881  1.00  0.00     0.097 C 
ATOM     16  C   UNL A   1      33.842  25.764  25.249  1.00  0.00     0.004 C 
ATOM     17  Cl  UNL A   1      32.501  26.894  27.253  1.00  0.00    -0.081 Cl
BRANCH  11  18
ATOM     18  N   UNL A   1      33.037  23.273  22.418  1.00  0.00     0.032 N 
ATOM     19  O   UNL A   1      33.353  23.551  21.260  1.00  0.00    -0.264 OA
ATOM     20  O   UNL A   1      32.878  22.125  22.859  1.00  0.00    -0.264 OA
ENDBRANCH  11  18
BRANCH  12  21
ATOM     21  N   UNL A   1      30.543  24.650  26.484  1.00  0.00     0.038 N 
ATOM     22  O   UNL A   1      31.010  23.790  27.247  1.00  0.00    -0.263 OA
ATOM     23  O   UNL A   1      29.428  25.175  26.622  1.00  0.00    -0.263 OA
ENDBRANCH  12  21
ENDBRANCH   6   7
ENDBRANCH   4   6
ENDBRANCH   3   4
ENDBRANCH   2   3
ENDBRANCH   1   2
BRANCH   1  24
ATOM     24  O   UNL A   1      32.358  30.751  27.003  1.00  0.00    -0.458 OA
BRANCH  24  25
ATOM     25  C   UNL A   1      33.067  31.861  27.330  1.00  0.00     0.338 C 
ATOM     26  O   UNL A   1      32.630  32.999  27.397  1.00  0.00    -0.246 OA
BRANCH  25  27
ATOM     27  C   UNL A   1      34.424  31.484  27.787  1.00  0.00     0.060 A 
ATOM     28  C   UNL A   1      34.675  30.121  27.997  1.00  0.00     0.016 A 
ATOM     29  C   UNL A   1      35.440  32.422  28.001  1.00  0.00     0.016 A 
ATOM     30  C   UNL A   1      35.918  29.702  28.473  1.00  0.00     0.010 A 
ATOM     31  C   UNL A   1      36.687  31.998  28.480  1.00  0.00     0.010 A 
ATOM     32  C   UNL A   1      36.920  30.640  28.755  1.00  0.00    -0.014 A 
BRANCH  32  33
ATOM     33  C   UNL A   1      38.141  30.198  29.475  1.00  0.00     0.031 A 
ATOM     34  C   UNL A   1      38.399  30.722  30.864  1.00  0.00     0.074 A 
ATOM     35  C   UNL A   1      38.994  29.314  28.927  1.00  0.00     0.049 A 
ATOM     36  N   UNL A   1      39.337  30.387  31.713  1.00  0.00    -0.248 NA
ATOM     37  C   UNL A   1      37.477  31.756  31.363  1.00  0.00     0.031 C 
ATOM     38  C   UNL A   1      38.884  28.751  27.582  1.00  0.00     0.029 A 
ATOM     39  N   UNL A   1      40.135  28.746  29.437  1.00  0.00    -0.354 N 
ATOM     40  C   UNL A   1      39.117  31.161  32.845  1.00  0.00     0.074 A 
ATOM     41  C   UNL A   1      37.981  32.011  32.563  1.00  0.00     0.031 C 
ATOM     42  C   UNL A   1      39.930  27.935  27.365  1.00  0.00     0.029 A 
ATOM     43  C   UNL A   1      40.779  27.911  28.555  1.00  0.00     0.049 A 
ATOM     44  H   UNL A   1      40.461  28.920  30.349  1.00  0.00     0.167 HD
ATOM     45  C   UNL A   1      39.775  31.145  34.029  1.00  0.00     0.034 A 
ATOM     46  C   UNL A   1      41.920  27.205  28.696  1.00  0.00     0.034 A 
ATOM     47  C   UNL A   1      40.902  30.302  34.322  1.00  0.00     0.049 A 
ATOM     48  C   UNL A   1      42.642  27.214  30.021  1.00  0.00     0.074 A 
ATOM     49  C   UNL A   1      41.610  30.194  35.506  1.00  0.00     0.029 A 
ATOM     50  N   UNL A   1      41.495  29.432  33.422  1.00  0.00    -0.354 N 
ATOM     51  N   UNL A   1      42.320  27.824  31.135  1.00  0.00    -0.248 NA
ATOM     52  C   UNL A   1      43.862  26.396  30.119  1.00  0.00     0.031 C 
ATOM     53  C   UNL A   1      42.641  29.266  35.317  1.00  0.00     0.029 A 
ATOM     54  C   UNL A   1      42.565  28.787  34.020  1.00  0.00     0.049 A 
ATOM     55  H   UNL A   1      41.199  29.293  32.493  1.00  0.00     0.167 HD
ATOM     56  C   UNL A   1      43.275  27.438  32.073  1.00  0.00     0.074 A 
ATOM     57  C   UNL A   1      44.169  26.517  31.403  1.00  0.00     0.031 C 
ATOM     58  C   UNL A   1      43.414  27.827  33.365  1.00  0.00     0.034 A 
BRANCH  45  59
ATOM     59  C   UNL A   1      39.249  32.029  35.126  1.00  0.00     0.023 A 
ATOM     60  C   UNL A   1      38.257  31.525  35.993  1.00  0.00     0.012 A 
ATOM     61  C   UNL A   1      39.771  33.317  35.344  1.00  0.00     0.148 A 
ATOM     62  C   UNL A   1      37.776  32.299  37.047  1.00  0.00     0.002 A 
ATOM     63  C   UNL A   1      39.313  34.070  36.420  1.00  0.00     0.091 A 
ATOM     64  F   UNL A   1      40.697  33.785  34.494  1.00  0.00    -0.205 F 
ATOM     65  C   UNL A   1      38.311  33.565  37.267  1.00  0.00     0.022 A 
BRANCH  63  66
ATOM     66  S   UNL A   1      39.980  35.686  36.829  1.00  0.00     0.127 S 
ATOM     67  O   UNL A   1      41.401  35.383  37.000  1.00  0.00    -0.237 OA
ATOM     68  O   UNL A   1      39.661  36.464  35.632  1.00  0.00    -0.237 OA
ATOM     69  O   UNL A   1      39.285  36.113  38.035  1.00  0.00    -0.744 OA
ENDBRANCH  63  66
ENDBRANCH  45  59
BRANCH  46  70
ATOM     70  C   UNL A   1      42.433  26.376  27.568  1.00  0.00     0.023 A 
ATOM     71  C   UNL A   1      43.268  26.961  26.597  1.00  0.00     0.012 A 
ATOM     72  C   UNL A   1      42.081  25.018  27.442  1.00  0.00     0.148 A 
ATOM     73  C   UNL A   1      43.711  26.222  25.499  1.00  0.00     0.002 A 
ATOM     74  C   UNL A   1      42.568  24.273  26.374  1.00  0.00     0.091 A 
ATOM     75  F   UNL A   1      41.268  24.484  28.364  1.00  0.00    -0.205 F 
ATOM     76  C   UNL A   1      43.367  24.877  25.391  1.00  0.00     0.022 A 
BRANCH  74  77
ATOM     77  S   UNL A   1      42.272  22.508  26.220  1.00  0.00     0.127 S 
ATOM     78  O   UNL A   1      42.829  22.001  27.471  1.00  0.00    -0.237 OA
ATOM     79  O   UNL A   1      40.812  22.453  26.127  1.00  0.00    -0.237 OA
ATOM     80  O   UNL A   1      42.964  22.103  25.005  1.00  0.00    -0.744 OA
ENDBRANCH  74  77
ENDBRANCH  46  70
BRANCH  58  81
ATOM     81  C   UNL A   1      44.560  27.247  34.154  1.00  0.00     0.023 A 
ATOM     82  C   UNL A   1      45.808  27.901  34.152  1.00  0.00     0.012 A 
ATOM     83  C   UNL A   1      44.389  26.092  34.943  1.00  0.00     0.148 A 
ATOM     84  C   UNL A   1      46.877  27.396  34.891  1.00  0.00     0.002 A 
ATOM     85  C   UNL A   1      45.447  25.620  35.713  1.00  0.00     0.091 A 
ATOM     86  F   UNL A   1      43.202  25.468  34.920  1.00  0.00    -0.205 F 
ATOM     87  C   UNL A   1      46.695  26.262  35.678  1.00  0.00     0.022 A 
BRANCH  85  88
ATOM     88  S   UNL A   1      45.267  24.221  36.827  1.00  0.00     0.127 S 
ATOM     89  O   UNL A   1      44.250  24.707  37.758  1.00  0.00    -0.237 OA
ATOM     90  O   UNL A   1      44.813  23.158  35.930  1.00  0.00    -0.237 OA
ATOM     91  O   UNL A   1      46.590  23.998  37.396  1.00  0.00    -0.744 OA
ENDBRANCH  85  88
ENDBRANCH  58  81
ENDBRANCH  32  33
ENDBRANCH  25  27
ENDBRANCH  24  25
ENDBRANCH   1  24
TORSDOF 17
ENDMDL
MODEL 3
REMARK VINA RESULT:     -12.0      1.866      2.808
REMARK SMILES O=C(C[N@@H+]1C[C@@]2([N+](=O)[O-])CC=C(Cl)[C@@]([N+](=O)[O-])(C1)C2)OCCOC(=O)c1ccc(-c2c3nc(c(-c4cccc(S(=O)(=O)[O-])c4F)c4ccc([nH]4)c(-c4cccc(S(=O)(=O)[O-])c4F)c4nc(c(-c5cccc(S(=O)(=O)[O-])c5F)c5ccc2[nH]5)C=C4)C=C3)cc1
REMARK SMILES IDX 22 1 21 2 20 3 2 4 1 5 3 6 4 7 5 8 18 9 6 11 14 12 10 13
REMARK SMILES IDX 19 14 12 15 11 16 13 17 7 18 8 19 9 20 15 21 16 22 17 23
REMARK SMILES IDX 23 24 24 25 25 26 26 27 27 28 88 29 28 30 87 31 29 32 30 33
REMARK SMILES IDX 31 34 81 35 32 36 86 37 80 38 82 39 33 40 85 41 79 42 78 43
REMARK SMILES IDX 34 45 66 46 46 47 65 48 47 49 50 50 64 51 83 52 48 53 49 54
REMARK SMILES IDX 63 56 84 57 51 58 35 59 36 60 44 61 37 62 39 63 45 64 38 65
REMARK SMILES IDX 40 66 41 67 42 68 43 69 67 70 68 71 76 72 69 73 71 74 77 75
REMARK SMILES IDX 70 76 72 77 73 78 74 79 75 80 52 81 53 82 61 83 54 84 56 85
REMARK SMILES IDX 62 86 55 87 57 88 58 89 59 90 60 91
REMARK H PARENT 4 10 82 44 50 55
REMARK Flexibility Score: inf
ROOT
ATOM      1  C   UNL A   1      36.901  20.404  24.922  1.00  0.00     0.275 C 
ENDROOT
BRANCH   1   2
ATOM      2  C   UNL A   1      35.480  20.845  25.280  1.00  0.00     0.274 C 
BRANCH   2   3
ATOM      3  O   UNL A   1      35.432  21.716  26.428  1.00  0.00    -0.458 OA
BRANCH   3   4
ATOM      4  C   UNL A   1      34.574  22.768  26.516  1.00  0.00     0.361 C 
ATOM      5  O   UNL A   1      33.559  22.683  27.203  1.00  0.00    -0.245 OA
BRANCH   4   6
ATOM      6  C   UNL A   1      34.888  24.002  25.667  1.00  0.00     0.386 C 
BRANCH   6   7
ATOM      7  N   UNL A   1      33.698  24.648  25.075  1.00  0.00    -0.313 N 
ATOM      8  C   UNL A   1      34.005  25.077  23.688  1.00  0.00     0.350 C 
ATOM      9  C   UNL A   1      33.176  25.773  25.886  1.00  0.00     0.356 C 
ATOM     10  H   UNL A   1      32.949  23.957  25.058  1.00  0.00     0.349 HD
ATOM     11  C   UNL A   1      32.830  25.808  22.996  1.00  0.00     0.280 C 
ATOM     12  C   UNL A   1      31.937  26.428  25.227  1.00  0.00     0.311 C 
ATOM     13  C   UNL A   1      31.614  24.889  22.719  1.00  0.00     0.121 C 
ATOM     14  C   UNL A   1      32.372  26.996  23.862  1.00  0.00     0.191 C 
ATOM     15  C   UNL A   1      30.829  25.404  25.052  1.00  0.00     0.097 C 
ATOM     16  C   UNL A   1      30.691  24.709  23.909  1.00  0.00     0.004 C 
ATOM     17  Cl  UNL A   1      29.819  25.025  26.405  1.00  0.00    -0.081 Cl
BRANCH  11  18
ATOM     18  N   UNL A   1      33.393  26.325  21.682  1.00  0.00     0.032 N 
ATOM     19  O   UNL A   1      33.929  27.435  21.687  1.00  0.00    -0.264 OA
ATOM     20  O   UNL A   1      33.208  25.626  20.675  1.00  0.00    -0.264 OA
ENDBRANCH  11  18
BRANCH  12  21
ATOM     21  N   UNL A   1      31.462  27.603  26.073  1.00  0.00     0.038 N 
ATOM     22  O   UNL A   1      31.090  28.632  25.488  1.00  0.00    -0.263 OA
ATOM     23  O   UNL A   1      31.418  27.444  27.303  1.00  0.00    -0.263 OA
ENDBRANCH  12  21
ENDBRANCH   6   7
ENDBRANCH   4   6
ENDBRANCH   3   4
ENDBRANCH   2   3
ENDBRANCH   1   2
BRANCH   1  24
ATOM     24  O   UNL A   1      37.839  21.481  25.096  1.00  0.00    -0.458 OA
BRANCH  24  25
ATOM     25  C   UNL A   1      38.934  21.166  25.834  1.00  0.00     0.338 C 
ATOM     26  O   UNL A   1      39.509  20.089  25.844  1.00  0.00    -0.246 OA
BRANCH  25  27
ATOM     27  C   UNL A   1      39.467  22.378  26.498  1.00  0.00     0.060 A 
ATOM     28  C   UNL A   1      38.862  23.602  26.183  1.00  0.00     0.016 A 
ATOM     29  C   UNL A   1      40.525  22.337  27.413  1.00  0.00     0.016 A 
ATOM     30  C   UNL A   1      39.348  24.787  26.736  1.00  0.00     0.010 A 
ATOM     31  C   UNL A   1      41.010  23.530  27.967  1.00  0.00     0.010 A 
ATOM     32  C   UNL A   1      40.449  24.764  27.602  1.00  0.00    -0.014 A 
BRANCH  32  33
ATOM     33  C   UNL A   1      41.089  26.046  27.991  1.00  0.00     0.031 A 
ATOM     34  C   UNL A   1      42.516  26.305  27.581  1.00  0.00     0.074 A 
ATOM     35  C   UNL A   1      40.408  26.990  28.665  1.00  0.00     0.049 A 
ATOM     36  N   UNL A   1      43.231  27.392  27.716  1.00  0.00    -0.248 NA
ATOM     37  C   UNL A   1      43.228  25.192  26.930  1.00  0.00     0.031 C 
ATOM     38  C   UNL A   1      39.034  26.863  29.151  1.00  0.00     0.029 A 
ATOM     39  N   UNL A   1      40.792  28.246  29.070  1.00  0.00    -0.354 N 
ATOM     40  C   UNL A   1      44.471  27.100  27.164  1.00  0.00     0.074 A 
ATOM     41  C   UNL A   1      44.426  25.722  26.726  1.00  0.00     0.031 C 
ATOM     42  C   UNL A   1      38.699  27.985  29.810  1.00  0.00     0.029 A 
ATOM     43  C   UNL A   1      39.828  28.915  29.786  1.00  0.00     0.049 A 
ATOM     44  H   UNL A   1      41.674  28.630  28.865  1.00  0.00     0.167 HD
ATOM     45  C   UNL A   1      45.543  27.912  27.000  1.00  0.00     0.034 A 
ATOM     46  C   UNL A   1      39.854  30.139  30.352  1.00  0.00     0.034 A 
ATOM     47  C   UNL A   1      45.598  29.283  27.427  1.00  0.00     0.049 A 
ATOM     48  C   UNL A   1      41.066  31.019  30.168  1.00  0.00     0.074 A 
ATOM     49  C   UNL A   1      46.630  30.192  27.271  1.00  0.00     0.029 A 
ATOM     50  N   UNL A   1      44.584  29.943  28.103  1.00  0.00    -0.354 N 
ATOM     51  N   UNL A   1      42.166  30.784  29.495  1.00  0.00    -0.248 NA
ATOM     52  C   UNL A   1      41.016  32.356  30.782  1.00  0.00     0.031 C 
ATOM     53  C   UNL A   1      46.245  31.398  27.866  1.00  0.00     0.029 A 
ATOM     54  C   UNL A   1      44.968  31.244  28.379  1.00  0.00     0.049 A 
ATOM     55  H   UNL A   1      43.719  29.544  28.351  1.00  0.00     0.167 HD
ATOM     56  C   UNL A   1      42.922  31.950  29.576  1.00  0.00     0.074 A 
ATOM     57  C   UNL A   1      42.140  32.902  30.337  1.00  0.00     0.031 C 
ATOM     58  C   UNL A   1      44.161  32.204  29.086  1.00  0.00     0.034 A 
BRANCH  45  59
ATOM     59  C   UNL A   1      46.732  27.351  26.270  1.00  0.00     0.023 A 
ATOM     60  C   UNL A   1      46.816  27.519  24.871  1.00  0.00     0.012 A 
ATOM     61  C   UNL A   1      47.786  26.723  26.957  1.00  0.00     0.148 A 
ATOM     62  C   UNL A   1      47.923  27.052  24.166  1.00  0.00     0.002 A 
ATOM     63  C   UNL A   1      48.904  26.291  26.252  1.00  0.00     0.091 A 
ATOM     64  F   UNL A   1      47.675  26.552  28.282  1.00  0.00    -0.205 F 
ATOM     65  C   UNL A   1      48.970  26.448  24.856  1.00  0.00     0.022 A 
BRANCH  63  66
ATOM     66  S   UNL A   1      50.335  25.559  27.052  1.00  0.00     0.127 S 
ATOM     67  O   UNL A   1      49.768  24.327  27.600  1.00  0.00    -0.237 OA
ATOM     68  O   UNL A   1      51.251  25.363  25.927  1.00  0.00    -0.237 OA
ATOM     69  O   UNL A   1      50.784  26.530  28.039  1.00  0.00    -0.744 OA
ENDBRANCH  63  66
ENDBRANCH  45  59
BRANCH  46  70
ATOM     70  C   UNL A   1      38.671  30.641  31.108  1.00  0.00     0.023 A 
ATOM     71  C   UNL A   1      38.608  30.462  32.504  1.00  0.00     0.012 A 
ATOM     72  C   UNL A   1      37.600  31.275  30.449  1.00  0.00     0.148 A 
ATOM     73  C   UNL A   1      37.485  30.867  33.224  1.00  0.00     0.002 A 
ATOM     74  C   UNL A   1      36.506  31.724  31.180  1.00  0.00     0.091 A 
ATOM     75  F   UNL A   1      37.668  31.418  29.118  1.00  0.00    -0.205 F 
ATOM     76  C   UNL A   1      36.438  31.505  32.565  1.00  0.00     0.022 A 
BRANCH  74  77
ATOM     77  S   UNL A   1      35.168  32.659  30.430  1.00  0.00     0.127 S 
ATOM     78  O   UNL A   1      34.236  32.796  31.546  1.00  0.00    -0.237 OA
ATOM     79  O   UNL A   1      35.847  33.896  30.037  1.00  0.00    -0.237 OA
ATOM     80  O   UNL A   1      34.709  31.849  29.312  1.00  0.00    -0.744 OA
ENDBRANCH  74  77
ENDBRANCH  46  70
BRANCH  58  81
ATOM     81  C   UNL A   1      44.748  33.571  29.335  1.00  0.00     0.023 A 
ATOM     82  C   UNL A   1      45.487  33.807  30.511  1.00  0.00     0.012 A 
ATOM     83  C   UNL A   1      44.621  34.602  28.382  1.00  0.00     0.148 A 
ATOM     84  C   UNL A   1      46.058  35.056  30.753  1.00  0.00     0.002 A 
ATOM     85  C   UNL A   1      45.232  35.830  28.610  1.00  0.00     0.091 A 
ATOM     86  F   UNL A   1      43.899  34.369  27.276  1.00  0.00    -0.205 F 
ATOM     87  C   UNL A   1      45.939  36.064  29.800  1.00  0.00     0.022 A 
BRANCH  85  88
ATOM     88  S   UNL A   1      45.206  37.150  27.390  1.00  0.00     0.127 S 
ATOM     89  O   UNL A   1      43.784  37.224  27.058  1.00  0.00    -0.237 OA
ATOM     90  O   UNL A   1      45.714  38.293  28.149  1.00  0.00    -0.237 OA
ATOM     91  O   UNL A   1      46.085  36.709  26.314  1.00  0.00    -0.744 OA
ENDBRANCH  85  88
ENDBRANCH  58  81
ENDBRANCH  32  33
ENDBRANCH  25  27
ENDBRANCH  24  25
ENDBRANCH   1  24
TORSDOF 17
ENDMDL
