MODEL 1
REMARK VINA RESULT:     -12.0      0.000      0.000
REMARK SMILES CC(C)CN(C)c1cc2c(cc1Cl)C=C(C(=O)OCCOC(=O)c1ccc(-c3c4nc(c(-c5cccc(S(=O)(=O)[O-])c5F)c5ccc([nH]5)c(-c5cccc(S(=O)(=O)[O-])c5F)c5nc(c(-c6cccc(S(=O)(=O)[O-])c6F)c6ccc3[nH]6)C=C5)C=C4)cc1)[C@H](C(F)(F)F)O2
REMARK SMILES IDX 19 1 18 2 16 3 17 4 15 5 7 6 8 7 12 8 9 9 11 10 13 11 10 12
REMARK SMILES IDX 92 13 14 14 87 15 5 16 6 17 4 18 2 19 1 20 3 21 88 22 89 23
REMARK SMILES IDX 90 24 91 25 20 26 21 27 22 28 23 29 24 30 25 31 86 32 26 33
REMARK SMILES IDX 85 34 27 35 28 36 29 37 79 38 30 39 84 40 78 41 80 42 31 43
REMARK SMILES IDX 83 44 77 45 76 46 32 48 64 49 44 50 63 51 45 52 48 53 62 54
REMARK SMILES IDX 81 55 46 56 47 57 61 59 82 60 49 61 33 62 34 63 42 64 35 65
REMARK SMILES IDX 37 66 43 67 36 68 38 69 39 70 40 71 41 72 65 73 66 74 74 75
REMARK SMILES IDX 67 76 69 77 75 78 68 79 70 80 71 81 72 82 73 83 50 84 51 85
REMARK SMILES IDX 59 86 52 87 54 88 60 89 53 90 55 91 56 92 57 93 58 94
REMARK H PARENT 80 47 48 58
REMARK Flexibility Score: inf
ROOT
ATOM      1  C   UNL A   1      31.432  29.666  25.036  1.00  0.00     0.275 C 
ENDROOT
BRANCH   1   2
ATOM      2  O   UNL A   1      31.923  28.318  25.199  1.00  0.00    -0.459 OA
BRANCH   2   3
ATOM      3  C   UNL A   1      32.918  27.956  24.365  1.00  0.00     0.338 C 
ATOM      4  O   UNL A   1      33.746  28.711  23.874  1.00  0.00    -0.246 OA
BRANCH   3   5
ATOM      5  C   UNL A   1      32.960  26.494  24.154  1.00  0.00     0.087 C 
ATOM      6  C   UNL A   1      33.547  21.581  25.178  1.00  0.00     0.059 A 
ATOM      7  C   UNL A   1      33.424  22.330  23.989  1.00  0.00     0.074 A 
ATOM      8  C   UNL A   1      33.446  22.275  26.402  1.00  0.00     0.065 A 
ATOM      9  C   UNL A   1      33.219  23.715  24.021  1.00  0.00     0.130 A 
ATOM     10  C   UNL A   1      33.167  23.640  26.433  1.00  0.00     0.034 A 
ATOM     11  Cl  UNL A   1      33.756  21.525  27.930  1.00  0.00    -0.082 Cl
ATOM     12  C   UNL A   1      33.074  24.359  25.244  1.00  0.00     0.019 A 
ATOM     13  O   UNL A   1      33.144  24.380  22.828  1.00  0.00    -0.475 OA
ATOM     14  C   UNL A   1      32.876  25.789  25.291  1.00  0.00     0.027 C 
ATOM     15  C   UNL A   1      33.295  25.839  22.836  1.00  0.00     0.316 C 
BRANCH   6  16
ATOM     16  N   UNL A   1      33.799  20.206  25.133  1.00  0.00    -0.373 N 
ATOM     17  C   UNL A   1      35.167  19.821  24.818  1.00  0.00     0.143 C 
BRANCH  16  18
ATOM     18  C   UNL A   1      32.713  19.306  24.701  1.00  0.00     0.119 C 
BRANCH  18  19
ATOM     19  C   UNL A   1      33.200  18.213  23.726  1.00  0.00     0.002 C 
ATOM     20  C   UNL A   1      33.129  16.821  24.358  1.00  0.00     0.009 C 
ATOM     21  C   UNL A   1      32.388  18.218  22.428  1.00  0.00     0.009 C 
ENDBRANCH  18  19
ENDBRANCH  16  18
ENDBRANCH   6  16
BRANCH  15  22
ATOM     22  C   UNL A   1      32.580  26.389  21.589  1.00  0.00     0.430 C 
ATOM     23  F   UNL A   1      32.261  25.432  20.696  1.00  0.00    -0.167 F 
ATOM     24  F   UNL A   1      31.447  27.057  21.921  1.00  0.00    -0.167 F 
ATOM     25  F   UNL A   1      33.359  27.299  20.945  1.00  0.00    -0.167 F 
ENDBRANCH  15  22
ENDBRANCH   3   5
ENDBRANCH   2   3
ENDBRANCH   1   2
BRANCH   1  26
ATOM     26  C   UNL A   1      31.775  30.507  26.260  1.00  0.00     0.275 C 
BRANCH  26  27
ATOM     27  O   UNL A   1      33.196  30.730  26.320  1.00  0.00    -0.458 OA
BRANCH  27  28
ATOM     28  C   UNL A   1      33.608  31.607  27.264  1.00  0.00     0.338 C 
ATOM     29  O   UNL A   1      33.019  32.592  27.668  1.00  0.00    -0.246 OA
BRANCH  28  30
ATOM     30  C   UNL A   1      34.926  31.194  27.770  1.00  0.00     0.060 A 
ATOM     31  C   UNL A   1      35.902  32.148  28.050  1.00  0.00     0.016 A 
ATOM     32  C   UNL A   1      35.146  29.856  28.084  1.00  0.00     0.016 A 
ATOM     33  C   UNL A   1      37.111  31.739  28.625  1.00  0.00     0.010 A 
ATOM     34  C   UNL A   1      36.308  29.469  28.750  1.00  0.00     0.010 A 
ATOM     35  C   UNL A   1      37.322  30.399  29.011  1.00  0.00    -0.014 A 
BRANCH  35  36
ATOM     36  C   UNL A   1      38.581  29.994  29.708  1.00  0.00     0.031 A 
ATOM     37  C   UNL A   1      38.887  30.444  31.117  1.00  0.00     0.074 A 
ATOM     38  C   UNL A   1      39.493  29.244  29.053  1.00  0.00     0.049 A 
ATOM     39  N   UNL A   1      39.910  30.131  31.875  1.00  0.00    -0.248 NA
ATOM     40  C   UNL A   1      37.959  31.398  31.747  1.00  0.00     0.031 C 
ATOM     41  C   UNL A   1      39.406  28.845  27.646  1.00  0.00     0.029 A 
ATOM     42  N   UNL A   1      40.666  28.673  29.484  1.00  0.00    -0.354 N 
ATOM     43  C   UNL A   1      39.782  30.893  33.031  1.00  0.00     0.074 A 
ATOM     44  C   UNL A   1      38.596  31.704  32.868  1.00  0.00     0.031 C 
ATOM     45  C   UNL A   1      40.436  28.037  27.353  1.00  0.00     0.029 A 
ATOM     46  C   UNL A   1      41.271  27.876  28.540  1.00  0.00     0.049 A 
ATOM     47  H   UNL A   1      41.039  28.821  30.384  1.00  0.00     0.167 HD
ATOM     48  C   UNL A   1      40.550  30.890  34.146  1.00  0.00     0.034 A 
ATOM     49  C   UNL A   1      42.351  27.074  28.621  1.00  0.00     0.034 A 
ATOM     50  C   UNL A   1      41.649  29.993  34.367  1.00  0.00     0.049 A 
ATOM     51  C   UNL A   1      43.095  26.959  29.922  1.00  0.00     0.074 A 
ATOM     52  C   UNL A   1      42.377  29.797  35.528  1.00  0.00     0.029 A 
ATOM     53  N   UNL A   1      42.170  29.133  33.416  1.00  0.00    -0.354 N 
ATOM     54  N   UNL A   1      42.848  27.554  31.062  1.00  0.00    -0.248 NA
ATOM     55  C   UNL A   1      44.248  26.045  29.957  1.00  0.00     0.031 C 
ATOM     56  C   UNL A   1      43.335  28.810  35.280  1.00  0.00     0.029 A 
ATOM     57  C   UNL A   1      43.206  28.398  33.964  1.00  0.00     0.049 A 
ATOM     58  H   UNL A   1      41.850  29.054  32.488  1.00  0.00     0.167 HD
ATOM     59  C   UNL A   1      43.802  27.080  31.954  1.00  0.00     0.074 A 
ATOM     60  C   UNL A   1      44.622  26.132  31.229  1.00  0.00     0.031 C 
ATOM     61  C   UNL A   1      43.987  27.419  33.252  1.00  0.00     0.034 A 
BRANCH  48  62
ATOM     62  C   UNL A   1      40.165  31.815  35.270  1.00  0.00     0.023 A 
ATOM     63  C   UNL A   1      40.711  33.114  35.307  1.00  0.00     0.012 A 
ATOM     64  C   UNL A   1      39.213  31.435  36.237  1.00  0.00     0.148 A 
ATOM     65  C   UNL A   1      40.340  34.013  36.305  1.00  0.00     0.002 A 
ATOM     66  C   UNL A   1      38.822  32.349  37.210  1.00  0.00     0.091 A 
ATOM     67  F   UNL A   1      38.714  30.192  36.189  1.00  0.00    -0.205 F 
ATOM     68  C   UNL A   1      39.390  33.634  37.250  1.00  0.00     0.022 A 
BRANCH  66  69
ATOM     69  S   UNL A   1      37.560  31.987  38.437  1.00  0.00     0.127 S 
ATOM     70  O   UNL A   1      38.264  32.291  39.682  1.00  0.00    -0.237 OA
ATOM     71  O   UNL A   1      36.506  32.940  38.085  1.00  0.00    -0.237 OA
ATOM     72  O   UNL A   1      37.203  30.588  38.247  1.00  0.00    -0.744 OA
ENDBRANCH  66  69
ENDBRANCH  48  62
BRANCH  49  73
ATOM     73  C   UNL A   1      42.692  26.207  27.459  1.00  0.00     0.023 A 
ATOM     74  C   UNL A   1      43.590  26.700  26.493  1.00  0.00     0.012 A 
ATOM     75  C   UNL A   1      42.227  24.882  27.361  1.00  0.00     0.148 A 
ATOM     76  C   UNL A   1      44.022  25.887  25.445  1.00  0.00     0.002 A 
ATOM     77  C   UNL A   1      42.690  24.066  26.334  1.00  0.00     0.091 A 
ATOM     78  F   UNL A   1      41.379  24.437  28.299  1.00  0.00    -0.205 F 
ATOM     79  C   UNL A   1      43.581  24.569  25.372  1.00  0.00     0.022 A 
BRANCH  77  80
ATOM     80  S   UNL A   1      42.266  22.326  26.205  1.00  0.00     0.127 S 
ATOM     81  O   UNL A   1      42.979  21.933  24.991  1.00  0.00    -0.237 OA
ATOM     82  O   UNL A   1      42.824  21.793  27.447  1.00  0.00    -0.237 OA
ATOM     83  O   UNL A   1      40.813  22.275  26.115  1.00  0.00    -0.744 OA
ENDBRANCH  77  80
ENDBRANCH  49  73
BRANCH  61  84
ATOM     84  C   UNL A   1      45.121  26.779  34.003  1.00  0.00     0.023 A 
ATOM     85  C   UNL A   1      46.385  27.400  33.988  1.00  0.00     0.012 A 
ATOM     86  C   UNL A   1      44.902  25.663  34.833  1.00  0.00     0.148 A 
ATOM     87  C   UNL A   1      47.418  26.918  34.792  1.00  0.00     0.002 A 
ATOM     88  C   UNL A   1      45.927  25.207  35.654  1.00  0.00     0.091 A 
ATOM     89  F   UNL A   1      43.691  25.086  34.819  1.00  0.00    -0.205 F 
ATOM     90  C   UNL A   1      47.185  25.831  35.633  1.00  0.00     0.022 A 
BRANCH  88  91
ATOM     91  S   UNL A   1      45.702  23.867  36.830  1.00  0.00     0.127 S 
ATOM     92  O   UNL A   1      47.034  23.763  37.423  1.00  0.00    -0.237 OA
ATOM     93  O   UNL A   1      44.676  24.406  37.723  1.00  0.00    -0.237 OA
ATOM     94  O   UNL A   1      45.279  22.711  36.049  1.00  0.00    -0.744 OA
ENDBRANCH  88  91
ENDBRANCH  61  84
ENDBRANCH  35  36
ENDBRANCH  28  30
ENDBRANCH  27  28
ENDBRANCH  26  27
ENDBRANCH   1  26
TORSDOF 18
ENDMDL
MODEL 2
REMARK VINA RESULT:     -11.6      5.122     10.178
REMARK SMILES CC(C)CN(C)c1cc2c(cc1Cl)C=C(C(=O)OCCOC(=O)c1ccc(-c3c4nc(c(-c5cccc(S(=O)(=O)[O-])c5F)c5ccc([nH]5)c(-c5cccc(S(=O)(=O)[O-])c5F)c5nc(c(-c6cccc(S(=O)(=O)[O-])c6F)c6ccc3[nH]6)C=C5)C=C4)cc1)[C@H](C(F)(F)F)O2
REMARK SMILES IDX 19 1 18 2 16 3 17 4 15 5 7 6 8 7 12 8 9 9 11 10 13 11 10 12
REMARK SMILES IDX 92 13 14 14 87 15 5 16 6 17 4 18 2 19 1 20 3 21 88 22 89 23
REMARK SMILES IDX 90 24 91 25 20 26 21 27 22 28 23 29 24 30 25 31 86 32 26 33
REMARK SMILES IDX 85 34 27 35 28 36 29 37 79 38 30 39 84 40 78 41 80 42 31 43
REMARK SMILES IDX 83 44 77 45 76 46 32 48 64 49 44 50 63 51 45 52 48 53 62 54
REMARK SMILES IDX 81 55 46 56 47 57 61 59 82 60 49 61 33 62 34 63 42 64 35 65
REMARK SMILES IDX 37 66 43 67 36 68 38 69 39 70 40 71 41 72 65 73 66 74 74 75
REMARK SMILES IDX 67 76 69 77 75 78 68 79 70 80 71 81 72 82 73 83 50 84 51 85
REMARK SMILES IDX 59 86 52 87 54 88 60 89 53 90 55 91 56 92 57 93 58 94
REMARK H PARENT 80 47 48 58
REMARK Flexibility Score: inf
ROOT
ATOM      1  C   UNL A   1      35.317  20.568  25.557  1.00  0.00     0.275 C 
ENDROOT
BRANCH   1   2
ATOM      2  O   UNL A   1      35.241  21.934  26.016  1.00  0.00    -0.459 OA
BRANCH   2   3
ATOM      3  C   UNL A   1      34.049  22.315  26.516  1.00  0.00     0.338 C 
ATOM      4  O   UNL A   1      33.523  21.865  27.524  1.00  0.00    -0.246 OA
BRANCH   3   5
ATOM      5  C   UNL A   1      33.453  23.423  25.742  1.00  0.00     0.087 C 
ATOM      6  C   UNL A   1      32.130  28.132  24.470  1.00  0.00     0.059 A 
ATOM      7  C   UNL A   1      31.750  26.848  24.023  1.00  0.00     0.074 A 
ATOM      8  C   UNL A   1      33.133  28.210  25.459  1.00  0.00     0.065 A 
ATOM      9  C   UNL A   1      32.342  25.692  24.548  1.00  0.00     0.130 A 
ATOM     10  C   UNL A   1      33.773  27.063  25.925  1.00  0.00     0.034 A 
ATOM     11  Cl  UNL A   1      33.570  29.694  26.232  1.00  0.00    -0.082 Cl
ATOM     12  C   UNL A   1      33.362  25.808  25.484  1.00  0.00     0.019 A 
ATOM     13  O   UNL A   1      31.899  24.482  24.090  1.00  0.00    -0.475 OA
ATOM     14  C   UNL A   1      33.970  24.623  26.043  1.00  0.00     0.027 C 
ATOM     15  C   UNL A   1      32.230  23.282  24.868  1.00  0.00     0.316 C 
BRANCH   6  16
ATOM     16  N   UNL A   1      31.499  29.277  23.973  1.00  0.00    -0.373 N 
ATOM     17  C   UNL A   1      31.012  30.218  24.971  1.00  0.00     0.143 C 
BRANCH  16  18
ATOM     18  C   UNL A   1      30.757  29.174  22.703  1.00  0.00     0.119 C 
BRANCH  18  19
ATOM     19  C   UNL A   1      29.279  29.598  22.842  1.00  0.00     0.002 C 
ATOM     20  C   UNL A   1      28.799  30.382  21.618  1.00  0.00     0.009 C 
ATOM     21  C   UNL A   1      28.367  28.387  23.054  1.00  0.00     0.009 C 
ENDBRANCH  18  19
ENDBRANCH  16  18
ENDBRANCH   6  16
BRANCH  15  22
ATOM     22  C   UNL A   1      32.202  22.080  23.906  1.00  0.00     0.430 C 
ATOM     23  F   UNL A   1      31.348  22.245  22.877  1.00  0.00    -0.167 F 
ATOM     24  F   UNL A   1      33.434  21.821  23.400  1.00  0.00    -0.167 F 
ATOM     25  F   UNL A   1      31.834  20.946  24.559  1.00  0.00    -0.167 F 
ENDBRANCH  15  22
ENDBRANCH   3   5
ENDBRANCH   2   3
ENDBRANCH   1   2
BRANCH   1  26
ATOM     26  C   UNL A   1      36.702  20.275  24.991  1.00  0.00     0.275 C 
BRANCH  26  27
ATOM     27  O   UNL A   1      37.580  21.389  25.239  1.00  0.00    -0.458 OA
BRANCH  27  28
ATOM     28  C   UNL A   1      38.769  21.077  25.804  1.00  0.00     0.338 C 
ATOM     29  O   UNL A   1      39.317  19.992  25.827  1.00  0.00    -0.246 OA
BRANCH  28  30
ATOM     30  C   UNL A   1      39.349  22.284  26.415  1.00  0.00     0.060 A 
ATOM     31  C   UNL A   1      40.507  22.196  27.184  1.00  0.00     0.016 A 
ATOM     32  C   UNL A   1      38.801  23.528  26.117  1.00  0.00     0.016 A 
ATOM     33  C   UNL A   1      41.094  23.369  27.671  1.00  0.00     0.010 A 
ATOM     34  C   UNL A   1      39.447  24.698  26.516  1.00  0.00     0.010 A 
ATOM     35  C   UNL A   1      40.592  24.639  27.320  1.00  0.00    -0.014 A 
BRANCH  35  36
ATOM     36  C   UNL A   1      41.283  25.886  27.771  1.00  0.00     0.031 A 
ATOM     37  C   UNL A   1      42.688  26.217  27.328  1.00  0.00     0.074 A 
ATOM     38  C   UNL A   1      40.659  26.719  28.631  1.00  0.00     0.049 A 
ATOM     39  N   UNL A   1      43.400  27.286  27.588  1.00  0.00    -0.248 NA
ATOM     40  C   UNL A   1      43.408  25.212  26.527  1.00  0.00     0.031 C 
ATOM     41  C   UNL A   1      39.358  26.471  29.257  1.00  0.00     0.029 A 
ATOM     42  N   UNL A   1      41.029  27.949  29.121  1.00  0.00    -0.354 N 
ATOM     43  C   UNL A   1      44.660  27.053  27.046  1.00  0.00     0.074 A 
ATOM     44  C   UNL A   1      44.625  25.732  26.461  1.00  0.00     0.031 C 
ATOM     45  C   UNL A   1      39.007  27.542  29.983  1.00  0.00     0.029 A 
ATOM     46  C   UNL A   1      40.062  28.546  29.898  1.00  0.00     0.049 A 
ATOM     47  H   UNL A   1      41.902  28.364  28.934  1.00  0.00     0.167 HD
ATOM     48  C   UNL A   1      45.734  27.876  26.995  1.00  0.00     0.034 A 
ATOM     49  C   UNL A   1      40.008  29.774  30.450  1.00  0.00     0.034 A 
ATOM     50  C   UNL A   1      45.732  29.236  27.455  1.00  0.00     0.049 A 
ATOM     51  C   UNL A   1      41.145  30.734  30.243  1.00  0.00     0.074 A 
ATOM     52  C   UNL A   1      46.713  30.199  27.292  1.00  0.00     0.029 A 
ATOM     53  N   UNL A   1      44.696  29.833  28.153  1.00  0.00    -0.354 N 
ATOM     54  N   UNL A   1      42.254  30.557  29.570  1.00  0.00    -0.248 NA
ATOM     55  C   UNL A   1      41.014  32.070  30.845  1.00  0.00     0.031 C 
ATOM     56  C   UNL A   1      46.266  31.382  27.886  1.00  0.00     0.029 A 
ATOM     57  C   UNL A   1      45.010  31.153  28.424  1.00  0.00     0.049 A 
ATOM     58  H   UNL A   1      43.860  29.385  28.417  1.00  0.00     0.167 HD
ATOM     59  C   UNL A   1      42.948  31.757  29.655  1.00  0.00     0.074 A 
ATOM     60  C   UNL A   1      42.126  32.664  30.429  1.00  0.00     0.031 C 
ATOM     61  C   UNL A   1      44.166  32.067  29.151  1.00  0.00     0.034 A 
BRANCH  48  62
ATOM     62  C   UNL A   1      46.981  27.368  26.321  1.00  0.00     0.023 A 
ATOM     63  C   UNL A   1      47.190  27.658  24.957  1.00  0.00     0.012 A 
ATOM     64  C   UNL A   1      47.975  26.679  27.045  1.00  0.00     0.148 A 
ATOM     65  C   UNL A   1      48.356  27.245  24.315  1.00  0.00     0.002 A 
ATOM     66  C   UNL A   1      49.150  26.299  26.405  1.00  0.00     0.091 A 
ATOM     67  F   UNL A   1      47.750  26.405  28.337  1.00  0.00    -0.205 F 
ATOM     68  C   UNL A   1      49.338  26.575  25.039  1.00  0.00     0.022 A 
BRANCH  66  69
ATOM     69  S   UNL A   1      50.507  25.488  27.258  1.00  0.00     0.127 S 
ATOM     70  O   UNL A   1      51.467  25.298  26.171  1.00  0.00    -0.237 OA
ATOM     71  O   UNL A   1      50.897  26.496  28.245  1.00  0.00    -0.237 OA
ATOM     72  O   UNL A   1      49.954  24.266  27.824  1.00  0.00    -0.744 OA
ENDBRANCH  66  69
ENDBRANCH  48  62
BRANCH  49  73
ATOM     73  C   UNL A   1      38.753  30.201  31.129  1.00  0.00     0.023 A 
ATOM     74  C   UNL A   1      38.632  29.987  32.516  1.00  0.00     0.012 A 
ATOM     75  C   UNL A   1      37.741  30.902  30.446  1.00  0.00     0.148 A 
ATOM     76  C   UNL A   1      37.523  30.465  33.214  1.00  0.00     0.002 A 
ATOM     77  C   UNL A   1      36.656  31.406  31.155  1.00  0.00     0.091 A 
ATOM     78  F   UNL A   1      37.886  31.097  29.128  1.00  0.00    -0.205 F 
ATOM     79  C   UNL A   1      36.543  31.182  32.536  1.00  0.00     0.022 A 
BRANCH  77  80
ATOM     80  S   UNL A   1      35.389  32.431  30.399  1.00  0.00     0.127 S 
ATOM     81  O   UNL A   1      35.055  31.660  29.203  1.00  0.00    -0.237 OA
ATOM     82  O   UNL A   1      34.357  32.437  31.435  1.00  0.00    -0.237 OA
ATOM     83  O   UNL A   1      36.016  33.721  30.151  1.00  0.00    -0.744 OA
ENDBRANCH  77  80
ENDBRANCH  49  73
BRANCH  61  84
ATOM     84  C   UNL A   1      44.718  33.441  29.407  1.00  0.00     0.023 A 
ATOM     85  C   UNL A   1      45.783  33.590  30.316  1.00  0.00     0.012 A 
ATOM     86  C   UNL A   1      44.289  34.547  28.647  1.00  0.00     0.148 A 
ATOM     87  C   UNL A   1      46.416  34.823  30.466  1.00  0.00     0.002 A 
ATOM     88  C   UNL A   1      44.946  35.765  28.779  1.00  0.00     0.091 A 
ATOM     89  F   UNL A   1      43.267  34.379  27.797  1.00  0.00    -0.205 F 
ATOM     90  C   UNL A   1      46.006  35.906  29.690  1.00  0.00     0.022 A 
BRANCH  88  91
ATOM     91  S   UNL A   1      44.545  37.195  27.768  1.00  0.00     0.127 S 
ATOM     92  O   UNL A   1      43.613  37.919  28.631  1.00  0.00    -0.237 OA
ATOM     93  O   UNL A   1      45.851  37.836  27.606  1.00  0.00    -0.237 OA
ATOM     94  O   UNL A   1      43.970  36.670  26.536  1.00  0.00    -0.744 OA
ENDBRANCH  88  91
ENDBRANCH  61  84
ENDBRANCH  35  36
ENDBRANCH  28  30
ENDBRANCH  27  28
ENDBRANCH  26  27
ENDBRANCH   1  26
TORSDOF 18
ENDMDL
MODEL 3
REMARK VINA RESULT:     -11.3      1.789      2.412
REMARK SMILES CC(C)CN(C)c1cc2c(cc1Cl)C=C(C(=O)OCCOC(=O)c1ccc(-c3c4nc(c(-c5cccc(S(=O)(=O)[O-])c5F)c5ccc([nH]5)c(-c5cccc(S(=O)(=O)[O-])c5F)c5nc(c(-c6cccc(S(=O)(=O)[O-])c6F)c6ccc3[nH]6)C=C5)C=C4)cc1)[C@H](C(F)(F)F)O2
REMARK SMILES IDX 19 1 18 2 16 3 17 4 15 5 7 6 8 7 12 8 9 9 11 10 13 11 10 12
REMARK SMILES IDX 92 13 14 14 87 15 5 16 6 17 4 18 2 19 1 20 3 21 88 22 89 23
REMARK SMILES IDX 90 24 91 25 20 26 21 27 22 28 23 29 24 30 25 31 86 32 26 33
REMARK SMILES IDX 85 34 27 35 28 36 29 37 79 38 30 39 84 40 78 41 80 42 31 43
REMARK SMILES IDX 83 44 77 45 76 46 32 48 64 49 44 50 63 51 45 52 48 53 62 54
REMARK SMILES IDX 81 55 46 56 47 57 61 59 82 60 49 61 33 62 34 63 42 64 35 65
REMARK SMILES IDX 37 66 43 67 36 68 38 69 39 70 40 71 41 72 65 73 66 74 74 75
REMARK SMILES IDX 67 76 69 77 75 78 68 79 70 80 71 81 72 82 73 83 50 84 51 85
REMARK SMILES IDX 59 86 52 87 54 88 60 89 53 90 55 91 56 92 57 93 58 94
REMARK H PARENT 80 47 48 58
REMARK Flexibility Score: inf
ROOT
ATOM      1  C   UNL A   1      34.140  28.708  26.170  1.00  0.00     0.275 C 
ENDROOT
BRANCH   1   2
ATOM      2  O   UNL A   1      33.233  27.664  25.755  1.00  0.00    -0.459 OA
BRANCH   2   3
ATOM      3  C   UNL A   1      33.413  27.201  24.502  1.00  0.00     0.338 C 
ATOM      4  O   UNL A   1      33.950  27.811  23.588  1.00  0.00    -0.246 OA
BRANCH   3   5
ATOM      5  C   UNL A   1      32.950  25.805  24.356  1.00  0.00     0.087 C 
ATOM      6  C   UNL A   1      33.131  20.761  24.109  1.00  0.00     0.059 A 
ATOM      7  C   UNL A   1      32.155  21.728  23.784  1.00  0.00     0.074 A 
ATOM      8  C   UNL A   1      34.338  21.216  24.681  1.00  0.00     0.065 A 
ATOM      9  C   UNL A   1      32.380  23.091  24.013  1.00  0.00     0.130 A 
ATOM     10  C   UNL A   1      34.529  22.564  24.977  1.00  0.00     0.034 A 
ATOM     11  Cl  UNL A   1      35.690  20.174  24.961  1.00  0.00    -0.082 Cl
ATOM     12  C   UNL A   1      33.560  23.499  24.624  1.00  0.00     0.019 A 
ATOM     13  O   UNL A   1      31.402  23.973  23.641  1.00  0.00    -0.475 OA
ATOM     14  C   UNL A   1      33.809  24.904  24.852  1.00  0.00     0.027 C 
ATOM     15  C   UNL A   1      31.754  25.393  23.532  1.00  0.00     0.316 C 
BRANCH   6  16
ATOM     16  N   UNL A   1      32.914  19.407  23.833  1.00  0.00    -0.373 N 
ATOM     17  C   UNL A   1      32.212  19.117  22.592  1.00  0.00     0.143 C 
BRANCH  16  18
ATOM     18  C   UNL A   1      32.726  18.481  24.965  1.00  0.00     0.119 C 
BRANCH  18  19
ATOM     19  C   UNL A   1      32.998  17.011  24.580  1.00  0.00     0.002 C 
ATOM     20  C   UNL A   1      34.307  16.863  23.801  1.00  0.00     0.009 C 
ATOM     21  C   UNL A   1      33.043  16.108  25.816  1.00  0.00     0.009 C 
ENDBRANCH  18  19
ENDBRANCH  16  18
ENDBRANCH   6  16
BRANCH  15  22
ATOM     22  C   UNL A   1      30.464  26.210  23.729  1.00  0.00     0.430 C 
ATOM     23  F   UNL A   1      30.331  26.696  24.979  1.00  0.00    -0.167 F 
ATOM     24  F   UNL A   1      30.396  27.247  22.858  1.00  0.00    -0.167 F 
ATOM     25  F   UNL A   1      29.365  25.451  23.473  1.00  0.00    -0.167 F 
ENDBRANCH  15  22
ENDBRANCH   3   5
ENDBRANCH   2   3
ENDBRANCH   1   2
BRANCH   1  26
ATOM     26  C   UNL A   1      33.369  29.985  26.486  1.00  0.00     0.275 C 
BRANCH  26  27
ATOM     27  O   UNL A   1      33.678  30.425  27.822  1.00  0.00    -0.458 OA
BRANCH  27  28
ATOM     28  C   UNL A   1      34.543  31.463  27.907  1.00  0.00     0.338 C 
ATOM     29  O   UNL A   1      34.358  32.613  27.556  1.00  0.00    -0.246 OA
BRANCH  28  30
ATOM     30  C   UNL A   1      35.800  31.000  28.514  1.00  0.00     0.060 A 
ATOM     31  C   UNL A   1      35.863  29.757  29.139  1.00  0.00     0.016 A 
ATOM     32  C   UNL A   1      36.955  31.759  28.349  1.00  0.00     0.016 A 
ATOM     33  C   UNL A   1      37.094  29.296  29.620  1.00  0.00     0.010 A 
ATOM     34  C   UNL A   1      38.195  31.250  28.736  1.00  0.00     0.010 A 
ATOM     35  C   UNL A   1      38.284  30.020  29.400  1.00  0.00    -0.014 A 
BRANCH  35  36
ATOM     36  C   UNL A   1      39.605  29.473  29.837  1.00  0.00     0.031 A 
ATOM     37  C   UNL A   1      40.321  30.009  31.054  1.00  0.00     0.074 A 
ATOM     38  C   UNL A   1      40.200  28.507  29.105  1.00  0.00     0.049 A 
ATOM     39  N   UNL A   1      41.445  29.600  31.591  1.00  0.00    -0.248 NA
ATOM     40  C   UNL A   1      39.733  31.174  31.736  1.00  0.00     0.031 C 
ATOM     41  C   UNL A   1      39.702  27.982  27.831  1.00  0.00     0.029 A 
ATOM     42  N   UNL A   1      41.347  27.784  29.331  1.00  0.00    -0.354 N 
ATOM     43  C   UNL A   1      41.727  30.491  32.620  1.00  0.00     0.074 A 
ATOM     44  C   UNL A   1      40.672  31.479  32.620  1.00  0.00     0.031 C 
ATOM     45  C   UNL A   1      40.493  26.977  27.429  1.00  0.00     0.029 A 
ATOM     46  C   UNL A   1      41.568  26.796  28.399  1.00  0.00     0.049 A 
ATOM     47  H   UNL A   1      41.953  27.958  30.087  1.00  0.00     0.167 HD
ATOM     48  C   UNL A   1      42.744  30.469  33.514  1.00  0.00     0.034 A 
ATOM     49  C   UNL A   1      42.504  25.827  28.344  1.00  0.00     0.034 A 
ATOM     50  C   UNL A   1      43.719  29.419  33.603  1.00  0.00     0.049 A 
ATOM     51  C   UNL A   1      43.529  25.721  29.438  1.00  0.00     0.074 A 
ATOM     52  C   UNL A   1      44.681  29.221  34.579  1.00  0.00     0.029 A 
ATOM     53  N   UNL A   1      43.850  28.383  32.694  1.00  0.00    -0.354 N 
ATOM     54  N   UNL A   1      43.669  26.468  30.505  1.00  0.00    -0.248 NA
ATOM     55  C   UNL A   1      44.505  24.625  29.339  1.00  0.00     0.031 C 
ATOM     56  C   UNL A   1      45.389  28.058  34.263  1.00  0.00     0.029 A 
ATOM     57  C   UNL A   1      44.871  27.538  33.088  1.00  0.00     0.049 A 
ATOM     58  H   UNL A   1      43.297  28.265  31.888  1.00  0.00     0.167 HD
ATOM     59  C   UNL A   1      44.737  25.929  31.211  1.00  0.00     0.074 A 
ATOM     60  C   UNL A   1      45.198  24.778  30.462  1.00  0.00     0.031 C 
ATOM     61  C   UNL A   1      45.294  26.365  32.366  1.00  0.00     0.034 A 
BRANCH  48  62
ATOM     62  C   UNL A   1      42.798  31.563  34.549  1.00  0.00     0.023 A 
ATOM     63  C   UNL A   1      43.623  32.682  34.321  1.00  0.00     0.012 A 
ATOM     64  C   UNL A   1      41.981  31.524  35.697  1.00  0.00     0.148 A 
ATOM     65  C   UNL A   1      43.659  33.734  35.234  1.00  0.00     0.002 A 
ATOM     66  C   UNL A   1      41.997  32.593  36.586  1.00  0.00     0.091 A 
ATOM     67  F   UNL A   1      41.212  30.445  35.898  1.00  0.00    -0.205 F 
ATOM     68  C   UNL A   1      42.841  33.694  36.360  1.00  0.00     0.022 A 
BRANCH  66  69
ATOM     69  S   UNL A   1      40.938  32.673  38.035  1.00  0.00     0.127 S 
ATOM     70  O   UNL A   1      39.736  31.990  37.559  1.00  0.00    -0.237 OA
ATOM     71  O   UNL A   1      41.712  31.924  39.025  1.00  0.00    -0.237 OA
ATOM     72  O   UNL A   1      40.774  34.088  38.336  1.00  0.00    -0.744 OA
ENDBRANCH  66  69
ENDBRANCH  48  62
BRANCH  49  73
ATOM     73  C   UNL A   1      42.408  24.795  27.275  1.00  0.00     0.023 A 
ATOM     74  C   UNL A   1      43.260  24.901  26.159  1.00  0.00     0.012 A 
ATOM     75  C   UNL A   1      41.570  23.671  27.403  1.00  0.00     0.148 A 
ATOM     76  C   UNL A   1      43.282  23.903  25.186  1.00  0.00     0.002 A 
ATOM     77  C   UNL A   1      41.624  22.663  26.447  1.00  0.00     0.091 A 
ATOM     78  F   UNL A   1      40.775  23.593  28.479  1.00  0.00    -0.205 F 
ATOM     79  C   UNL A   1      42.473  22.781  25.335  1.00  0.00     0.022 A 
BRANCH  77  80
ATOM     80  S   UNL A   1      40.701  21.129  26.595  1.00  0.00     0.127 S 
ATOM     81  O   UNL A   1      40.815  20.847  28.024  1.00  0.00    -0.237 OA
ATOM     82  O   UNL A   1      39.369  21.542  26.153  1.00  0.00    -0.237 OA
ATOM     83  O   UNL A   1      41.368  20.176  25.720  1.00  0.00    -0.744 OA
ENDBRANCH  77  80
ENDBRANCH  49  73
BRANCH  61  84
ATOM     84  C   UNL A   1      46.474  25.616  32.918  1.00  0.00     0.023 A 
ATOM     85  C   UNL A   1      47.771  26.102  32.661  1.00  0.00     0.012 A 
ATOM     86  C   UNL A   1      46.297  24.535  33.803  1.00  0.00     0.148 A 
ATOM     87  C   UNL A   1      48.877  25.521  33.279  1.00  0.00     0.002 A 
ATOM     88  C   UNL A   1      47.402  23.982  34.439  1.00  0.00     0.091 A 
ATOM     89  F   UNL A   1      45.052  24.088  34.022  1.00  0.00    -0.205 F 
ATOM     90  C   UNL A   1      48.692  24.471  34.176  1.00  0.00     0.022 A 
BRANCH  88  91
ATOM     91  S   UNL A   1      47.259  22.681  35.671  1.00  0.00     0.127 S 
ATOM     92  O   UNL A   1      46.969  21.514  34.840  1.00  0.00    -0.237 OA
ATOM     93  O   UNL A   1      48.590  22.682  36.279  1.00  0.00    -0.237 OA
ATOM     94  O   UNL A   1      46.183  23.088  36.565  1.00  0.00    -0.744 OA
ENDBRANCH  88  91
ENDBRANCH  61  84
ENDBRANCH  35  36
ENDBRANCH  28  30
ENDBRANCH  27  28
ENDBRANCH  26  27
ENDBRANCH   1  26
TORSDOF 18
ENDMDL
