MODEL 1
REMARK VINA RESULT:     -11.4      0.000      0.000
REMARK SMILES CC[NH2+][C@@H](CC(=O)Nc1ccc(C)c(C)c1)C(=O)OCCOC(=O)c1ccc(-c2c3nc(c(-c4cccc(S(=O)(=O)[O-])c4F)c4ccc([nH]4)c(-c4cccc(S(=O)(=O)[O-])c4F)c4nc(c(-c5cccc(S(=O)(=O)[O-])c5F)c5ccc2[nH]5)C=C4)C=C3)cc1
REMARK SMILES IDX 20 1 19 2 17 3 18 4 4 5 3 6 2 9 1 10 5 11 6 12 7 13 8 14
REMARK SMILES IDX 9 16 10 17 16 18 11 19 14 20 12 21 15 22 13 23 21 24 22 25
REMARK SMILES IDX 23 26 24 27 25 28 26 29 87 30 27 31 86 32 28 33 29 34 30 35
REMARK SMILES IDX 80 36 31 37 85 38 79 39 81 40 32 41 84 42 78 43 77 44 33 46
REMARK SMILES IDX 65 47 45 48 64 49 46 50 49 51 63 52 82 53 47 54 48 55 62 57
REMARK SMILES IDX 83 58 50 59 34 60 35 61 43 62 36 63 38 64 44 65 37 66 39 67
REMARK SMILES IDX 40 68 41 69 42 70 66 71 67 72 75 73 68 74 70 75 76 76 69 77
REMARK SMILES IDX 71 78 72 79 73 80 74 81 51 82 52 83 60 84 53 85 55 86 61 87
REMARK SMILES IDX 54 88 56 89 57 90 58 91 59 92
REMARK H PARENT 3 7 3 8 8 15 81 45 49 56
REMARK Flexibility Score: inf
ROOT
ATOM      1  C   UNL A   1      35.738  20.393  25.181  1.00  0.00     0.274 C 
ENDROOT
BRANCH   1   2
ATOM      2  O   UNL A   1      35.480  21.800  25.366  1.00  0.00    -0.458 OA
BRANCH   2   3
ATOM      3  C   UNL A   1      34.385  22.114  26.111  1.00  0.00     0.365 C 
ATOM      4  O   UNL A   1      34.187  21.716  27.255  1.00  0.00    -0.245 OA
BRANCH   3   5
ATOM      5  C   UNL A   1      33.395  23.035  25.376  1.00  0.00     0.302 C 
BRANCH   5   6
ATOM      6  N   UNL A   1      32.319  22.260  24.724  1.00  0.00    -0.334 N 
ATOM      7  H   UNL A   1      32.668  21.318  24.544  1.00  0.00     0.347 HD
ATOM      8  H   UNL A   1      31.523  22.273  25.362  1.00  0.00     0.347 HD
BRANCH   6   9
ATOM      9  C   UNL A   1      31.848  22.822  23.461  1.00  0.00     0.257 C 
ATOM     10  C   UNL A   1      32.952  22.840  22.413  1.00  0.00     0.071 C 
ENDBRANCH   6   9
ENDBRANCH   5   6
BRANCH   5  11
ATOM     11  C   UNL A   1      32.871  24.212  26.203  1.00  0.00     0.177 C 
BRANCH  11  12
ATOM     12  C   UNL A   1      31.499  24.107  26.844  1.00  0.00     0.231 C 
ATOM     13  O   UNL A   1      31.214  23.161  27.581  1.00  0.00    -0.274 OA
ATOM     14  N   UNL A   1      30.622  25.154  26.721  1.00  0.00    -0.326 N 
ATOM     15  H   UNL A   1      29.935  25.231  27.424  1.00  0.00     0.169 HD
BRANCH  14  16
ATOM     16  C   UNL A   1      30.590  26.122  25.715  1.00  0.00     0.041 A 
ATOM     17  C   UNL A   1      29.789  25.942  24.594  1.00  0.00     0.026 A 
ATOM     18  C   UNL A   1      31.281  27.319  25.886  1.00  0.00     0.029 A 
ATOM     19  C   UNL A   1      29.774  26.903  23.584  1.00  0.00     0.006 A 
ATOM     20  C   UNL A   1      31.276  28.301  24.874  1.00  0.00    -0.046 A 
ATOM     21  C   UNL A   1      30.538  28.074  23.694  1.00  0.00    -0.048 A 
ATOM     22  C   UNL A   1      32.072  29.556  25.112  1.00  0.00     0.044 C 
ATOM     23  C   UNL A   1      30.547  29.038  22.539  1.00  0.00     0.044 C 
ENDBRANCH  14  16
ENDBRANCH  11  12
ENDBRANCH   5  11
ENDBRANCH   3   5
ENDBRANCH   2   3
ENDBRANCH   1   2
BRANCH   1  24
ATOM     24  C   UNL A   1      37.227  20.111  24.982  1.00  0.00     0.275 C 
BRANCH  24  25
ATOM     25  O   UNL A   1      38.020  21.263  25.309  1.00  0.00    -0.458 OA
BRANCH  25  26
ATOM     26  C   UNL A   1      39.123  21.001  26.043  1.00  0.00     0.338 C 
ATOM     27  O   UNL A   1      39.680  19.918  26.185  1.00  0.00    -0.246 OA
BRANCH  26  28
ATOM     28  C   UNL A   1      39.659  22.260  26.577  1.00  0.00     0.060 A 
ATOM     29  C   UNL A   1      39.057  23.447  26.160  1.00  0.00     0.016 A 
ATOM     30  C   UNL A   1      40.773  22.288  27.416  1.00  0.00     0.016 A 
ATOM     31  C   UNL A   1      39.578  24.675  26.544  1.00  0.00     0.010 A 
ATOM     32  C   UNL A   1      41.292  23.524  27.815  1.00  0.00     0.010 A 
ATOM     33  C   UNL A   1      40.709  24.722  27.362  1.00  0.00    -0.014 A 
BRANCH  33  34
ATOM     34  C   UNL A   1      41.305  26.035  27.692  1.00  0.00     0.031 A 
ATOM     35  C   UNL A   1      42.704  26.347  27.248  1.00  0.00     0.074 A 
ATOM     36  C   UNL A   1      40.580  26.946  28.366  1.00  0.00     0.049 A 
ATOM     37  N   UNL A   1      43.418  27.419  27.466  1.00  0.00    -0.248 NA
ATOM     38  C   UNL A   1      43.392  25.316  26.454  1.00  0.00     0.031 C 
ATOM     39  C   UNL A   1      39.203  26.754  28.825  1.00  0.00     0.029 A 
ATOM     40  N   UNL A   1      40.904  28.207  28.795  1.00  0.00    -0.354 N 
ATOM     41  C   UNL A   1      44.652  27.178  26.875  1.00  0.00     0.074 A 
ATOM     42  C   UNL A   1      44.590  25.857  26.288  1.00  0.00     0.031 C 
ATOM     43  C   UNL A   1      38.806  27.854  29.485  1.00  0.00     0.029 A 
ATOM     44  C   UNL A   1      39.909  28.810  29.525  1.00  0.00     0.049 A 
ATOM     45  H   UNL A   1      41.767  28.639  28.598  1.00  0.00     0.167 HD
ATOM     46  C   UNL A   1      45.733  27.991  26.819  1.00  0.00     0.034 A 
ATOM     47  C   UNL A   1      39.898  29.993  30.170  1.00  0.00     0.034 A 
ATOM     48  C   UNL A   1      45.771  29.318  27.372  1.00  0.00     0.049 A 
ATOM     49  C   UNL A   1      41.118  30.870  30.099  1.00  0.00     0.074 A 
ATOM     50  C   UNL A   1      46.801  30.240  27.327  1.00  0.00     0.029 A 
ATOM     51  N   UNL A   1      44.732  29.912  28.073  1.00  0.00    -0.354 N 
ATOM     52  N   UNL A   1      42.241  30.672  29.453  1.00  0.00    -0.248 NA
ATOM     53  C   UNL A   1      41.060  32.147  30.825  1.00  0.00     0.031 C 
ATOM     54  C   UNL A   1      46.391  31.386  28.017  1.00  0.00     0.029 A 
ATOM     55  C   UNL A   1      45.099  31.184  28.476  1.00  0.00     0.049 A 
ATOM     56  H   UNL A   1      43.861  29.490  28.257  1.00  0.00     0.167 HD
ATOM     57  C   UNL A   1      43.013  31.807  29.670  1.00  0.00     0.074 A 
ATOM     58  C   UNL A   1      42.219  32.700  30.490  1.00  0.00     0.031 C 
ATOM     59  C   UNL A   1      44.272  32.079  29.245  1.00  0.00     0.034 A 
BRANCH  46  60
ATOM     60  C   UNL A   1      46.956  27.475  26.113  1.00  0.00     0.023 A 
ATOM     61  C   UNL A   1      47.850  26.626  26.795  1.00  0.00     0.012 A 
ATOM     62  C   UNL A   1      47.199  27.793  24.762  1.00  0.00     0.148 A 
ATOM     63  C   UNL A   1      48.980  26.121  26.152  1.00  0.00     0.002 A 
ATOM     64  C   UNL A   1      48.309  27.257  24.117  1.00  0.00     0.091 A 
ATOM     65  F   UNL A   1      46.353  28.627  24.139  1.00  0.00    -0.205 F 
ATOM     66  C   UNL A   1      49.204  26.428  24.813  1.00  0.00     0.022 A 
BRANCH  64  67
ATOM     67  S   UNL A   1      48.642  27.544  22.376  1.00  0.00     0.127 S 
ATOM     68  O   UNL A   1      48.710  26.177  21.860  1.00  0.00    -0.237 OA
ATOM     69  O   UNL A   1      47.460  28.296  21.953  1.00  0.00    -0.237 OA
ATOM     70  O   UNL A   1      49.887  28.297  22.326  1.00  0.00    -0.744 OA
ENDBRANCH  64  67
ENDBRANCH  46  60
BRANCH  47  71
ATOM     71  C   UNL A   1      38.674  30.428  30.901  1.00  0.00     0.023 A 
ATOM     72  C   UNL A   1      38.570  30.179  32.283  1.00  0.00     0.012 A 
ATOM     73  C   UNL A   1      37.633  31.115  30.247  1.00  0.00     0.148 A 
ATOM     74  C   UNL A   1      37.443  30.588  32.996  1.00  0.00     0.002 A 
ATOM     75  C   UNL A   1      36.537  31.565  30.972  1.00  0.00     0.091 A 
ATOM     76  F   UNL A   1      37.740  31.322  28.926  1.00  0.00    -0.205 F 
ATOM     77  C   UNL A   1      36.433  31.292  32.345  1.00  0.00     0.022 A 
BRANCH  75  78
ATOM     78  S   UNL A   1      35.254  32.586  30.236  1.00  0.00     0.127 S 
ATOM     79  O   UNL A   1      34.333  32.762  31.356  1.00  0.00    -0.237 OA
ATOM     80  O   UNL A   1      35.999  33.788  29.857  1.00  0.00    -0.237 OA
ATOM     81  O   UNL A   1      34.745  31.818  29.108  1.00  0.00    -0.744 OA
ENDBRANCH  75  78
ENDBRANCH  47  71
BRANCH  59  82
ATOM     82  C   UNL A   1      44.866  33.405  29.638  1.00  0.00     0.023 A 
ATOM     83  C   UNL A   1      45.663  33.493  30.797  1.00  0.00     0.012 A 
ATOM     84  C   UNL A   1      44.703  34.541  28.821  1.00  0.00     0.148 A 
ATOM     85  C   UNL A   1      46.268  34.698  31.150  1.00  0.00     0.002 A 
ATOM     86  C   UNL A   1      45.346  35.727  29.156  1.00  0.00     0.091 A 
ATOM     87  F   UNL A   1      43.924  34.441  27.734  1.00  0.00    -0.205 F 
ATOM     88  C   UNL A   1      46.120  35.811  30.324  1.00  0.00     0.022 A 
BRANCH  86  89
ATOM     89  S   UNL A   1      45.284  37.179  28.099  1.00  0.00     0.127 S 
ATOM     90  O   UNL A   1      43.855  37.485  28.097  1.00  0.00    -0.237 OA
ATOM     91  O   UNL A   1      46.111  38.137  28.833  1.00  0.00    -0.237 OA
ATOM     92  O   UNL A   1      45.840  36.762  26.818  1.00  0.00    -0.744 OA
ENDBRANCH  86  89
ENDBRANCH  59  82
ENDBRANCH  33  34
ENDBRANCH  26  28
ENDBRANCH  25  26
ENDBRANCH  24  25
ENDBRANCH   1  24
TORSDOF 19
ENDMDL
MODEL 2
REMARK VINA RESULT:     -11.1      0.776      7.651
REMARK SMILES CC[NH2+][C@@H](CC(=O)Nc1ccc(C)c(C)c1)C(=O)OCCOC(=O)c1ccc(-c2c3nc(c(-c4cccc(S(=O)(=O)[O-])c4F)c4ccc([nH]4)c(-c4cccc(S(=O)(=O)[O-])c4F)c4nc(c(-c5cccc(S(=O)(=O)[O-])c5F)c5ccc2[nH]5)C=C4)C=C3)cc1
REMARK SMILES IDX 20 1 19 2 17 3 18 4 4 5 3 6 2 9 1 10 5 11 6 12 7 13 8 14
REMARK SMILES IDX 9 16 10 17 16 18 11 19 14 20 12 21 15 22 13 23 21 24 22 25
REMARK SMILES IDX 23 26 24 27 25 28 26 29 87 30 27 31 86 32 28 33 29 34 30 35
REMARK SMILES IDX 80 36 31 37 85 38 79 39 81 40 32 41 84 42 78 43 77 44 33 46
REMARK SMILES IDX 65 47 45 48 64 49 46 50 49 51 63 52 82 53 47 54 48 55 62 57
REMARK SMILES IDX 83 58 50 59 34 60 35 61 43 62 36 63 38 64 44 65 37 66 39 67
REMARK SMILES IDX 40 68 41 69 42 70 66 71 67 72 75 73 68 74 70 75 76 76 69 77
REMARK SMILES IDX 71 78 72 79 73 80 74 81 51 82 52 83 60 84 53 85 55 86 61 87
REMARK SMILES IDX 54 88 56 89 57 90 58 91 59 92
REMARK H PARENT 3 7 3 8 8 15 81 45 49 56
REMARK Flexibility Score: inf
ROOT
ATOM      1  C   UNL A   1      35.057  20.461  25.185  1.00  0.00     0.274 C 
ENDROOT
BRANCH   1   2
ATOM      2  O   UNL A   1      34.249  21.654  25.253  1.00  0.00    -0.458 OA
BRANCH   2   3
ATOM      3  C   UNL A   1      32.952  21.521  24.863  1.00  0.00     0.365 C 
ATOM      4  O   UNL A   1      32.343  20.455  24.831  1.00  0.00    -0.245 OA
BRANCH   3   5
ATOM      5  C   UNL A   1      32.301  22.855  24.457  1.00  0.00     0.302 C 
BRANCH   5   6
ATOM      6  N   UNL A   1      32.302  23.032  22.990  1.00  0.00    -0.334 N 
ATOM      7  H   UNL A   1      32.747  22.215  22.570  1.00  0.00     0.347 HD
ATOM      8  H   UNL A   1      31.328  23.143  22.709  1.00  0.00     0.347 HD
BRANCH   6   9
ATOM      9  C   UNL A   1      33.007  24.224  22.525  1.00  0.00     0.257 C 
ATOM     10  C   UNL A   1      32.037  25.343  22.174  1.00  0.00     0.071 C 
ENDBRANCH   6   9
ENDBRANCH   5   6
BRANCH   5  11
ATOM     11  C   UNL A   1      30.936  23.128  25.093  1.00  0.00     0.177 C 
BRANCH  11  12
ATOM     12  C   UNL A   1      30.880  23.773  26.466  1.00  0.00     0.231 C 
ATOM     13  O   UNL A   1      30.882  23.086  27.490  1.00  0.00    -0.274 OA
ATOM     14  N   UNL A   1      30.982  25.136  26.570  1.00  0.00    -0.326 N 
ATOM     15  H   UNL A   1      31.318  25.484  27.428  1.00  0.00     0.169 HD
BRANCH  14  16
ATOM     16  C   UNL A   1      30.663  26.088  25.598  1.00  0.00     0.041 A 
ATOM     17  C   UNL A   1      29.471  25.995  24.890  1.00  0.00     0.026 A 
ATOM     18  C   UNL A   1      31.493  27.191  25.411  1.00  0.00     0.029 A 
ATOM     19  C   UNL A   1      29.165  26.938  23.908  1.00  0.00     0.006 A 
ATOM     20  C   UNL A   1      31.199  28.152  24.423  1.00  0.00    -0.046 A 
ATOM     21  C   UNL A   1      30.035  28.004  23.640  1.00  0.00    -0.048 A 
ATOM     22  C   UNL A   1      32.157  29.300  24.254  1.00  0.00     0.044 C 
ATOM     23  C   UNL A   1      29.695  28.944  22.516  1.00  0.00     0.044 C 
ENDBRANCH  14  16
ENDBRANCH  11  12
ENDBRANCH   5  11
ENDBRANCH   3   5
ENDBRANCH   2   3
ENDBRANCH   1   2
BRANCH   1  24
ATOM     24  C   UNL A   1      36.501  20.776  24.793  1.00  0.00     0.275 C 
BRANCH  24  25
ATOM     25  O   UNL A   1      37.178  21.489  25.839  1.00  0.00    -0.458 OA
BRANCH  25  26
ATOM     26  C   UNL A   1      38.499  21.226  25.940  1.00  0.00     0.338 C 
ATOM     27  O   UNL A   1      39.086  20.218  25.559  1.00  0.00    -0.246 OA
BRANCH  26  28
ATOM     28  C   UNL A   1      39.187  22.404  26.482  1.00  0.00     0.060 A 
ATOM     29  C   UNL A   1      38.667  23.659  26.166  1.00  0.00     0.016 A 
ATOM     30  C   UNL A   1      40.359  22.292  27.230  1.00  0.00     0.016 A 
ATOM     31  C   UNL A   1      39.326  24.815  26.559  1.00  0.00     0.010 A 
ATOM     32  C   UNL A   1      41.018  23.456  27.639  1.00  0.00     0.010 A 
ATOM     33  C   UNL A   1      40.515  24.721  27.286  1.00  0.00    -0.014 A 
BRANCH  33  34
ATOM     34  C   UNL A   1      41.252  25.959  27.622  1.00  0.00     0.031 A 
ATOM     35  C   UNL A   1      40.581  27.024  28.440  1.00  0.00     0.074 A 
ATOM     36  C   UNL A   1      42.525  26.109  27.212  1.00  0.00     0.049 A 
ATOM     37  N   UNL A   1      41.038  28.190  28.809  1.00  0.00    -0.248 NA
ATOM     38  C   UNL A   1      39.213  26.738  28.903  1.00  0.00     0.031 C 
ATOM     39  C   UNL A   1      43.280  25.128  26.432  1.00  0.00     0.029 A 
ATOM     40  N   UNL A   1      43.401  27.150  27.382  1.00  0.00    -0.354 N 
ATOM     41  C   UNL A   1      40.004  28.796  29.511  1.00  0.00     0.074 A 
ATOM     42  C   UNL A   1      38.894  27.868  29.517  1.00  0.00     0.031 C 
ATOM     43  C   UNL A   1      44.503  25.620  26.177  1.00  0.00     0.029 A 
ATOM     44  C   UNL A   1      44.604  26.962  26.745  1.00  0.00     0.049 A 
ATOM     45  H   UNL A   1      43.189  27.954  27.909  1.00  0.00     0.167 HD
ATOM     46  C   UNL A   1      39.987  30.013  30.105  1.00  0.00     0.034 A 
ATOM     47  C   UNL A   1      45.660  27.788  26.619  1.00  0.00     0.034 A 
ATOM     48  C   UNL A   1      41.110  30.912  30.127  1.00  0.00     0.049 A 
ATOM     49  C   UNL A   1      45.610  29.138  27.280  1.00  0.00     0.074 A 
ATOM     50  C   UNL A   1      41.211  32.146  30.742  1.00  0.00     0.029 A 
ATOM     51  N   UNL A   1      42.326  30.674  29.504  1.00  0.00    -0.354 N 
ATOM     52  N   UNL A   1      44.663  29.658  28.024  1.00  0.00    -0.248 NA
ATOM     53  C   UNL A   1      46.783  30.007  27.107  1.00  0.00     0.031 C 
ATOM     54  C   UNL A   1      42.484  32.663  30.476  1.00  0.00     0.029 A 
ATOM     55  C   UNL A   1      43.180  31.743  29.709  1.00  0.00     0.049 A 
ATOM     56  H   UNL A   1      42.548  29.864  28.991  1.00  0.00     0.167 HD
ATOM     57  C   UNL A   1      45.135  30.900  28.431  1.00  0.00     0.074 A 
ATOM     58  C   UNL A   1      46.462  31.046  27.868  1.00  0.00     0.031 C 
ATOM     59  C   UNL A   1      44.519  31.844  29.187  1.00  0.00     0.034 A 
BRANCH  46  60
ATOM     60  C   UNL A   1      38.723  30.430  30.803  1.00  0.00     0.023 A 
ATOM     61  C   UNL A   1      38.562  30.159  32.176  1.00  0.00     0.012 A 
ATOM     62  C   UNL A   1      37.714  31.131  30.113  1.00  0.00     0.148 A 
ATOM     63  C   UNL A   1      37.405  30.555  32.847  1.00  0.00     0.002 A 
ATOM     64  C   UNL A   1      36.579  31.554  30.797  1.00  0.00     0.091 A 
ATOM     65  F   UNL A   1      37.872  31.354  28.800  1.00  0.00    -0.205 F 
ATOM     66  C   UNL A   1      36.420  31.260  32.161  1.00  0.00     0.022 A 
BRANCH  64  67
ATOM     67  S   UNL A   1      35.289  32.526  30.013  1.00  0.00     0.127 S 
ATOM     68  O   UNL A   1      34.344  32.706  31.114  1.00  0.00    -0.237 OA
ATOM     69  O   UNL A   1      36.007  33.740  29.622  1.00  0.00    -0.237 OA
ATOM     70  O   UNL A   1      34.807  31.724  28.896  1.00  0.00    -0.744 OA
ENDBRANCH  64  67
ENDBRANCH  46  60
BRANCH  47  71
ATOM     71  C   UNL A   1      46.867  27.341  25.867  1.00  0.00     0.023 A 
ATOM     72  C   UNL A   1      47.795  26.488  26.494  1.00  0.00     0.012 A 
ATOM     73  C   UNL A   1      47.082  27.725  24.529  1.00  0.00     0.148 A 
ATOM     74  C   UNL A   1      48.926  26.042  25.810  1.00  0.00     0.002 A 
ATOM     75  C   UNL A   1      48.182  27.235  23.836  1.00  0.00     0.091 A 
ATOM     76  F   UNL A   1      46.199  28.555  23.956  1.00  0.00    -0.205 F 
ATOM     77  C   UNL A   1      49.113  26.404  24.478  1.00  0.00     0.022 A 
BRANCH  75  78
ATOM     78  S   UNL A   1      48.431  27.551  22.084  1.00  0.00     0.127 S 
ATOM     79  O   UNL A   1      49.593  28.436  22.102  1.00  0.00    -0.237 OA
ATOM     80  O   UNL A   1      48.689  26.207  21.564  1.00  0.00    -0.237 OA
ATOM     81  O   UNL A   1      47.186  28.144  21.615  1.00  0.00    -0.744 OA
ENDBRANCH  75  78
ENDBRANCH  47  71
BRANCH  59  82
ATOM     82  C   UNL A   1      45.279  33.111  29.470  1.00  0.00     0.023 A 
ATOM     83  C   UNL A   1      46.128  33.176  30.594  1.00  0.00     0.012 A 
ATOM     84  C   UNL A   1      45.217  34.205  28.585  1.00  0.00     0.148 A 
ATOM     85  C   UNL A   1      46.882  34.320  30.845  1.00  0.00     0.002 A 
ATOM     86  C   UNL A   1      46.006  35.325  28.819  1.00  0.00     0.091 A 
ATOM     87  F   UNL A   1      44.387  34.132  27.534  1.00  0.00    -0.205 F 
ATOM     88  C   UNL A   1      46.832  35.389  29.953  1.00  0.00     0.022 A 
BRANCH  86  89
ATOM     89  S   UNL A   1      46.071  36.705  27.670  1.00  0.00     0.127 S 
ATOM     90  O   UNL A   1      46.968  36.192  26.636  1.00  0.00    -0.237 OA
ATOM     91  O   UNL A   1      44.673  36.834  27.255  1.00  0.00    -0.237 OA
ATOM     92  O   UNL A   1      46.576  37.837  28.436  1.00  0.00    -0.744 OA
ENDBRANCH  86  89
ENDBRANCH  59  82
ENDBRANCH  33  34
ENDBRANCH  26  28
ENDBRANCH  25  26
ENDBRANCH  24  25
ENDBRANCH   1  24
TORSDOF 19
ENDMDL
MODEL 3
REMARK VINA RESULT:     -11.0      1.099      1.948
REMARK SMILES CC[NH2+][C@@H](CC(=O)Nc1ccc(C)c(C)c1)C(=O)OCCOC(=O)c1ccc(-c2c3nc(c(-c4cccc(S(=O)(=O)[O-])c4F)c4ccc([nH]4)c(-c4cccc(S(=O)(=O)[O-])c4F)c4nc(c(-c5cccc(S(=O)(=O)[O-])c5F)c5ccc2[nH]5)C=C4)C=C3)cc1
REMARK SMILES IDX 20 1 19 2 17 3 18 4 4 5 3 6 2 9 1 10 5 11 6 12 7 13 8 14
REMARK SMILES IDX 9 16 10 17 16 18 11 19 14 20 12 21 15 22 13 23 21 24 22 25
REMARK SMILES IDX 23 26 24 27 25 28 26 29 87 30 27 31 86 32 28 33 29 34 30 35
REMARK SMILES IDX 80 36 31 37 85 38 79 39 81 40 32 41 84 42 78 43 77 44 33 46
REMARK SMILES IDX 65 47 45 48 64 49 46 50 49 51 63 52 82 53 47 54 48 55 62 57
REMARK SMILES IDX 83 58 50 59 34 60 35 61 43 62 36 63 38 64 44 65 37 66 39 67
REMARK SMILES IDX 40 68 41 69 42 70 66 71 67 72 75 73 68 74 70 75 76 76 69 77
REMARK SMILES IDX 71 78 72 79 73 80 74 81 51 82 52 83 60 84 53 85 55 86 61 87
REMARK SMILES IDX 54 88 56 89 57 90 58 91 59 92
REMARK H PARENT 3 7 3 8 8 15 81 45 49 56
REMARK Flexibility Score: inf
ROOT
ATOM      1  C   UNL A   1      35.816  20.539  24.975  1.00  0.00     0.274 C 
ENDROOT
BRANCH   1   2
ATOM      2  O   UNL A   1      35.158  21.510  25.814  1.00  0.00    -0.458 OA
BRANCH   2   3
ATOM      3  C   UNL A   1      34.017  21.094  26.429  1.00  0.00     0.365 C 
ATOM      4  O   UNL A   1      33.644  21.478  27.533  1.00  0.00    -0.245 OA
BRANCH   3   5
ATOM      5  C   UNL A   1      33.215  20.077  25.595  1.00  0.00     0.302 C 
BRANCH   5   6
ATOM      6  N   UNL A   1      32.840  18.896  26.401  1.00  0.00    -0.334 N 
ATOM      7  H   UNL A   1      33.495  18.820  27.180  1.00  0.00     0.347 HD
ATOM      8  H   UNL A   1      31.878  19.043  26.704  1.00  0.00     0.347 HD
BRANCH   6   9
ATOM      9  C   UNL A   1      32.856  17.634  25.666  1.00  0.00     0.257 C 
ATOM     10  C   UNL A   1      33.847  17.673  24.511  1.00  0.00     0.071 C 
ENDBRANCH   6   9
ENDBRANCH   5   6
BRANCH   5  11
ATOM     11  C   UNL A   1      32.040  20.667  24.812  1.00  0.00     0.177 C 
BRANCH  11  12
ATOM     12  C   UNL A   1      32.199  20.916  23.324  1.00  0.00     0.231 C 
ATOM     13  O   UNL A   1      32.475  19.995  22.552  1.00  0.00    -0.274 OA
ATOM     14  N   UNL A   1      31.882  22.149  22.814  1.00  0.00    -0.326 N 
ATOM     15  H   UNL A   1      31.630  22.176  21.862  1.00  0.00     0.169 HD
BRANCH  14  16
ATOM     16  C   UNL A   1      31.876  23.372  23.490  1.00  0.00     0.041 A 
ATOM     17  C   UNL A   1      30.687  24.068  23.668  1.00  0.00     0.026 A 
ATOM     18  C   UNL A   1      33.047  23.843  24.079  1.00  0.00     0.029 A 
ATOM     19  C   UNL A   1      30.688  25.297  24.329  1.00  0.00     0.006 A 
ATOM     20  C   UNL A   1      33.066  25.083  24.749  1.00  0.00    -0.046 A 
ATOM     21  C   UNL A   1      31.876  25.833  24.847  1.00  0.00    -0.048 A 
ATOM     22  C   UNL A   1      34.373  25.544  25.332  1.00  0.00     0.044 C 
ATOM     23  C   UNL A   1      31.833  27.198  25.477  1.00  0.00     0.044 C 
ENDBRANCH  14  16
ENDBRANCH  11  12
ENDBRANCH   5  11
ENDBRANCH   3   5
ENDBRANCH   2   3
ENDBRANCH   1   2
BRANCH   1  24
ATOM     24  C   UNL A   1      37.320  20.794  24.885  1.00  0.00     0.275 C 
BRANCH  24  25
ATOM     25  O   UNL A   1      37.875  21.084  26.177  1.00  0.00    -0.458 OA
BRANCH  25  26
ATOM     26  C   UNL A   1      39.223  21.036  26.239  1.00  0.00     0.338 C 
ATOM     27  O   UNL A   1      39.952  20.131  25.847  1.00  0.00    -0.246 OA
BRANCH  26  28
ATOM     28  C   UNL A   1      39.730  22.316  26.750  1.00  0.00     0.060 A 
ATOM     29  C   UNL A   1      39.178  23.485  26.227  1.00  0.00     0.016 A 
ATOM     30  C   UNL A   1      40.773  22.377  27.675  1.00  0.00     0.016 A 
ATOM     31  C   UNL A   1      39.682  24.727  26.590  1.00  0.00     0.010 A 
ATOM     32  C   UNL A   1      41.273  23.628  28.052  1.00  0.00     0.010 A 
ATOM     33  C   UNL A   1      40.743  24.806  27.494  1.00  0.00    -0.014 A 
BRANCH  33  34
ATOM     34  C   UNL A   1      41.327  26.129  27.804  1.00  0.00     0.031 A 
ATOM     35  C   UNL A   1      42.723  26.448  27.354  1.00  0.00     0.074 A 
ATOM     36  C   UNL A   1      40.594  27.042  28.467  1.00  0.00     0.049 A 
ATOM     37  N   UNL A   1      43.426  27.530  27.555  1.00  0.00    -0.248 NA
ATOM     38  C   UNL A   1      43.419  25.413  26.573  1.00  0.00     0.031 C 
ATOM     39  C   UNL A   1      39.220  26.844  28.931  1.00  0.00     0.029 A 
ATOM     40  N   UNL A   1      40.907  28.312  28.878  1.00  0.00    -0.354 N 
ATOM     41  C   UNL A   1      44.662  27.293  26.966  1.00  0.00     0.074 A 
ATOM     42  C   UNL A   1      44.612  25.964  26.397  1.00  0.00     0.031 C 
ATOM     43  C   UNL A   1      38.814  27.949  29.577  1.00  0.00     0.029 A 
ATOM     44  C   UNL A   1      39.908  28.916  29.601  1.00  0.00     0.049 A 
ATOM     45  H   UNL A   1      41.766  28.749  28.674  1.00  0.00     0.167 HD
ATOM     46  C   UNL A   1      45.735  28.115  26.897  1.00  0.00     0.034 A 
ATOM     47  C   UNL A   1      39.886  30.107  30.230  1.00  0.00     0.034 A 
ATOM     48  C   UNL A   1      45.761  29.450  27.431  1.00  0.00     0.049 A 
ATOM     49  C   UNL A   1      41.097  30.995  30.145  1.00  0.00     0.074 A 
ATOM     50  C   UNL A   1      46.782  30.381  27.372  1.00  0.00     0.029 A 
ATOM     51  N   UNL A   1      44.717  30.044  28.126  1.00  0.00    -0.354 N 
ATOM     52  N   UNL A   1      42.221  30.799  29.500  1.00  0.00    -0.248 NA
ATOM     53  C   UNL A   1      41.028  32.282  30.854  1.00  0.00     0.031 C 
ATOM     54  C   UNL A   1      46.362  31.533  28.046  1.00  0.00     0.029 A 
ATOM     55  C   UNL A   1      45.073  31.325  28.511  1.00  0.00     0.049 A 
ATOM     56  H   UNL A   1      43.851  29.617  28.317  1.00  0.00     0.167 HD
ATOM     57  C   UNL A   1      42.983  31.944  29.699  1.00  0.00     0.074 A 
ATOM     58  C   UNL A   1      42.181  32.840  30.508  1.00  0.00     0.031 C 
ATOM     59  C   UNL A   1      44.239  32.223  29.269  1.00  0.00     0.034 A 
BRANCH  46  60
ATOM     60  C   UNL A   1      46.962  27.602  26.195  1.00  0.00     0.023 A 
ATOM     61  C   UNL A   1      47.880  26.796  26.897  1.00  0.00     0.012 A 
ATOM     62  C   UNL A   1      47.184  27.879  24.832  1.00  0.00     0.148 A 
ATOM     63  C   UNL A   1      49.015  26.293  26.260  1.00  0.00     0.002 A 
ATOM     64  C   UNL A   1      48.299  27.344  24.194  1.00  0.00     0.091 A 
ATOM     65  F   UNL A   1      46.314  28.672  24.190  1.00  0.00    -0.205 F 
ATOM     66  C   UNL A   1      49.218  26.559  24.908  1.00  0.00     0.022 A 
BRANCH  64  67
ATOM     67  S   UNL A   1      48.608  27.578  22.441  1.00  0.00     0.127 S 
ATOM     68  O   UNL A   1      48.691  26.196  21.969  1.00  0.00    -0.237 OA
ATOM     69  O   UNL A   1      47.410  28.298  22.007  1.00  0.00    -0.237 OA
ATOM     70  O   UNL A   1      49.842  28.348  22.351  1.00  0.00    -0.744 OA
ENDBRANCH  64  67
ENDBRANCH  46  60
BRANCH  47  71
ATOM     71  C   UNL A   1      38.660  30.540  30.958  1.00  0.00     0.023 A 
ATOM     72  C   UNL A   1      38.554  30.296  32.340  1.00  0.00     0.012 A 
ATOM     73  C   UNL A   1      37.617  31.221  30.299  1.00  0.00     0.148 A 
ATOM     74  C   UNL A   1      37.424  30.703  33.049  1.00  0.00     0.002 A 
ATOM     75  C   UNL A   1      36.518  31.671  31.020  1.00  0.00     0.091 A 
ATOM     76  F   UNL A   1      37.726  31.425  28.977  1.00  0.00    -0.205 F 
ATOM     77  C   UNL A   1      36.412  31.401  32.393  1.00  0.00     0.022 A 
BRANCH  75  78
ATOM     78  S   UNL A   1      35.233  32.684  30.279  1.00  0.00     0.127 S 
ATOM     79  O   UNL A   1      35.988  33.859  29.852  1.00  0.00    -0.237 OA
ATOM     80  O   UNL A   1      34.759  31.828  29.189  1.00  0.00    -0.237 OA
ATOM     81  O   UNL A   1      34.254  32.905  31.334  1.00  0.00    -0.744 OA
ENDBRANCH  75  78
ENDBRANCH  47  71
BRANCH  59  82
ATOM     82  C   UNL A   1      44.821  33.559  29.642  1.00  0.00     0.023 A 
ATOM     83  C   UNL A   1      45.568  33.684  30.831  1.00  0.00     0.012 A 
ATOM     84  C   UNL A   1      44.697  34.668  28.782  1.00  0.00     0.148 A 
ATOM     85  C   UNL A   1      46.161  34.898  31.169  1.00  0.00     0.002 A 
ATOM     86  C   UNL A   1      45.329  35.863  29.104  1.00  0.00     0.091 A 
ATOM     87  F   UNL A   1      43.964  34.534  27.666  1.00  0.00    -0.205 F 
ATOM     88  C   UNL A   1      46.053  35.983  30.301  1.00  0.00     0.022 A 
BRANCH  86  89
ATOM     89  S   UNL A   1      45.317  37.279  27.998  1.00  0.00     0.127 S 
ATOM     90  O   UNL A   1      46.286  38.166  28.639  1.00  0.00    -0.237 OA
ATOM     91  O   UNL A   1      45.770  36.694  26.735  1.00  0.00    -0.237 OA
ATOM     92  O   UNL A   1      43.941  37.757  27.979  1.00  0.00    -0.744 OA
ENDBRANCH  86  89
ENDBRANCH  59  82
ENDBRANCH  33  34
ENDBRANCH  26  28
ENDBRANCH  25  26
ENDBRANCH  24  25
ENDBRANCH   1  24
TORSDOF 19
ENDMDL
