MODEL 1
REMARK VINA RESULT:     -10.0      0.000      0.000
REMARK SMILES CCn1cnc(S(=O)(=O)N[C@H](CC(C)C)C(=O)OCCOC(=O)c2ccc(-c3c4nc(c(-c5cccc(S(=O)(=O)[O-])c5F)c5ccc([nH]5)c(-c5cccc(S(=O)(=O)[O-])c5F)c5nc(c(-c6cccc(S(=O)(=O)[O-])c6F)c6ccc3[nH]6)C=C5)C=C4)cc2)c1
REMARK SMILES IDX 19 1 18 2 16 3 17 4 11 5 10 6 7 8 8 9 9 10 6 11 3 12 4 13
REMARK SMILES IDX 87 14 5 15 2 16 1 17 12 18 13 19 14 20 15 21 20 22 21 23
REMARK SMILES IDX 22 24 23 25 24 26 25 27 86 28 26 29 85 30 27 31 28 32 29 33
REMARK SMILES IDX 79 34 30 35 84 36 78 37 80 38 31 39 83 40 77 41 76 42 32 44
REMARK SMILES IDX 64 45 44 46 63 47 45 48 48 49 62 50 81 51 46 52 47 53 61 55
REMARK SMILES IDX 82 56 49 57 33 58 34 59 42 60 35 61 37 62 43 63 36 64 38 65
REMARK SMILES IDX 39 66 40 67 41 68 65 69 66 70 74 71 67 72 69 73 75 74 68 75
REMARK SMILES IDX 70 76 71 77 72 78 73 79 50 80 51 81 59 82 52 83 54 84 60 85
REMARK SMILES IDX 53 86 55 87 56 88 57 89 58 90
REMARK H PARENT 10 7 80 43 48 54
REMARK Flexibility Score: inf
ROOT
ATOM      1  C   UNL A   1      32.359  30.259  26.277  1.00  0.00     0.274 C 
ENDROOT
BRANCH   1   2
ATOM      2  O   UNL A   1      32.892  29.014  26.773  1.00  0.00    -0.461 OA
BRANCH   2   3
ATOM      3  C   UNL A   1      31.964  28.053  27.030  1.00  0.00     0.324 C 
ATOM      4  O   UNL A   1      31.231  28.022  28.014  1.00  0.00    -0.250 OA
BRANCH   3   5
ATOM      5  C   UNL A   1      31.972  26.932  26.002  1.00  0.00     0.180 C 
BRANCH   5   6
ATOM      6  N   UNL A   1      30.854  27.025  25.027  1.00  0.00    -0.195 NA
ATOM      7  H   UNL A   1      30.415  26.106  24.978  1.00  0.00     0.142 HD
BRANCH   6   8
ATOM      8  S   UNL A   1      31.231  27.495  23.434  1.00  0.00     0.260 S 
ATOM      9  O   UNL A   1      30.851  26.396  22.572  1.00  0.00    -0.205 OA
ATOM     10  O   UNL A   1      32.600  27.960  23.486  1.00  0.00    -0.205 OA
BRANCH   8  11
ATOM     11  C   UNL A   1      30.300  28.888  22.957  1.00  0.00     0.188 A 
ATOM     12  N   UNL A   1      29.232  30.796  22.981  1.00  0.00    -0.336 N 
ATOM     13  C   UNL A   1      29.237  30.280  21.716  1.00  0.00     0.201 A 
ATOM     14  C   UNL A   1      29.931  29.935  23.781  1.00  0.00     0.129 A 
ATOM     15  N   UNL A   1      29.876  29.133  21.662  1.00  0.00    -0.224 NA
BRANCH  12  16
ATOM     16  C   UNL A   1      28.685  32.070  23.404  1.00  0.00     0.120 C 
ATOM     17  C   UNL A   1      28.328  33.022  22.276  1.00  0.00     0.027 C 
ENDBRANCH  12  16
ENDBRANCH   8  11
ENDBRANCH   6   8
ENDBRANCH   5   6
BRANCH   5  18
ATOM     18  C   UNL A   1      32.123  25.493  26.542  1.00  0.00     0.035 C 
BRANCH  18  19
ATOM     19  C   UNL A   1      33.082  24.517  25.827  1.00  0.00    -0.015 C 
ATOM     20  C   UNL A   1      32.491  23.960  24.525  1.00  0.00     0.007 C 
ATOM     21  C   UNL A   1      34.383  25.253  25.469  1.00  0.00     0.007 C 
ENDBRANCH  18  19
ENDBRANCH   5  18
ENDBRANCH   3   5
ENDBRANCH   2   3
ENDBRANCH   1   2
BRANCH   1  22
ATOM     22  C   UNL A   1      32.280  31.338  27.352  1.00  0.00     0.275 C 
BRANCH  22  23
ATOM     23  O   UNL A   1      32.846  32.571  26.913  1.00  0.00    -0.458 OA
BRANCH  23  24
ATOM     24  C   UNL A   1      32.979  33.510  27.874  1.00  0.00     0.338 C 
ATOM     25  O   UNL A   1      32.201  34.416  28.124  1.00  0.00    -0.246 OA
BRANCH  24  26
ATOM     26  C   UNL A   1      34.297  33.408  28.499  1.00  0.00     0.060 A 
ATOM     27  C   UNL A   1      35.395  33.841  27.749  1.00  0.00     0.016 A 
ATOM     28  C   UNL A   1      34.443  32.658  29.672  1.00  0.00     0.016 A 
ATOM     29  C   UNL A   1      36.646  33.374  28.086  1.00  0.00     0.010 A 
ATOM     30  C   UNL A   1      35.689  32.182  29.999  1.00  0.00     0.010 A 
ATOM     31  C   UNL A   1      36.760  32.488  29.163  1.00  0.00    -0.014 A 
BRANCH  31  32
ATOM     32  C   UNL A   1      38.074  31.972  29.484  1.00  0.00     0.031 A 
ATOM     33  C   UNL A   1      38.220  30.543  29.137  1.00  0.00     0.074 A 
ATOM     34  C   UNL A   1      39.069  32.772  29.910  1.00  0.00     0.049 A 
ATOM     35  N   UNL A   1      38.393  29.547  29.942  1.00  0.00    -0.248 NA
ATOM     36  C   UNL A   1      37.960  30.153  27.740  1.00  0.00     0.031 C 
ATOM     37  C   UNL A   1      39.052  34.238  29.979  1.00  0.00     0.029 A 
ATOM     38  N   UNL A   1      40.358  32.460  30.220  1.00  0.00    -0.354 N 
ATOM     39  C   UNL A   1      38.545  28.445  29.106  1.00  0.00     0.074 A 
ATOM     40  C   UNL A   1      38.041  28.826  27.815  1.00  0.00     0.031 C 
ATOM     41  C   UNL A   1      40.322  34.692  30.057  1.00  0.00     0.029 A 
ATOM     42  C   UNL A   1      41.218  33.555  30.176  1.00  0.00     0.049 A 
ATOM     43  H   UNL A   1      40.654  31.550  30.451  1.00  0.00     0.167 HD
ATOM     44  C   UNL A   1      39.391  27.436  29.439  1.00  0.00     0.034 A 
ATOM     45  C   UNL A   1      42.571  33.514  30.152  1.00  0.00     0.034 A 
ATOM     46  C   UNL A   1      39.727  27.459  30.836  1.00  0.00     0.049 A 
ATOM     47  C   UNL A   1      42.983  32.189  30.661  1.00  0.00     0.074 A 
ATOM     48  C   UNL A   1      39.042  27.323  32.024  1.00  0.00     0.029 A 
ATOM     49  N   UNL A   1      40.926  28.056  31.125  1.00  0.00    -0.354 N 
ATOM     50  N   UNL A   1      42.821  31.805  31.896  1.00  0.00    -0.248 NA
ATOM     51  C   UNL A   1      43.294  31.128  29.713  1.00  0.00     0.031 C 
ATOM     52  C   UNL A   1      39.741  28.136  32.964  1.00  0.00     0.029 A 
ATOM     53  C   UNL A   1      40.845  28.706  32.326  1.00  0.00     0.049 A 
ATOM     54  H   UNL A   1      41.727  28.022  30.553  1.00  0.00     0.167 HD
ATOM     55  C   UNL A   1      42.546  30.452  31.796  1.00  0.00     0.074 A 
ATOM     56  C   UNL A   1      43.040  30.065  30.480  1.00  0.00     0.031 C 
ATOM     57  C   UNL A   1      41.665  29.856  32.653  1.00  0.00     0.034 A 
BRANCH  44  58
ATOM     58  C   UNL A   1      40.267  26.729  28.431  1.00  0.00     0.023 A 
ATOM     59  C   UNL A   1      40.326  25.322  28.485  1.00  0.00     0.012 A 
ATOM     60  C   UNL A   1      41.234  27.380  27.627  1.00  0.00     0.148 A 
ATOM     61  C   UNL A   1      41.300  24.604  27.780  1.00  0.00     0.002 A 
ATOM     62  C   UNL A   1      42.128  26.660  26.848  1.00  0.00     0.091 A 
ATOM     63  F   UNL A   1      41.406  28.702  27.723  1.00  0.00    -0.205 F 
ATOM     64  C   UNL A   1      42.187  25.271  26.941  1.00  0.00     0.022 A 
BRANCH  62  65
ATOM     65  S   UNL A   1      43.232  27.487  25.697  1.00  0.00     0.127 S 
ATOM     66  O   UNL A   1      43.957  28.391  26.582  1.00  0.00    -0.237 OA
ATOM     67  O   UNL A   1      44.013  26.364  25.176  1.00  0.00    -0.237 OA
ATOM     68  O   UNL A   1      42.360  28.110  24.709  1.00  0.00    -0.744 OA
ENDBRANCH  62  65
ENDBRANCH  44  58
BRANCH  45  69
ATOM     69  C   UNL A   1      43.550  34.437  29.535  1.00  0.00     0.023 A 
ATOM     70  C   UNL A   1      44.257  35.342  30.354  1.00  0.00     0.012 A 
ATOM     71  C   UNL A   1      44.007  34.238  28.213  1.00  0.00     0.148 A 
ATOM     72  C   UNL A   1      45.410  35.986  29.892  1.00  0.00     0.002 A 
ATOM     73  C   UNL A   1      45.150  34.887  27.756  1.00  0.00     0.091 A 
ATOM     74  F   UNL A   1      43.376  33.343  27.441  1.00  0.00    -0.205 F 
ATOM     75  C   UNL A   1      45.863  35.748  28.598  1.00  0.00     0.022 A 
BRANCH  73  76
ATOM     76  S   UNL A   1      45.812  34.614  26.106  1.00  0.00     0.127 S 
ATOM     77  O   UNL A   1      44.622  34.780  25.271  1.00  0.00    -0.237 OA
ATOM     78  O   UNL A   1      46.792  35.691  25.994  1.00  0.00    -0.237 OA
ATOM     79  O   UNL A   1      46.354  33.261  26.114  1.00  0.00    -0.744 OA
ENDBRANCH  73  76
ENDBRANCH  45  69
BRANCH  57  80
ATOM     80  C   UNL A   1      41.364  30.575  33.944  1.00  0.00     0.023 A 
ATOM     81  C   UNL A   1      42.251  30.590  35.040  1.00  0.00     0.012 A 
ATOM     82  C   UNL A   1      40.187  31.340  34.015  1.00  0.00     0.148 A 
ATOM     83  C   UNL A   1      41.951  31.316  36.194  1.00  0.00     0.002 A 
ATOM     84  C   UNL A   1      39.917  32.102  35.144  1.00  0.00     0.091 A 
ATOM     85  F   UNL A   1      39.350  31.318  32.967  1.00  0.00    -0.205 F 
ATOM     86  C   UNL A   1      40.789  32.082  36.243  1.00  0.00     0.022 A 
BRANCH  84  87
ATOM     87  S   UNL A   1      38.499  33.199  35.208  1.00  0.00     0.127 S 
ATOM     88  O   UNL A   1      38.661  33.983  33.985  1.00  0.00    -0.237 OA
ATOM     89  O   UNL A   1      37.373  32.264  35.190  1.00  0.00    -0.237 OA
ATOM     90  O   UNL A   1      38.630  33.941  36.456  1.00  0.00    -0.744 OA
ENDBRANCH  84  87
ENDBRANCH  57  80
ENDBRANCH  31  32
ENDBRANCH  24  26
ENDBRANCH  23  24
ENDBRANCH  22  23
ENDBRANCH   1  22
TORSDOF 20
ENDMDL
MODEL 2
REMARK VINA RESULT:      -9.9      3.842      7.955
REMARK SMILES CCn1cnc(S(=O)(=O)N[C@H](CC(C)C)C(=O)OCCOC(=O)c2ccc(-c3c4nc(c(-c5cccc(S(=O)(=O)[O-])c5F)c5ccc([nH]5)c(-c5cccc(S(=O)(=O)[O-])c5F)c5nc(c(-c6cccc(S(=O)(=O)[O-])c6F)c6ccc3[nH]6)C=C5)C=C4)cc2)c1
REMARK SMILES IDX 19 1 18 2 16 3 17 4 11 5 10 6 7 8 8 9 9 10 6 11 3 12 4 13
REMARK SMILES IDX 87 14 5 15 2 16 1 17 12 18 13 19 14 20 15 21 20 22 21 23
REMARK SMILES IDX 22 24 23 25 24 26 25 27 86 28 26 29 85 30 27 31 28 32 29 33
REMARK SMILES IDX 79 34 30 35 84 36 78 37 80 38 31 39 83 40 77 41 76 42 32 44
REMARK SMILES IDX 64 45 44 46 63 47 45 48 48 49 62 50 81 51 46 52 47 53 61 55
REMARK SMILES IDX 82 56 49 57 33 58 34 59 42 60 35 61 37 62 43 63 36 64 38 65
REMARK SMILES IDX 39 66 40 67 41 68 65 69 66 70 74 71 67 72 69 73 75 74 68 75
REMARK SMILES IDX 70 76 71 77 72 78 73 79 50 80 51 81 59 82 52 83 54 84 60 85
REMARK SMILES IDX 53 86 55 87 56 88 57 89 58 90
REMARK H PARENT 10 7 80 43 48 54
REMARK Flexibility Score: inf
ROOT
ATOM      1  C   UNL A   1      32.916  29.667  27.336  1.00  0.00     0.274 C 
ENDROOT
BRANCH   1   2
ATOM      2  O   UNL A   1      32.798  28.233  27.243  1.00  0.00    -0.461 OA
BRANCH   2   3
ATOM      3  C   UNL A   1      32.213  27.777  26.103  1.00  0.00     0.324 C 
ATOM      4  O   UNL A   1      31.484  28.438  25.369  1.00  0.00    -0.250 OA
BRANCH   3   5
ATOM      5  C   UNL A   1      32.477  26.300  25.852  1.00  0.00     0.180 C 
BRANCH   5   6
ATOM      6  N   UNL A   1      31.737  25.409  26.783  1.00  0.00    -0.195 NA
ATOM      7  H   UNL A   1      32.419  24.782  27.211  1.00  0.00     0.142 HD
BRANCH   6   8
ATOM      8  S   UNL A   1      30.495  24.442  26.133  1.00  0.00     0.260 S 
ATOM      9  O   UNL A   1      29.614  25.327  25.403  1.00  0.00    -0.205 OA
ATOM     10  O   UNL A   1      30.004  23.653  27.242  1.00  0.00    -0.205 OA
BRANCH   8  11
ATOM     11  C   UNL A   1      31.134  23.281  25.003  1.00  0.00     0.188 A 
ATOM     12  N   UNL A   1      32.061  21.500  24.135  1.00  0.00    -0.336 N 
ATOM     13  C   UNL A   1      31.622  22.328  23.141  1.00  0.00     0.201 A 
ATOM     14  C   UNL A   1      31.732  22.077  25.330  1.00  0.00     0.129 A 
ATOM     15  N   UNL A   1      31.053  23.409  23.626  1.00  0.00    -0.224 NA
BRANCH  12  16
ATOM     16  C   UNL A   1      32.671  20.194  23.980  1.00  0.00     0.120 C 
ATOM     17  C   UNL A   1      33.858  19.928  24.888  1.00  0.00     0.027 C 
ENDBRANCH  12  16
ENDBRANCH   8  11
ENDBRANCH   6   8
ENDBRANCH   5   6
BRANCH   5  18
ATOM     18  C   UNL A   1      33.954  25.869  25.722  1.00  0.00     0.035 C 
BRANCH  18  19
ATOM     19  C   UNL A   1      34.496  25.446  24.340  1.00  0.00    -0.015 C 
ATOM     20  C   UNL A   1      34.767  23.939  24.250  1.00  0.00     0.007 C 
ATOM     21  C   UNL A   1      33.461  25.797  23.258  1.00  0.00     0.007 C 
ENDBRANCH  18  19
ENDBRANCH   5  18
ENDBRANCH   3   5
ENDBRANCH   2   3
ENDBRANCH   1   2
BRANCH   1  22
ATOM     22  C   UNL A   1      34.360  30.149  27.243  1.00  0.00     0.275 C 
BRANCH  22  23
ATOM     23  O   UNL A   1      34.885  30.514  28.517  1.00  0.00    -0.458 OA
BRANCH  23  24
ATOM     24  C   UNL A   1      35.961  31.329  28.477  1.00  0.00     0.338 C 
ATOM     25  O   UNL A   1      36.079  32.353  27.824  1.00  0.00    -0.246 OA
BRANCH  24  26
ATOM     26  C   UNL A   1      37.074  30.731  29.212  1.00  0.00     0.060 A 
ATOM     27  C   UNL A   1      38.228  31.507  29.365  1.00  0.00     0.016 A 
ATOM     28  C   UNL A   1      37.056  29.359  29.489  1.00  0.00     0.016 A 
ATOM     29  C   UNL A   1      39.418  30.869  29.638  1.00  0.00     0.010 A 
ATOM     30  C   UNL A   1      38.245  28.722  29.747  1.00  0.00     0.010 A 
ATOM     31  C   UNL A   1      39.417  29.475  29.748  1.00  0.00    -0.014 A 
BRANCH  31  32
ATOM     32  C   UNL A   1      40.679  28.811  29.996  1.00  0.00     0.031 A 
ATOM     33  C   UNL A   1      41.067  28.848  31.422  1.00  0.00     0.074 A 
ATOM     34  C   UNL A   1      41.322  28.121  29.036  1.00  0.00     0.049 A 
ATOM     35  N   UNL A   1      42.075  29.457  31.952  1.00  0.00    -0.248 NA
ATOM     36  C   UNL A   1      40.115  28.291  32.399  1.00  0.00     0.031 C 
ATOM     37  C   UNL A   1      40.822  27.809  27.691  1.00  0.00     0.029 A 
ATOM     38  N   UNL A   1      42.487  27.417  29.107  1.00  0.00    -0.354 N 
ATOM     39  C   UNL A   1      42.024  29.110  33.299  1.00  0.00     0.074 A 
ATOM     40  C   UNL A   1      40.701  28.608  33.551  1.00  0.00     0.031 C 
ATOM     41  C   UNL A   1      41.542  26.787  27.179  1.00  0.00     0.029 A 
ATOM     42  C   UNL A   1      42.622  26.470  28.096  1.00  0.00     0.049 A 
ATOM     43  H   UNL A   1      43.165  27.564  29.805  1.00  0.00     0.167 HD
ATOM     44  C   UNL A   1      43.167  28.929  34.011  1.00  0.00     0.034 A 
ATOM     45  C   UNL A   1      43.509  25.447  28.066  1.00  0.00     0.034 A 
ATOM     46  C   UNL A   1      44.302  29.521  33.357  1.00  0.00     0.049 A 
ATOM     47  C   UNL A   1      44.599  25.779  29.009  1.00  0.00     0.074 A 
ATOM     48  C   UNL A   1      44.688  30.793  32.997  1.00  0.00     0.029 A 
ATOM     49  N   UNL A   1      45.062  28.645  32.628  1.00  0.00    -0.354 N 
ATOM     50  N   UNL A   1      45.448  26.749  28.820  1.00  0.00    -0.248 NA
ATOM     51  C   UNL A   1      44.563  25.233  30.358  1.00  0.00     0.031 C 
ATOM     52  C   UNL A   1      45.471  30.636  31.816  1.00  0.00     0.029 A 
ATOM     53  C   UNL A   1      45.566  29.274  31.523  1.00  0.00     0.049 A 
ATOM     54  H   UNL A   1      45.222  27.702  32.864  1.00  0.00     0.167 HD
ATOM     55  C   UNL A   1      45.696  27.234  30.093  1.00  0.00     0.074 A 
ATOM     56  C   UNL A   1      45.291  26.157  30.990  1.00  0.00     0.031 C 
ATOM     57  C   UNL A   1      45.901  28.567  30.302  1.00  0.00     0.034 A 
BRANCH  44  58
ATOM     58  C   UNL A   1      43.333  27.832  35.037  1.00  0.00     0.023 A 
ATOM     59  C   UNL A   1      43.640  28.212  36.359  1.00  0.00     0.012 A 
ATOM     60  C   UNL A   1      43.476  26.461  34.716  1.00  0.00     0.148 A 
ATOM     61  C   UNL A   1      44.070  27.276  37.307  1.00  0.00     0.002 A 
ATOM     62  C   UNL A   1      43.799  25.522  35.684  1.00  0.00     0.091 A 
ATOM     63  F   UNL A   1      43.454  26.065  33.439  1.00  0.00    -0.205 F 
ATOM     64  C   UNL A   1      44.126  25.925  36.978  1.00  0.00     0.022 A 
BRANCH  62  65
ATOM     65  S   UNL A   1      43.804  23.765  35.311  1.00  0.00     0.127 S 
ATOM     66  O   UNL A   1      44.491  23.218  36.476  1.00  0.00    -0.237 OA
ATOM     67  O   UNL A   1      42.372  23.472  35.237  1.00  0.00    -0.237 OA
ATOM     68  O   UNL A   1      44.499  23.647  34.035  1.00  0.00    -0.744 OA
ENDBRANCH  62  65
ENDBRANCH  44  58
BRANCH  45  69
ATOM     69  C   UNL A   1      43.407  24.103  27.454  1.00  0.00     0.023 A 
ATOM     70  C   UNL A   1      42.203  23.379  27.576  1.00  0.00     0.012 A 
ATOM     71  C   UNL A   1      44.361  23.657  26.514  1.00  0.00     0.148 A 
ATOM     72  C   UNL A   1      41.935  22.280  26.752  1.00  0.00     0.002 A 
ATOM     73  C   UNL A   1      44.093  22.558  25.703  1.00  0.00     0.091 A 
ATOM     74  F   UNL A   1      45.488  24.364  26.352  1.00  0.00    -0.205 F 
ATOM     75  C   UNL A   1      42.874  21.877  25.807  1.00  0.00     0.022 A 
BRANCH  73  76
ATOM     76  S   UNL A   1      45.245  21.992  24.443  1.00  0.00     0.127 S 
ATOM     77  O   UNL A   1      44.517  20.869  23.851  1.00  0.00    -0.237 OA
ATOM     78  O   UNL A   1      45.355  23.169  23.586  1.00  0.00    -0.237 OA
ATOM     79  O   UNL A   1      46.457  21.610  25.156  1.00  0.00    -0.744 OA
ENDBRANCH  73  76
ENDBRANCH  45  69
BRANCH  57  80
ATOM     80  C   UNL A   1      46.295  29.401  29.108  1.00  0.00     0.023 A 
ATOM     81  C   UNL A   1      47.586  29.371  28.543  1.00  0.00     0.012 A 
ATOM     82  C   UNL A   1      45.298  30.165  28.478  1.00  0.00     0.148 A 
ATOM     83  C   UNL A   1      47.887  30.120  27.403  1.00  0.00     0.002 A 
ATOM     84  C   UNL A   1      45.586  30.867  27.315  1.00  0.00     0.091 A 
ATOM     85  F   UNL A   1      44.073  30.187  29.024  1.00  0.00    -0.205 F 
ATOM     86  C   UNL A   1      46.884  30.860  26.781  1.00  0.00     0.022 A 
BRANCH  84  87
ATOM     87  S   UNL A   1      44.303  31.734  26.410  1.00  0.00     0.127 S 
ATOM     88  O   UNL A   1      43.876  32.745  27.374  1.00  0.00    -0.237 OA
ATOM     89  O   UNL A   1      45.030  32.260  25.254  1.00  0.00    -0.237 OA
ATOM     90  O   UNL A   1      43.308  30.724  26.071  1.00  0.00    -0.744 OA
ENDBRANCH  84  87
ENDBRANCH  57  80
ENDBRANCH  31  32
ENDBRANCH  24  26
ENDBRANCH  23  24
ENDBRANCH  22  23
ENDBRANCH   1  22
TORSDOF 20
ENDMDL
MODEL 3
REMARK VINA RESULT:      -9.8      4.884      9.509
REMARK SMILES CCn1cnc(S(=O)(=O)N[C@H](CC(C)C)C(=O)OCCOC(=O)c2ccc(-c3c4nc(c(-c5cccc(S(=O)(=O)[O-])c5F)c5ccc([nH]5)c(-c5cccc(S(=O)(=O)[O-])c5F)c5nc(c(-c6cccc(S(=O)(=O)[O-])c6F)c6ccc3[nH]6)C=C5)C=C4)cc2)c1
REMARK SMILES IDX 19 1 18 2 16 3 17 4 11 5 10 6 7 8 8 9 9 10 6 11 3 12 4 13
REMARK SMILES IDX 87 14 5 15 2 16 1 17 12 18 13 19 14 20 15 21 20 22 21 23
REMARK SMILES IDX 22 24 23 25 24 26 25 27 86 28 26 29 85 30 27 31 28 32 29 33
REMARK SMILES IDX 79 34 30 35 84 36 78 37 80 38 31 39 83 40 77 41 76 42 32 44
REMARK SMILES IDX 64 45 44 46 63 47 45 48 48 49 62 50 81 51 46 52 47 53 61 55
REMARK SMILES IDX 82 56 49 57 33 58 34 59 42 60 35 61 37 62 43 63 36 64 38 65
REMARK SMILES IDX 39 66 40 67 41 68 65 69 66 70 74 71 67 72 69 73 75 74 68 75
REMARK SMILES IDX 70 76 71 77 72 78 73 79 50 80 51 81 59 82 52 83 54 84 60 85
REMARK SMILES IDX 53 86 55 87 56 88 57 89 58 90
REMARK H PARENT 10 7 80 43 48 54
REMARK Flexibility Score: inf
ROOT
ATOM      1  C   UNL A   1      37.209  21.935  25.114  1.00  0.00     0.274 C 
ENDROOT
BRANCH   1   2
ATOM      2  O   UNL A   1      36.195  22.507  25.966  1.00  0.00    -0.461 OA
BRANCH   2   3
ATOM      3  C   UNL A   1      35.075  21.750  26.114  1.00  0.00     0.324 C 
ATOM      4  O   UNL A   1      34.570  21.436  27.188  1.00  0.00    -0.250 OA
BRANCH   3   5
ATOM      5  C   UNL A   1      34.532  21.231  24.791  1.00  0.00     0.180 C 
BRANCH   5   6
ATOM      6  N   UNL A   1      33.355  21.996  24.303  1.00  0.00    -0.195 NA
ATOM      7  H   UNL A   1      32.754  21.343  23.801  1.00  0.00     0.142 HD
BRANCH   6   8
ATOM      8  S   UNL A   1      33.643  23.318  23.270  1.00  0.00     0.260 S 
ATOM      9  O   UNL A   1      32.529  23.382  22.349  1.00  0.00    -0.205 OA
ATOM     10  O   UNL A   1      34.996  23.141  22.789  1.00  0.00    -0.205 OA
BRANCH   8  11
ATOM     11  C   UNL A   1      33.676  24.814  24.164  1.00  0.00     0.188 A 
ATOM     12  N   UNL A   1      33.752  26.937  24.684  1.00  0.00    -0.336 N 
ATOM     13  C   UNL A   1      33.590  26.186  25.813  1.00  0.00     0.201 A 
ATOM     14  C   UNL A   1      33.780  26.080  23.618  1.00  0.00     0.129 A 
ATOM     15  N   UNL A   1      33.534  24.902  25.539  1.00  0.00    -0.224 NA
BRANCH  12  16
ATOM     16  C   UNL A   1      33.785  28.383  24.591  1.00  0.00     0.120 C 
ATOM     17  C   UNL A   1      32.884  28.979  23.524  1.00  0.00     0.027 C 
ENDBRANCH  12  16
ENDBRANCH   8  11
ENDBRANCH   6   8
ENDBRANCH   5   6
BRANCH   5  18
ATOM     18  C   UNL A   1      34.291  19.709  24.685  1.00  0.00     0.035 C 
BRANCH  18  19
ATOM     19  C   UNL A   1      32.843  19.177  24.652  1.00  0.00    -0.015 C 
ATOM     20  C   UNL A   1      32.461  18.596  23.284  1.00  0.00     0.007 C 
ATOM     21  C   UNL A   1      32.689  18.055  25.692  1.00  0.00     0.007 C 
ENDBRANCH  18  19
ENDBRANCH   5  18
ENDBRANCH   3   5
ENDBRANCH   2   3
ENDBRANCH   1   2
BRANCH   1  22
ATOM     22  C   UNL A   1      38.332  21.265  25.900  1.00  0.00     0.275 C 
BRANCH  22  23
ATOM     23  O   UNL A   1      39.252  20.590  25.046  1.00  0.00    -0.458 OA
BRANCH  23  24
ATOM     24  C   UNL A   1      40.273  19.977  25.681  1.00  0.00     0.338 C 
ATOM     25  O   UNL A   1      40.457  18.774  25.780  1.00  0.00    -0.246 OA
BRANCH  24  26
ATOM     26  C   UNL A   1      41.080  20.958  26.404  1.00  0.00     0.060 A 
ATOM     27  C   UNL A   1      40.969  20.972  27.799  1.00  0.00     0.016 A 
ATOM     28  C   UNL A   1      41.701  21.993  25.694  1.00  0.00     0.016 A 
ATOM     29  C   UNL A   1      41.337  22.115  28.475  1.00  0.00     0.010 A 
ATOM     30  C   UNL A   1      42.053  23.135  26.368  1.00  0.00     0.010 A 
ATOM     31  C   UNL A   1      41.802  23.207  27.737  1.00  0.00    -0.014 A 
BRANCH  31  32
ATOM     32  C   UNL A   1      42.148  24.416  28.454  1.00  0.00     0.031 A 
ATOM     33  C   UNL A   1      41.198  25.519  28.193  1.00  0.00     0.074 A 
ATOM     34  C   UNL A   1      43.141  24.447  29.361  1.00  0.00     0.049 A 
ATOM     35  N   UNL A   1      41.431  26.637  27.590  1.00  0.00    -0.248 NA
ATOM     36  C   UNL A   1      39.774  25.270  28.477  1.00  0.00     0.031 C 
ATOM     37  C   UNL A   1      43.908  23.302  29.866  1.00  0.00     0.029 A 
ATOM     38  N   UNL A   1      43.571  25.479  30.140  1.00  0.00    -0.354 N 
ATOM     39  C   UNL A   1      40.233  27.339  27.680  1.00  0.00     0.074 A 
ATOM     40  C   UNL A   1      39.212  26.382  28.009  1.00  0.00     0.031 C 
ATOM     41  C   UNL A   1      44.511  23.651  31.024  1.00  0.00     0.029 A 
ATOM     42  C   UNL A   1      44.281  25.064  31.264  1.00  0.00     0.049 A 
ATOM     43  H   UNL A   1      43.396  26.424  29.930  1.00  0.00     0.167 HD
ATOM     44  C   UNL A   1      40.231  28.689  27.830  1.00  0.00     0.034 A 
ATOM     45  C   UNL A   1      44.578  25.817  32.350  1.00  0.00     0.034 A 
ATOM     46  C   UNL A   1      41.497  29.268  27.469  1.00  0.00     0.049 A 
ATOM     47  C   UNL A   1      44.463  27.236  31.950  1.00  0.00     0.074 A 
ATOM     48  C   UNL A   1      42.255  29.361  26.322  1.00  0.00     0.029 A 
ATOM     49  N   UNL A   1      42.328  29.527  28.527  1.00  0.00    -0.354 N 
ATOM     50  N   UNL A   1      45.270  27.819  31.109  1.00  0.00    -0.248 NA
ATOM     51  C   UNL A   1      43.231  27.957  32.236  1.00  0.00     0.031 C 
ATOM     52  C   UNL A   1      43.612  29.375  26.760  1.00  0.00     0.029 A 
ATOM     53  C   UNL A   1      43.630  29.329  28.156  1.00  0.00     0.049 A 
ATOM     54  H   UNL A   1      42.033  29.815  29.421  1.00  0.00     0.167 HD
ATOM     55  C   UNL A   1      44.460  28.709  30.425  1.00  0.00     0.074 A 
ATOM     56  C   UNL A   1      43.292  28.888  31.281  1.00  0.00     0.031 C 
ATOM     57  C   UNL A   1      44.667  28.961  29.099  1.00  0.00     0.034 A 
BRANCH  44  58
ATOM     58  C   UNL A   1      39.262  29.417  28.732  1.00  0.00     0.023 A 
ATOM     59  C   UNL A   1      39.416  29.258  30.124  1.00  0.00     0.012 A 
ATOM     60  C   UNL A   1      38.059  30.015  28.285  1.00  0.00     0.148 A 
ATOM     61  C   UNL A   1      38.421  29.669  31.020  1.00  0.00     0.002 A 
ATOM     62  C   UNL A   1      37.126  30.516  29.180  1.00  0.00     0.091 A 
ATOM     63  F   UNL A   1      37.728  29.968  26.990  1.00  0.00    -0.205 F 
ATOM     64  C   UNL A   1      37.286  30.321  30.550  1.00  0.00     0.022 A 
BRANCH  62  65
ATOM     65  S   UNL A   1      35.689  31.431  28.609  1.00  0.00     0.127 S 
ATOM     66  O   UNL A   1      35.077  31.834  29.870  1.00  0.00    -0.237 OA
ATOM     67  O   UNL A   1      36.309  32.513  27.843  1.00  0.00    -0.237 OA
ATOM     68  O   UNL A   1      34.933  30.487  27.794  1.00  0.00    -0.744 OA
ENDBRANCH  62  65
ENDBRANCH  44  58
BRANCH  45  69
ATOM     69  C   UNL A   1      44.754  25.431  33.768  1.00  0.00     0.023 A 
ATOM     70  C   UNL A   1      43.619  25.315  34.597  1.00  0.00     0.012 A 
ATOM     71  C   UNL A   1      45.976  24.896  34.231  1.00  0.00     0.148 A 
ATOM     72  C   UNL A   1      43.686  24.642  35.822  1.00  0.00     0.002 A 
ATOM     73  C   UNL A   1      46.039  24.234  35.454  1.00  0.00     0.091 A 
ATOM     74  F   UNL A   1      47.050  24.954  33.432  1.00  0.00    -0.205 F 
ATOM     75  C   UNL A   1      44.892  24.091  36.244  1.00  0.00     0.022 A 
BRANCH  73  76
ATOM     76  S   UNL A   1      47.554  23.475  36.057  1.00  0.00     0.127 S 
ATOM     77  O   UNL A   1      47.120  22.910  37.335  1.00  0.00    -0.237 OA
ATOM     78  O   UNL A   1      47.831  22.489  35.015  1.00  0.00    -0.237 OA
ATOM     79  O   UNL A   1      48.520  24.559  36.178  1.00  0.00    -0.744 OA
ENDBRANCH  73  76
ENDBRANCH  45  69
BRANCH  57  80
ATOM     80  C   UNL A   1      46.023  28.617  28.535  1.00  0.00     0.023 A 
ATOM     81  C   UNL A   1      47.147  29.457  28.670  1.00  0.00     0.012 A 
ATOM     82  C   UNL A   1      46.188  27.358  27.933  1.00  0.00     0.148 A 
ATOM     83  C   UNL A   1      48.395  29.069  28.178  1.00  0.00     0.002 A 
ATOM     84  C   UNL A   1      47.441  26.953  27.492  1.00  0.00     0.091 A 
ATOM     85  F   UNL A   1      45.112  26.566  27.809  1.00  0.00    -0.205 F 
ATOM     86  C   UNL A   1      48.546  27.812  27.598  1.00  0.00     0.022 A 
BRANCH  84  87
ATOM     87  S   UNL A   1      47.712  25.299  26.852  1.00  0.00     0.127 S 
ATOM     88  O   UNL A   1      47.154  24.464  27.911  1.00  0.00    -0.237 OA
ATOM     89  O   UNL A   1      46.939  25.309  25.609  1.00  0.00    -0.237 OA
ATOM     90  O   UNL A   1      49.152  25.186  26.650  1.00  0.00    -0.744 OA
ENDBRANCH  84  87
ENDBRANCH  57  80
ENDBRANCH  31  32
ENDBRANCH  24  26
ENDBRANCH  23  24
ENDBRANCH  22  23
ENDBRANCH   1  22
TORSDOF 20
ENDMDL
