MODEL 1
REMARK VINA RESULT:     -11.9      0.000      0.000
REMARK SMILES COc1cc(OC)cc(-c2ccc([C@@H](C)C(=O)OCCOC(=O)c3ccc(-c4c5nc(c(-c6cccc(S(=O)(=O)[O-])c6F)c6ccc([nH]6)c(-c6cccc(S(=O)(=O)[O-])c6F)c6nc(c(-c7cccc(S(=O)(=O)[O-])c7F)c7ccc4[nH]7)C=C6)C=C5)cc3)cc2F)c1
REMARK SMILES IDX 19 1 18 2 16 3 17 4 14 5 15 6 13 7 10 8 11 9 88 10 12 11
REMARK SMILES IDX 87 12 89 13 9 14 3 15 4 16 90 17 5 18 8 19 2 20 1 21 6 22
REMARK SMILES IDX 7 23 20 24 21 25 22 26 23 27 24 28 25 29 86 30 26 31 85 32
REMARK SMILES IDX 27 33 28 34 29 35 79 36 30 37 84 38 78 39 80 40 31 41 83 42
REMARK SMILES IDX 77 43 76 44 32 46 64 47 44 48 63 49 45 50 48 51 62 52 81 53
REMARK SMILES IDX 46 54 47 55 61 57 82 58 49 59 33 60 34 61 42 62 35 63 37 64
REMARK SMILES IDX 43 65 36 66 38 67 39 68 40 69 41 70 65 71 66 72 74 73 67 74
REMARK SMILES IDX 69 75 75 76 68 77 70 78 71 79 72 80 73 81 50 82 51 83 59 84
REMARK SMILES IDX 52 85 54 86 60 87 53 88 55 89 56 90 57 91 58 92
REMARK H PARENT 80 45 48 56
REMARK Flexibility Score: inf
ROOT
ATOM      1  C   UNL A   1      31.522  28.363  25.993  1.00  0.00     0.274 C 
ENDROOT
BRANCH   1   2
ATOM      2  O   UNL A   1      31.718  28.103  24.590  1.00  0.00    -0.462 OA
BRANCH   2   3
ATOM      3  C   UNL A   1      30.636  28.250  23.781  1.00  0.00     0.313 C 
ATOM      4  O   UNL A   1      30.151  29.333  23.469  1.00  0.00    -0.252 OA
BRANCH   3   5
ATOM      5  C   UNL A   1      30.025  26.929  23.330  1.00  0.00     0.126 C 
ATOM      6  C   UNL A   1      28.603  26.805  23.875  1.00  0.00     0.025 C 
BRANCH   5   7
ATOM      7  C   UNL A   1      30.858  25.683  23.597  1.00  0.00    -0.031 A 
ATOM      8  C   UNL A   1      32.372  23.311  24.023  1.00  0.00     0.018 A 
ATOM      9  C   UNL A   1      31.486  23.794  25.000  1.00  0.00     0.012 A 
ATOM     10  C   UNL A   1      32.513  24.061  22.851  1.00  0.00     0.131 A 
ATOM     11  C   UNL A   1      30.736  24.956  24.789  1.00  0.00     0.005 A 
ATOM     12  C   UNL A   1      31.769  25.222  22.633  1.00  0.00     0.044 A 
ATOM     13  F   UNL A   1      33.336  23.644  21.877  1.00  0.00    -0.206 F 
BRANCH   8  14
ATOM     14  C   UNL A   1      33.041  22.013  24.206  1.00  0.00    -0.008 A 
ATOM     15  C   UNL A   1      33.090  19.584  24.096  1.00  0.00     0.123 A 
ATOM     16  C   UNL A   1      34.381  19.590  24.631  1.00  0.00     0.092 A 
ATOM     17  C   UNL A   1      32.415  20.794  23.901  1.00  0.00     0.055 A 
ATOM     18  C   UNL A   1      35.019  20.787  24.947  1.00  0.00     0.123 A 
ATOM     19  C   UNL A   1      34.350  21.989  24.724  1.00  0.00     0.055 A 
BRANCH  15  20
ATOM     20  O   UNL A   1      32.579  18.340  23.844  1.00  0.00    -0.497 OA
ATOM     21  C   UNL A   1      33.536  17.323  23.576  1.00  0.00     0.278 C 
ENDBRANCH  15  20
BRANCH  18  22
ATOM     22  O   UNL A   1      36.283  20.662  25.455  1.00  0.00    -0.497 OA
ATOM     23  C   UNL A   1      37.346  21.120  24.626  1.00  0.00     0.278 C 
ENDBRANCH  18  22
ENDBRANCH   8  14
ENDBRANCH   5   7
ENDBRANCH   3   5
ENDBRANCH   2   3
ENDBRANCH   1   2
BRANCH   1  24
ATOM     24  C   UNL A   1      31.667  29.855  26.296  1.00  0.00     0.275 C 
BRANCH  24  25
ATOM     25  O   UNL A   1      33.039  30.273  26.191  1.00  0.00    -0.458 OA
BRANCH  25  26
ATOM     26  C   UNL A   1      33.397  31.287  27.012  1.00  0.00     0.338 C 
ATOM     27  O   UNL A   1      32.740  32.270  27.306  1.00  0.00    -0.246 OA
BRANCH  26  28
ATOM     28  C   UNL A   1      34.697  30.979  27.622  1.00  0.00     0.060 A 
ATOM     29  C   UNL A   1      34.972  29.651  27.953  1.00  0.00     0.016 A 
ATOM     30  C   UNL A   1      35.600  31.993  27.939  1.00  0.00     0.016 A 
ATOM     31  C   UNL A   1      36.145  29.327  28.627  1.00  0.00     0.010 A 
ATOM     32  C   UNL A   1      36.787  31.666  28.601  1.00  0.00     0.010 A 
ATOM     33  C   UNL A   1      37.058  30.334  28.966  1.00  0.00    -0.014 A 
BRANCH  33  34
ATOM     34  C   UNL A   1      38.277  29.994  29.737  1.00  0.00     0.031 A 
ATOM     35  C   UNL A   1      39.283  29.038  29.164  1.00  0.00     0.074 A 
ATOM     36  C   UNL A   1      38.474  30.542  30.951  1.00  0.00     0.049 A 
ATOM     37  N   UNL A   1      40.375  28.568  29.704  1.00  0.00    -0.248 NA
ATOM     38  C   UNL A   1      39.023  28.543  27.801  1.00  0.00     0.031 C 
ATOM     39  C   UNL A   1      37.571  31.490  31.603  1.00  0.00     0.029 A 
ATOM     40  N   UNL A   1      39.488  30.367  31.856  1.00  0.00    -0.354 N 
ATOM     41  C   UNL A   1      40.916  27.694  28.770  1.00  0.00     0.074 A 
ATOM     42  C   UNL A   1      40.027  27.695  27.627  1.00  0.00     0.031 C 
ATOM     43  C   UNL A   1      38.067  31.808  32.809  1.00  0.00     0.029 A 
ATOM     44  C   UNL A   1      39.302  31.060  33.029  1.00  0.00     0.049 A 
ATOM     45  H   UNL A   1      40.274  29.801  31.683  1.00  0.00     0.167 HD
ATOM     46  C   UNL A   1      42.057  26.970  28.849  1.00  0.00     0.034 A 
ATOM     47  C   UNL A   1      40.035  31.072  34.160  1.00  0.00     0.034 A 
ATOM     48  C   UNL A   1      42.957  27.002  29.971  1.00  0.00     0.049 A 
ATOM     49  C   UNL A   1      41.291  30.249  34.227  1.00  0.00     0.074 A 
ATOM     50  C   UNL A   1      44.157  26.332  30.132  1.00  0.00     0.029 A 
ATOM     51  N   UNL A   1      42.756  27.744  31.125  1.00  0.00    -0.354 N 
ATOM     52  N   UNL A   1      41.836  29.497  33.300  1.00  0.00    -0.248 NA
ATOM     53  C   UNL A   1      42.048  30.291  35.486  1.00  0.00     0.031 C 
ATOM     54  C   UNL A   1      44.677  26.662  31.389  1.00  0.00     0.029 A 
ATOM     55  C   UNL A   1      43.806  27.545  32.006  1.00  0.00     0.049 A 
ATOM     56  H   UNL A   1      41.980  28.325  31.293  1.00  0.00     0.167 HD
ATOM     57  C   UNL A   1      43.011  29.001  33.851  1.00  0.00     0.074 A 
ATOM     58  C   UNL A   1      43.109  29.554  35.187  1.00  0.00     0.031 C 
ATOM     59  C   UNL A   1      43.915  28.147  33.310  1.00  0.00     0.034 A 
BRANCH  46  60
ATOM     60  C   UNL A   1      42.414  26.106  27.669  1.00  0.00     0.023 A 
ATOM     61  C   UNL A   1      43.214  26.636  26.637  1.00  0.00     0.012 A 
ATOM     62  C   UNL A   1      41.991  24.764  27.597  1.00  0.00     0.148 A 
ATOM     63  C   UNL A   1      43.564  25.854  25.537  1.00  0.00     0.002 A 
ATOM     64  C   UNL A   1      42.374  23.979  26.514  1.00  0.00     0.091 A 
ATOM     65  F   UNL A   1      41.206  24.285  28.572  1.00  0.00    -0.205 F 
ATOM     66  C   UNL A   1      43.153  24.525  25.479  1.00  0.00     0.022 A 
BRANCH  64  67
ATOM     67  S   UNL A   1      41.944  22.240  26.392  1.00  0.00     0.127 S 
ATOM     68  O   UNL A   1      40.492  22.304  26.233  1.00  0.00    -0.237 OA
ATOM     69  O   UNL A   1      42.669  21.820  25.190  1.00  0.00    -0.237 OA
ATOM     70  O   UNL A   1      42.418  21.628  27.625  1.00  0.00    -0.744 OA
ENDBRANCH  64  67
ENDBRANCH  46  60
BRANCH  47  71
ATOM     71  C   UNL A   1      39.618  31.938  35.300  1.00  0.00     0.023 A 
ATOM     72  C   UNL A   1      39.988  33.295  35.304  1.00  0.00     0.012 A 
ATOM     73  C   UNL A   1      38.826  31.437  36.351  1.00  0.00     0.148 A 
ATOM     74  C   UNL A   1      39.591  34.137  36.344  1.00  0.00     0.002 A 
ATOM     75  C   UNL A   1      38.390  32.293  37.357  1.00  0.00     0.091 A 
ATOM     76  F   UNL A   1      38.503  30.136  36.341  1.00  0.00    -0.205 F 
ATOM     77  C   UNL A   1      38.783  33.640  37.362  1.00  0.00     0.022 A 
BRANCH  75  78
ATOM     78  S   UNL A   1      37.240  31.766  38.634  1.00  0.00     0.127 S 
ATOM     79  O   UNL A   1      37.027  30.365  38.285  1.00  0.00    -0.237 OA
ATOM     80  O   UNL A   1      38.018  31.986  39.854  1.00  0.00    -0.237 OA
ATOM     81  O   UNL A   1      36.081  32.639  38.500  1.00  0.00    -0.744 OA
ENDBRANCH  75  78
ENDBRANCH  47  71
BRANCH  59  82
ATOM     82  C   UNL A   1      45.106  27.772  34.152  1.00  0.00     0.023 A 
ATOM     83  C   UNL A   1      46.263  28.574  34.113  1.00  0.00     0.012 A 
ATOM     84  C   UNL A   1      45.053  26.672  35.030  1.00  0.00     0.148 A 
ATOM     85  C   UNL A   1      47.361  28.272  34.919  1.00  0.00     0.002 A 
ATOM     86  C   UNL A   1      46.136  26.401  35.860  1.00  0.00     0.091 A 
ATOM     87  F   UNL A   1      43.952  25.907  35.035  1.00  0.00    -0.205 F 
ATOM     88  C   UNL A   1      47.293  27.195  35.799  1.00  0.00     0.022 A 
BRANCH  86  89
ATOM     89  S   UNL A   1      46.097  25.087  37.084  1.00  0.00     0.127 S 
ATOM     90  O   UNL A   1      45.949  23.900  36.245  1.00  0.00    -0.237 OA
ATOM     91  O   UNL A   1      47.405  25.218  37.729  1.00  0.00    -0.237 OA
ATOM     92  O   UNL A   1      44.968  25.389  37.954  1.00  0.00    -0.744 OA
ENDBRANCH  86  89
ENDBRANCH  59  82
ENDBRANCH  33  34
ENDBRANCH  26  28
ENDBRANCH  25  26
ENDBRANCH  24  25
ENDBRANCH   1  24
TORSDOF 18
ENDMDL
MODEL 2
REMARK VINA RESULT:     -11.7      1.429      2.089
REMARK SMILES COc1cc(OC)cc(-c2ccc([C@@H](C)C(=O)OCCOC(=O)c3ccc(-c4c5nc(c(-c6cccc(S(=O)(=O)[O-])c6F)c6ccc([nH]6)c(-c6cccc(S(=O)(=O)[O-])c6F)c6nc(c(-c7cccc(S(=O)(=O)[O-])c7F)c7ccc4[nH]7)C=C6)C=C5)cc3)cc2F)c1
REMARK SMILES IDX 19 1 18 2 16 3 17 4 14 5 15 6 13 7 10 8 11 9 88 10 12 11
REMARK SMILES IDX 87 12 89 13 9 14 3 15 4 16 90 17 5 18 8 19 2 20 1 21 6 22
REMARK SMILES IDX 7 23 20 24 21 25 22 26 23 27 24 28 25 29 86 30 26 31 85 32
REMARK SMILES IDX 27 33 28 34 29 35 79 36 30 37 84 38 78 39 80 40 31 41 83 42
REMARK SMILES IDX 77 43 76 44 32 46 64 47 44 48 63 49 45 50 48 51 62 52 81 53
REMARK SMILES IDX 46 54 47 55 61 57 82 58 49 59 33 60 34 61 42 62 35 63 37 64
REMARK SMILES IDX 43 65 36 66 38 67 39 68 40 69 41 70 65 71 66 72 74 73 67 74
REMARK SMILES IDX 69 75 75 76 68 77 70 78 71 79 72 80 73 81 50 82 51 83 59 84
REMARK SMILES IDX 52 85 54 86 60 87 53 88 55 89 56 90 57 91 58 92
REMARK H PARENT 80 45 48 56
REMARK Flexibility Score: inf
ROOT
ATOM      1  C   UNL A   1      31.612  28.960  25.599  1.00  0.00     0.274 C 
ENDROOT
BRANCH   1   2
ATOM      2  O   UNL A   1      30.735  28.977  24.456  1.00  0.00    -0.462 OA
BRANCH   2   3
ATOM      3  C   UNL A   1      31.197  28.392  23.320  1.00  0.00     0.313 C 
ATOM      4  O   UNL A   1      32.139  28.816  22.660  1.00  0.00    -0.252 OA
BRANCH   3   5
ATOM      5  C   UNL A   1      30.394  27.169  22.891  1.00  0.00     0.126 C 
ATOM      6  C   UNL A   1      28.973  27.265  23.447  1.00  0.00     0.025 C 
BRANCH   5   7
ATOM      7  C   UNL A   1      31.035  25.818  23.172  1.00  0.00    -0.031 A 
ATOM      8  C   UNL A   1      32.242  23.315  23.791  1.00  0.00     0.018 A 
ATOM      9  C   UNL A   1      32.869  24.233  22.934  1.00  0.00     0.012 A 
ATOM     10  C   UNL A   1      30.983  23.659  24.296  1.00  0.00     0.131 A 
ATOM     11  C   UNL A   1      32.281  25.466  22.635  1.00  0.00     0.005 A 
ATOM     12  C   UNL A   1      30.388  24.887  24.001  1.00  0.00     0.044 A 
ATOM     13  F   UNL A   1      30.339  22.827  25.128  1.00  0.00    -0.206 F 
BRANCH   8  14
ATOM     14  C   UNL A   1      32.942  22.089  24.205  1.00  0.00    -0.008 A 
ATOM     15  C   UNL A   1      34.958  20.841  24.745  1.00  0.00     0.123 A 
ATOM     16  C   UNL A   1      34.188  19.695  24.956  1.00  0.00     0.092 A 
ATOM     17  C   UNL A   1      34.337  22.032  24.353  1.00  0.00     0.055 A 
ATOM     18  C   UNL A   1      32.803  19.726  24.808  1.00  0.00     0.123 A 
ATOM     19  C   UNL A   1      32.190  20.923  24.444  1.00  0.00     0.055 A 
BRANCH  15  20
ATOM     20  O   UNL A   1      36.305  20.666  24.911  1.00  0.00    -0.497 OA
ATOM     21  C   UNL A   1      37.123  21.754  24.496  1.00  0.00     0.278 C 
ENDBRANCH  15  20
BRANCH  18  22
ATOM     22  O   UNL A   1      32.160  18.543  25.049  1.00  0.00    -0.497 OA
ATOM     23  C   UNL A   1      32.901  17.553  25.756  1.00  0.00     0.278 C 
ENDBRANCH  18  22
ENDBRANCH   8  14
ENDBRANCH   5   7
ENDBRANCH   3   5
ENDBRANCH   2   3
ENDBRANCH   1   2
BRANCH   1  24
ATOM     24  C   UNL A   1      31.704  30.346  26.237  1.00  0.00     0.275 C 
BRANCH  24  25
ATOM     25  O   UNL A   1      33.036  30.878  26.130  1.00  0.00    -0.458 OA
BRANCH  25  26
ATOM     26  C   UNL A   1      33.361  31.809  27.057  1.00  0.00     0.338 C 
ATOM     27  O   UNL A   1      32.697  32.768  27.408  1.00  0.00    -0.246 OA
BRANCH  26  28
ATOM     28  C   UNL A   1      34.628  31.433  27.696  1.00  0.00     0.060 A 
ATOM     29  C   UNL A   1      34.815  30.096  28.055  1.00  0.00     0.016 A 
ATOM     30  C   UNL A   1      35.586  32.395  28.013  1.00  0.00     0.016 A 
ATOM     31  C   UNL A   1      35.953  29.713  28.757  1.00  0.00     0.010 A 
ATOM     32  C   UNL A   1      36.738  32.007  28.704  1.00  0.00     0.010 A 
ATOM     33  C   UNL A   1      36.920  30.668  29.096  1.00  0.00    -0.014 A 
BRANCH  33  34
ATOM     34  C   UNL A   1      38.101  30.268  29.896  1.00  0.00     0.031 A 
ATOM     35  C   UNL A   1      39.097  29.299  29.327  1.00  0.00     0.074 A 
ATOM     36  C   UNL A   1      38.273  30.773  31.132  1.00  0.00     0.049 A 
ATOM     37  N   UNL A   1      40.156  28.780  29.888  1.00  0.00    -0.248 NA
ATOM     38  C   UNL A   1      38.869  28.853  27.942  1.00  0.00     0.031 C 
ATOM     39  C   UNL A   1      37.377  31.729  31.783  1.00  0.00     0.029 A 
ATOM     40  N   UNL A   1      39.251  30.540  32.064  1.00  0.00    -0.354 N 
ATOM     41  C   UNL A   1      40.702  27.918  28.945  1.00  0.00     0.074 A 
ATOM     42  C   UNL A   1      39.853  27.981  27.775  1.00  0.00     0.031 C 
ATOM     43  C   UNL A   1      37.842  31.995  33.014  1.00  0.00     0.029 A 
ATOM     44  C   UNL A   1      39.046  31.203  33.252  1.00  0.00     0.049 A 
ATOM     45  H   UNL A   1      40.026  29.955  31.899  1.00  0.00     0.167 HD
ATOM     46  C   UNL A   1      41.818  27.156  29.040  1.00  0.00     0.034 A 
ATOM     47  C   UNL A   1      39.740  31.159  34.405  1.00  0.00     0.034 A 
ATOM     48  C   UNL A   1      42.679  27.127  30.191  1.00  0.00     0.049 A 
ATOM     49  C   UNL A   1      40.968  30.295  34.488  1.00  0.00     0.074 A 
ATOM     50  C   UNL A   1      43.853  26.416  30.371  1.00  0.00     0.029 A 
ATOM     51  N   UNL A   1      42.462  27.840  31.360  1.00  0.00    -0.354 N 
ATOM     52  N   UNL A   1      41.521  29.556  33.556  1.00  0.00    -0.248 NA
ATOM     53  C   UNL A   1      41.683  30.277  35.772  1.00  0.00     0.031 C 
ATOM     54  C   UNL A   1      44.340  26.692  31.654  1.00  0.00     0.029 A 
ATOM     55  C   UNL A   1      43.475  27.583  32.269  1.00  0.00     0.049 A 
ATOM     56  H   UNL A   1      41.698  28.440  31.521  1.00  0.00     0.167 HD
ATOM     57  C   UNL A   1      42.662  29.007  34.131  1.00  0.00     0.074 A 
ATOM     58  C   UNL A   1      42.732  29.517  35.486  1.00  0.00     0.031 C 
ATOM     59  C   UNL A   1      43.558  28.142  33.594  1.00  0.00     0.034 A 
BRANCH  46  60
ATOM     60  C   UNL A   1      42.188  26.317  27.846  1.00  0.00     0.023 A 
ATOM     61  C   UNL A   1      42.958  26.885  26.811  1.00  0.00     0.012 A 
ATOM     62  C   UNL A   1      41.809  24.963  27.764  1.00  0.00     0.148 A 
ATOM     63  C   UNL A   1      43.320  26.126  25.698  1.00  0.00     0.002 A 
ATOM     64  C   UNL A   1      42.204  24.204  26.667  1.00  0.00     0.091 A 
ATOM     65  F   UNL A   1      41.052  24.448  28.743  1.00  0.00    -0.205 F 
ATOM     66  C   UNL A   1      42.952  24.786  25.630  1.00  0.00     0.022 A 
BRANCH  64  67
ATOM     67  S   UNL A   1      41.830  22.452  26.531  1.00  0.00     0.127 S 
ATOM     68  O   UNL A   1      42.267  21.954  27.835  1.00  0.00    -0.237 OA
ATOM     69  O   UNL A   1      40.379  22.455  26.336  1.00  0.00    -0.237 OA
ATOM     70  O   UNL A   1      42.590  21.974  25.385  1.00  0.00    -0.744 OA
ENDBRANCH  64  67
ENDBRANCH  46  60
BRANCH  47  71
ATOM     71  C   UNL A   1      39.312  32.002  35.557  1.00  0.00     0.023 A 
ATOM     72  C   UNL A   1      38.470  31.449  36.540  1.00  0.00     0.012 A 
ATOM     73  C   UNL A   1      39.766  33.327  35.707  1.00  0.00     0.148 A 
ATOM     74  C   UNL A   1      38.073  32.205  37.644  1.00  0.00     0.002 A 
ATOM     75  C   UNL A   1      39.409  34.057  36.836  1.00  0.00     0.091 A 
ATOM     76  F   UNL A   1      40.548  33.844  34.749  1.00  0.00    -0.205 F 
ATOM     77  C   UNL A   1      38.552  33.503  37.798  1.00  0.00     0.022 A 
BRANCH  75  78
ATOM     78  S   UNL A   1      40.086  35.687  37.178  1.00  0.00     0.127 S 
ATOM     79  O   UNL A   1      39.632  36.448  36.018  1.00  0.00    -0.237 OA
ATOM     80  O   UNL A   1      39.425  36.032  38.438  1.00  0.00    -0.237 OA
ATOM     81  O   UNL A   1      41.525  35.496  37.291  1.00  0.00    -0.744 OA
ENDBRANCH  75  78
ENDBRANCH  47  71
BRANCH  59  82
ATOM     82  C   UNL A   1      44.708  27.705  34.463  1.00  0.00     0.023 A 
ATOM     83  C   UNL A   1      45.894  28.466  34.477  1.00  0.00     0.012 A 
ATOM     84  C   UNL A   1      44.589  26.589  35.313  1.00  0.00     0.148 A 
ATOM     85  C   UNL A   1      46.955  28.106  35.308  1.00  0.00     0.002 A 
ATOM     86  C   UNL A   1      45.635  26.261  36.169  1.00  0.00     0.091 A 
ATOM     87  F   UNL A   1      43.461  25.865  35.267  1.00  0.00    -0.205 F 
ATOM     88  C   UNL A   1      46.821  27.013  36.161  1.00  0.00     0.022 A 
BRANCH  86  89
ATOM     89  S   UNL A   1      45.511  24.923  37.361  1.00  0.00     0.127 S 
ATOM     90  O   UNL A   1      45.949  23.775  36.569  1.00  0.00    -0.237 OA
ATOM     91  O   UNL A   1      46.452  25.340  38.402  1.00  0.00    -0.237 OA
ATOM     92  O   UNL A   1      44.118  24.900  37.787  1.00  0.00    -0.744 OA
ENDBRANCH  86  89
ENDBRANCH  59  82
ENDBRANCH  33  34
ENDBRANCH  26  28
ENDBRANCH  25  26
ENDBRANCH  24  25
ENDBRANCH   1  24
TORSDOF 18
ENDMDL
MODEL 3
REMARK VINA RESULT:     -11.4      4.400     11.685
REMARK SMILES COc1cc(OC)cc(-c2ccc([C@@H](C)C(=O)OCCOC(=O)c3ccc(-c4c5nc(c(-c6cccc(S(=O)(=O)[O-])c6F)c6ccc([nH]6)c(-c6cccc(S(=O)(=O)[O-])c6F)c6nc(c(-c7cccc(S(=O)(=O)[O-])c7F)c7ccc4[nH]7)C=C6)C=C5)cc3)cc2F)c1
REMARK SMILES IDX 19 1 18 2 16 3 17 4 14 5 15 6 13 7 10 8 11 9 88 10 12 11
REMARK SMILES IDX 87 12 89 13 9 14 3 15 4 16 90 17 5 18 8 19 2 20 1 21 6 22
REMARK SMILES IDX 7 23 20 24 21 25 22 26 23 27 24 28 25 29 86 30 26 31 85 32
REMARK SMILES IDX 27 33 28 34 29 35 79 36 30 37 84 38 78 39 80 40 31 41 83 42
REMARK SMILES IDX 77 43 76 44 32 46 64 47 44 48 63 49 45 50 48 51 62 52 81 53
REMARK SMILES IDX 46 54 47 55 61 57 82 58 49 59 33 60 34 61 42 62 35 63 37 64
REMARK SMILES IDX 43 65 36 66 38 67 39 68 40 69 41 70 65 71 66 72 74 73 67 74
REMARK SMILES IDX 69 75 75 76 68 77 70 78 71 79 72 80 73 81 50 82 51 83 59 84
REMARK SMILES IDX 52 85 54 86 60 87 53 88 55 89 56 90 57 91 58 92
REMARK H PARENT 80 45 48 56
REMARK Flexibility Score: inf
ROOT
ATOM      1  C   UNL A   1      34.806  34.187  29.568  1.00  0.00     0.274 C 
ENDROOT
BRANCH   1   2
ATOM      2  O   UNL A   1      36.182  33.762  29.557  1.00  0.00    -0.462 OA
BRANCH   2   3
ATOM      3  C   UNL A   1      36.710  33.362  30.743  1.00  0.00     0.313 C 
ATOM      4  O   UNL A   1      36.496  32.271  31.260  1.00  0.00    -0.252 OA
BRANCH   3   5
ATOM      5  C   UNL A   1      37.563  34.427  31.423  1.00  0.00     0.126 C 
ATOM      6  C   UNL A   1      38.858  34.631  30.637  1.00  0.00     0.025 C 
BRANCH   5   7
ATOM      7  C   UNL A   1      37.815  34.229  32.912  1.00  0.00    -0.031 A 
ATOM      8  C   UNL A   1      38.244  33.945  35.711  1.00  0.00     0.018 A 
ATOM      9  C   UNL A   1      39.321  34.018  34.813  1.00  0.00     0.012 A 
ATOM     10  C   UNL A   1      36.953  33.976  35.174  1.00  0.00     0.131 A 
ATOM     11  C   UNL A   1      39.112  34.165  33.438  1.00  0.00     0.005 A 
ATOM     12  C   UNL A   1      36.735  34.121  33.802  1.00  0.00     0.044 A 
ATOM     13  F   UNL A   1      35.883  33.921  35.982  1.00  0.00    -0.206 F 
BRANCH   8  14
ATOM     14  C   UNL A   1      38.487  33.935  37.162  1.00  0.00    -0.008 A 
ATOM     15  C   UNL A   1      38.457  32.856  39.341  1.00  0.00     0.123 A 
ATOM     16  C   UNL A   1      38.942  34.030  39.925  1.00  0.00     0.092 A 
ATOM     17  C   UNL A   1      38.214  32.815  37.964  1.00  0.00     0.055 A 
ATOM     18  C   UNL A   1      39.213  35.155  39.150  1.00  0.00     0.123 A 
ATOM     19  C   UNL A   1      38.994  35.097  37.775  1.00  0.00     0.055 A 
BRANCH  15  20
ATOM     20  O   UNL A   1      38.222  31.833  40.219  1.00  0.00    -0.497 OA
ATOM     21  C   UNL A   1      36.879  31.366  40.274  1.00  0.00     0.278 C 
ENDBRANCH  15  20
BRANCH  18  22
ATOM     22  O   UNL A   1      39.690  36.239  39.835  1.00  0.00    -0.497 OA
ATOM     23  C   UNL A   1      38.981  37.460  39.659  1.00  0.00     0.278 C 
ENDBRANCH  18  22
ENDBRANCH   8  14
ENDBRANCH   5   7
ENDBRANCH   3   5
ENDBRANCH   2   3
ENDBRANCH   1   2
BRANCH   1  24
ATOM     24  C   UNL A   1      34.001  33.459  28.491  1.00  0.00     0.275 C 
BRANCH  24  25
ATOM     25  O   UNL A   1      34.845  32.592  27.712  1.00  0.00    -0.458 OA
BRANCH  25  26
ATOM     26  C   UNL A   1      34.613  31.268  27.868  1.00  0.00     0.338 C 
ATOM     27  O   UNL A   1      33.575  30.668  27.652  1.00  0.00    -0.246 OA
BRANCH  26  28
ATOM     28  C   UNL A   1      35.865  30.598  28.242  1.00  0.00     0.060 A 
ATOM     29  C   UNL A   1      35.826  29.647  29.264  1.00  0.00     0.016 A 
ATOM     30  C   UNL A   1      37.076  30.959  27.652  1.00  0.00     0.016 A 
ATOM     31  C   UNL A   1      37.002  29.064  29.722  1.00  0.00     0.010 A 
ATOM     32  C   UNL A   1      38.257  30.361  28.102  1.00  0.00     0.010 A 
ATOM     33  C   UNL A   1      38.229  29.424  29.152  1.00  0.00    -0.014 A 
BRANCH  33  34
ATOM     34  C   UNL A   1      39.486  28.847  29.683  1.00  0.00     0.031 A 
ATOM     35  C   UNL A   1      40.114  29.429  30.917  1.00  0.00     0.074 A 
ATOM     36  C   UNL A   1      40.061  27.804  29.054  1.00  0.00     0.049 A 
ATOM     37  N   UNL A   1      41.238  29.108  31.499  1.00  0.00    -0.248 NA
ATOM     38  C   UNL A   1      39.381  30.520  31.580  1.00  0.00     0.031 C 
ATOM     39  C   UNL A   1      39.536  27.151  27.856  1.00  0.00     0.029 A 
ATOM     40  N   UNL A   1      41.220  27.125  29.328  1.00  0.00    -0.354 N 
ATOM     41  C   UNL A   1      41.370  29.978  32.575  1.00  0.00     0.074 A 
ATOM     42  C   UNL A   1      40.211  30.845  32.561  1.00  0.00     0.031 C 
ATOM     43  C   UNL A   1      40.375  26.168  27.491  1.00  0.00     0.029 A 
ATOM     44  C   UNL A   1      41.513  26.147  28.406  1.00  0.00     0.049 A 
ATOM     45  H   UNL A   1      41.787  27.318  30.108  1.00  0.00     0.167 HD
ATOM     46  C   UNL A   1      42.358  30.038  33.499  1.00  0.00     0.034 A 
ATOM     47  C   UNL A   1      42.586  25.340  28.302  1.00  0.00     0.034 A 
ATOM     48  C   UNL A   1      43.488  29.149  33.531  1.00  0.00     0.049 A 
ATOM     49  C   UNL A   1      43.676  25.436  29.335  1.00  0.00     0.074 A 
ATOM     50  C   UNL A   1      44.524  29.105  34.447  1.00  0.00     0.029 A 
ATOM     51  N   UNL A   1      43.732  28.146  32.604  1.00  0.00    -0.354 N 
ATOM     52  N   UNL A   1      43.741  26.203  30.397  1.00  0.00    -0.248 NA
ATOM     53  C   UNL A   1      44.829  24.540  29.170  1.00  0.00     0.031 C 
ATOM     54  C   UNL A   1      45.400  28.081  34.069  1.00  0.00     0.029 A 
ATOM     55  C   UNL A   1      44.904  27.480  32.923  1.00  0.00     0.049 A 
ATOM     56  H   UNL A   1      43.157  27.939  31.834  1.00  0.00     0.167 HD
ATOM     57  C   UNL A   1      44.925  25.864  31.041  1.00  0.00     0.074 A 
ATOM     58  C   UNL A   1      45.535  24.806  30.260  1.00  0.00     0.031 C 
ATOM     59  C   UNL A   1      45.469  26.394  32.165  1.00  0.00     0.034 A 
BRANCH  46  60
ATOM     60  C   UNL A   1      42.238  31.083  34.576  1.00  0.00     0.023 A 
ATOM     61  C   UNL A   1      41.634  30.748  35.804  1.00  0.00     0.012 A 
ATOM     62  C   UNL A   1      42.753  32.381  34.389  1.00  0.00     0.148 A 
ATOM     63  C   UNL A   1      41.517  31.697  36.820  1.00  0.00     0.002 A 
ATOM     64  C   UNL A   1      42.665  33.311  35.420  1.00  0.00     0.091 A 
ATOM     65  F   UNL A   1      43.297  32.691  33.204  1.00  0.00    -0.205 F 
ATOM     66  C   UNL A   1      42.040  32.973  36.632  1.00  0.00     0.022 A 
BRANCH  64  67
ATOM     67  S   UNL A   1      43.370  34.957  35.288  1.00  0.00     0.127 S 
ATOM     68  O   UNL A   1      42.540  35.552  34.241  1.00  0.00    -0.237 OA
ATOM     69  O   UNL A   1      43.144  35.505  36.627  1.00  0.00    -0.237 OA
ATOM     70  O   UNL A   1      44.772  34.760  34.947  1.00  0.00    -0.744 OA
ENDBRANCH  64  67
ENDBRANCH  46  60
BRANCH  47  71
ATOM     71  C   UNL A   1      42.653  24.337  27.203  1.00  0.00     0.023 A 
ATOM     72  C   UNL A   1      43.361  24.649  26.028  1.00  0.00     0.012 A 
ATOM     73  C   UNL A   1      42.059  23.066  27.331  1.00  0.00     0.148 A 
ATOM     74  C   UNL A   1      43.463  23.720  24.991  1.00  0.00     0.002 A 
ATOM     75  C   UNL A   1      42.210  22.126  26.317  1.00  0.00     0.091 A 
ATOM     76  F   UNL A   1      41.369  22.795  28.448  1.00  0.00    -0.205 F 
ATOM     77  C   UNL A   1      42.899  22.456  25.140  1.00  0.00     0.022 A 
BRANCH  75  78
ATOM     78  S   UNL A   1      41.628  20.434  26.482  1.00  0.00     0.127 S 
ATOM     79  O   UNL A   1      40.190  20.592  26.291  1.00  0.00    -0.237 OA
ATOM     80  O   UNL A   1      42.326  19.764  25.383  1.00  0.00    -0.237 OA
ATOM     81  O   UNL A   1      42.051  20.003  27.808  1.00  0.00    -0.744 OA
ENDBRANCH  75  78
ENDBRANCH  47  71
BRANCH  59  82
ATOM     82  C   UNL A   1      46.783  25.826  32.635  1.00  0.00     0.023 A 
ATOM     83  C   UNL A   1      47.987  26.393  32.173  1.00  0.00     0.012 A 
ATOM     84  C   UNL A   1      46.824  24.786  33.582  1.00  0.00     0.148 A 
ATOM     85  C   UNL A   1      49.215  25.914  32.630  1.00  0.00     0.002 A 
ATOM     86  C   UNL A   1      48.050  24.342  34.065  1.00  0.00     0.091 A 
ATOM     87  F   UNL A   1      45.667  24.244  33.992  1.00  0.00    -0.205 F 
ATOM     88  C   UNL A   1      49.247  24.900  33.583  1.00  0.00     0.022 A 
BRANCH  86  89
ATOM     89  S   UNL A   1      48.177  23.100  35.356  1.00  0.00     0.127 S 
ATOM     90  O   UNL A   1      47.419  23.718  36.442  1.00  0.00    -0.237 OA
ATOM     91  O   UNL A   1      47.528  21.939  34.742  1.00  0.00    -0.237 OA
ATOM     92  O   UNL A   1      49.603  22.928  35.601  1.00  0.00    -0.744 OA
ENDBRANCH  86  89
ENDBRANCH  59  82
ENDBRANCH  33  34
ENDBRANCH  26  28
ENDBRANCH  25  26
ENDBRANCH  24  25
ENDBRANCH   1  24
TORSDOF 18
ENDMDL
