MODEL 1
REMARK VINA RESULT:     -13.1      0.000      0.000
REMARK SMILES O=C(OCCOC(=O)c1ccc(-c2c3nc(c(-c4cccc(S(=O)(=O)[O-])c4F)c4ccc([nH]4)c(-c4cccc(S(=O)(=O)[O-])c4F)c4nc(c(-c5cccc(S(=O)(=O)[O-])c5F)c5ccc2[nH]5)C=C4)C=C3)cc1)C1=Cc2c(ccc(Cl)c2Sc2ccccc2)O[C@H]1C(F)(F)F
REMARK SMILES IDX 5 1 4 2 3 3 2 4 1 5 72 6 73 7 89 8 74 9 88 10 75 11 80 12
REMARK SMILES IDX 76 13 78 14 77 15 79 16 90 17 91 18 92 19 93 20 81 21 82 22
REMARK SMILES IDX 83 23 87 24 84 25 86 26 85 27 6 28 7 29 8 30 9 31 10 32
REMARK SMILES IDX 71 33 11 34 70 35 12 36 13 37 14 38 64 39 15 40 69 41 63 42
REMARK SMILES IDX 65 43 16 44 68 45 62 46 61 47 17 49 49 50 29 51 48 52 30 53
REMARK SMILES IDX 33 54 47 55 66 56 31 57 32 58 46 60 67 61 34 62 18 63 19 64
REMARK SMILES IDX 27 65 20 66 22 67 28 68 21 69 23 70 24 71 25 72 26 73 50 74
REMARK SMILES IDX 51 75 59 76 52 77 54 78 60 79 53 80 55 81 56 82 57 83 58 84
REMARK SMILES IDX 35 85 36 86 44 87 37 88 39 89 45 90 38 91 40 92 41 93 42 94
REMARK SMILES IDX 43 95
REMARK H PARENT 65 48 33 59
REMARK Flexibility Score: inf
ROOT
ATOM      1  C   UNL A   1      31.982  31.755  27.187  1.00  0.00     0.275 C 
ENDROOT
BRANCH   1   2
ATOM      2  C   UNL A   1      31.384  31.152  25.886  1.00  0.00     0.275 C 
BRANCH   2   3
ATOM      3  O   UNL A   1      31.434  29.723  25.789  1.00  0.00    -0.459 OA
BRANCH   3   4
ATOM      4  C   UNL A   1      31.873  29.141  24.663  1.00  0.00     0.338 C 
ATOM      5  O   UNL A   1      32.933  29.463  24.143  1.00  0.00    -0.246 OA
BRANCH   4   6
ATOM      6  C   UNL A   1      30.928  28.222  24.007  1.00  0.00     0.087 C 
ATOM      7  C   UNL A   1      30.843  26.895  24.199  1.00  0.00     0.028 C 
ATOM      8  C   UNL A   1      30.407  28.691  22.695  1.00  0.00     0.316 C 
ATOM      9  C   UNL A   1      31.811  26.141  23.380  1.00  0.00     0.033 A 
ATOM     10  O   UNL A   1      30.582  27.596  21.712  1.00  0.00    -0.475 OA
ATOM     11  C   UNL A   1      31.505  26.576  22.028  1.00  0.00     0.129 A 
ATOM     12  C   UNL A   1      32.760  25.057  23.709  1.00  0.00     0.042 A 
ATOM     13  C   UNL A   1      32.017  25.886  20.957  1.00  0.00     0.049 A 
ATOM     14  C   UNL A   1      33.226  24.402  22.526  1.00  0.00     0.055 A 
ATOM     15  C   UNL A   1      32.850  24.801  21.213  1.00  0.00     0.025 A 
ATOM     16  Cl  UNL A   1      34.247  22.983  22.528  1.00  0.00    -0.083 Cl
BRANCH   8  17
ATOM     17  C   UNL A   1      28.954  29.167  22.934  1.00  0.00     0.430 C 
ATOM     18  F   UNL A   1      28.201  28.181  23.490  1.00  0.00    -0.167 F 
ATOM     19  F   UNL A   1      28.893  30.231  23.758  1.00  0.00    -0.167 F 
ATOM     20  F   UNL A   1      28.349  29.505  21.768  1.00  0.00    -0.167 F 
ENDBRANCH   8  17
BRANCH  12  21
ATOM     21  S   UNL A   1      33.405  24.091  25.287  1.00  0.00    -0.088 SA
BRANCH  21  22
ATOM     22  C   UNL A   1      34.979  23.204  25.650  1.00  0.00     0.012 A 
ATOM     23  C   UNL A   1      35.150  21.806  25.753  1.00  0.00     0.015 A 
ATOM     24  C   UNL A   1      36.181  23.968  25.787  1.00  0.00     0.015 A 
ATOM     25  C   UNL A   1      36.445  21.207  25.693  1.00  0.00     0.001 A 
ATOM     26  C   UNL A   1      37.470  23.368  25.702  1.00  0.00     0.001 A 
ATOM     27  C   UNL A   1      37.599  21.987  25.610  1.00  0.00     0.000 A 
ENDBRANCH  21  22
ENDBRANCH  12  21
ENDBRANCH   4   6
ENDBRANCH   3   4
ENDBRANCH   2   3
ENDBRANCH   1   2
BRANCH   1  28
ATOM     28  O   UNL A   1      33.301  31.425  27.391  1.00  0.00    -0.458 OA
BRANCH  28  29
ATOM     29  C   UNL A   1      33.872  32.570  27.752  1.00  0.00     0.338 C 
ATOM     30  O   UNL A   1      33.427  33.702  27.882  1.00  0.00    -0.246 OA
BRANCH  29  31
ATOM     31  C   UNL A   1      35.121  32.176  28.224  1.00  0.00     0.060 A 
ATOM     32  C   UNL A   1      35.076  30.873  28.688  1.00  0.00     0.016 A 
ATOM     33  C   UNL A   1      36.193  33.077  28.224  1.00  0.00     0.016 A 
ATOM     34  C   UNL A   1      36.157  30.481  29.365  1.00  0.00     0.010 A 
ATOM     35  C   UNL A   1      37.329  32.633  28.801  1.00  0.00     0.010 A 
ATOM     36  C   UNL A   1      37.248  31.366  29.383  1.00  0.00    -0.014 A 
BRANCH  36  37
ATOM     37  C   UNL A   1      38.364  30.861  30.099  1.00  0.00     0.031 A 
ATOM     38  C   UNL A   1      38.408  31.208  31.527  1.00  0.00     0.074 A 
ATOM     39  C   UNL A   1      39.069  29.990  29.374  1.00  0.00     0.049 A 
ATOM     40  N   UNL A   1      39.242  30.773  32.408  1.00  0.00    -0.248 NA
ATOM     41  C   UNL A   1      37.392  32.152  32.047  1.00  0.00     0.031 C 
ATOM     42  C   UNL A   1      38.842  29.683  27.945  1.00  0.00     0.029 A 
ATOM     43  N   UNL A   1      40.056  29.158  29.745  1.00  0.00    -0.354 N 
ATOM     44  C   UNL A   1      38.906  31.434  33.571  1.00  0.00     0.074 A 
ATOM     45  C   UNL A   1      37.769  32.279  33.309  1.00  0.00     0.031 C 
ATOM     46  C   UNL A   1      39.667  28.697  27.578  1.00  0.00     0.029 A 
ATOM     47  C   UNL A   1      40.522  28.397  28.709  1.00  0.00     0.049 A 
ATOM     48  H   UNL A   1      40.406  29.103  30.664  1.00  0.00     0.167 HD
ATOM     49  C   UNL A   1      39.561  31.320  34.737  1.00  0.00     0.034 A 
ATOM     50  C   UNL A   1      41.591  27.598  28.715  1.00  0.00     0.034 A 
ATOM     51  C   UNL A   1      40.692  30.443  34.851  1.00  0.00     0.049 A 
ATOM     52  C   UNL A   1      42.291  27.512  30.034  1.00  0.00     0.074 A 
ATOM     53  C   UNL A   1      41.492  30.201  35.941  1.00  0.00     0.029 A 
ATOM     54  N   UNL A   1      41.186  29.674  33.795  1.00  0.00    -0.354 N 
ATOM     55  N   UNL A   1      41.970  28.097  31.171  1.00  0.00    -0.248 NA
ATOM     56  C   UNL A   1      43.477  26.669  30.095  1.00  0.00     0.031 C 
ATOM     57  C   UNL A   1      42.492  29.311  35.532  1.00  0.00     0.029 A 
ATOM     58  C   UNL A   1      42.294  28.966  34.198  1.00  0.00     0.049 A 
ATOM     59  H   UNL A   1      40.796  29.643  32.892  1.00  0.00     0.167 HD
ATOM     60  C   UNL A   1      42.914  27.698  32.092  1.00  0.00     0.074 A 
ATOM     61  C   UNL A   1      43.793  26.777  31.379  1.00  0.00     0.031 C 
ATOM     62  C   UNL A   1      43.077  28.058  33.390  1.00  0.00     0.034 A 
BRANCH  49  63
ATOM     63  C   UNL A   1      39.118  32.189  35.868  1.00  0.00     0.023 A 
ATOM     64  C   UNL A   1      39.559  33.524  35.966  1.00  0.00     0.012 A 
ATOM     65  C   UNL A   1      38.269  31.662  36.859  1.00  0.00     0.148 A 
ATOM     66  C   UNL A   1      39.161  34.322  37.040  1.00  0.00     0.002 A 
ATOM     67  C   UNL A   1      37.842  32.476  37.899  1.00  0.00     0.091 A 
ATOM     68  F   UNL A   1      37.919  30.371  36.777  1.00  0.00    -0.205 F 
ATOM     69  C   UNL A   1      38.293  33.803  37.997  1.00  0.00     0.022 A 
BRANCH  67  70
ATOM     70  S   UNL A   1      36.680  31.915  39.147  1.00  0.00     0.127 S 
ATOM     71  O   UNL A   1      37.394  32.235  40.383  1.00  0.00    -0.237 OA
ATOM     72  O   UNL A   1      35.520  32.762  38.875  1.00  0.00    -0.237 OA
ATOM     73  O   UNL A   1      36.478  30.493  38.906  1.00  0.00    -0.744 OA
ENDBRANCH  67  70
ENDBRANCH  49  63
BRANCH  50  74
ATOM     74  C   UNL A   1      42.021  26.925  27.469  1.00  0.00     0.023 A 
ATOM     75  C   UNL A   1      42.615  27.671  26.440  1.00  0.00     0.012 A 
ATOM     76  C   UNL A   1      41.917  25.522  27.332  1.00  0.00     0.148 A 
ATOM     77  C   UNL A   1      43.059  27.042  25.277  1.00  0.00     0.002 A 
ATOM     78  C   UNL A   1      42.412  24.895  26.197  1.00  0.00     0.091 A 
ATOM     79  F   UNL A   1      41.354  24.822  28.327  1.00  0.00    -0.205 F 
ATOM     80  C   UNL A   1      42.965  25.655  25.158  1.00  0.00     0.022 A 
BRANCH  78  81
ATOM     81  S   UNL A   1      42.450  23.106  26.036  1.00  0.00     0.127 S 
ATOM     82  O   UNL A   1      43.326  22.727  27.142  1.00  0.00    -0.237 OA
ATOM     83  O   UNL A   1      41.042  22.749  26.216  1.00  0.00    -0.237 OA
ATOM     84  O   UNL A   1      42.964  22.845  24.698  1.00  0.00    -0.744 OA
ENDBRANCH  78  81
ENDBRANCH  50  74
BRANCH  62  85
ATOM     85  C   UNL A   1      44.244  27.427  34.076  1.00  0.00     0.023 A 
ATOM     86  C   UNL A   1      45.510  28.034  33.990  1.00  0.00     0.012 A 
ATOM     87  C   UNL A   1      44.051  26.278  34.860  1.00  0.00     0.148 A 
ATOM     88  C   UNL A   1      46.591  27.473  34.655  1.00  0.00     0.002 A 
ATOM     89  C   UNL A   1      45.119  25.766  35.572  1.00  0.00     0.091 A 
ATOM     90  F   UNL A   1      42.830  25.725  34.898  1.00  0.00    -0.205 F 
ATOM     91  C   UNL A   1      46.393  26.350  35.457  1.00  0.00     0.022 A 
BRANCH  89  92
ATOM     92  S   UNL A   1      44.926  24.405  36.720  1.00  0.00     0.127 S 
ATOM     93  O   UNL A   1      43.790  24.856  37.523  1.00  0.00    -0.237 OA
ATOM     94  O   UNL A   1      44.639  23.287  35.822  1.00  0.00    -0.237 OA
ATOM     95  O   UNL A   1      46.191  24.297  37.435  1.00  0.00    -0.744 OA
ENDBRANCH  89  92
ENDBRANCH  62  85
ENDBRANCH  36  37
ENDBRANCH  29  31
ENDBRANCH  28  29
ENDBRANCH   1  28
TORSDOF 17
ENDMDL
MODEL 2
REMARK VINA RESULT:     -13.0      1.555      1.904
REMARK SMILES O=C(OCCOC(=O)c1ccc(-c2c3nc(c(-c4cccc(S(=O)(=O)[O-])c4F)c4ccc([nH]4)c(-c4cccc(S(=O)(=O)[O-])c4F)c4nc(c(-c5cccc(S(=O)(=O)[O-])c5F)c5ccc2[nH]5)C=C4)C=C3)cc1)C1=Cc2c(ccc(Cl)c2Sc2ccccc2)O[C@H]1C(F)(F)F
REMARK SMILES IDX 5 1 4 2 3 3 2 4 1 5 72 6 73 7 89 8 74 9 88 10 75 11 80 12
REMARK SMILES IDX 76 13 78 14 77 15 79 16 90 17 91 18 92 19 93 20 81 21 82 22
REMARK SMILES IDX 83 23 87 24 84 25 86 26 85 27 6 28 7 29 8 30 9 31 10 32
REMARK SMILES IDX 71 33 11 34 70 35 12 36 13 37 14 38 64 39 15 40 69 41 63 42
REMARK SMILES IDX 65 43 16 44 68 45 62 46 61 47 17 49 49 50 29 51 48 52 30 53
REMARK SMILES IDX 33 54 47 55 66 56 31 57 32 58 46 60 67 61 34 62 18 63 19 64
REMARK SMILES IDX 27 65 20 66 22 67 28 68 21 69 23 70 24 71 25 72 26 73 50 74
REMARK SMILES IDX 51 75 59 76 52 77 54 78 60 79 53 80 55 81 56 82 57 83 58 84
REMARK SMILES IDX 35 85 36 86 44 87 37 88 39 89 45 90 38 91 40 92 41 93 42 94
REMARK SMILES IDX 43 95
REMARK H PARENT 65 48 33 59
REMARK Flexibility Score: inf
ROOT
ATOM      1  C   UNL A   1      32.181  30.933  27.030  1.00  0.00     0.275 C 
ENDROOT
BRANCH   1   2
ATOM      2  C   UNL A   1      31.486  30.751  25.652  1.00  0.00     0.275 C 
BRANCH   2   3
ATOM      3  O   UNL A   1      31.808  29.541  24.955  1.00  0.00    -0.459 OA
BRANCH   3   4
ATOM      4  C   UNL A   1      31.222  28.387  25.306  1.00  0.00     0.338 C 
ATOM      5  O   UNL A   1      31.428  27.866  26.394  1.00  0.00    -0.246 OA
BRANCH   4   6
ATOM      6  C   UNL A   1      30.460  27.706  24.246  1.00  0.00     0.087 C 
ATOM      7  C   UNL A   1      30.318  26.378  24.093  1.00  0.00     0.028 C 
ATOM      8  C   UNL A   1      30.284  28.494  22.997  1.00  0.00     0.316 C 
ATOM      9  C   UNL A   1      31.452  25.767  23.374  1.00  0.00     0.033 A 
ATOM     10  O   UNL A   1      30.687  27.641  21.854  1.00  0.00    -0.475 OA
ATOM     11  C   UNL A   1      31.494  26.516  22.130  1.00  0.00     0.129 A 
ATOM     12  C   UNL A   1      32.280  24.575  23.654  1.00  0.00     0.042 A 
ATOM     13  C   UNL A   1      32.248  26.055  21.081  1.00  0.00     0.049 A 
ATOM     14  C   UNL A   1      33.019  24.176  22.496  1.00  0.00     0.055 A 
ATOM     15  C   UNL A   1      32.983  24.887  21.264  1.00  0.00     0.025 A 
ATOM     16  Cl  UNL A   1      33.994  22.728  22.406  1.00  0.00    -0.083 Cl
BRANCH   8  17
ATOM     17  C   UNL A   1      28.821  28.999  22.988  1.00  0.00     0.430 C 
ATOM     18  F   UNL A   1      28.680  30.102  23.770  1.00  0.00    -0.167 F 
ATOM     19  F   UNL A   1      28.400  29.326  21.751  1.00  0.00    -0.167 F 
ATOM     20  F   UNL A   1      27.975  28.063  23.484  1.00  0.00    -0.167 F 
ENDBRANCH   8  17
BRANCH  12  21
ATOM     21  S   UNL A   1      32.507  23.236  25.066  1.00  0.00    -0.088 SA
BRANCH  21  22
ATOM     22  C   UNL A   1      32.997  21.460  25.035  1.00  0.00     0.012 A 
ATOM     23  C   UNL A   1      32.172  20.368  24.689  1.00  0.00     0.015 A 
ATOM     24  C   UNL A   1      34.356  21.119  25.325  1.00  0.00     0.015 A 
ATOM     25  C   UNL A   1      32.724  19.090  24.364  1.00  0.00     0.001 A 
ATOM     26  C   UNL A   1      34.907  19.853  24.976  1.00  0.00     0.001 A 
ATOM     27  C   UNL A   1      34.095  18.852  24.454  1.00  0.00     0.000 A 
ENDBRANCH  21  22
ENDBRANCH  12  21
ENDBRANCH   4   6
ENDBRANCH   3   4
ENDBRANCH   2   3
ENDBRANCH   1   2
BRANCH   1  28
ATOM     28  O   UNL A   1      33.553  30.875  26.966  1.00  0.00    -0.458 OA
BRANCH  28  29
ATOM     29  C   UNL A   1      33.954  32.011  27.529  1.00  0.00     0.338 C 
ATOM     30  O   UNL A   1      33.365  33.051  27.787  1.00  0.00    -0.246 OA
BRANCH  29  31
ATOM     31  C   UNL A   1      35.215  31.697  28.032  1.00  0.00     0.060 A 
ATOM     32  C   UNL A   1      35.270  30.367  28.411  1.00  0.00     0.016 A 
ATOM     33  C   UNL A   1      36.200  32.687  28.137  1.00  0.00     0.016 A 
ATOM     34  C   UNL A   1      36.354  30.028  29.110  1.00  0.00     0.010 A 
ATOM     35  C   UNL A   1      37.348  32.306  28.735  1.00  0.00     0.010 A 
ATOM     36  C   UNL A   1      37.359  31.002  29.231  1.00  0.00    -0.014 A 
BRANCH  36  37
ATOM     37  C   UNL A   1      38.487  30.550  29.965  1.00  0.00     0.031 A 
ATOM     38  C   UNL A   1      38.523  30.949  31.379  1.00  0.00     0.074 A 
ATOM     39  C   UNL A   1      39.213  29.672  29.271  1.00  0.00     0.049 A 
ATOM     40  N   UNL A   1      39.367  30.566  32.274  1.00  0.00    -0.248 NA
ATOM     41  C   UNL A   1      37.484  31.886  31.866  1.00  0.00     0.031 C 
ATOM     42  C   UNL A   1      38.994  29.308  27.853  1.00  0.00     0.029 A 
ATOM     43  N   UNL A   1      40.221  28.878  29.670  1.00  0.00    -0.354 N 
ATOM     44  C   UNL A   1      39.016  31.260  33.414  1.00  0.00     0.074 A 
ATOM     45  C   UNL A   1      37.858  32.066  33.122  1.00  0.00     0.031 C 
ATOM     46  C   UNL A   1      39.842  28.330  27.520  1.00  0.00     0.029 A 
ATOM     47  C   UNL A   1      40.704  28.092  28.661  1.00  0.00     0.049 A 
ATOM     48  H   UNL A   1      40.572  28.864  30.589  1.00  0.00     0.167 HD
ATOM     49  C   UNL A   1      39.674  31.203  34.582  1.00  0.00     0.034 A 
ATOM     50  C   UNL A   1      41.792  27.319  28.694  1.00  0.00     0.034 A 
ATOM     51  C   UNL A   1      40.825  30.359  34.726  1.00  0.00     0.049 A 
ATOM     52  C   UNL A   1      42.495  27.298  30.015  1.00  0.00     0.074 A 
ATOM     53  C   UNL A   1      41.631  30.175  35.823  1.00  0.00     0.029 A 
ATOM     54  N   UNL A   1      41.338  29.565  33.697  1.00  0.00    -0.354 N 
ATOM     55  N   UNL A   1      42.160  27.915  31.130  1.00  0.00    -0.248 NA
ATOM     56  C   UNL A   1      43.701  26.486  30.105  1.00  0.00     0.031 C 
ATOM     57  C   UNL A   1      42.653  29.296  35.445  1.00  0.00     0.029 A 
ATOM     58  C   UNL A   1      42.463  28.899  34.124  1.00  0.00     0.049 A 
ATOM     59  H   UNL A   1      40.949  29.492  32.796  1.00  0.00     0.167 HD
ATOM     60  C   UNL A   1      43.114  27.572  32.064  1.00  0.00     0.074 A 
ATOM     61  C   UNL A   1      44.014  26.648  31.383  1.00  0.00     0.031 C 
ATOM     62  C   UNL A   1      43.268  27.982  33.348  1.00  0.00     0.034 A 
BRANCH  49  63
ATOM     63  C   UNL A   1      39.209  32.101  35.682  1.00  0.00     0.023 A 
ATOM     64  C   UNL A   1      38.226  31.672  36.595  1.00  0.00     0.012 A 
ATOM     65  C   UNL A   1      39.742  33.398  35.792  1.00  0.00     0.148 A 
ATOM     66  C   UNL A   1      37.777  32.525  37.603  1.00  0.00     0.002 A 
ATOM     67  C   UNL A   1      39.325  34.226  36.826  1.00  0.00     0.091 A 
ATOM     68  F   UNL A   1      40.627  33.804  34.871  1.00  0.00    -0.205 F 
ATOM     69  C   UNL A   1      38.337  33.795  37.727  1.00  0.00     0.022 A 
BRANCH  67  70
ATOM     70  S   UNL A   1      40.027  35.854  37.102  1.00  0.00     0.127 S 
ATOM     71  O   UNL A   1      39.334  36.273  38.320  1.00  0.00    -0.237 OA
ATOM     72  O   UNL A   1      41.443  35.541  37.281  1.00  0.00    -0.237 OA
ATOM     73  O   UNL A   1      39.712  36.639  35.917  1.00  0.00    -0.744 OA
ENDBRANCH  67  70
ENDBRANCH  49  63
BRANCH  50  74
ATOM     74  C   UNL A   1      42.239  26.613  27.472  1.00  0.00     0.023 A 
ATOM     75  C   UNL A   1      42.956  27.307  26.485  1.00  0.00     0.012 A 
ATOM     76  C   UNL A   1      42.024  25.224  27.320  1.00  0.00     0.148 A 
ATOM     77  C   UNL A   1      43.414  26.643  25.348  1.00  0.00     0.002 A 
ATOM     78  C   UNL A   1      42.532  24.558  26.214  1.00  0.00     0.091 A 
ATOM     79  F   UNL A   1      41.343  24.574  28.275  1.00  0.00    -0.205 F 
ATOM     80  C   UNL A   1      43.210  25.269  25.216  1.00  0.00     0.022 A 
BRANCH  78  81
ATOM     81  S   UNL A   1      42.427  22.773  26.045  1.00  0.00     0.127 S 
ATOM     82  O   UNL A   1      43.270  22.320  27.149  1.00  0.00    -0.237 OA
ATOM     83  O   UNL A   1      40.995  22.529  26.223  1.00  0.00    -0.237 OA
ATOM     84  O   UNL A   1      42.918  22.478  24.705  1.00  0.00    -0.744 OA
ENDBRANCH  78  81
ENDBRANCH  50  74
BRANCH  62  85
ATOM     85  C   UNL A   1      44.450  27.405  34.055  1.00  0.00     0.023 A 
ATOM     86  C   UNL A   1      45.692  28.058  33.975  1.00  0.00     0.012 A 
ATOM     87  C   UNL A   1      44.292  26.259  34.851  1.00  0.00     0.148 A 
ATOM     88  C   UNL A   1      46.787  27.547  34.659  1.00  0.00     0.002 A 
ATOM     89  C   UNL A   1      45.370  25.797  35.581  1.00  0.00     0.091 A 
ATOM     90  F   UNL A   1      43.093  25.659  34.883  1.00  0.00    -0.205 F 
ATOM     91  C   UNL A   1      46.622  26.427  35.474  1.00  0.00     0.022 A 
BRANCH  89  92
ATOM     92  S   UNL A   1      45.216  24.443  36.744  1.00  0.00     0.127 S 
ATOM     93  O   UNL A   1      44.138  24.920  37.610  1.00  0.00    -0.237 OA
ATOM     94  O   UNL A   1      44.854  23.329  35.869  1.00  0.00    -0.237 OA
ATOM     95  O   UNL A   1      46.517  24.310  37.385  1.00  0.00    -0.744 OA
ENDBRANCH  89  92
ENDBRANCH  62  85
ENDBRANCH  36  37
ENDBRANCH  29  31
ENDBRANCH  28  29
ENDBRANCH   1  28
TORSDOF 17
ENDMDL
MODEL 3
REMARK VINA RESULT:     -13.0      5.423     10.644
REMARK SMILES O=C(OCCOC(=O)c1ccc(-c2c3nc(c(-c4cccc(S(=O)(=O)[O-])c4F)c4ccc([nH]4)c(-c4cccc(S(=O)(=O)[O-])c4F)c4nc(c(-c5cccc(S(=O)(=O)[O-])c5F)c5ccc2[nH]5)C=C4)C=C3)cc1)C1=Cc2c(ccc(Cl)c2Sc2ccccc2)O[C@H]1C(F)(F)F
REMARK SMILES IDX 5 1 4 2 3 3 2 4 1 5 72 6 73 7 89 8 74 9 88 10 75 11 80 12
REMARK SMILES IDX 76 13 78 14 77 15 79 16 90 17 91 18 92 19 93 20 81 21 82 22
REMARK SMILES IDX 83 23 87 24 84 25 86 26 85 27 6 28 7 29 8 30 9 31 10 32
REMARK SMILES IDX 71 33 11 34 70 35 12 36 13 37 14 38 64 39 15 40 69 41 63 42
REMARK SMILES IDX 65 43 16 44 68 45 62 46 61 47 17 49 49 50 29 51 48 52 30 53
REMARK SMILES IDX 33 54 47 55 66 56 31 57 32 58 46 60 67 61 34 62 18 63 19 64
REMARK SMILES IDX 27 65 20 66 22 67 28 68 21 69 23 70 24 71 25 72 26 73 50 74
REMARK SMILES IDX 51 75 59 76 52 77 54 78 60 79 53 80 55 81 56 82 57 83 58 84
REMARK SMILES IDX 35 85 36 86 44 87 37 88 39 89 45 90 38 91 40 92 41 93 42 94
REMARK SMILES IDX 43 95
REMARK H PARENT 65 48 33 59
REMARK Flexibility Score: inf
ROOT
ATOM      1  C   UNL A   1      37.944  20.973  25.204  1.00  0.00     0.275 C 
ENDROOT
BRANCH   1   2
ATOM      2  C   UNL A   1      36.511  21.198  25.760  1.00  0.00     0.275 C 
BRANCH   2   3
ATOM      3  O   UNL A   1      35.445  20.738  24.920  1.00  0.00    -0.459 OA
BRANCH   3   4
ATOM      4  C   UNL A   1      34.820  21.593  24.098  1.00  0.00     0.338 C 
ATOM      5  O   UNL A   1      35.377  22.593  23.665  1.00  0.00    -0.246 OA
BRANCH   4   6
ATOM      6  C   UNL A   1      33.383  21.348  23.891  1.00  0.00     0.087 C 
ATOM      7  C   UNL A   1      32.475  22.243  23.466  1.00  0.00     0.028 C 
ATOM      8  C   UNL A   1      32.818  20.223  24.684  1.00  0.00     0.316 C 
ATOM      9  C   UNL A   1      31.954  23.084  24.561  1.00  0.00     0.033 A 
ATOM     10  O   UNL A   1      31.601  20.712  25.373  1.00  0.00    -0.475 OA
ATOM     11  C   UNL A   1      31.443  22.108  25.509  1.00  0.00     0.129 A 
ATOM     12  C   UNL A   1      31.767  24.544  24.691  1.00  0.00     0.042 A 
ATOM     13  C   UNL A   1      30.631  22.516  26.538  1.00  0.00     0.049 A 
ATOM     14  C   UNL A   1      30.903  24.859  25.786  1.00  0.00     0.055 A 
ATOM     15  C   UNL A   1      30.354  23.875  26.655  1.00  0.00     0.025 A 
ATOM     16  Cl  UNL A   1      30.339  26.471  26.158  1.00  0.00    -0.083 Cl
BRANCH   8  17
ATOM     17  C   UNL A   1      32.619  19.041  23.705  1.00  0.00     0.430 C 
ATOM     18  F   UNL A   1      31.799  18.098  24.238  1.00  0.00    -0.167 F 
ATOM     19  F   UNL A   1      32.077  19.432  22.535  1.00  0.00    -0.167 F 
ATOM     20  F   UNL A   1      33.796  18.423  23.435  1.00  0.00    -0.167 F 
ENDBRANCH   8  17
BRANCH  12  21
ATOM     21  S   UNL A   1      32.162  26.176  23.681  1.00  0.00    -0.088 SA
BRANCH  21  22
ATOM     22  C   UNL A   1      31.212  27.729  23.398  1.00  0.00     0.012 A 
ATOM     23  C   UNL A   1      30.090  27.885  22.556  1.00  0.00     0.015 A 
ATOM     24  C   UNL A   1      31.579  28.901  24.133  1.00  0.00     0.015 A 
ATOM     25  C   UNL A   1      29.226  29.018  22.666  1.00  0.00     0.001 A 
ATOM     26  C   UNL A   1      30.704  30.017  24.260  1.00  0.00     0.001 A 
ATOM     27  C   UNL A   1      29.505  30.054  23.558  1.00  0.00     0.000 A 
ENDBRANCH  21  22
ENDBRANCH  12  21
ENDBRANCH   4   6
ENDBRANCH   3   4
ENDBRANCH   2   3
ENDBRANCH   1   2
BRANCH   1  28
ATOM     28  O   UNL A   1      38.813  22.000  25.492  1.00  0.00    -0.458 OA
BRANCH  28  29
ATOM     29  C   UNL A   1      39.586  21.512  26.457  1.00  0.00     0.338 C 
ATOM     30  O   UNL A   1      39.950  20.374  26.720  1.00  0.00    -0.246 OA
BRANCH  29  31
ATOM     31  C   UNL A   1      40.150  22.651  27.028  1.00  0.00     0.060 A 
ATOM     32  C   UNL A   1      39.629  23.794  26.448  1.00  0.00     0.016 A 
ATOM     33  C   UNL A   1      41.138  22.531  28.015  1.00  0.00     0.016 A 
ATOM     34  C   UNL A   1      40.266  24.923  26.764  1.00  0.00     0.010 A 
ATOM     35  C   UNL A   1      41.696  23.690  28.424  1.00  0.00     0.010 A 
ATOM     36  C   UNL A   1      41.262  24.833  27.751  1.00  0.00    -0.014 A 
BRANCH  36  37
ATOM     37  C   UNL A   1      41.868  26.082  28.047  1.00  0.00     0.031 A 
ATOM     38  C   UNL A   1      43.194  26.298  27.450  1.00  0.00     0.074 A 
ATOM     39  C   UNL A   1      41.023  26.914  28.658  1.00  0.00     0.049 A 
ATOM     40  N   UNL A   1      43.887  27.384  27.466  1.00  0.00    -0.248 NA
ATOM     41  C   UNL A   1      43.829  25.167  26.734  1.00  0.00     0.031 C 
ATOM     42  C   UNL A   1      39.665  26.562  29.129  1.00  0.00     0.029 A 
ATOM     43  N   UNL A   1      41.141  28.226  28.919  1.00  0.00    -0.354 N 
ATOM     44  C   UNL A   1      45.069  27.061  26.831  1.00  0.00     0.074 A 
ATOM     45  C   UNL A   1      44.999  25.688  26.401  1.00  0.00     0.031 C 
ATOM     46  C   UNL A   1      39.072  27.663  29.602  1.00  0.00     0.029 A 
ATOM     47  C   UNL A   1      40.042  28.739  29.551  1.00  0.00     0.049 A 
ATOM     48  H   UNL A   1      41.934  28.760  28.682  1.00  0.00     0.167 HD
ATOM     49  C   UNL A   1      46.110  27.892  26.676  1.00  0.00     0.034 A 
ATOM     50  C   UNL A   1      39.915  29.958  30.080  1.00  0.00     0.034 A 
ATOM     51  C   UNL A   1      46.043  29.239  27.167  1.00  0.00     0.049 A 
ATOM     52  C   UNL A   1      41.106  30.843  29.889  1.00  0.00     0.074 A 
ATOM     53  C   UNL A   1      46.997  30.227  27.117  1.00  0.00     0.029 A 
ATOM     54  N   UNL A   1      44.933  29.769  27.829  1.00  0.00    -0.354 N 
ATOM     55  N   UNL A   1      42.229  30.577  29.252  1.00  0.00    -0.248 NA
ATOM     56  C   UNL A   1      41.032  32.179  30.463  1.00  0.00     0.031 C 
ATOM     57  C   UNL A   1      46.474  31.343  27.781  1.00  0.00     0.029 A 
ATOM     58  C   UNL A   1      45.179  31.067  28.211  1.00  0.00     0.049 A 
ATOM     59  H   UNL A   1      44.094  29.282  27.996  1.00  0.00     0.167 HD
ATOM     60  C   UNL A   1      43.005  31.712  29.345  1.00  0.00     0.074 A 
ATOM     61  C   UNL A   1      42.191  32.685  30.065  1.00  0.00     0.031 C 
ATOM     62  C   UNL A   1      44.270  31.945  28.913  1.00  0.00     0.034 A 
BRANCH  49  63
ATOM     63  C   UNL A   1      47.349  27.340  26.050  1.00  0.00     0.023 A 
ATOM     64  C   UNL A   1      47.580  27.478  24.667  1.00  0.00     0.012 A 
ATOM     65  C   UNL A   1      48.284  26.654  26.846  1.00  0.00     0.148 A 
ATOM     66  C   UNL A   1      48.727  26.937  24.084  1.00  0.00     0.002 A 
ATOM     67  C   UNL A   1      49.445  26.158  26.268  1.00  0.00     0.091 A 
ATOM     68  F   UNL A   1      48.008  26.480  28.146  1.00  0.00    -0.205 F 
ATOM     69  C   UNL A   1      49.664  26.290  24.886  1.00  0.00     0.022 A 
BRANCH  67  70
ATOM     70  S   UNL A   1      50.736  25.362  27.226  1.00  0.00     0.127 S 
ATOM     71  O   UNL A   1      51.141  26.439  28.131  1.00  0.00    -0.237 OA
ATOM     72  O   UNL A   1      50.003  24.271  27.866  1.00  0.00    -0.237 OA
ATOM     73  O   UNL A   1      51.755  24.947  26.272  1.00  0.00    -0.744 OA
ENDBRANCH  67  70
ENDBRANCH  49  63
BRANCH  50  74
ATOM     74  C   UNL A   1      38.689  30.318  30.828  1.00  0.00     0.023 A 
ATOM     75  C   UNL A   1      38.589  30.015  32.195  1.00  0.00     0.012 A 
ATOM     76  C   UNL A   1      37.646  31.039  30.203  1.00  0.00     0.148 A 
ATOM     77  C   UNL A   1      37.454  30.383  32.917  1.00  0.00     0.002 A 
ATOM     78  C   UNL A   1      36.546  31.451  30.941  1.00  0.00     0.091 A 
ATOM     79  F   UNL A   1      37.761  31.327  28.898  1.00  0.00    -0.205 F 
ATOM     80  C   UNL A   1      36.438  31.107  32.294  1.00  0.00     0.022 A 
BRANCH  78  81
ATOM     81  S   UNL A   1      35.268  32.502  30.240  1.00  0.00     0.127 S 
ATOM     82  O   UNL A   1      34.782  31.681  29.135  1.00  0.00    -0.237 OA
ATOM     83  O   UNL A   1      34.336  32.644  31.359  1.00  0.00    -0.237 OA
ATOM     84  O   UNL A   1      35.942  33.739  29.867  1.00  0.00    -0.744 OA
ENDBRANCH  78  81
ENDBRANCH  50  74
BRANCH  62  85
ATOM     85  C   UNL A   1      44.798  33.308  29.218  1.00  0.00     0.023 A 
ATOM     86  C   UNL A   1      45.425  33.548  30.454  1.00  0.00     0.012 A 
ATOM     87  C   UNL A   1      44.729  34.315  28.242  1.00  0.00     0.148 A 
ATOM     88  C   UNL A   1      45.951  34.803  30.730  1.00  0.00     0.002 A 
ATOM     89  C   UNL A   1      45.314  35.540  28.500  1.00  0.00     0.091 A 
ATOM     90  F   UNL A   1      44.106  34.046  27.085  1.00  0.00    -0.205 F 
ATOM     91  C   UNL A   1      45.908  35.793  29.748  1.00  0.00     0.022 A 
BRANCH  89  92
ATOM     92  S   UNL A   1      45.415  36.822  27.253  1.00  0.00     0.127 S 
ATOM     93  O   UNL A   1      46.040  36.105  26.143  1.00  0.00    -0.237 OA
ATOM     94  O   UNL A   1      44.007  37.162  27.051  1.00  0.00    -0.237 OA
ATOM     95  O   UNL A   1      46.217  37.890  27.836  1.00  0.00    -0.744 OA
ENDBRANCH  89  92
ENDBRANCH  62  85
ENDBRANCH  36  37
ENDBRANCH  29  31
ENDBRANCH  28  29
ENDBRANCH   1  28
TORSDOF 17
ENDMDL
