MODEL 1
REMARK VINA RESULT:     -11.4      0.000      0.000
REMARK SMILES O=C(OCCOC(=O)c1cccc2c(C(F)(F)F)cc(Br)nc12)c1ccc(-c2c3nc(c(-c4cccc(S(=O)(=O)[O-])c4F)c4ccc([nH]4)c(-c4cccc(S(=O)(=O)[O-])c4F)c4nc(c(-c5cccc(S(=O)(=O)[O-])c5F)c5ccc2[nH]5)C=C4)C=C3)cc1
REMARK SMILES IDX 4 1 3 2 2 3 1 4 24 5 25 6 86 7 26 8 85 9 27 10 28 11 29 12
REMARK SMILES IDX 79 13 30 14 84 15 78 16 80 17 31 18 83 19 77 20 76 21 32 23
REMARK SMILES IDX 64 24 44 25 63 26 45 27 48 28 62 29 81 30 46 31 47 32 61 34
REMARK SMILES IDX 82 35 49 36 33 37 34 38 42 39 35 40 37 41 43 42 36 43 38 44
REMARK SMILES IDX 39 45 40 46 41 47 65 48 66 49 74 50 67 51 69 52 75 53 68 54
REMARK SMILES IDX 70 55 71 56 72 57 73 58 50 59 51 60 59 61 52 62 54 63 60 64
REMARK SMILES IDX 53 65 55 66 56 67 57 68 58 69 5 70 6 71 7 72 8 73 9 74 10 75
REMARK SMILES IDX 23 76 11 77 13 78 22 79 12 80 14 81 20 82 19 83 21 84 15 85
REMARK SMILES IDX 16 86 17 87 18 88
REMARK H PARENT 80 22 48 33
REMARK Flexibility Score: inf
ROOT
ATOM      1  C   UNL A   1      39.005  20.045  26.089  1.00  0.00     0.275 C 
ENDROOT
BRANCH   1   2
ATOM      2  O   UNL A   1      40.186  19.367  25.632  1.00  0.00    -0.458 OA
BRANCH   2   3
ATOM      3  C   UNL A   1      41.438  19.582  26.119  1.00  0.00     0.338 C 
ATOM      4  O   UNL A   1      42.158  18.641  26.439  1.00  0.00    -0.246 OA
BRANCH   3   5
ATOM      5  C   UNL A   1      41.830  20.962  26.512  1.00  0.00     0.060 A 
ATOM      6  C   UNL A   1      41.978  21.893  25.475  1.00  0.00     0.016 A 
ATOM      7  C   UNL A   1      42.039  21.385  27.827  1.00  0.00     0.016 A 
ATOM      8  C   UNL A   1      42.470  23.174  25.734  1.00  0.00     0.010 A 
ATOM      9  C   UNL A   1      42.522  22.669  28.093  1.00  0.00     0.010 A 
ATOM     10  C   UNL A   1      42.763  23.567  27.050  1.00  0.00    -0.014 A 
BRANCH  10  11
ATOM     11  C   UNL A   1      43.067  24.982  27.354  1.00  0.00     0.031 A 
ATOM     12  C   UNL A   1      42.053  25.939  27.906  1.00  0.00     0.074 A 
ATOM     13  C   UNL A   1      44.301  25.414  27.033  1.00  0.00     0.049 A 
ATOM     14  N   UNL A   1      42.246  27.145  28.375  1.00  0.00    -0.248 NA
ATOM     15  C   UNL A   1      40.650  25.503  27.955  1.00  0.00     0.031 C 
ATOM     16  C   UNL A   1      45.329  24.592  26.386  1.00  0.00     0.029 A 
ATOM     17  N   UNL A   1      44.885  26.643  27.163  1.00  0.00    -0.354 N 
ATOM     18  C   UNL A   1      41.010  27.584  28.836  1.00  0.00     0.074 A 
ATOM     19  C   UNL A   1      40.060  26.530  28.559  1.00  0.00     0.031 C 
ATOM     20  C   UNL A   1      46.408  25.349  26.151  1.00  0.00     0.029 A 
ATOM     21  C   UNL A   1      46.142  26.704  26.615  1.00  0.00     0.049 A 
ATOM     22  H   UNL A   1      44.448  27.408  27.603  1.00  0.00     0.167 HD
ATOM     23  C   UNL A   1      40.713  28.758  29.436  1.00  0.00     0.034 A 
ATOM     24  C   UNL A   1      46.986  27.743  26.479  1.00  0.00     0.034 A 
ATOM     25  C   UNL A   1      41.638  29.853  29.556  1.00  0.00     0.049 A 
ATOM     26  C   UNL A   1      46.598  29.068  27.052  1.00  0.00     0.074 A 
ATOM     27  C   UNL A   1      41.432  31.089  30.144  1.00  0.00     0.029 A 
ATOM     28  N   UNL A   1      42.911  29.873  29.010  1.00  0.00    -0.354 N 
ATOM     29  N   UNL A   1      45.501  29.389  27.694  1.00  0.00    -0.248 NA
ATOM     30  C   UNL A   1      47.565  30.165  26.915  1.00  0.00     0.031 C 
ATOM     31  C   UNL A   1      42.562  31.874  29.906  1.00  0.00     0.029 A 
ATOM     32  C   UNL A   1      43.485  31.115  29.205  1.00  0.00     0.049 A 
ATOM     33  H   UNL A   1      43.343  29.116  28.553  1.00  0.00     0.167 HD
ATOM     34  C   UNL A   1      45.651  30.719  28.057  1.00  0.00     0.074 A 
ATOM     35  C   UNL A   1      46.948  31.143  27.569  1.00  0.00     0.031 C 
ATOM     36  C   UNL A   1      44.786  31.512  28.731  1.00  0.00     0.034 A 
BRANCH  23  37
ATOM     37  C   UNL A   1      39.356  28.938  30.062  1.00  0.00     0.023 A 
ATOM     38  C   UNL A   1      39.127  28.363  31.329  1.00  0.00     0.012 A 
ATOM     39  C   UNL A   1      38.397  29.809  29.512  1.00  0.00     0.148 A 
ATOM     40  C   UNL A   1      37.969  28.663  32.047  1.00  0.00     0.002 A 
ATOM     41  C   UNL A   1      37.251  30.116  30.240  1.00  0.00     0.091 A 
ATOM     42  F   UNL A   1      38.641  30.345  28.308  1.00  0.00    -0.205 F 
ATOM     43  C   UNL A   1      37.038  29.546  31.507  1.00  0.00     0.022 A 
BRANCH  41  44
ATOM     44  S   UNL A   1      36.000  31.266  29.657  1.00  0.00     0.127 S 
ATOM     45  O   UNL A   1      36.825  32.372  29.169  1.00  0.00    -0.237 OA
ATOM     46  O   UNL A   1      35.336  30.491  28.609  1.00  0.00    -0.237 OA
ATOM     47  O   UNL A   1      35.174  31.582  30.813  1.00  0.00    -0.744 OA
ENDBRANCH  41  44
ENDBRANCH  23  37
BRANCH  24  48
ATOM     48  C   UNL A   1      48.283  27.509  25.798  1.00  0.00     0.023 A 
ATOM     49  C   UNL A   1      49.368  26.997  26.531  1.00  0.00     0.012 A 
ATOM     50  C   UNL A   1      48.389  27.646  24.400  1.00  0.00     0.148 A 
ATOM     51  C   UNL A   1      50.542  26.621  25.879  1.00  0.00     0.002 A 
ATOM     52  C   UNL A   1      49.544  27.230  23.753  1.00  0.00     0.091 A 
ATOM     53  F   UNL A   1      47.333  28.129  23.731  1.00  0.00    -0.205 F 
ATOM     54  C   UNL A   1      50.625  26.723  24.492  1.00  0.00     0.022 A 
BRANCH  52  55
ATOM     55  S   UNL A   1      49.690  27.207  21.963  1.00  0.00     0.127 S 
ATOM     56  O   UNL A   1      49.500  28.616  21.631  1.00  0.00    -0.237 OA
ATOM     57  O   UNL A   1      51.054  26.707  21.779  1.00  0.00    -0.237 OA
ATOM     58  O   UNL A   1      48.650  26.303  21.492  1.00  0.00    -0.744 OA
ENDBRANCH  52  55
ENDBRANCH  24  48
BRANCH  36  59
ATOM     59  C   UNL A   1      45.190  32.933  28.995  1.00  0.00     0.023 A 
ATOM     60  C   UNL A   1      45.916  33.240  30.160  1.00  0.00     0.012 A 
ATOM     61  C   UNL A   1      44.991  33.920  28.011  1.00  0.00     0.148 A 
ATOM     62  C   UNL A   1      46.448  34.515  30.340  1.00  0.00     0.002 A 
ATOM     63  C   UNL A   1      45.555  35.177  28.179  1.00  0.00     0.091 A 
ATOM     64  F   UNL A   1      44.291  33.593  26.914  1.00  0.00    -0.205 F 
ATOM     65  C   UNL A   1      46.280  35.477  29.344  1.00  0.00     0.022 A 
BRANCH  63  66
ATOM     66  S   UNL A   1      45.462  36.454  26.921  1.00  0.00     0.127 S 
ATOM     67  O   UNL A   1      45.969  35.747  25.745  1.00  0.00    -0.237 OA
ATOM     68  O   UNL A   1      44.030  36.747  26.888  1.00  0.00    -0.237 OA
ATOM     69  O   UNL A   1      46.302  37.548  27.389  1.00  0.00    -0.744 OA
ENDBRANCH  63  66
ENDBRANCH  36  59
ENDBRANCH  10  11
ENDBRANCH   3   5
ENDBRANCH   2   3
ENDBRANCH   1   2
BRANCH   1  70
ATOM     70  C   UNL A   1      38.061  20.522  24.981  1.00  0.00     0.275 C 
BRANCH  70  71
ATOM     71  O   UNL A   1      37.517  21.829  25.204  1.00  0.00    -0.458 OA
BRANCH  71  72
ATOM     72  C   UNL A   1      36.755  22.327  24.195  1.00  0.00     0.340 C 
ATOM     73  O   UNL A   1      37.029  22.312  23.003  1.00  0.00    -0.246 OA
BRANCH  72  74
ATOM     74  C   UNL A   1      35.554  22.962  24.770  1.00  0.00     0.086 A 
ATOM     75  C   UNL A   1      35.639  24.310  25.146  1.00  0.00     0.018 A 
ATOM     76  C   UNL A   1      34.376  22.217  24.919  1.00  0.00     0.087 A 
ATOM     77  C   UNL A   1      34.531  24.941  25.687  1.00  0.00     0.002 A 
ATOM     78  C   UNL A   1      33.242  22.871  25.463  1.00  0.00     0.013 A 
ATOM     79  N   UNL A   1      34.339  20.905  24.606  1.00  0.00    -0.240 NA
ATOM     80  C   UNL A   1      33.345  24.231  25.844  1.00  0.00     0.011 A 
ATOM     81  C   UNL A   1      32.051  22.119  25.624  1.00  0.00     0.068 A 
ATOM     82  C   UNL A   1      33.216  20.196  24.823  1.00  0.00     0.107 A 
ATOM     83  C   UNL A   1      32.058  20.752  25.319  1.00  0.00     0.049 A 
ATOM     84  Br  UNL A   1      33.258  18.339  24.453  1.00  0.00    -0.029 Br
BRANCH  81  85
ATOM     85  C   UNL A   1      30.764  22.748  26.097  1.00  0.00     0.417 C 
ATOM     86  F   UNL A   1      29.763  21.848  26.276  1.00  0.00    -0.166 F 
ATOM     87  F   UNL A   1      30.912  23.402  27.283  1.00  0.00    -0.166 F 
ATOM     88  F   UNL A   1      30.273  23.681  25.231  1.00  0.00    -0.166 F 
ENDBRANCH  81  85
ENDBRANCH  72  74
ENDBRANCH  71  72
ENDBRANCH  70  71
ENDBRANCH   1  70
TORSDOF 15
ENDMDL
MODEL 2
REMARK VINA RESULT:     -11.3      5.995     11.227
REMARK SMILES O=C(OCCOC(=O)c1cccc2c(C(F)(F)F)cc(Br)nc12)c1ccc(-c2c3nc(c(-c4cccc(S(=O)(=O)[O-])c4F)c4ccc([nH]4)c(-c4cccc(S(=O)(=O)[O-])c4F)c4nc(c(-c5cccc(S(=O)(=O)[O-])c5F)c5ccc2[nH]5)C=C4)C=C3)cc1
REMARK SMILES IDX 4 1 3 2 2 3 1 4 24 5 25 6 86 7 26 8 85 9 27 10 28 11 29 12
REMARK SMILES IDX 79 13 30 14 84 15 78 16 80 17 31 18 83 19 77 20 76 21 32 23
REMARK SMILES IDX 64 24 44 25 63 26 45 27 48 28 62 29 81 30 46 31 47 32 61 34
REMARK SMILES IDX 82 35 49 36 33 37 34 38 42 39 35 40 37 41 43 42 36 43 38 44
REMARK SMILES IDX 39 45 40 46 41 47 65 48 66 49 74 50 67 51 69 52 75 53 68 54
REMARK SMILES IDX 70 55 71 56 72 57 73 58 50 59 51 60 59 61 52 62 54 63 60 64
REMARK SMILES IDX 53 65 55 66 56 67 57 68 58 69 5 70 6 71 7 72 8 73 9 74 10 75
REMARK SMILES IDX 23 76 11 77 13 78 22 79 12 80 14 81 20 82 19 83 21 84 15 85
REMARK SMILES IDX 16 86 17 87 18 88
REMARK H PARENT 80 22 48 33
REMARK Flexibility Score: inf
ROOT
ATOM      1  C   UNL A   1      32.739  32.343  26.769  1.00  0.00     0.275 C 
ENDROOT
BRANCH   1   2
ATOM      2  O   UNL A   1      32.457  33.455  27.633  1.00  0.00    -0.458 OA
BRANCH   2   3
ATOM      3  C   UNL A   1      33.393  34.128  28.357  1.00  0.00     0.338 C 
ATOM      4  O   UNL A   1      33.432  35.354  28.349  1.00  0.00    -0.246 OA
BRANCH   3   5
ATOM      5  C   UNL A   1      34.530  33.368  28.944  1.00  0.00     0.060 A 
ATOM      6  C   UNL A   1      35.807  33.673  28.457  1.00  0.00     0.016 A 
ATOM      7  C   UNL A   1      34.408  32.400  29.943  1.00  0.00     0.016 A 
ATOM      8  C   UNL A   1      36.917  32.922  28.850  1.00  0.00     0.010 A 
ATOM      9  C   UNL A   1      35.516  31.652  30.348  1.00  0.00     0.010 A 
ATOM     10  C   UNL A   1      36.775  31.890  29.790  1.00  0.00    -0.014 A 
BRANCH  10  11
ATOM     11  C   UNL A   1      37.971  31.245  30.376  1.00  0.00     0.031 A 
ATOM     12  C   UNL A   1      38.678  30.090  29.733  1.00  0.00     0.074 A 
ATOM     13  C   UNL A   1      38.365  31.694  31.582  1.00  0.00     0.049 A 
ATOM     14  N   UNL A   1      39.829  29.560  30.058  1.00  0.00    -0.248 NA
ATOM     15  C   UNL A   1      38.035  29.445  28.578  1.00  0.00     0.031 C 
ATOM     16  C   UNL A   1      37.678  32.739  32.347  1.00  0.00     0.029 A 
ATOM     17  N   UNL A   1      39.399  31.308  32.390  1.00  0.00    -0.354 N 
ATOM     18  C   UNL A   1      40.081  28.572  29.113  1.00  0.00     0.074 A 
ATOM     19  C   UNL A   1      38.947  28.546  28.217  1.00  0.00     0.031 C 
ATOM     20  C   UNL A   1      38.293  32.892  33.526  1.00  0.00     0.029 A 
ATOM     21  C   UNL A   1      39.403  31.951  33.604  1.00  0.00     0.049 A 
ATOM     22  H   UNL A   1      40.071  30.638  32.129  1.00  0.00     0.167 HD
ATOM     23  C   UNL A   1      41.167  27.772  29.012  1.00  0.00     0.034 A 
ATOM     24  C   UNL A   1      40.200  31.787  34.675  1.00  0.00     0.034 A 
ATOM     25  C   UNL A   1      42.207  27.705  30.003  1.00  0.00     0.049 A 
ATOM     26  C   UNL A   1      41.333  30.817  34.591  1.00  0.00     0.074 A 
ATOM     27  C   UNL A   1      43.349  26.922  29.996  1.00  0.00     0.029 A 
ATOM     28  N   UNL A   1      42.192  28.386  31.210  1.00  0.00    -0.354 N 
ATOM     29  N   UNL A   1      41.682  30.058  33.581  1.00  0.00    -0.248 NA
ATOM     30  C   UNL A   1      42.201  30.697  35.769  1.00  0.00     0.031 C 
ATOM     31  C   UNL A   1      43.995  27.090  31.223  1.00  0.00     0.029 A 
ATOM     32  C   UNL A   1      43.278  28.005  31.976  1.00  0.00     0.049 A 
ATOM     33  H   UNL A   1      41.511  29.043  31.480  1.00  0.00     0.167 HD
ATOM     34  C   UNL A   1      42.823  29.383  33.991  1.00  0.00     0.074 A 
ATOM     35  C   UNL A   1      43.110  29.828  35.340  1.00  0.00     0.031 C 
ATOM     36  C   UNL A   1      43.559  28.476  33.308  1.00  0.00     0.034 A 
BRANCH  23  37
ATOM     37  C   UNL A   1      41.341  26.926  27.780  1.00  0.00     0.023 A 
ATOM     38  C   UNL A   1      41.964  27.508  26.656  1.00  0.00     0.012 A 
ATOM     39  C   UNL A   1      41.079  25.543  27.788  1.00  0.00     0.148 A 
ATOM     40  C   UNL A   1      42.336  26.724  25.564  1.00  0.00     0.002 A 
ATOM     41  C   UNL A   1      41.465  24.765  26.701  1.00  0.00     0.091 A 
ATOM     42  F   UNL A   1      40.489  25.015  28.870  1.00  0.00    -0.205 F 
ATOM     43  C   UNL A   1      42.096  25.353  25.591  1.00  0.00     0.022 A 
BRANCH  41  44
ATOM     44  S   UNL A   1      41.237  22.984  26.643  1.00  0.00     0.127 S 
ATOM     45  O   UNL A   1      42.069  22.620  25.495  1.00  0.00    -0.237 OA
ATOM     46  O   UNL A   1      41.767  22.564  27.939  1.00  0.00    -0.237 OA
ATOM     47  O   UNL A   1      39.809  22.767  26.456  1.00  0.00    -0.744 OA
ENDBRANCH  41  44
ENDBRANCH  23  37
BRANCH  24  48
ATOM     48  C   UNL A   1      39.935  32.612  35.879  1.00  0.00     0.023 A 
ATOM     49  C   UNL A   1      40.487  33.901  35.971  1.00  0.00     0.012 A 
ATOM     50  C   UNL A   1      39.012  32.177  36.852  1.00  0.00     0.148 A 
ATOM     51  C   UNL A   1      40.120  34.750  37.016  1.00  0.00     0.002 A 
ATOM     52  C   UNL A   1      38.620  33.042  37.864  1.00  0.00     0.091 A 
ATOM     53  F   UNL A   1      38.499  30.946  36.730  1.00  0.00    -0.205 F 
ATOM     54  C   UNL A   1      39.179  34.328  37.952  1.00  0.00     0.022 A 
BRANCH  52  55
ATOM     55  S   UNL A   1      37.323  32.629  39.036  1.00  0.00     0.127 S 
ATOM     56  O   UNL A   1      37.488  33.674  40.042  1.00  0.00    -0.237 OA
ATOM     57  O   UNL A   1      36.121  32.750  38.209  1.00  0.00    -0.237 OA
ATOM     58  O   UNL A   1      37.611  31.273  39.483  1.00  0.00    -0.744 OA
ENDBRANCH  52  55
ENDBRANCH  24  48
BRANCH  36  59
ATOM     59  C   UNL A   1      44.757  27.882  33.988  1.00  0.00     0.023 A 
ATOM     60  C   UNL A   1      45.975  28.588  33.982  1.00  0.00     0.012 A 
ATOM     61  C   UNL A   1      44.625  26.716  34.765  1.00  0.00     0.148 A 
ATOM     62  C   UNL A   1      47.049  28.141  34.750  1.00  0.00     0.002 A 
ATOM     63  C   UNL A   1      45.687  26.297  35.555  1.00  0.00     0.091 A 
ATOM     64  F   UNL A   1      43.451  26.067  34.744  1.00  0.00    -0.205 F 
ATOM     65  C   UNL A   1      46.899  27.005  35.547  1.00  0.00     0.022 A 
BRANCH  63  66
ATOM     66  S   UNL A   1      45.565  24.898  36.673  1.00  0.00     0.127 S 
ATOM     67  O   UNL A   1      44.450  25.300  37.530  1.00  0.00    -0.237 OA
ATOM     68  O   UNL A   1      45.266  23.799  35.756  1.00  0.00    -0.237 OA
ATOM     69  O   UNL A   1      46.853  24.801  37.347  1.00  0.00    -0.744 OA
ENDBRANCH  63  66
ENDBRANCH  36  59
ENDBRANCH  10  11
ENDBRANCH   3   5
ENDBRANCH   2   3
ENDBRANCH   1   2
BRANCH   1  70
ATOM     70  C   UNL A   1      31.881  31.097  27.013  1.00  0.00     0.275 C 
BRANCH  70  71
ATOM     71  O   UNL A   1      32.640  29.903  27.235  1.00  0.00    -0.458 OA
BRANCH  71  72
ATOM     72  C   UNL A   1      31.932  28.744  27.203  1.00  0.00     0.340 C 
ATOM     73  O   UNL A   1      31.026  28.424  27.960  1.00  0.00    -0.246 OA
BRANCH  72  74
ATOM     74  C   UNL A   1      32.477  27.880  26.137  1.00  0.00     0.086 A 
ATOM     75  C   UNL A   1      33.625  27.128  26.423  1.00  0.00     0.018 A 
ATOM     76  C   UNL A   1      31.841  27.828  24.890  1.00  0.00     0.087 A 
ATOM     77  C   UNL A   1      34.163  26.303  25.449  1.00  0.00     0.002 A 
ATOM     78  C   UNL A   1      32.390  26.974  23.900  1.00  0.00     0.013 A 
ATOM     79  N   UNL A   1      30.772  28.607  24.621  1.00  0.00    -0.240 NA
ATOM     80  C   UNL A   1      33.553  26.226  24.201  1.00  0.00     0.011 A 
ATOM     81  C   UNL A   1      31.754  26.926  22.633  1.00  0.00     0.068 A 
ATOM     82  C   UNL A   1      30.222  28.590  23.394  1.00  0.00     0.107 A 
ATOM     83  C   UNL A   1      30.668  27.773  22.380  1.00  0.00     0.049 A 
ATOM     84  Br  UNL A   1      28.787  29.777  23.052  1.00  0.00    -0.029 Br
BRANCH  81  85
ATOM     85  C   UNL A   1      32.200  25.974  21.550  1.00  0.00     0.417 C 
ATOM     86  F   UNL A   1      33.463  26.216  21.114  1.00  0.00    -0.166 F 
ATOM     87  F   UNL A   1      32.173  24.676  21.958  1.00  0.00    -0.166 F 
ATOM     88  F   UNL A   1      31.408  26.019  20.439  1.00  0.00    -0.166 F 
ENDBRANCH  81  85
ENDBRANCH  72  74
ENDBRANCH  71  72
ENDBRANCH  70  71
ENDBRANCH   1  70
TORSDOF 15
ENDMDL
MODEL 3
REMARK VINA RESULT:     -11.3      6.445     10.767
REMARK SMILES O=C(OCCOC(=O)c1cccc2c(C(F)(F)F)cc(Br)nc12)c1ccc(-c2c3nc(c(-c4cccc(S(=O)(=O)[O-])c4F)c4ccc([nH]4)c(-c4cccc(S(=O)(=O)[O-])c4F)c4nc(c(-c5cccc(S(=O)(=O)[O-])c5F)c5ccc2[nH]5)C=C4)C=C3)cc1
REMARK SMILES IDX 4 1 3 2 2 3 1 4 24 5 25 6 86 7 26 8 85 9 27 10 28 11 29 12
REMARK SMILES IDX 79 13 30 14 84 15 78 16 80 17 31 18 83 19 77 20 76 21 32 23
REMARK SMILES IDX 64 24 44 25 63 26 45 27 48 28 62 29 81 30 46 31 47 32 61 34
REMARK SMILES IDX 82 35 49 36 33 37 34 38 42 39 35 40 37 41 43 42 36 43 38 44
REMARK SMILES IDX 39 45 40 46 41 47 65 48 66 49 74 50 67 51 69 52 75 53 68 54
REMARK SMILES IDX 70 55 71 56 72 57 73 58 50 59 51 60 59 61 52 62 54 63 60 64
REMARK SMILES IDX 53 65 55 66 56 67 57 68 58 69 5 70 6 71 7 72 8 73 9 74 10 75
REMARK SMILES IDX 23 76 11 77 13 78 22 79 12 80 14 81 20 82 19 83 21 84 15 85
REMARK SMILES IDX 16 86 17 87 18 88
REMARK H PARENT 80 22 48 33
REMARK Flexibility Score: inf
ROOT
ATOM      1  C   UNL A   1      33.772  33.229  27.951  1.00  0.00     0.275 C 
ENDROOT
BRANCH   1   2
ATOM      2  O   UNL A   1      33.774  31.846  28.341  1.00  0.00    -0.458 OA
BRANCH   2   3
ATOM      3  C   UNL A   1      34.434  30.857  27.680  1.00  0.00     0.338 C 
ATOM      4  O   UNL A   1      33.912  30.278  26.732  1.00  0.00    -0.246 OA
BRANCH   3   5
ATOM      5  C   UNL A   1      35.678  30.299  28.276  1.00  0.00     0.060 A 
ATOM      6  C   UNL A   1      36.820  30.301  27.464  1.00  0.00     0.016 A 
ATOM      7  C   UNL A   1      35.781  29.799  29.576  1.00  0.00     0.016 A 
ATOM      8  C   UNL A   1      37.995  29.679  27.889  1.00  0.00     0.010 A 
ATOM      9  C   UNL A   1      36.958  29.185  30.010  1.00  0.00     0.010 A 
ATOM     10  C   UNL A   1      38.068  29.098  29.165  1.00  0.00    -0.014 A 
BRANCH  10  11
ATOM     11  C   UNL A   1      39.367  28.642  29.704  1.00  0.00     0.031 A 
ATOM     12  C   UNL A   1      40.093  29.350  30.808  1.00  0.00     0.074 A 
ATOM     13  C   UNL A   1      39.931  27.583  29.093  1.00  0.00     0.049 A 
ATOM     14  N   UNL A   1      41.142  28.949  31.479  1.00  0.00    -0.248 NA
ATOM     15  C   UNL A   1      39.586  30.664  31.233  1.00  0.00     0.031 C 
ATOM     16  C   UNL A   1      39.362  26.889  27.934  1.00  0.00     0.029 A 
ATOM     17  N   UNL A   1      41.113  26.935  29.327  1.00  0.00    -0.354 N 
ATOM     18  C   UNL A   1      41.380  29.920  32.444  1.00  0.00     0.074 A 
ATOM     19  C   UNL A   1      40.387  30.954  32.254  1.00  0.00     0.031 C 
ATOM     20  C   UNL A   1      40.209  25.930  27.541  1.00  0.00     0.029 A 
ATOM     21  C   UNL A   1      41.380  25.951  28.407  1.00  0.00     0.049 A 
ATOM     22  H   UNL A   1      41.711  27.152  30.078  1.00  0.00     0.167 HD
ATOM     23  C   UNL A   1      42.339  29.932  33.397  1.00  0.00     0.034 A 
ATOM     24  C   UNL A   1      42.460  25.164  28.261  1.00  0.00     0.034 A 
ATOM     25  C   UNL A   1      43.411  28.975  33.466  1.00  0.00     0.049 A 
ATOM     26  C   UNL A   1      43.567  25.262  29.260  1.00  0.00     0.074 A 
ATOM     27  C   UNL A   1      44.437  28.903  34.392  1.00  0.00     0.029 A 
ATOM     28  N   UNL A   1      43.639  27.977  32.532  1.00  0.00    -0.354 N 
ATOM     29  N   UNL A   1      43.651  26.046  30.308  1.00  0.00    -0.248 NA
ATOM     30  C   UNL A   1      44.710  24.357  29.085  1.00  0.00     0.031 C 
ATOM     31  C   UNL A   1      45.315  27.896  33.986  1.00  0.00     0.029 A 
ATOM     32  C   UNL A   1      44.815  27.316  32.831  1.00  0.00     0.049 A 
ATOM     33  H   UNL A   1      43.052  27.771  31.770  1.00  0.00     0.167 HD
ATOM     34  C   UNL A   1      44.846  25.716  30.931  1.00  0.00     0.074 A 
ATOM     35  C   UNL A   1      45.450  24.658  30.147  1.00  0.00     0.031 C 
ATOM     36  C   UNL A   1      45.389  26.250  32.051  1.00  0.00     0.034 A 
BRANCH  23  37
ATOM     37  C   UNL A   1      42.278  30.970  34.484  1.00  0.00     0.023 A 
ATOM     38  C   UNL A   1      41.509  30.687  35.631  1.00  0.00     0.012 A 
ATOM     39  C   UNL A   1      43.108  32.107  34.470  1.00  0.00     0.148 A 
ATOM     40  C   UNL A   1      41.575  31.512  36.754  1.00  0.00     0.002 A 
ATOM     41  C   UNL A   1      43.180  32.918  35.598  1.00  0.00     0.091 A 
ATOM     42  F   UNL A   1      43.832  32.351  33.368  1.00  0.00    -0.205 F 
ATOM     43  C   UNL A   1      42.418  32.620  36.740  1.00  0.00     0.022 A 
BRANCH  41  44
ATOM     44  S   UNL A   1      44.257  34.352  35.705  1.00  0.00     0.127 S 
ATOM     45  O   UNL A   1      43.828  34.945  36.972  1.00  0.00    -0.237 OA
ATOM     46  O   UNL A   1      45.584  33.737  35.736  1.00  0.00    -0.237 OA
ATOM     47  O   UNL A   1      43.973  35.157  34.526  1.00  0.00    -0.744 OA
ENDBRANCH  41  44
ENDBRANCH  23  37
BRANCH  24  48
ATOM     48  C   UNL A   1      42.480  24.203  27.130  1.00  0.00     0.023 A 
ATOM     49  C   UNL A   1      43.196  24.521  25.963  1.00  0.00     0.012 A 
ATOM     50  C   UNL A   1      41.924  22.917  27.279  1.00  0.00     0.148 A 
ATOM     51  C   UNL A   1      43.360  23.569  24.958  1.00  0.00     0.002 A 
ATOM     52  C   UNL A   1      42.127  21.961  26.294  1.00  0.00     0.091 A 
ATOM     53  F   UNL A   1      41.255  22.644  28.408  1.00  0.00    -0.205 F 
ATOM     54  C   UNL A   1      42.840  22.287  25.128  1.00  0.00     0.022 A 
BRANCH  52  55
ATOM     55  S   UNL A   1      41.604  20.253  26.485  1.00  0.00     0.127 S 
ATOM     56  O   UNL A   1      40.152  20.376  26.389  1.00  0.00    -0.237 OA
ATOM     57  O   UNL A   1      42.247  19.611  25.337  1.00  0.00    -0.237 OA
ATOM     58  O   UNL A   1      42.116  19.824  27.779  1.00  0.00    -0.744 OA
ENDBRANCH  52  55
ENDBRANCH  24  48
BRANCH  36  59
ATOM     59  C   UNL A   1      46.710  25.714  32.518  1.00  0.00     0.023 A 
ATOM     60  C   UNL A   1      47.899  26.329  32.082  1.00  0.00     0.012 A 
ATOM     61  C   UNL A   1      46.759  24.717  33.511  1.00  0.00     0.148 A 
ATOM     62  C   UNL A   1      49.123  25.960  32.636  1.00  0.00     0.002 A 
ATOM     63  C   UNL A   1      47.977  24.381  34.083  1.00  0.00     0.091 A 
ATOM     64  F   UNL A   1      45.606  24.150  33.900  1.00  0.00    -0.205 F 
ATOM     65  C   UNL A   1      49.160  24.998  33.645  1.00  0.00     0.022 A 
BRANCH  63  66
ATOM     66  S   UNL A   1      48.118  23.216  35.442  1.00  0.00     0.127 S 
ATOM     67  O   UNL A   1      49.560  23.217  35.685  1.00  0.00    -0.237 OA
ATOM     68  O   UNL A   1      47.322  23.863  36.483  1.00  0.00    -0.237 OA
ATOM     69  O   UNL A   1      47.579  21.953  34.953  1.00  0.00    -0.744 OA
ENDBRANCH  63  66
ENDBRANCH  36  59
ENDBRANCH  10  11
ENDBRANCH   3   5
ENDBRANCH   2   3
ENDBRANCH   1   2
BRANCH   1  70
ATOM     70  C   UNL A   1      35.146  33.906  27.955  1.00  0.00     0.275 C 
BRANCH  70  71
ATOM     71  O   UNL A   1      35.567  34.359  29.248  1.00  0.00    -0.458 OA
BRANCH  71  72
ATOM     72  C   UNL A   1      36.556  33.632  29.830  1.00  0.00     0.340 C 
ATOM     73  O   UNL A   1      37.522  33.137  29.267  1.00  0.00    -0.246 OA
BRANCH  72  74
ATOM     74  C   UNL A   1      36.249  33.469  31.264  1.00  0.00     0.086 A 
ATOM     75  C   UNL A   1      34.926  33.178  31.624  1.00  0.00     0.018 A 
ATOM     76  C   UNL A   1      37.270  33.601  32.215  1.00  0.00     0.087 A 
ATOM     77  C   UNL A   1      34.599  33.015  32.961  1.00  0.00     0.002 A 
ATOM     78  C   UNL A   1      36.933  33.422  33.580  1.00  0.00     0.013 A 
ATOM     79  N   UNL A   1      38.523  33.941  31.847  1.00  0.00    -0.240 NA
ATOM     80  C   UNL A   1      35.591  33.135  33.928  1.00  0.00     0.011 A 
ATOM     81  C   UNL A   1      37.962  33.564  34.546  1.00  0.00     0.068 A 
ATOM     82  C   UNL A   1      39.469  34.129  32.784  1.00  0.00     0.107 A 
ATOM     83  C   UNL A   1      39.242  33.950  34.130  1.00  0.00     0.049 A 
ATOM     84  Br  UNL A   1      41.181  34.700  32.210  1.00  0.00    -0.029 Br
BRANCH  81  85
ATOM     85  C   UNL A   1      37.727  33.293  36.012  1.00  0.00     0.417 C 
ATOM     86  F   UNL A   1      37.684  31.969  36.310  1.00  0.00    -0.166 F 
ATOM     87  F   UNL A   1      38.695  33.836  36.800  1.00  0.00    -0.166 F 
ATOM     88  F   UNL A   1      36.553  33.816  36.472  1.00  0.00    -0.166 F 
ENDBRANCH  81  85
ENDBRANCH  72  74
ENDBRANCH  71  72
ENDBRANCH  70  71
ENDBRANCH   1  70
TORSDOF 15
ENDMDL
