MODEL 1
REMARK VINA RESULT:     -12.2      0.000      0.000
REMARK SMILES C[C@@]([NH2+]CC(=O)Nc1cccc(F)c1)(C(=O)OCCOC(=O)c1ccc(-c2c3nc(c(-c4cccc(S(=O)(=O)[O-])c4F)c4ccc([nH]4)c(-c4cccc(S(=O)(=O)[O-])c4F)c4nc(c(-c5cccc(S(=O)(=O)[O-])c5F)c5ccc2[nH]5)C=C4)C=C3)cc1)C(F)(F)F
REMARK SMILES IDX 18 1 17 2 15 3 16 4 2 5 1 6 3 7 4 10 5 11 6 12 7 13 8 15
REMARK SMILES IDX 9 16 14 17 10 18 12 19 11 20 13 21 86 22 87 23 88 24 89 25
REMARK SMILES IDX 19 26 20 27 21 28 22 29 23 30 24 31 85 32 25 33 84 34 26 35
REMARK SMILES IDX 27 36 28 37 78 38 29 39 83 40 77 41 79 42 30 43 82 44 76 45
REMARK SMILES IDX 75 46 31 48 63 49 43 50 62 51 44 52 47 53 61 54 80 55 45 56
REMARK SMILES IDX 46 57 60 59 81 60 48 61 32 62 33 63 41 64 34 65 36 66 42 67
REMARK SMILES IDX 35 68 37 69 38 70 39 71 40 72 64 73 65 74 73 75 66 76 68 77
REMARK SMILES IDX 74 78 67 79 69 80 70 81 71 82 72 83 49 84 50 85 58 86 51 87
REMARK SMILES IDX 53 88 59 89 52 90 54 91 55 92 56 93 57 94
REMARK H PARENT 3 8 3 9 7 14 79 47 47 58
REMARK Flexibility Score: inf
ROOT
ATOM      1  C   UNL A   1      31.949  30.714  26.416  1.00  0.00     0.274 C 
ENDROOT
BRANCH   1   2
ATOM      2  O   UNL A   1      31.370  30.066  25.237  1.00  0.00    -0.457 OA
BRANCH   2   3
ATOM      3  C   UNL A   1      32.160  29.062  24.756  1.00  0.00     0.377 C 
ATOM      4  O   UNL A   1      33.371  29.280  24.694  1.00  0.00    -0.244 OA
BRANCH   3   5
ATOM      5  C   UNL A   1      31.444  27.775  24.064  1.00  0.00     0.287 C 
ATOM      6  C   UNL A   1      32.571  27.070  23.280  1.00  0.00     0.103 C 
BRANCH   5   7
ATOM      7  N   UNL A   1      30.954  27.025  25.273  1.00  0.00    -0.317 N 
ATOM      8  H   UNL A   1      30.275  26.326  24.973  1.00  0.00     0.347 HD
ATOM      9  H   UNL A   1      30.534  27.701  25.911  1.00  0.00     0.347 HD
BRANCH   7  10
ATOM     10  C   UNL A   1      32.076  26.330  26.008  1.00  0.00     0.363 C 
BRANCH  10  11
ATOM     11  C   UNL A   1      32.064  24.817  26.454  1.00  0.00     0.279 C 
ATOM     12  O   UNL A   1      31.102  24.499  27.184  1.00  0.00    -0.268 OA
ATOM     13  N   UNL A   1      32.787  23.726  26.020  1.00  0.00    -0.321 N 
ATOM     14  H   UNL A   1      32.215  22.933  26.126  1.00  0.00     0.170 HD
BRANCH  13  15
ATOM     15  C   UNL A   1      34.050  23.280  25.470  1.00  0.00     0.044 A 
ATOM     16  C   UNL A   1      35.626  24.248  25.397  1.00  0.00     0.026 A 
ATOM     17  C   UNL A   1      34.150  21.473  25.361  1.00  0.00     0.065 A 
ATOM     18  C   UNL A   1      37.254  23.403  25.263  1.00  0.00     0.005 A 
ATOM     19  C   UNL A   1      35.729  20.667  24.962  1.00  0.00     0.125 A 
ATOM     20  C   UNL A   1      37.281  21.623  24.920  1.00  0.00     0.039 A 
ATOM     21  F   UNL A   1      35.775  19.336  24.813  1.00  0.00    -0.207 F 
ENDBRANCH  13  15
ENDBRANCH  10  11
ENDBRANCH   7  10
ENDBRANCH   5   7
BRANCH   5  22
ATOM     22  C   UNL A   1      30.238  27.574  23.039  1.00  0.00     0.455 C 
ATOM     23  F   UNL A   1      29.677  28.718  22.583  1.00  0.00    -0.164 F 
ATOM     24  F   UNL A   1      30.754  26.990  21.900  1.00  0.00    -0.164 F 
ATOM     25  F   UNL A   1      29.244  26.751  23.399  1.00  0.00    -0.164 F 
ENDBRANCH   5  22
ENDBRANCH   3   5
ENDBRANCH   2   3
ENDBRANCH   1   2
BRANCH   1  26
ATOM     26  C   UNL A   1      31.199  31.943  26.975  1.00  0.00     0.275 C 
BRANCH  26  27
ATOM     27  O   UNL A   1      31.864  33.211  26.736  1.00  0.00    -0.458 OA
BRANCH  27  28
ATOM     28  C   UNL A   1      32.869  33.642  27.735  1.00  0.00     0.338 C 
ATOM     29  O   UNL A   1      32.386  34.774  28.061  1.00  0.00    -0.246 OA
BRANCH  28  30
ATOM     30  C   UNL A   1      34.616  32.601  28.396  1.00  0.00     0.060 A 
ATOM     31  C   UNL A   1      36.039  33.151  28.621  1.00  0.00     0.016 A 
ATOM     32  C   UNL A   1      34.852  31.132  28.712  1.00  0.00     0.016 A 
ATOM     33  C   UNL A   1      37.193  32.553  29.081  1.00  0.00     0.010 A 
ATOM     34  C   UNL A   1      35.992  30.513  29.261  1.00  0.00     0.010 A 
ATOM     35  C   UNL A   1      37.128  31.254  29.485  1.00  0.00    -0.014 A 
BRANCH  35  36
ATOM     36  C   UNL A   1      38.323  30.736  30.113  1.00  0.00     0.031 A 
ATOM     37  C   UNL A   1      38.553  31.084  31.529  1.00  0.00     0.074 A 
ATOM     38  C   UNL A   1      39.014  29.822  29.413  1.00  0.00     0.049 A 
ATOM     39  N   UNL A   1      39.481  30.651  32.323  1.00  0.00    -0.248 NA
ATOM     40  C   UNL A   1      37.602  32.027  32.148  1.00  0.00     0.031 C 
ATOM     41  C   UNL A   1      38.689  29.392  28.043  1.00  0.00     0.029 A 
ATOM     42  N   UNL A   1      40.085  29.058  29.755  1.00  0.00    -0.354 N 
ATOM     43  C   UNL A   1      39.263  31.304  33.521  1.00  0.00     0.074 A 
ATOM     44  C   UNL A   1      38.109  32.156  33.363  1.00  0.00     0.031 C 
ATOM     45  C   UNL A   1      39.535  28.422  27.675  1.00  0.00     0.029 A 
ATOM     46  C   UNL A   1      40.496  28.220  28.748  1.00  0.00     0.049 A 
ATOM     47  H   UNL A   1      40.521  29.101  30.637  1.00  0.00     0.167 HD
ATOM     48  C   UNL A   1      39.996  31.187  34.645  1.00  0.00     0.034 A 
ATOM     49  C   UNL A   1      41.567  27.410  28.707  1.00  0.00     0.034 A 
ATOM     50  C   UNL A   1      41.141  30.326  34.712  1.00  0.00     0.049 A 
ATOM     51  C   UNL A   1      42.406  27.356  29.947  1.00  0.00     0.074 A 
ATOM     52  C   UNL A   1      42.007  30.130  35.766  1.00  0.00     0.029 A 
ATOM     53  N   UNL A   1      41.588  29.534  33.659  1.00  0.00    -0.354 N 
ATOM     54  N   UNL A   1      42.211  27.978  31.088  1.00  0.00    -0.248 NA
ATOM     55  C   UNL A   1      43.590  26.496  29.920  1.00  0.00     0.031 C 
ATOM     56  C   UNL A   1      43.015  29.270  35.327  1.00  0.00     0.029 A 
ATOM     57  C   UNL A   1      42.735  28.864  34.026  1.00  0.00     0.049 A 
ATOM     58  H   UNL A   1      41.150  29.462  32.780  1.00  0.00     0.167 HD
ATOM     59  C   UNL A   1      43.227  27.567  31.931  1.00  0.00     0.074 A 
ATOM     60  C   UNL A   1      44.038  26.635  31.162  1.00  0.00     0.031 C 
ATOM     61  C   UNL A   1      43.473  27.921  33.216  1.00  0.00     0.034 A 
BRANCH  48  62
ATOM     62  C   UNL A   1      39.625  32.061  35.802  1.00  0.00     0.023 A 
ATOM     63  C   UNL A   1      40.260  33.302  36.007  1.00  0.00     0.012 A 
ATOM     64  C   UNL A   1      38.647  31.624  36.715  1.00  0.00     0.148 A 
ATOM     65  C   UNL A   1      39.950  34.080  37.122  1.00  0.00     0.002 A 
ATOM     66  C   UNL A   1      38.300  32.430  37.789  1.00  0.00     0.091 A 
ATOM     67  F   UNL A   1      38.095  30.416  36.531  1.00  0.00    -0.205 F 
ATOM     68  C   UNL A   1      38.961  33.650  38.004  1.00  0.00     0.022 A 
BRANCH  66  69
ATOM     69  S   UNL A   1      36.987  31.998  38.931  1.00  0.00     0.127 S 
ATOM     70  O   UNL A   1      36.917  30.546  38.766  1.00  0.00    -0.237 OA
ATOM     71  O   UNL A   1      37.542  32.440  40.210  1.00  0.00    -0.237 OA
ATOM     72  O   UNL A   1      35.808  32.728  38.489  1.00  0.00    -0.744 OA
ENDBRANCH  66  69
ENDBRANCH  48  62
BRANCH  49  73
ATOM     73  C   UNL A   1      41.852  26.635  27.470  1.00  0.00     0.023 A 
ATOM     74  C   UNL A   1      42.477  27.256  26.374  1.00  0.00     0.012 A 
ATOM     75  C   UNL A   1      41.618  25.243  27.431  1.00  0.00     0.148 A 
ATOM     76  C   UNL A   1      42.859  26.504  25.259  1.00  0.00     0.002 A 
ATOM     77  C   UNL A   1      42.050  24.494  26.344  1.00  0.00     0.091 A 
ATOM     78  F   UNL A   1      41.021  24.673  28.487  1.00  0.00    -0.205 F 
ATOM     79  C   UNL A   1      42.660  25.125  25.250  1.00  0.00     0.022 A 
BRANCH  77  80
ATOM     80  S   UNL A   1      41.955  22.699  26.307  1.00  0.00     0.127 S 
ATOM     81  O   UNL A   1      40.511  22.476  26.339  1.00  0.00    -0.237 OA
ATOM     82  O   UNL A   1      42.599  22.390  25.030  1.00  0.00    -0.237 OA
ATOM     83  O   UNL A   1      42.685  22.237  27.479  1.00  0.00    -0.744 OA
ENDBRANCH  77  80
ENDBRANCH  49  73
BRANCH  61  84
ATOM     84  C   UNL A   1      44.635  27.264  33.898  1.00  0.00     0.023 A 
ATOM     85  C   UNL A   1      45.890  27.898  33.918  1.00  0.00     0.012 A 
ATOM     86  C   UNL A   1      44.410  26.114  34.678  1.00  0.00     0.148 A 
ATOM     87  C   UNL A   1      46.912  27.391  34.714  1.00  0.00     0.002 A 
ATOM     88  C   UNL A   1      45.410  25.656  35.518  1.00  0.00     0.091 A 
ATOM     89  F   UNL A   1      43.203  25.531  34.622  1.00  0.00    -0.205 F 
ATOM     90  C   UNL A   1      46.666  26.286  35.530  1.00  0.00     0.022 A 
BRANCH  88  91
ATOM     91  S   UNL A   1      45.135  24.337  36.702  1.00  0.00     0.127 S 
ATOM     92  O   UNL A   1      46.456  24.208  37.314  1.00  0.00    -0.237 OA
ATOM     93  O   UNL A   1      44.111  24.914  37.571  1.00  0.00    -0.237 OA
ATOM     94  O   UNL A   1      44.698  23.181  35.931  1.00  0.00    -0.744 OA
ENDBRANCH  88  91
ENDBRANCH  61  84
ENDBRANCH  35  36
ENDBRANCH  28  30
ENDBRANCH  27  28
ENDBRANCH  26  27
ENDBRANCH   1  26
TORSDOF 19
ENDMDL
MODEL 2
REMARK VINA RESULT:     -12.2      5.240     10.543
REMARK SMILES C[C@@]([NH2+]CC(=O)Nc1cccc(F)c1)(C(=O)OCCOC(=O)c1ccc(-c2c3nc(c(-c4cccc(S(=O)(=O)[O-])c4F)c4ccc([nH]4)c(-c4cccc(S(=O)(=O)[O-])c4F)c4nc(c(-c5cccc(S(=O)(=O)[O-])c5F)c5ccc2[nH]5)C=C4)C=C3)cc1)C(F)(F)F
REMARK SMILES IDX 18 1 17 2 15 3 16 4 2 5 1 6 3 7 4 10 5 11 6 12 7 13 8 15
REMARK SMILES IDX 9 16 14 17 10 18 12 19 11 20 13 21 86 22 87 23 88 24 89 25
REMARK SMILES IDX 19 26 20 27 21 28 22 29 23 30 24 31 85 32 25 33 84 34 26 35
REMARK SMILES IDX 27 36 28 37 78 38 29 39 83 40 77 41 79 42 30 43 82 44 76 45
REMARK SMILES IDX 75 46 31 48 63 49 43 50 62 51 44 52 47 53 61 54 80 55 45 56
REMARK SMILES IDX 46 57 60 59 81 60 48 61 32 62 33 63 41 64 34 65 36 66 42 67
REMARK SMILES IDX 35 68 37 69 38 70 39 71 40 72 64 73 65 74 73 75 66 76 68 77
REMARK SMILES IDX 74 78 67 79 69 80 70 81 71 82 72 83 49 84 50 85 58 86 51 87
REMARK SMILES IDX 53 88 59 89 52 90 54 91 55 92 56 93 57 94
REMARK H PARENT 3 8 3 9 7 14 79 47 47 58
REMARK Flexibility Score: inf
ROOT
ATOM      1  C   UNL A   1      35.818  20.702  25.302  1.00  0.00     0.274 C 
ENDROOT
BRANCH   1   2
ATOM      2  O   UNL A   1      34.854  19.839  24.615  1.00  0.00    -0.457 OA
BRANCH   2   3
ATOM      3  C   UNL A   1      33.594  20.363  24.619  1.00  0.00     0.377 C 
ATOM      4  O   UNL A   1      32.657  19.572  24.743  1.00  0.00    -0.244 OA
BRANCH   3   5
ATOM      5  C   UNL A   1      33.400  21.925  24.207  1.00  0.00     0.287 C 
ATOM      6  C   UNL A   1      32.271  21.920  23.155  1.00  0.00     0.103 C 
BRANCH   5   7
ATOM      7  N   UNL A   1      33.025  22.536  25.530  1.00  0.00    -0.317 N 
ATOM      8  H   UNL A   1      33.516  23.424  25.633  1.00  0.00     0.347 HD
ATOM      9  H   UNL A   1      33.290  21.878  26.263  1.00  0.00     0.347 HD
BRANCH   7  10
ATOM     10  C   UNL A   1      31.540  22.784  25.644  1.00  0.00     0.363 C 
BRANCH  10  11
ATOM     11  C   UNL A   1      30.876  23.904  26.535  1.00  0.00     0.279 C 
ATOM     12  O   UNL A   1      29.900  23.518  27.212  1.00  0.00    -0.268 OA
ATOM     13  N   UNL A   1      31.294  25.172  26.878  1.00  0.00    -0.321 N 
ATOM     14  H   UNL A   1      30.936  25.369  27.773  1.00  0.00     0.170 HD
BRANCH  13  15
ATOM     15  C   UNL A   1      32.051  26.331  26.450  1.00  0.00     0.044 A 
ATOM     16  C   UNL A   1      33.106  26.462  24.935  1.00  0.00     0.026 A 
ATOM     17  C   UNL A   1      31.444  27.863  27.206  1.00  0.00     0.065 A 
ATOM     18  C   UNL A   1      33.494  28.097  24.187  1.00  0.00     0.005 A 
ATOM     19  C   UNL A   1      32.049  29.473  26.622  1.00  0.00     0.125 A 
ATOM     20  C   UNL A   1      33.065  29.597  25.111  1.00  0.00     0.039 A 
ATOM     21  F   UNL A   1      31.649  30.595  27.235  1.00  0.00    -0.207 F 
ENDBRANCH  13  15
ENDBRANCH  10  11
ENDBRANCH   7  10
ENDBRANCH   5   7
BRANCH   5  22
ATOM     22  C   UNL A   1      34.344  23.048  23.580  1.00  0.00     0.455 C 
ATOM     23  F   UNL A   1      35.250  22.600  22.680  1.00  0.00    -0.164 F 
ATOM     24  F   UNL A   1      33.546  23.897  22.841  1.00  0.00    -0.164 F 
ATOM     25  F   UNL A   1      34.986  23.867  24.425  1.00  0.00    -0.164 F 
ENDBRANCH   5  22
ENDBRANCH   3   5
ENDBRANCH   2   3
ENDBRANCH   1   2
BRANCH   1  26
ATOM     26  C   UNL A   1      37.242  20.766  24.708  1.00  0.00     0.275 C 
BRANCH  26  27
ATOM     27  O   UNL A   1      38.130  19.712  25.161  1.00  0.00    -0.458 OA
BRANCH  27  28
ATOM     28  C   UNL A   1      39.389  20.129  25.821  1.00  0.00     0.338 C 
ATOM     29  O   UNL A   1      40.008  19.017  25.840  1.00  0.00    -0.246 OA
BRANCH  28  30
ATOM     30  C   UNL A   1      39.941  22.074  26.519  1.00  0.00     0.060 A 
ATOM     31  C   UNL A   1      41.031  22.459  27.539  1.00  0.00     0.016 A 
ATOM     32  C   UNL A   1      39.358  23.449  26.229  1.00  0.00     0.016 A 
ATOM     33  C   UNL A   1      41.465  23.683  28.001  1.00  0.00     0.010 A 
ATOM     34  C   UNL A   1      39.834  24.716  26.620  1.00  0.00     0.010 A 
ATOM     35  C   UNL A   1      40.918  24.806  27.460  1.00  0.00    -0.014 A 
BRANCH  35  36
ATOM     36  C   UNL A   1      41.531  26.054  27.861  1.00  0.00     0.031 A 
ATOM     37  C   UNL A   1      42.879  26.348  27.333  1.00  0.00     0.074 A 
ATOM     38  C   UNL A   1      40.742  26.922  28.514  1.00  0.00     0.049 A 
ATOM     39  N   UNL A   1      43.570  27.437  27.460  1.00  0.00    -0.248 NA
ATOM     40  C   UNL A   1      43.530  25.292  26.536  1.00  0.00     0.031 C 
ATOM     41  C   UNL A   1      39.352  26.653  28.917  1.00  0.00     0.029 A 
ATOM     42  N   UNL A   1      40.960  28.204  28.907  1.00  0.00    -0.354 N 
ATOM     43  C   UNL A   1      44.761  27.184  26.806  1.00  0.00     0.074 A 
ATOM     44  C   UNL A   1      44.702  25.845  26.270  1.00  0.00     0.031 C 
ATOM     45  C   UNL A   1      38.839  27.753  29.482  1.00  0.00     0.029 A 
ATOM     46  C   UNL A   1      39.882  28.766  29.545  1.00  0.00     0.049 A 
ATOM     47  H   UNL A   1      41.807  28.682  28.751  1.00  0.00     0.167 HD
ATOM     48  C   UNL A   1      45.808  28.023  26.691  1.00  0.00     0.034 A 
ATOM     49  C   UNL A   1      39.783  29.964  30.143  1.00  0.00     0.034 A 
ATOM     50  C   UNL A   1      45.791  29.335  27.269  1.00  0.00     0.049 A 
ATOM     51  C   UNL A   1      40.990  30.848  30.061  1.00  0.00     0.074 A 
ATOM     52  C   UNL A   1      46.788  30.286  27.271  1.00  0.00     0.029 A 
ATOM     53  N   UNL A   1      44.714  29.866  27.973  1.00  0.00    -0.354 N 
ATOM     54  N   UNL A   1      42.129  30.613  29.448  1.00  0.00    -0.248 NA
ATOM     55  C   UNL A   1      40.915  32.151  30.724  1.00  0.00     0.031 C 
ATOM     56  C   UNL A   1      46.338  31.365  28.034  1.00  0.00     0.029 A 
ATOM     57  C   UNL A   1      45.029  31.124  28.440  1.00  0.00     0.049 A 
ATOM     58  H   UNL A   1      43.854  29.410  28.118  1.00  0.00     0.167 HD
ATOM     59  C   UNL A   1      42.902  31.747  29.621  1.00  0.00     0.074 A 
ATOM     60  C   UNL A   1      42.093  32.673  30.399  1.00  0.00     0.031 C 
ATOM     61  C   UNL A   1      44.158  32.006  29.183  1.00  0.00     0.034 A 
BRANCH  48  62
ATOM     62  C   UNL A   1      47.035  27.502  26.009  1.00  0.00     0.023 A 
ATOM     63  C   UNL A   1      47.223  27.676  24.623  1.00  0.00     0.012 A 
ATOM     64  C   UNL A   1      48.001  26.805  26.757  1.00  0.00     0.148 A 
ATOM     65  C   UNL A   1      48.340  27.133  23.987  1.00  0.00     0.002 A 
ATOM     66  C   UNL A   1      49.138  26.319  26.129  1.00  0.00     0.091 A 
ATOM     67  F   UNL A   1      47.775  26.604  28.063  1.00  0.00    -0.205 F 
ATOM     68  C   UNL A   1      49.303  26.467  24.743  1.00  0.00     0.022 A 
BRANCH  66  69
ATOM     69  S   UNL A   1      50.467  25.519  27.030  1.00  0.00     0.127 S 
ATOM     70  O   UNL A   1      51.439  25.272  25.966  1.00  0.00    -0.237 OA
ATOM     71  O   UNL A   1      50.855  26.560  27.982  1.00  0.00    -0.237 OA
ATOM     72  O   UNL A   1      49.890  24.325  27.630  1.00  0.00    -0.744 OA
ENDBRANCH  66  69
ENDBRANCH  48  62
BRANCH  49  73
ATOM     73  C   UNL A   1      38.520  30.336  30.834  1.00  0.00     0.023 A 
ATOM     74  C   UNL A   1      38.382  30.129  32.217  1.00  0.00     0.012 A 
ATOM     75  C   UNL A   1      37.500  31.020  30.135  1.00  0.00     0.148 A 
ATOM     76  C   UNL A   1      37.248  30.591  32.892  1.00  0.00     0.002 A 
ATOM     77  C   UNL A   1      36.402  31.523  30.821  1.00  0.00     0.091 A 
ATOM     78  F   UNL A   1      37.653  31.206  28.817  1.00  0.00    -0.205 F 
ATOM     79  C   UNL A   1      36.268  31.299  32.199  1.00  0.00     0.022 A 
BRANCH  77  80
ATOM     80  S   UNL A   1      35.162  32.559  30.034  1.00  0.00     0.127 S 
ATOM     81  O   UNL A   1      34.244  32.818  31.141  1.00  0.00    -0.237 OA
ATOM     82  O   UNL A   1      35.958  33.711  29.610  1.00  0.00    -0.237 OA
ATOM     83  O   UNL A   1      34.616  31.767  28.941  1.00  0.00    -0.744 OA
ENDBRANCH  77  80
ENDBRANCH  49  73
BRANCH  61  84
ATOM     84  C   UNL A   1      44.724  33.360  29.485  1.00  0.00     0.023 A 
ATOM     85  C   UNL A   1      45.559  33.541  30.602  1.00  0.00     0.012 A 
ATOM     86  C   UNL A   1      44.574  34.392  28.539  1.00  0.00     0.148 A 
ATOM     87  C   UNL A   1      46.243  34.741  30.771  1.00  0.00     0.002 A 
ATOM     88  C   UNL A   1      45.309  35.556  28.680  1.00  0.00     0.091 A 
ATOM     89  F   UNL A   1      43.758  34.185  27.494  1.00  0.00    -0.205 F 
ATOM     90  C   UNL A   1      46.137  35.737  29.801  1.00  0.00     0.022 A 
BRANCH  88  91
ATOM     91  S   UNL A   1      45.344  36.824  27.411  1.00  0.00     0.127 S 
ATOM     92  O   UNL A   1      46.348  36.292  26.490  1.00  0.00    -0.237 OA
ATOM     93  O   UNL A   1      43.972  36.790  26.908  1.00  0.00    -0.237 OA
ATOM     94  O   UNL A   1      45.717  38.062  28.082  1.00  0.00    -0.744 OA
ENDBRANCH  88  91
ENDBRANCH  61  84
ENDBRANCH  35  36
ENDBRANCH  28  30
ENDBRANCH  27  28
ENDBRANCH  26  27
ENDBRANCH   1  26
TORSDOF 19
ENDMDL
MODEL 3
REMARK VINA RESULT:     -11.9      1.795      2.301
REMARK SMILES C[C@@]([NH2+]CC(=O)Nc1cccc(F)c1)(C(=O)OCCOC(=O)c1ccc(-c2c3nc(c(-c4cccc(S(=O)(=O)[O-])c4F)c4ccc([nH]4)c(-c4cccc(S(=O)(=O)[O-])c4F)c4nc(c(-c5cccc(S(=O)(=O)[O-])c5F)c5ccc2[nH]5)C=C4)C=C3)cc1)C(F)(F)F
REMARK SMILES IDX 18 1 17 2 15 3 16 4 2 5 1 6 3 7 4 10 5 11 6 12 7 13 8 15
REMARK SMILES IDX 9 16 14 17 10 18 12 19 11 20 13 21 86 22 87 23 88 24 89 25
REMARK SMILES IDX 19 26 20 27 21 28 22 29 23 30 24 31 85 32 25 33 84 34 26 35
REMARK SMILES IDX 27 36 28 37 78 38 29 39 83 40 77 41 79 42 30 43 82 44 76 45
REMARK SMILES IDX 75 46 31 48 63 49 43 50 62 51 44 52 47 53 61 54 80 55 45 56
REMARK SMILES IDX 46 57 60 59 81 60 48 61 32 62 33 63 41 64 34 65 36 66 42 67
REMARK SMILES IDX 35 68 37 69 38 70 39 71 40 72 64 73 65 74 73 75 66 76 68 77
REMARK SMILES IDX 74 78 67 79 69 80 70 81 71 82 72 83 49 84 50 85 58 86 51 87
REMARK SMILES IDX 53 88 59 89 52 90 54 91 55 92 56 93 57 94
REMARK H PARENT 3 8 3 9 7 14 79 47 47 58
REMARK Flexibility Score: inf
ROOT
ATOM      1  C   UNL A   1      31.776  29.443  26.557  1.00  0.00     0.274 C 
ENDROOT
BRANCH   1   2
ATOM      2  O   UNL A   1      32.409  28.382  25.771  1.00  0.00    -0.457 OA
BRANCH   2   3
ATOM      3  C   UNL A   1      31.507  27.671  25.035  1.00  0.00     0.377 C 
ATOM      4  O   UNL A   1      31.125  26.596  25.499  1.00  0.00    -0.244 OA
BRANCH   3   5
ATOM      5  C   UNL A   1      31.201  28.149  23.509  1.00  0.00     0.287 C 
ATOM      6  C   UNL A   1      32.448  28.955  23.090  1.00  0.00     0.103 C 
BRANCH   5   7
ATOM      7  N   UNL A   1      31.043  26.825  22.812  1.00  0.00    -0.317 N 
ATOM      8  H   UNL A   1      30.092  26.756  22.450  1.00  0.00     0.347 HD
ATOM      9  H   UNL A   1      31.235  26.089  23.492  1.00  0.00     0.347 HD
BRANCH   7  10
ATOM     10  C   UNL A   1      32.013  26.663  21.666  1.00  0.00     0.363 C 
BRANCH  10  11
ATOM     11  C   UNL A   1      32.613  25.288  21.176  1.00  0.00     0.279 C 
ATOM     12  O   UNL A   1      32.902  25.252  19.962  1.00  0.00    -0.268 OA
ATOM     13  N   UNL A   1      33.083  24.192  21.869  1.00  0.00    -0.321 N 
ATOM     14  H   UNL A   1      33.794  23.783  21.326  1.00  0.00     0.170 HD
BRANCH  13  15
ATOM     15  C   UNL A   1      32.950  23.403  23.076  1.00  0.00     0.044 A 
ATOM     16  C   UNL A   1      32.147  21.742  23.226  1.00  0.00     0.026 A 
ATOM     17  C   UNL A   1      34.139  23.898  24.353  1.00  0.00     0.065 A 
ATOM     18  C   UNL A   1      32.574  20.602  24.605  1.00  0.00     0.005 A 
ATOM     19  C   UNL A   1      34.352  22.885  25.846  1.00  0.00     0.125 A 
ATOM     20  C   UNL A   1      33.581  21.236  25.973  1.00  0.00     0.039 A 
ATOM     21  F   UNL A   1      35.180  23.297  26.815  1.00  0.00    -0.207 F 
ENDBRANCH  13  15
ENDBRANCH  10  11
ENDBRANCH   7  10
ENDBRANCH   5   7
BRANCH   5  22
ATOM     22  C   UNL A   1      30.067  29.028  22.811  1.00  0.00     0.455 C 
ATOM     23  F   UNL A   1      30.456  29.682  21.693  1.00  0.00    -0.164 F 
ATOM     24  F   UNL A   1      29.092  28.163  22.358  1.00  0.00    -0.164 F 
ATOM     25  F   UNL A   1      29.394  29.898  23.575  1.00  0.00    -0.164 F 
ENDBRANCH   5  22
ENDBRANCH   3   5
ENDBRANCH   2   3
ENDBRANCH   1   2
BRANCH   1  26
ATOM     26  C   UNL A   1      31.631  30.822  25.878  1.00  0.00     0.275 C 
BRANCH  26  27
ATOM     27  O   UNL A   1      31.380  31.920  26.794  1.00  0.00    -0.458 OA
BRANCH  27  28
ATOM     28  C   UNL A   1      32.564  32.614  27.351  1.00  0.00     0.338 C 
ATOM     29  O   UNL A   1      32.167  33.822  27.277  1.00  0.00    -0.246 OA
BRANCH  28  30
ATOM     30  C   UNL A   1      34.392  31.761  28.062  1.00  0.00     0.060 A 
ATOM     31  C   UNL A   1      35.702  32.475  28.450  1.00  0.00     0.016 A 
ATOM     32  C   UNL A   1      34.812  30.314  28.269  1.00  0.00     0.016 A 
ATOM     33  C   UNL A   1      36.895  31.998  28.950  1.00  0.00     0.010 A 
ATOM     34  C   UNL A   1      35.988  29.806  28.855  1.00  0.00     0.010 A 
ATOM     35  C   UNL A   1      36.988  30.669  29.235  1.00  0.00    -0.014 A 
BRANCH  35  36
ATOM     36  C   UNL A   1      38.199  30.259  29.912  1.00  0.00     0.031 A 
ATOM     37  C   UNL A   1      38.357  30.664  31.324  1.00  0.00     0.074 A 
ATOM     38  C   UNL A   1      38.977  29.382  29.260  1.00  0.00     0.049 A 
ATOM     39  N   UNL A   1      39.290  30.323  32.156  1.00  0.00    -0.248 NA
ATOM     40  C   UNL A   1      37.320  31.549  31.886  1.00  0.00     0.031 C 
ATOM     41  C   UNL A   1      38.728  28.891  27.894  1.00  0.00     0.029 A 
ATOM     42  N   UNL A   1      40.091  28.710  29.655  1.00  0.00    -0.354 N 
ATOM     43  C   UNL A   1      38.987  30.991  33.328  1.00  0.00     0.074 A 
ATOM     44  C   UNL A   1      37.778  31.749  33.111  1.00  0.00     0.031 C 
ATOM     45  C   UNL A   1      39.654  27.977  27.581  1.00  0.00     0.029 A 
ATOM     46  C   UNL A   1      40.594  27.878  28.686  1.00  0.00     0.049 A 
ATOM     47  H   UNL A   1      40.495  28.810  30.548  1.00  0.00     0.167 HD
ATOM     48  C   UNL A   1      39.691  30.960  34.475  1.00  0.00     0.034 A 
ATOM     49  C   UNL A   1      41.723  27.150  28.700  1.00  0.00     0.034 A 
ATOM     50  C   UNL A   1      40.894  30.191  34.601  1.00  0.00     0.049 A 
ATOM     51  C   UNL A   1      42.525  27.194  29.965  1.00  0.00     0.074 A 
ATOM     52  C   UNL A   1      41.739  30.089  35.685  1.00  0.00     0.029 A 
ATOM     53  N   UNL A   1      41.432  29.405  33.586  1.00  0.00    -0.354 N 
ATOM     54  N   UNL A   1      42.248  27.831  31.081  1.00  0.00    -0.248 NA
ATOM     55  C   UNL A   1      43.770  26.425  29.998  1.00  0.00     0.031 C 
ATOM     56  C   UNL A   1      42.822  29.296  35.301  1.00  0.00     0.029 A 
ATOM     57  C   UNL A   1      42.613  28.834  34.005  1.00  0.00     0.049 A 
ATOM     58  H   UNL A   1      41.028  29.277  32.697  1.00  0.00     0.167 HD
ATOM     59  C   UNL A   1      43.266  27.521  31.966  1.00  0.00     0.074 A 
ATOM     60  C   UNL A   1      44.167  26.632  31.249  1.00  0.00     0.031 C 
ATOM     61  C   UNL A   1      43.444  27.928  33.246  1.00  0.00     0.034 A 
BRANCH  48  62
ATOM     62  C   UNL A   1      39.220  31.835  35.595  1.00  0.00     0.023 A 
ATOM     63  C   UNL A   1      38.252  31.379  36.513  1.00  0.00     0.012 A 
ATOM     64  C   UNL A   1      39.729  33.141  35.716  1.00  0.00     0.148 A 
ATOM     65  C   UNL A   1      37.775  32.223  37.516  1.00  0.00     0.002 A 
ATOM     66  C   UNL A   1      39.294  33.955  36.751  1.00  0.00     0.091 A 
ATOM     67  F   UNL A   1      40.607  33.572  34.800  1.00  0.00    -0.205 F 
ATOM     68  C   UNL A   1      38.306  33.505  37.642  1.00  0.00     0.022 A 
BRANCH  66  69
ATOM     69  S   UNL A   1      39.975  35.589  37.041  1.00  0.00     0.127 S 
ATOM     70  O   UNL A   1      39.276  35.988  38.263  1.00  0.00    -0.237 OA
ATOM     71  O   UNL A   1      41.397  35.296  37.218  1.00  0.00    -0.237 OA
ATOM     72  O   UNL A   1      39.655  36.377  35.860  1.00  0.00    -0.744 OA
ENDBRANCH  66  69
ENDBRANCH  48  62
BRANCH  49  73
ATOM     73  C   UNL A   1      42.103  26.365  27.496  1.00  0.00     0.023 A 
ATOM     74  C   UNL A   1      42.926  26.936  26.510  1.00  0.00     0.012 A 
ATOM     75  C   UNL A   1      41.752  25.001  27.394  1.00  0.00     0.148 A 
ATOM     76  C   UNL A   1      43.389  26.164  25.440  1.00  0.00     0.002 A 
ATOM     77  C   UNL A   1      42.259  24.227  26.358  1.00  0.00     0.091 A 
ATOM     78  F   UNL A   1      40.966  24.478  28.345  1.00  0.00    -0.205 F 
ATOM     79  C   UNL A   1      43.068  24.809  25.372  1.00  0.00     0.022 A 
BRANCH  77  80
ATOM     80  S   UNL A   1      42.007  22.449  26.267  1.00  0.00     0.127 S 
ATOM     81  O   UNL A   1      40.550  22.357  26.213  1.00  0.00    -0.237 OA
ATOM     82  O   UNL A   1      42.693  22.112  25.020  1.00  0.00    -0.237 OA
ATOM     83  O   UNL A   1      42.625  21.898  27.465  1.00  0.00    -0.744 OA
ENDBRANCH  77  80
ENDBRANCH  49  73
BRANCH  61  84
ATOM     84  C   UNL A   1      44.630  27.379  33.981  1.00  0.00     0.023 A 
ATOM     85  C   UNL A   1      45.811  28.137  34.078  1.00  0.00     0.012 A 
ATOM     86  C   UNL A   1      44.484  26.197  34.731  1.00  0.00     0.148 A 
ATOM     87  C   UNL A   1      46.836  27.721  34.921  1.00  0.00     0.002 A 
ATOM     88  C   UNL A   1      45.480  25.827  35.617  1.00  0.00     0.091 A 
ATOM     89  F   UNL A   1      43.348  25.495  34.601  1.00  0.00    -0.205 F 
ATOM     90  C   UNL A   1      46.662  26.581  35.706  1.00  0.00     0.022 A 
BRANCH  88  91
ATOM     91  S   UNL A   1      45.280  24.463  36.765  1.00  0.00     0.127 S 
ATOM     92  O   UNL A   1      46.535  24.520  37.514  1.00  0.00    -0.237 OA
ATOM     93  O   UNL A   1      44.097  24.871  37.521  1.00  0.00    -0.237 OA
ATOM     94  O   UNL A   1      45.101  23.267  35.952  1.00  0.00    -0.744 OA
ENDBRANCH  88  91
ENDBRANCH  61  84
ENDBRANCH  35  36
ENDBRANCH  28  30
ENDBRANCH  27  28
ENDBRANCH  26  27
ENDBRANCH   1  26
TORSDOF 19
ENDMDL
