MODEL 1
REMARK VINA RESULT:     -11.6      0.000      0.000
REMARK SMILES CC(C)(C)OC(=O)N[C@H](Cc1ccc(N=[N+]=[N-])cc1)C(=O)OCCOC(=O)c1ccc(-c2c3nc(c(-c4cccc(S(=O)(=O)[O-])c4F)c4ccc([nH]4)c(-c4cccc(S(=O)(=O)[O-])c4F)c4nc(c(-c5cccc(S(=O)(=O)[O-])c5F)c5ccc2[nH]5)C=C4)C=C3)cc1
REMARK SMILES IDX 23 1 22 2 20 3 21 4 9 5 8 6 6 7 7 8 5 10 2 11 1 12 3 13 4 14
REMARK SMILES IDX 10 15 11 16 12 17 19 18 13 19 18 20 14 21 15 22 16 23 17 24
REMARK SMILES IDX 24 25 25 26 26 27 27 28 28 29 29 30 90 31 30 32 89 33 31 34
REMARK SMILES IDX 32 35 33 36 83 37 34 38 88 39 82 40 84 41 35 42 87 43 81 44
REMARK SMILES IDX 80 45 36 47 68 48 48 49 67 50 49 51 52 52 66 53 85 54 50 55
REMARK SMILES IDX 51 56 65 58 86 59 53 60 37 61 38 62 46 63 39 64 41 65 47 66
REMARK SMILES IDX 40 67 42 68 43 69 44 70 45 71 69 72 70 73 78 74 71 75 73 76
REMARK SMILES IDX 79 77 72 78 74 79 75 80 76 81 77 82 54 83 55 84 63 85 56 86
REMARK SMILES IDX 58 87 64 88 57 89 59 90 60 91 61 92 62 93
REMARK H PARENT 8 9 84 46 52 57
REMARK Flexibility Score: inf
ROOT
ATOM      1  C   UNL A   1      35.392  21.399  25.768  1.00  0.00     0.274 C 
ENDROOT
BRANCH   1   2
ATOM      2  O   UNL A   1      35.146  22.730  25.273  1.00  0.00    -0.461 OA
BRANCH   2   3
ATOM      3  C   UNL A   1      34.472  22.808  24.099  1.00  0.00     0.329 C 
ATOM      4  O   UNL A   1      35.013  22.943  23.004  1.00  0.00    -0.250 OA
BRANCH   3   5
ATOM      5  C   UNL A   1      32.938  22.760  24.232  1.00  0.00     0.199 C 
BRANCH   5   6
ATOM      6  N   UNL A   1      32.582  22.940  25.637  1.00  0.00    -0.308 N 
ATOM      7  C   UNL A   1      31.831  23.948  26.146  1.00  0.00     0.408 C 
ATOM      8  O   UNL A   1      31.507  23.964  27.325  1.00  0.00    -0.225 OA
ATOM      9  H   UNL A   1      32.917  22.267  26.272  1.00  0.00     0.168 HD
BRANCH   7  10
ATOM     10  O   UNL A   1      31.505  24.869  25.213  1.00  0.00    -0.444 OA
BRANCH  10  11
ATOM     11  C   UNL A   1      32.145  26.167  25.216  1.00  0.00     0.106 C 
ATOM     12  C   UNL A   1      31.232  27.056  26.073  1.00  0.00     0.056 C 
ATOM     13  C   UNL A   1      32.211  26.760  23.804  1.00  0.00     0.056 C 
ATOM     14  C   UNL A   1      33.523  26.093  25.883  1.00  0.00     0.056 C 
ENDBRANCH  10  11
ENDBRANCH   7  10
ENDBRANCH   5   6
BRANCH   5  15
ATOM     15  C   UNL A   1      32.158  21.648  23.497  1.00  0.00     0.072 C 
BRANCH  15  16
ATOM     16  C   UNL A   1      32.415  20.204  23.933  1.00  0.00    -0.045 A 
ATOM     17  C   UNL A   1      32.564  19.224  22.939  1.00  0.00     0.004 A 
ATOM     18  C   UNL A   1      32.561  19.796  25.264  1.00  0.00     0.004 A 
ATOM     19  C   UNL A   1      32.788  17.881  23.274  1.00  0.00     0.010 A 
ATOM     20  C   UNL A   1      32.752  18.445  25.597  1.00  0.00     0.010 A 
ATOM     21  C   UNL A   1      32.867  17.464  24.605  1.00  0.00     0.038 A 
BRANCH  21  22
ATOM     22  N   UNL A   1      33.056  16.087  24.832  1.00  0.00    -0.061 NA
ATOM     23  N   UNL A   1      34.224  15.716  25.066  1.00  0.00     0.005 N 
ATOM     24  N   UNL A   1      35.286  15.365  25.266  1.00  0.00    -0.003 NA
ENDBRANCH  21  22
ENDBRANCH  15  16
ENDBRANCH   5  15
ENDBRANCH   3   5
ENDBRANCH   2   3
ENDBRANCH   1   2
BRANCH   1  25
ATOM     25  C   UNL A   1      36.503  20.708  24.972  1.00  0.00     0.275 C 
BRANCH  25  26
ATOM     26  O   UNL A   1      37.691  21.520  24.891  1.00  0.00    -0.458 OA
BRANCH  26  27
ATOM     27  C   UNL A   1      38.698  21.121  25.700  1.00  0.00     0.338 C 
ATOM     28  O   UNL A   1      39.150  19.992  25.806  1.00  0.00    -0.246 OA
BRANCH  27  29
ATOM     29  C   UNL A   1      39.302  22.275  26.377  1.00  0.00     0.060 A 
ATOM     30  C   UNL A   1      38.836  23.543  26.040  1.00  0.00     0.016 A 
ATOM     31  C   UNL A   1      40.408  22.132  27.210  1.00  0.00     0.016 A 
ATOM     32  C   UNL A   1      39.512  24.681  26.462  1.00  0.00     0.010 A 
ATOM     33  C   UNL A   1      41.051  23.280  27.692  1.00  0.00     0.010 A 
ATOM     34  C   UNL A   1      40.628  24.563  27.296  1.00  0.00    -0.014 A 
BRANCH  34  35
ATOM     35  C   UNL A   1      41.340  25.787  27.739  1.00  0.00     0.031 A 
ATOM     36  C   UNL A   1      40.626  26.832  28.552  1.00  0.00     0.074 A 
ATOM     37  C   UNL A   1      42.636  25.958  27.408  1.00  0.00     0.049 A 
ATOM     38  N   UNL A   1      41.054  28.003  28.945  1.00  0.00    -0.248 NA
ATOM     39  C   UNL A   1      39.247  26.527  28.968  1.00  0.00     0.031 C 
ATOM     40  C   UNL A   1      43.440  25.011  26.632  1.00  0.00     0.029 A 
ATOM     41  N   UNL A   1      43.500  26.992  27.667  1.00  0.00    -0.354 N 
ATOM     42  C   UNL A   1      39.984  28.599  29.603  1.00  0.00     0.074 A 
ATOM     43  C   UNL A   1      38.885  27.658  29.557  1.00  0.00     0.031 C 
ATOM     44  C   UNL A   1      44.676  25.508  26.475  1.00  0.00     0.029 A 
ATOM     45  C   UNL A   1      44.734  26.832  27.081  1.00  0.00     0.049 A 
ATOM     46  H   UNL A   1      43.260  27.771  28.218  1.00  0.00     0.167 HD
ATOM     47  C   UNL A   1      39.927  29.818  30.194  1.00  0.00     0.034 A 
ATOM     48  C   UNL A   1      45.783  27.674  27.001  1.00  0.00     0.034 A 
ATOM     49  C   UNL A   1      41.038  30.729  30.273  1.00  0.00     0.049 A 
ATOM     50  C   UNL A   1      45.688  29.020  27.663  1.00  0.00     0.074 A 
ATOM     51  C   UNL A   1      41.096  31.962  30.900  1.00  0.00     0.029 A 
ATOM     52  N   UNL A   1      42.285  30.512  29.706  1.00  0.00    -0.354 N 
ATOM     53  N   UNL A   1      44.698  29.532  28.352  1.00  0.00    -0.248 NA
ATOM     54  C   UNL A   1      46.865  29.894  27.559  1.00  0.00     0.031 C 
ATOM     55  C   UNL A   1      42.366  32.505  30.683  1.00  0.00     0.029 A 
ATOM     56  C   UNL A   1      43.114  31.593  29.956  1.00  0.00     0.049 A 
ATOM     57  H   UNL A   1      42.543  29.708  29.201  1.00  0.00     0.167 HD
ATOM     58  C   UNL A   1      45.141  30.774  28.790  1.00  0.00     0.074 A 
ATOM     59  C   UNL A   1      46.500  30.925  28.309  1.00  0.00     0.031 C 
ATOM     60  C   UNL A   1      44.480  31.710  29.513  1.00  0.00     0.034 A 
BRANCH  47  61
ATOM     61  C   UNL A   1      38.620  30.240  30.815  1.00  0.00     0.023 A 
ATOM     62  C   UNL A   1      38.361  29.963  32.172  1.00  0.00     0.012 A 
ATOM     63  C   UNL A   1      37.675  30.975  30.069  1.00  0.00     0.148 A 
ATOM     64  C   UNL A   1      37.172  30.382  32.769  1.00  0.00     0.002 A 
ATOM     65  C   UNL A   1      36.514  31.429  30.683  1.00  0.00     0.091 A 
ATOM     66  F   UNL A   1      37.930  31.213  28.774  1.00  0.00    -0.205 F 
ATOM     67  C   UNL A   1      36.255  31.124  32.029  1.00  0.00     0.022 A 
BRANCH  65  68
ATOM     68  S   UNL A   1      35.311  32.462  29.837  1.00  0.00     0.127 S 
ATOM     69  O   UNL A   1      34.320  32.682  30.890  1.00  0.00    -0.237 OA
ATOM     70  O   UNL A   1      36.106  33.642  29.495  1.00  0.00    -0.237 OA
ATOM     71  O   UNL A   1      34.846  31.689  28.695  1.00  0.00    -0.744 OA
ENDBRANCH  65  68
ENDBRANCH  47  61
BRANCH  48  72
ATOM     72  C   UNL A   1      47.016  27.259  26.275  1.00  0.00     0.023 A 
ATOM     73  C   UNL A   1      47.177  27.605  24.919  1.00  0.00     0.012 A 
ATOM     74  C   UNL A   1      48.042  26.545  26.927  1.00  0.00     0.148 A 
ATOM     75  C   UNL A   1      48.321  27.220  24.219  1.00  0.00     0.002 A 
ATOM     76  C   UNL A   1      49.204  26.218  26.241  1.00  0.00     0.091 A 
ATOM     77  F   UNL A   1      47.863  26.212  28.214  1.00  0.00    -0.205 F 
ATOM     78  C   UNL A   1      49.339  26.537  24.882  1.00  0.00     0.022 A 
BRANCH  76  79
ATOM     79  S   UNL A   1      50.618  25.463  27.051  1.00  0.00     0.127 S 
ATOM     80  O   UNL A   1      51.035  26.519  27.969  1.00  0.00    -0.237 OA
ATOM     81  O   UNL A   1      50.011  24.294  27.689  1.00  0.00    -0.237 OA
ATOM     82  O   UNL A   1      51.557  25.143  25.985  1.00  0.00    -0.744 OA
ENDBRANCH  76  79
ENDBRANCH  48  72
BRANCH  60  83
ATOM     83  C   UNL A   1      45.229  32.968  29.872  1.00  0.00     0.023 A 
ATOM     84  C   UNL A   1      46.050  32.997  31.017  1.00  0.00     0.012 A 
ATOM     85  C   UNL A   1      45.164  34.101  29.038  1.00  0.00     0.148 A 
ATOM     86  C   UNL A   1      46.766  34.148  31.345  1.00  0.00     0.002 A 
ATOM     87  C   UNL A   1      45.921  35.225  29.343  1.00  0.00     0.091 A 
ATOM     88  F   UNL A   1      44.362  34.060  27.964  1.00  0.00    -0.205 F 
ATOM     89  C   UNL A   1      46.710  35.256  30.503  1.00  0.00     0.022 A 
BRANCH  87  90
ATOM     90  S   UNL A   1      45.989  36.662  28.267  1.00  0.00     0.127 S 
ATOM     91  O   UNL A   1      46.470  36.074  27.016  1.00  0.00    -0.237 OA
ATOM     92  O   UNL A   1      44.593  37.096  28.240  1.00  0.00    -0.237 OA
ATOM     93  O   UNL A   1      46.902  37.600  28.906  1.00  0.00    -0.744 OA
ENDBRANCH  87  90
ENDBRANCH  60  83
ENDBRANCH  34  35
ENDBRANCH  27  29
ENDBRANCH  26  27
ENDBRANCH  25  26
ENDBRANCH   1  25
TORSDOF 20
ENDMDL
MODEL 2
REMARK VINA RESULT:     -11.4      5.504     10.523
REMARK SMILES CC(C)(C)OC(=O)N[C@H](Cc1ccc(N=[N+]=[N-])cc1)C(=O)OCCOC(=O)c1ccc(-c2c3nc(c(-c4cccc(S(=O)(=O)[O-])c4F)c4ccc([nH]4)c(-c4cccc(S(=O)(=O)[O-])c4F)c4nc(c(-c5cccc(S(=O)(=O)[O-])c5F)c5ccc2[nH]5)C=C4)C=C3)cc1
REMARK SMILES IDX 23 1 22 2 20 3 21 4 9 5 8 6 6 7 7 8 5 10 2 11 1 12 3 13 4 14
REMARK SMILES IDX 10 15 11 16 12 17 19 18 13 19 18 20 14 21 15 22 16 23 17 24
REMARK SMILES IDX 24 25 25 26 26 27 27 28 28 29 29 30 90 31 30 32 89 33 31 34
REMARK SMILES IDX 32 35 33 36 83 37 34 38 88 39 82 40 84 41 35 42 87 43 81 44
REMARK SMILES IDX 80 45 36 47 68 48 48 49 67 50 49 51 52 52 66 53 85 54 50 55
REMARK SMILES IDX 51 56 65 58 86 59 53 60 37 61 38 62 46 63 39 64 41 65 47 66
REMARK SMILES IDX 40 67 42 68 43 69 44 70 45 71 69 72 70 73 78 74 71 75 73 76
REMARK SMILES IDX 79 77 72 78 74 79 75 80 76 81 77 82 54 83 55 84 63 85 56 86
REMARK SMILES IDX 58 87 64 88 57 89 59 90 60 91 61 92 62 93
REMARK H PARENT 8 9 84 46 52 57
REMARK Flexibility Score: inf
ROOT
ATOM      1  C   UNL A   1      31.611  29.400  25.775  1.00  0.00     0.274 C 
ENDROOT
BRANCH   1   2
ATOM      2  O   UNL A   1      32.182  28.114  25.460  1.00  0.00    -0.461 OA
BRANCH   2   3
ATOM      3  C   UNL A   1      31.378  27.043  25.677  1.00  0.00     0.329 C 
ATOM      4  O   UNL A   1      30.997  26.685  26.789  1.00  0.00    -0.250 OA
BRANCH   3   5
ATOM      5  C   UNL A   1      30.998  26.256  24.409  1.00  0.00     0.199 C 
BRANCH   5   6
ATOM      6  N   UNL A   1      32.128  26.280  23.484  1.00  0.00    -0.308 N 
ATOM      7  C   UNL A   1      32.841  25.204  23.068  1.00  0.00     0.408 C 
ATOM      8  O   UNL A   1      33.713  25.312  22.218  1.00  0.00    -0.225 OA
ATOM      9  H   UNL A   1      32.395  27.159  23.128  1.00  0.00     0.168 HD
BRANCH   7  10
ATOM     10  O   UNL A   1      32.462  24.064  23.688  1.00  0.00    -0.444 OA
BRANCH  10  11
ATOM     11  C   UNL A   1      33.319  23.455  24.681  1.00  0.00     0.106 C 
ATOM     12  C   UNL A   1      34.295  22.581  23.878  1.00  0.00     0.056 C 
ATOM     13  C   UNL A   1      32.523  22.549  25.626  1.00  0.00     0.056 C 
ATOM     14  C   UNL A   1      34.123  24.521  25.434  1.00  0.00     0.056 C 
ENDBRANCH  10  11
ENDBRANCH   7  10
ENDBRANCH   5   6
BRANCH   5  15
ATOM     15  C   UNL A   1      29.617  26.501  23.761  1.00  0.00     0.072 C 
BRANCH  15  16
ATOM     16  C   UNL A   1      29.379  27.866  23.112  1.00  0.00    -0.045 A 
ATOM     17  C   UNL A   1      28.102  28.439  23.215  1.00  0.00     0.004 A 
ATOM     18  C   UNL A   1      30.367  28.611  22.457  1.00  0.00     0.004 A 
ATOM     19  C   UNL A   1      27.817  29.681  22.630  1.00  0.00     0.010 A 
ATOM     20  C   UNL A   1      30.068  29.838  21.843  1.00  0.00     0.010 A 
ATOM     21  C   UNL A   1      28.786  30.393  21.919  1.00  0.00     0.038 A 
BRANCH  21  22
ATOM     22  N   UNL A   1      28.384  31.612  21.338  1.00  0.00    -0.061 NA
ATOM     23  N   UNL A   1      28.403  32.615  22.080  1.00  0.00     0.005 N 
ATOM     24  N   UNL A   1      28.403  33.533  22.749  1.00  0.00    -0.003 NA
ENDBRANCH  21  22
ENDBRANCH  15  16
ENDBRANCH   5  15
ENDBRANCH   3   5
ENDBRANCH   2   3
ENDBRANCH   1   2
BRANCH   1  25
ATOM     25  C   UNL A   1      32.701  30.453  25.991  1.00  0.00     0.275 C 
BRANCH  25  26
ATOM     26  O   UNL A   1      32.880  30.763  27.386  1.00  0.00    -0.458 OA
BRANCH  26  27
ATOM     27  C   UNL A   1      33.668  31.835  27.625  1.00  0.00     0.338 C 
ATOM     28  O   UNL A   1      33.336  33.009  27.605  1.00  0.00    -0.246 OA
BRANCH  27  29
ATOM     29  C   UNL A   1      35.004  31.406  28.057  1.00  0.00     0.060 A 
ATOM     30  C   UNL A   1      35.152  30.096  28.508  1.00  0.00     0.016 A 
ATOM     31  C   UNL A   1      36.059  32.308  28.164  1.00  0.00     0.016 A 
ATOM     32  C   UNL A   1      36.319  29.694  29.143  1.00  0.00     0.010 A 
ATOM     33  C   UNL A   1      37.261  31.884  28.744  1.00  0.00     0.010 A 
ATOM     34  C   UNL A   1      37.391  30.583  29.266  1.00  0.00    -0.014 A 
BRANCH  34  35
ATOM     35  C   UNL A   1      38.633  30.139  29.948  1.00  0.00     0.031 A 
ATOM     36  C   UNL A   1      39.537  29.127  29.299  1.00  0.00     0.074 A 
ATOM     37  C   UNL A   1      38.947  30.650  31.155  1.00  0.00     0.049 A 
ATOM     38  N   UNL A   1      40.607  28.552  29.781  1.00  0.00    -0.248 NA
ATOM     39  C   UNL A   1      39.188  28.697  27.935  1.00  0.00     0.031 C 
ATOM     40  C   UNL A   1      38.155  31.646  31.881  1.00  0.00     0.029 A 
ATOM     41  N   UNL A   1      40.004  30.394  31.991  1.00  0.00    -0.354 N 
ATOM     42  C   UNL A   1      41.027  27.651  28.809  1.00  0.00     0.074 A 
ATOM     43  C   UNL A   1      40.095  27.757  27.706  1.00  0.00     0.031 C 
ATOM     44  C   UNL A   1      38.750  31.912  33.054  1.00  0.00     0.029 A 
ATOM     45  C   UNL A   1      39.927  31.063  33.190  1.00  0.00     0.049 A 
ATOM     46  H   UNL A   1      40.745  29.790  31.756  1.00  0.00     0.167 HD
ATOM     47  C   UNL A   1      42.095  26.816  28.834  1.00  0.00     0.034 A 
ATOM     48  C   UNL A   1      40.692  30.974  34.296  1.00  0.00     0.034 A 
ATOM     49  C   UNL A   1      43.041  26.749  29.916  1.00  0.00     0.049 A 
ATOM     50  C   UNL A   1      41.866  30.036  34.295  1.00  0.00     0.074 A 
ATOM     51  C   UNL A   1      44.187  25.976  30.009  1.00  0.00     0.029 A 
ATOM     52  N   UNL A   1      42.954  27.475  31.094  1.00  0.00    -0.354 N 
ATOM     53  N   UNL A   1      42.296  29.254  33.335  1.00  0.00    -0.248 NA
ATOM     54  C   UNL A   1      42.677  29.986  35.519  1.00  0.00     0.031 C 
ATOM     55  C   UNL A   1      44.772  26.210  31.257  1.00  0.00     0.029 A 
ATOM     56  C   UNL A   1      44.016  27.159  31.926  1.00  0.00     0.049 A 
ATOM     57  H   UNL A   1      42.243  28.121  31.308  1.00  0.00     0.167 HD
ATOM     58  C   UNL A   1      43.444  28.643  33.826  1.00  0.00     0.074 A 
ATOM     59  C   UNL A   1      43.656  29.167  35.160  1.00  0.00     0.031 C 
ATOM     60  C   UNL A   1      44.242  27.723  33.232  1.00  0.00     0.034 A 
BRANCH  47  61
ATOM     61  C   UNL A   1      42.308  25.908  27.649  1.00  0.00     0.023 A 
ATOM     62  C   UNL A   1      43.025  26.370  26.527  1.00  0.00     0.012 A 
ATOM     63  C   UNL A   1      41.857  24.573  27.678  1.00  0.00     0.148 A 
ATOM     64  C   UNL A   1      43.262  25.528  25.440  1.00  0.00     0.002 A 
ATOM     65  C   UNL A   1      42.138  23.726  26.613  1.00  0.00     0.091 A 
ATOM     66  F   UNL A   1      41.161  24.157  28.746  1.00  0.00    -0.205 F 
ATOM     67  C   UNL A   1      42.830  24.205  25.488  1.00  0.00     0.022 A 
BRANCH  65  68
ATOM     68  S   UNL A   1      41.695  21.985  26.615  1.00  0.00     0.127 S 
ATOM     69  O   UNL A   1      40.235  22.052  26.580  1.00  0.00    -0.237 OA
ATOM     70  O   UNL A   1      42.312  21.510  25.375  1.00  0.00    -0.237 OA
ATOM     71  O   UNL A   1      42.265  21.425  27.831  1.00  0.00    -0.744 OA
ENDBRANCH  65  68
ENDBRANCH  47  61
BRANCH  48  72
ATOM     72  C   UNL A   1      40.374  31.806  35.490  1.00  0.00     0.023 A 
ATOM     73  C   UNL A   1      41.213  32.885  35.832  1.00  0.00     0.012 A 
ATOM     74  C   UNL A   1      39.232  31.549  36.275  1.00  0.00     0.148 A 
ATOM     75  C   UNL A   1      40.937  33.672  36.950  1.00  0.00     0.002 A 
ATOM     76  C   UNL A   1      38.930  32.374  37.350  1.00  0.00     0.091 A 
ATOM     77  F   UNL A   1      38.454  30.509  35.942  1.00  0.00    -0.205 F 
ATOM     78  C   UNL A   1      39.791  33.425  37.702  1.00  0.00     0.022 A 
BRANCH  76  79
ATOM     79  S   UNL A   1      37.406  32.213  38.288  1.00  0.00     0.127 S 
ATOM     80  O   UNL A   1      37.215  30.765  38.300  1.00  0.00    -0.237 OA
ATOM     81  O   UNL A   1      37.782  32.797  39.576  1.00  0.00    -0.237 OA
ATOM     82  O   UNL A   1      36.409  32.978  37.552  1.00  0.00    -0.744 OA
ENDBRANCH  76  79
ENDBRANCH  48  72
BRANCH  60  83
ATOM     83  C   UNL A   1      45.450  27.252  34.000  1.00  0.00     0.023 A 
ATOM     84  C   UNL A   1      46.665  27.960  33.908  1.00  0.00     0.012 A 
ATOM     85  C   UNL A   1      45.361  26.140  34.860  1.00  0.00     0.148 A 
ATOM     86  C   UNL A   1      47.782  27.547  34.633  1.00  0.00     0.002 A 
ATOM     87  C   UNL A   1      46.462  25.766  35.619  1.00  0.00     0.091 A 
ATOM     88  F   UNL A   1      44.202  25.468  34.919  1.00  0.00    -0.205 F 
ATOM     89  C   UNL A   1      47.677  26.458  35.496  1.00  0.00     0.022 A 
BRANCH  87  90
ATOM     90  S   UNL A   1      46.394  24.440  36.830  1.00  0.00     0.127 S 
ATOM     91  O   UNL A   1      47.761  24.443  37.351  1.00  0.00    -0.237 OA
ATOM     92  O   UNL A   1      45.383  24.929  37.768  1.00  0.00    -0.237 OA
ATOM     93  O   UNL A   1      46.010  23.244  36.095  1.00  0.00    -0.744 OA
ENDBRANCH  87  90
ENDBRANCH  60  83
ENDBRANCH  34  35
ENDBRANCH  27  29
ENDBRANCH  26  27
ENDBRANCH  25  26
ENDBRANCH   1  25
TORSDOF 20
ENDMDL
MODEL 3
REMARK VINA RESULT:     -11.3      1.425      7.724
REMARK SMILES CC(C)(C)OC(=O)N[C@H](Cc1ccc(N=[N+]=[N-])cc1)C(=O)OCCOC(=O)c1ccc(-c2c3nc(c(-c4cccc(S(=O)(=O)[O-])c4F)c4ccc([nH]4)c(-c4cccc(S(=O)(=O)[O-])c4F)c4nc(c(-c5cccc(S(=O)(=O)[O-])c5F)c5ccc2[nH]5)C=C4)C=C3)cc1
REMARK SMILES IDX 23 1 22 2 20 3 21 4 9 5 8 6 6 7 7 8 5 10 2 11 1 12 3 13 4 14
REMARK SMILES IDX 10 15 11 16 12 17 19 18 13 19 18 20 14 21 15 22 16 23 17 24
REMARK SMILES IDX 24 25 25 26 26 27 27 28 28 29 29 30 90 31 30 32 89 33 31 34
REMARK SMILES IDX 32 35 33 36 83 37 34 38 88 39 82 40 84 41 35 42 87 43 81 44
REMARK SMILES IDX 80 45 36 47 68 48 48 49 67 50 49 51 52 52 66 53 85 54 50 55
REMARK SMILES IDX 51 56 65 58 86 59 53 60 37 61 38 62 46 63 39 64 41 65 47 66
REMARK SMILES IDX 40 67 42 68 43 69 44 70 45 71 69 72 70 73 78 74 71 75 73 76
REMARK SMILES IDX 79 77 72 78 74 79 75 80 76 81 77 82 54 83 55 84 63 85 56 86
REMARK SMILES IDX 58 87 64 88 57 89 59 90 60 91 61 92 62 93
REMARK H PARENT 8 9 84 46 52 57
REMARK Flexibility Score: inf
ROOT
ATOM      1  C   UNL A   1      35.981  20.452  24.969  1.00  0.00     0.274 C 
ENDROOT
BRANCH   1   2
ATOM      2  O   UNL A   1      35.253  21.654  25.292  1.00  0.00    -0.461 OA
BRANCH   2   3
ATOM      3  C   UNL A   1      34.644  22.272  24.250  1.00  0.00     0.329 C 
ATOM      4  O   UNL A   1      35.237  22.697  23.261  1.00  0.00    -0.250 OA
BRANCH   3   5
ATOM      5  C   UNL A   1      33.123  22.455  24.408  1.00  0.00     0.199 C 
BRANCH   5   6
ATOM      6  N   UNL A   1      32.822  22.697  25.816  1.00  0.00    -0.308 N 
ATOM      7  C   UNL A   1      32.064  23.709  26.307  1.00  0.00     0.408 C 
ATOM      8  O   UNL A   1      31.791  23.777  27.497  1.00  0.00    -0.225 OA
ATOM      9  H   UNL A   1      33.203  22.066  26.469  1.00  0.00     0.168 HD
BRANCH   7  10
ATOM     10  O   UNL A   1      31.672  24.573  25.344  1.00  0.00    -0.444 OA
BRANCH  10  11
ATOM     11  C   UNL A   1      32.148  25.939  25.353  1.00  0.00     0.106 C 
ATOM     12  C   UNL A   1      33.611  25.845  25.814  1.00  0.00     0.056 C 
ATOM     13  C   UNL A   1      31.376  26.792  26.364  1.00  0.00     0.056 C 
ATOM     14  C   UNL A   1      32.118  26.535  23.942  1.00  0.00     0.056 C 
ENDBRANCH  10  11
ENDBRANCH   7  10
ENDBRANCH   5   6
BRANCH   5  15
ATOM     15  C   UNL A   1      32.172  21.465  23.697  1.00  0.00     0.072 C 
BRANCH  15  16
ATOM     16  C   UNL A   1      32.465  19.972  23.859  1.00  0.00    -0.045 A 
ATOM     17  C   UNL A   1      32.566  19.450  25.158  1.00  0.00     0.004 A 
ATOM     18  C   UNL A   1      32.594  19.073  22.793  1.00  0.00     0.004 A 
ATOM     19  C   UNL A   1      32.846  18.093  25.374  1.00  0.00     0.010 A 
ATOM     20  C   UNL A   1      32.909  17.722  23.013  1.00  0.00     0.010 A 
ATOM     21  C   UNL A   1      33.041  17.210  24.309  1.00  0.00     0.038 A 
BRANCH  21  22
ATOM     22  N   UNL A   1      33.356  15.876  24.636  1.00  0.00    -0.061 NA
ATOM     23  N   UNL A   1      34.520  15.659  25.025  1.00  0.00     0.005 N 
ATOM     24  N   UNL A   1      35.582  15.446  25.368  1.00  0.00    -0.003 NA
ENDBRANCH  21  22
ENDBRANCH  15  16
ENDBRANCH   5  15
ENDBRANCH   3   5
ENDBRANCH   2   3
ENDBRANCH   1   2
BRANCH   1  25
ATOM     25  C   UNL A   1      37.485  20.724  24.875  1.00  0.00     0.275 C 
BRANCH  25  26
ATOM     26  O   UNL A   1      37.894  21.790  25.753  1.00  0.00    -0.458 OA
BRANCH  26  27
ATOM     27  C   UNL A   1      39.160  21.681  26.215  1.00  0.00     0.338 C 
ATOM     28  O   UNL A   1      39.908  20.724  26.088  1.00  0.00    -0.246 OA
BRANCH  27  29
ATOM     29  C   UNL A   1      39.604  22.950  26.805  1.00  0.00     0.060 A 
ATOM     30  C   UNL A   1      39.015  24.123  26.341  1.00  0.00     0.016 A 
ATOM     31  C   UNL A   1      40.682  23.005  27.684  1.00  0.00     0.016 A 
ATOM     32  C   UNL A   1      39.543  25.362  26.681  1.00  0.00     0.010 A 
ATOM     33  C   UNL A   1      41.172  24.255  28.082  1.00  0.00     0.010 A 
ATOM     34  C   UNL A   1      40.627  25.443  27.559  1.00  0.00    -0.014 A 
BRANCH  34  35
ATOM     35  C   UNL A   1      41.180  26.775  27.914  1.00  0.00     0.031 A 
ATOM     36  C   UNL A   1      42.623  27.099  27.638  1.00  0.00     0.074 A 
ATOM     37  C   UNL A   1      40.379  27.695  28.487  1.00  0.00     0.049 A 
ATOM     38  N   UNL A   1      43.303  28.167  27.962  1.00  0.00    -0.248 NA
ATOM     39  C   UNL A   1      43.407  26.086  26.912  1.00  0.00     0.031 C 
ATOM     40  C   UNL A   1      38.960  27.503  28.795  1.00  0.00     0.029 A 
ATOM     41  N   UNL A   1      40.643  28.968  28.925  1.00  0.00    -0.354 N 
ATOM     42  C   UNL A   1      44.606  27.934  27.535  1.00  0.00     0.074 A 
ATOM     43  C   UNL A   1      44.620  26.622  26.925  1.00  0.00     0.031 C 
ATOM     44  C   UNL A   1      38.481  28.614  29.376  1.00  0.00     0.029 A 
ATOM     45  C   UNL A   1      39.569  29.570  29.538  1.00  0.00     0.049 A 
ATOM     46  H   UNL A   1      41.517  29.407  28.813  1.00  0.00     0.167 HD
ATOM     47  C   UNL A   1      45.687  28.745  27.639  1.00  0.00     0.034 A 
ATOM     48  C   UNL A   1      39.478  30.741  30.197  1.00  0.00     0.034 A 
ATOM     49  C   UNL A   1      45.653  30.066  28.208  1.00  0.00     0.049 A 
ATOM     50  C   UNL A   1      40.695  31.616  30.299  1.00  0.00     0.074 A 
ATOM     51  C   UNL A   1      46.684  30.986  28.306  1.00  0.00     0.029 A 
ATOM     52  N   UNL A   1      44.536  30.658  28.777  1.00  0.00    -0.354 N 
ATOM     53  N   UNL A   1      41.897  31.417  29.816  1.00  0.00    -0.248 NA
ATOM     54  C   UNL A   1      40.539  32.890  31.015  1.00  0.00     0.031 C 
ATOM     55  C   UNL A   1      46.198  32.119  28.966  1.00  0.00     0.029 A 
ATOM     56  C   UNL A   1      44.854  31.923  29.242  1.00  0.00     0.049 A 
ATOM     57  H   UNL A   1      43.647  30.240  28.841  1.00  0.00     0.167 HD
ATOM     58  C   UNL A   1      42.631  32.550  30.140  1.00  0.00     0.074 A 
ATOM     59  C   UNL A   1      41.730  33.444  30.839  1.00  0.00     0.031 C 
ATOM     60  C   UNL A   1      43.936  32.822  29.893  1.00  0.00     0.034 A 
BRANCH  47  61
ATOM     61  C   UNL A   1      47.005  28.232  27.117  1.00  0.00     0.023 A 
ATOM     62  C   UNL A   1      48.039  27.901  28.017  1.00  0.00     0.012 A 
ATOM     63  C   UNL A   1      47.194  28.010  25.738  1.00  0.00     0.148 A 
ATOM     64  C   UNL A   1      49.250  27.390  27.550  1.00  0.00     0.002 A 
ATOM     65  C   UNL A   1      48.386  27.457  25.285  1.00  0.00     0.091 A 
ATOM     66  F   UNL A   1      46.207  28.348  24.895  1.00  0.00    -0.205 F 
ATOM     67  C   UNL A   1      49.419  27.156  26.187  1.00  0.00     0.022 A 
BRANCH  65  68
ATOM     68  S   UNL A   1      48.668  27.043  23.559  1.00  0.00     0.127 S 
ATOM     69  O   UNL A   1      47.851  25.840  23.407  1.00  0.00    -0.237 OA
ATOM     70  O   UNL A   1      48.147  28.224  22.871  1.00  0.00    -0.237 OA
ATOM     71  O   UNL A   1      50.103  26.842  23.421  1.00  0.00    -0.744 OA
ENDBRANCH  65  68
ENDBRANCH  47  61
BRANCH  48  72
ATOM     72  C   UNL A   1      38.180  31.157  30.800  1.00  0.00     0.023 A 
ATOM     73  C   UNL A   1      37.920  30.880  32.156  1.00  0.00     0.012 A 
ATOM     74  C   UNL A   1      37.211  31.845  30.042  1.00  0.00     0.148 A 
ATOM     75  C   UNL A   1      36.708  31.254  32.738  1.00  0.00     0.002 A 
ATOM     76  C   UNL A   1      36.033  32.268  30.643  1.00  0.00     0.091 A 
ATOM     77  F   UNL A   1      37.470  32.086  28.749  1.00  0.00    -0.205 F 
ATOM     78  C   UNL A   1      35.770  31.957  31.986  1.00  0.00     0.022 A 
BRANCH  76  79
ATOM     79  S   UNL A   1      34.832  33.296  29.789  1.00  0.00     0.127 S 
ATOM     80  O   UNL A   1      33.958  33.707  30.885  1.00  0.00    -0.237 OA
ATOM     81  O   UNL A   1      35.679  34.358  29.244  1.00  0.00    -0.237 OA
ATOM     82  O   UNL A   1      34.225  32.438  28.782  1.00  0.00    -0.744 OA
ENDBRANCH  76  79
ENDBRANCH  48  72
BRANCH  60  83
ATOM     83  C   UNL A   1      44.464  34.161  30.342  1.00  0.00     0.023 A 
ATOM     84  C   UNL A   1      45.088  34.287  31.599  1.00  0.00     0.012 A 
ATOM     85  C   UNL A   1      44.395  35.279  29.488  1.00  0.00     0.148 A 
ATOM     86  C   UNL A   1      45.601  35.516  32.014  1.00  0.00     0.002 A 
ATOM     87  C   UNL A   1      44.955  36.486  29.886  1.00  0.00     0.091 A 
ATOM     88  F   UNL A   1      43.781  35.142  28.304  1.00  0.00    -0.205 F 
ATOM     89  C   UNL A   1      45.545  36.610  31.154  1.00  0.00     0.022 A 
BRANCH  87  90
ATOM     90  S   UNL A   1      45.019  37.922  28.808  1.00  0.00     0.127 S 
ATOM     91  O   UNL A   1      43.643  38.413  28.886  1.00  0.00    -0.237 OA
ATOM     92  O   UNL A   1      46.007  38.767  29.478  1.00  0.00    -0.237 OA
ATOM     93  O   UNL A   1      45.431  37.427  27.502  1.00  0.00    -0.744 OA
ENDBRANCH  87  90
ENDBRANCH  60  83
ENDBRANCH  34  35
ENDBRANCH  27  29
ENDBRANCH  26  27
ENDBRANCH  25  26
ENDBRANCH   1  25
TORSDOF 20
ENDMDL
