MODEL 1
REMARK VINA RESULT:     -10.6      0.000      0.000
REMARK SMILES COCCCC(=O)N[C@H]1CC[C@@H](C(=O)OCCOC(=O)c2ccc(-c3c4nc(c(-c5cccc(S(=O)(=O)[O-])c5F)c5ccc([nH]5)c(-c5cccc(S(=O)(=O)[O-])c5F)c5nc(c(-c6cccc(S(=O)(=O)[O-])c6F)c6ccc3[nH]6)C=C5)C=C4)cc2)CC1
REMARK SMILES IDX 16 1 15 2 13 3 14 4 12 5 9 6 10 7 85 8 11 9 84 10 8 11 6 12
REMARK SMILES IDX 7 13 5 15 4 16 3 17 2 18 1 19 17 20 18 21 19 22 20 23 21 24
REMARK SMILES IDX 22 25 83 26 23 27 82 28 24 29 25 30 26 31 76 32 27 33 81 34
REMARK SMILES IDX 75 35 77 36 28 37 80 38 74 39 73 40 29 42 61 43 41 44 60 45
REMARK SMILES IDX 42 46 45 47 59 48 78 49 43 50 44 51 58 53 79 54 46 55 30 56
REMARK SMILES IDX 31 57 39 58 32 59 34 60 40 61 33 62 35 63 36 64 37 65 38 66
REMARK SMILES IDX 62 67 63 68 71 69 64 70 66 71 72 72 65 73 67 74 68 75 69 76
REMARK SMILES IDX 70 77 47 78 48 79 56 80 49 81 51 82 57 83 50 84 52 85 53 86
REMARK SMILES IDX 54 87 55 88
REMARK H PARENT 8 14 77 41 45 52
REMARK Flexibility Score: inf
ROOT
ATOM      1  C   UNL A   1      35.262  20.480  25.033  1.00  0.00     0.274 C 
ENDROOT
BRANCH   1   2
ATOM      2  O   UNL A   1      34.814  21.325  26.109  1.00  0.00    -0.462 OA
BRANCH   2   3
ATOM      3  C   UNL A   1      33.510  21.694  26.078  1.00  0.00     0.309 C 
ATOM      4  O   UNL A   1      32.623  21.079  25.503  1.00  0.00    -0.252 OA
BRANCH   3   5
ATOM      5  C   UNL A   1      33.259  23.018  26.783  1.00  0.00     0.099 C 
ATOM      6  C   UNL A   1      31.200  24.771  25.587  1.00  0.00     0.082 C 
ATOM      7  C   UNL A   1      30.819  23.451  26.262  1.00  0.00     0.026 C 
ATOM      8  C   UNL A   1      32.581  24.698  24.945  1.00  0.00     0.026 C 
ATOM      9  C   UNL A   1      31.832  23.050  27.324  1.00  0.00     0.017 C 
ATOM     10  C   UNL A   1      33.629  24.274  25.978  1.00  0.00     0.017 C 
BRANCH   6  11
ATOM     11  N   UNL A   1      30.154  25.156  24.664  1.00  0.00    -0.353 N 
ATOM     12  C   UNL A   1      29.727  26.417  24.367  1.00  0.00     0.220 C 
ATOM     13  O   UNL A   1      28.631  26.556  23.822  1.00  0.00    -0.275 OA
ATOM     14  H   UNL A   1      29.699  24.421  24.194  1.00  0.00     0.163 HD
BRANCH  12  15
ATOM     15  C   UNL A   1      30.628  27.613  24.643  1.00  0.00     0.102 C 
BRANCH  15  16
ATOM     16  C   UNL A   1      31.095  28.398  23.414  1.00  0.00     0.038 C 
BRANCH  16  17
ATOM     17  C   UNL A   1      32.063  27.710  22.443  1.00  0.00     0.160 C 
BRANCH  17  18
ATOM     18  O   UNL A   1      31.639  26.424  22.003  1.00  0.00    -0.385 OA
ATOM     19  C   UNL A   1      32.556  25.712  21.187  1.00  0.00     0.194 C 
ENDBRANCH  17  18
ENDBRANCH  16  17
ENDBRANCH  15  16
ENDBRANCH  12  15
ENDBRANCH   6  11
ENDBRANCH   3   5
ENDBRANCH   2   3
ENDBRANCH   1   2
BRANCH   1  20
ATOM     20  C   UNL A   1      36.760  20.651  24.778  1.00  0.00     0.275 C 
BRANCH  20  21
ATOM     21  O   UNL A   1      37.399  21.376  25.845  1.00  0.00    -0.458 OA
BRANCH  21  22
ATOM     22  C   UNL A   1      38.717  21.132  26.005  1.00  0.00     0.338 C 
ATOM     23  O   UNL A   1      39.326  20.119  25.670  1.00  0.00    -0.246 OA
BRANCH  22  24
ATOM     24  C   UNL A   1      39.392  22.338  26.505  1.00  0.00     0.060 A 
ATOM     25  C   UNL A   1      38.953  23.579  26.033  1.00  0.00     0.016 A 
ATOM     26  C   UNL A   1      40.473  22.256  27.383  1.00  0.00     0.016 A 
ATOM     27  C   UNL A   1      39.576  24.750  26.452  1.00  0.00     0.010 A 
ATOM     28  C   UNL A   1      41.109  23.432  27.790  1.00  0.00     0.010 A 
ATOM     29  C   UNL A   1      40.668  24.684  27.325  1.00  0.00    -0.014 A 
BRANCH  29  30
ATOM     30  C   UNL A   1      41.379  25.927  27.705  1.00  0.00     0.031 A 
ATOM     31  C   UNL A   1      40.656  26.980  28.495  1.00  0.00     0.074 A 
ATOM     32  C   UNL A   1      42.661  26.106  27.338  1.00  0.00     0.049 A 
ATOM     33  N   UNL A   1      41.069  28.165  28.858  1.00  0.00    -0.248 NA
ATOM     34  C   UNL A   1      39.289  26.657  28.934  1.00  0.00     0.031 C 
ATOM     35  C   UNL A   1      43.466  25.142  26.587  1.00  0.00     0.029 A 
ATOM     36  N   UNL A   1      43.504  27.171  27.527  1.00  0.00    -0.354 N 
ATOM     37  C   UNL A   1      39.999  28.751  29.523  1.00  0.00     0.074 A 
ATOM     38  C   UNL A   1      38.921  27.785  29.526  1.00  0.00     0.031 C 
ATOM     39  C   UNL A   1      44.681  25.669  26.361  1.00  0.00     0.029 A 
ATOM     40  C   UNL A   1      44.727  27.018  26.916  1.00  0.00     0.049 A 
ATOM     41  H   UNL A   1      43.258  27.968  28.050  1.00  0.00     0.167 HD
ATOM     42  C   UNL A   1      39.926  29.981  30.085  1.00  0.00     0.034 A 
ATOM     43  C   UNL A   1      45.754  27.882  26.794  1.00  0.00     0.034 A 
ATOM     44  C   UNL A   1      41.017  30.918  30.116  1.00  0.00     0.049 A 
ATOM     45  C   UNL A   1      45.637  29.246  27.424  1.00  0.00     0.074 A 
ATOM     46  C   UNL A   1      41.059  32.167  30.710  1.00  0.00     0.029 A 
ATOM     47  N   UNL A   1      42.254  30.712  29.527  1.00  0.00    -0.354 N 
ATOM     48  N   UNL A   1      44.659  29.745  28.139  1.00  0.00    -0.248 NA
ATOM     49  C   UNL A   1      46.778  30.158  27.248  1.00  0.00     0.031 C 
ATOM     50  C   UNL A   1      42.318  32.725  30.463  1.00  0.00     0.029 A 
ATOM     51  C   UNL A   1      43.064  31.816  29.732  1.00  0.00     0.049 A 
ATOM     52  H   UNL A   1      42.518  29.901  29.036  1.00  0.00     0.167 HD
ATOM     53  C   UNL A   1      45.075  31.014  28.522  1.00  0.00     0.074 A 
ATOM     54  C   UNL A   1      46.407  31.198  27.983  1.00  0.00     0.031 C 
ATOM     55  C   UNL A   1      44.409  31.956  29.236  1.00  0.00     0.034 A 
BRANCH  42  56
ATOM     56  C   UNL A   1      38.630  30.384  30.731  1.00  0.00     0.023 A 
ATOM     57  C   UNL A   1      38.418  30.117  32.098  1.00  0.00     0.012 A 
ATOM     58  C   UNL A   1      37.654  31.092  30.003  1.00  0.00     0.148 A 
ATOM     59  C   UNL A   1      37.245  30.534  32.727  1.00  0.00     0.002 A 
ATOM     60  C   UNL A   1      36.504  31.536  30.645  1.00  0.00     0.091 A 
ATOM     61  F   UNL A   1      37.866  31.313  28.698  1.00  0.00    -0.205 F 
ATOM     62  C   UNL A   1      36.295  31.251  32.005  1.00  0.00     0.022 A 
BRANCH  60  63
ATOM     63  S   UNL A   1      35.253  32.525  29.820  1.00  0.00     0.127 S 
ATOM     64  O   UNL A   1      34.800  31.614  28.770  1.00  0.00    -0.237 OA
ATOM     65  O   UNL A   1      34.283  32.750  30.892  1.00  0.00    -0.237 OA
ATOM     66  O   UNL A   1      35.932  33.726  29.353  1.00  0.00    -0.744 OA
ENDBRANCH  60  63
ENDBRANCH  42  56
BRANCH  43  67
ATOM     67  C   UNL A   1      46.992  27.481  26.067  1.00  0.00     0.023 A 
ATOM     68  C   UNL A   1      48.004  26.782  26.755  1.00  0.00     0.012 A 
ATOM     69  C   UNL A   1      47.175  27.782  24.703  1.00  0.00     0.148 A 
ATOM     70  C   UNL A   1      49.186  26.421  26.107  1.00  0.00     0.002 A 
ATOM     71  C   UNL A   1      48.330  27.368  24.049  1.00  0.00     0.091 A 
ATOM     72  F   UNL A   1      46.216  28.473  24.069  1.00  0.00    -0.205 F 
ATOM     73  C   UNL A   1      49.345  26.702  24.753  1.00  0.00     0.022 A 
BRANCH  71  74
ATOM     74  S   UNL A   1      48.546  27.581  22.278  1.00  0.00     0.127 S 
ATOM     75  O   UNL A   1      48.620  26.198  21.817  1.00  0.00    -0.237 OA
ATOM     76  O   UNL A   1      47.323  28.293  21.902  1.00  0.00    -0.237 OA
ATOM     77  O   UNL A   1      49.762  28.371  22.133  1.00  0.00    -0.744 OA
ENDBRANCH  71  74
ENDBRANCH  43  67
BRANCH  55  78
ATOM     78  C   UNL A   1      45.117  33.258  29.500  1.00  0.00     0.023 A 
ATOM     79  C   UNL A   1      45.920  33.393  30.649  1.00  0.00     0.012 A 
ATOM     80  C   UNL A   1      45.042  34.321  28.579  1.00  0.00     0.148 A 
ATOM     81  C   UNL A   1      46.612  34.578  30.895  1.00  0.00     0.002 A 
ATOM     82  C   UNL A   1      45.771  35.483  28.807  1.00  0.00     0.091 A 
ATOM     83  F   UNL A   1      44.256  34.182  27.501  1.00  0.00    -0.205 F 
ATOM     84  C   UNL A   1      46.547  35.617  29.970  1.00  0.00     0.022 A 
BRANCH  82  85
ATOM     85  S   UNL A   1      45.818  36.829  27.620  1.00  0.00     0.127 S 
ATOM     86  O   UNL A   1      46.729  37.769  28.270  1.00  0.00    -0.237 OA
ATOM     87  O   UNL A   1      46.362  36.179  26.427  1.00  0.00    -0.237 OA
ATOM     88  O   UNL A   1      44.440  37.282  27.480  1.00  0.00    -0.744 OA
ENDBRANCH  82  85
ENDBRANCH  55  78
ENDBRANCH  29  30
ENDBRANCH  22  24
ENDBRANCH  21  22
ENDBRANCH  20  21
ENDBRANCH   1  20
TORSDOF 19
ENDMDL
MODEL 2
REMARK VINA RESULT:     -10.5      1.653      2.051
REMARK SMILES COCCCC(=O)N[C@H]1CC[C@@H](C(=O)OCCOC(=O)c2ccc(-c3c4nc(c(-c5cccc(S(=O)(=O)[O-])c5F)c5ccc([nH]5)c(-c5cccc(S(=O)(=O)[O-])c5F)c5nc(c(-c6cccc(S(=O)(=O)[O-])c6F)c6ccc3[nH]6)C=C5)C=C4)cc2)CC1
REMARK SMILES IDX 16 1 15 2 13 3 14 4 12 5 9 6 10 7 85 8 11 9 84 10 8 11 6 12
REMARK SMILES IDX 7 13 5 15 4 16 3 17 2 18 1 19 17 20 18 21 19 22 20 23 21 24
REMARK SMILES IDX 22 25 83 26 23 27 82 28 24 29 25 30 26 31 76 32 27 33 81 34
REMARK SMILES IDX 75 35 77 36 28 37 80 38 74 39 73 40 29 42 61 43 41 44 60 45
REMARK SMILES IDX 42 46 45 47 59 48 78 49 43 50 44 51 58 53 79 54 46 55 30 56
REMARK SMILES IDX 31 57 39 58 32 59 34 60 40 61 33 62 35 63 36 64 37 65 38 66
REMARK SMILES IDX 62 67 63 68 71 69 64 70 66 71 72 72 65 73 67 74 68 75 69 76
REMARK SMILES IDX 70 77 47 78 48 79 56 80 49 81 51 82 57 83 50 84 52 85 53 86
REMARK SMILES IDX 54 87 55 88
REMARK H PARENT 8 14 77 41 45 52
REMARK Flexibility Score: inf
ROOT
ATOM      1  C   UNL A   1      35.317  20.479  24.903  1.00  0.00     0.274 C 
ENDROOT
BRANCH   1   2
ATOM      2  O   UNL A   1      34.889  21.081  26.138  1.00  0.00    -0.462 OA
BRANCH   2   3
ATOM      3  C   UNL A   1      33.928  22.031  26.041  1.00  0.00     0.309 C 
ATOM      4  O   UNL A   1      33.008  22.179  26.833  1.00  0.00    -0.252 OA
BRANCH   3   5
ATOM      5  C   UNL A   1      34.062  22.873  24.781  1.00  0.00     0.099 C 
ATOM      6  C   UNL A   1      32.787  25.540  24.844  1.00  0.00     0.082 C 
ATOM      7  C   UNL A   1      34.015  25.232  25.703  1.00  0.00     0.026 C 
ATOM      8  C   UNL A   1      31.919  24.304  24.637  1.00  0.00     0.026 C 
ATOM      9  C   UNL A   1      34.869  24.132  25.088  1.00  0.00     0.017 C 
ATOM     10  C   UNL A   1      32.748  23.163  24.039  1.00  0.00     0.017 C 
BRANCH   6  11
ATOM     11  N   UNL A   1      32.070  26.658  25.419  1.00  0.00    -0.353 N 
ATOM     12  C   UNL A   1      32.240  27.985  25.148  1.00  0.00     0.220 C 
ATOM     13  O   UNL A   1      31.792  28.812  25.944  1.00  0.00    -0.275 OA
ATOM     14  H   UNL A   1      31.378  26.435  26.083  1.00  0.00     0.163 HD
BRANCH  12  15
ATOM     15  C   UNL A   1      32.905  28.421  23.850  1.00  0.00     0.102 C 
BRANCH  15  16
ATOM     16  C   UNL A   1      31.991  28.514  22.626  1.00  0.00     0.038 C 
BRANCH  16  17
ATOM     17  C   UNL A   1      30.476  28.395  22.845  1.00  0.00     0.160 C 
BRANCH  17  18
ATOM     18  O   UNL A   1      29.686  28.931  21.789  1.00  0.00    -0.385 OA
ATOM     19  C   UNL A   1      29.511  30.338  21.796  1.00  0.00     0.194 C 
ENDBRANCH  17  18
ENDBRANCH  16  17
ENDBRANCH  15  16
ENDBRANCH  12  15
ENDBRANCH   6  11
ENDBRANCH   3   5
ENDBRANCH   2   3
ENDBRANCH   1   2
BRANCH   1  20
ATOM     20  C   UNL A   1      36.826  20.229  24.899  1.00  0.00     0.275 C 
BRANCH  20  21
ATOM     21  O   UNL A   1      37.542  21.307  25.528  1.00  0.00    -0.458 OA
BRANCH  21  22
ATOM     22  C   UNL A   1      38.771  20.996  25.992  1.00  0.00     0.338 C 
ATOM     23  O   UNL A   1      39.341  19.912  25.901  1.00  0.00    -0.246 OA
BRANCH  22  24
ATOM     24  C   UNL A   1      39.435  22.204  26.500  1.00  0.00     0.060 A 
ATOM     25  C   UNL A   1      38.962  23.446  26.065  1.00  0.00     0.016 A 
ATOM     26  C   UNL A   1      40.539  22.126  27.349  1.00  0.00     0.016 A 
ATOM     27  C   UNL A   1      39.573  24.620  26.493  1.00  0.00     0.010 A 
ATOM     28  C   UNL A   1      41.164  23.306  27.765  1.00  0.00     0.010 A 
ATOM     29  C   UNL A   1      40.687  24.558  27.337  1.00  0.00    -0.014 A 
BRANCH  29  30
ATOM     30  C   UNL A   1      41.384  25.806  27.725  1.00  0.00     0.031 A 
ATOM     31  C   UNL A   1      40.636  26.865  28.483  1.00  0.00     0.074 A 
ATOM     32  C   UNL A   1      42.676  25.985  27.393  1.00  0.00     0.049 A 
ATOM     33  N   UNL A   1      41.035  28.055  28.846  1.00  0.00    -0.248 NA
ATOM     34  C   UNL A   1      39.257  26.543  28.885  1.00  0.00     0.031 C 
ATOM     35  C   UNL A   1      43.504  25.016  26.676  1.00  0.00     0.029 A 
ATOM     36  N   UNL A   1      43.510  27.054  27.596  1.00  0.00    -0.354 N 
ATOM     37  C   UNL A   1      39.944  28.645  29.473  1.00  0.00     0.074 A 
ATOM     38  C   UNL A   1      38.870  27.677  29.455  1.00  0.00     0.031 C 
ATOM     39  C   UNL A   1      44.724  25.543  26.480  1.00  0.00     0.029 A 
ATOM     40  C   UNL A   1      44.750  26.899  27.023  1.00  0.00     0.049 A 
ATOM     41  H   UNL A   1      43.247  27.856  28.104  1.00  0.00     0.167 HD
ATOM     42  C   UNL A   1      39.853  29.880  30.021  1.00  0.00     0.034 A 
ATOM     43  C   UNL A   1      45.779  27.764  26.922  1.00  0.00     0.034 A 
ATOM     44  C   UNL A   1      40.940  30.820  30.075  1.00  0.00     0.049 A 
ATOM     45  C   UNL A   1      45.641  29.134  27.534  1.00  0.00     0.074 A 
ATOM     46  C   UNL A   1      40.962  32.075  30.656  1.00  0.00     0.029 A 
ATOM     47  N   UNL A   1      42.194  30.612  29.523  1.00  0.00    -0.354 N 
ATOM     48  N   UNL A   1      44.640  29.637  28.215  1.00  0.00    -0.248 NA
ATOM     49  C   UNL A   1      46.784  30.047  27.382  1.00  0.00     0.031 C 
ATOM     50  C   UNL A   1      42.226  32.634  30.441  1.00  0.00     0.029 A 
ATOM     51  C   UNL A   1      42.996  31.720  29.741  1.00  0.00     0.049 A 
ATOM     52  H   UNL A   1      42.475  29.796  29.048  1.00  0.00     0.167 HD
ATOM     53  C   UNL A   1      45.042  30.911  28.598  1.00  0.00     0.074 A 
ATOM     54  C   UNL A   1      46.390  31.093  28.096  1.00  0.00     0.031 C 
ATOM     55  C   UNL A   1      44.354  31.859  29.283  1.00  0.00     0.034 A 
BRANCH  42  56
ATOM     56  C   UNL A   1      38.537  30.286  30.625  1.00  0.00     0.023 A 
ATOM     57  C   UNL A   1      38.250  29.953  31.964  1.00  0.00     0.012 A 
ATOM     58  C   UNL A   1      37.618  31.060  29.891  1.00  0.00     0.148 A 
ATOM     59  C   UNL A   1      37.059  30.370  32.557  1.00  0.00     0.002 A 
ATOM     60  C   UNL A   1      36.450  31.504  30.500  1.00  0.00     0.091 A 
ATOM     61  F   UNL A   1      37.900  31.345  28.611  1.00  0.00    -0.205 F 
ATOM     62  C   UNL A   1      36.166  31.152  31.831  1.00  0.00     0.022 A 
BRANCH  60  63
ATOM     63  S   UNL A   1      35.269  32.573  29.672  1.00  0.00     0.127 S 
ATOM     64  O   UNL A   1      36.126  33.668  29.221  1.00  0.00    -0.237 OA
ATOM     65  O   UNL A   1      34.771  31.708  28.601  1.00  0.00    -0.237 OA
ATOM     66  O   UNL A   1      34.276  32.930  30.675  1.00  0.00    -0.744 OA
ENDBRANCH  60  63
ENDBRANCH  42  56
BRANCH  43  67
ATOM     67  C   UNL A   1      47.039  27.359  26.235  1.00  0.00     0.023 A 
ATOM     68  C   UNL A   1      47.233  27.706  24.883  1.00  0.00     0.012 A 
ATOM     69  C   UNL A   1      48.044  26.639  26.908  1.00  0.00     0.148 A 
ATOM     70  C   UNL A   1      48.390  27.315  24.208  1.00  0.00     0.002 A 
ATOM     71  C   UNL A   1      49.219  26.302  26.245  1.00  0.00     0.091 A 
ATOM     72  F   UNL A   1      47.833  26.291  28.186  1.00  0.00    -0.205 F 
ATOM     73  C   UNL A   1      49.387  26.624  24.890  1.00  0.00     0.022 A 
BRANCH  71  74
ATOM     74  S   UNL A   1      50.600  25.528  27.094  1.00  0.00     0.127 S 
ATOM     75  O   UNL A   1      49.984  24.316  27.626  1.00  0.00    -0.237 OA
ATOM     76  O   UNL A   1      51.550  25.308  26.002  1.00  0.00    -0.237 OA
ATOM     77  O   UNL A   1      51.043  26.508  28.078  1.00  0.00    -0.744 OA
ENDBRANCH  71  74
ENDBRANCH  43  67
BRANCH  55  78
ATOM     78  C   UNL A   1      45.051  33.165  29.554  1.00  0.00     0.023 A 
ATOM     79  C   UNL A   1      45.813  33.317  30.729  1.00  0.00     0.012 A 
ATOM     80  C   UNL A   1      45.007  34.216  28.617  1.00  0.00     0.148 A 
ATOM     81  C   UNL A   1      46.494  34.506  30.983  1.00  0.00     0.002 A 
ATOM     82  C   UNL A   1      45.726  35.381  28.855  1.00  0.00     0.091 A 
ATOM     83  F   UNL A   1      44.259  34.061  27.514  1.00  0.00    -0.205 F 
ATOM     84  C   UNL A   1      46.461  35.532  30.042  1.00  0.00     0.022 A 
BRANCH  82  85
ATOM     85  S   UNL A   1      45.814  36.712  27.652  1.00  0.00     0.127 S 
ATOM     86  O   UNL A   1      46.790  37.608  28.269  1.00  0.00    -0.237 OA
ATOM     87  O   UNL A   1      46.292  36.022  26.453  1.00  0.00    -0.237 OA
ATOM     88  O   UNL A   1      44.458  37.236  27.543  1.00  0.00    -0.744 OA
ENDBRANCH  82  85
ENDBRANCH  55  78
ENDBRANCH  29  30
ENDBRANCH  22  24
ENDBRANCH  21  22
ENDBRANCH  20  21
ENDBRANCH   1  20
TORSDOF 19
ENDMDL
MODEL 3
REMARK VINA RESULT:     -10.4      1.504      2.058
REMARK SMILES COCCCC(=O)N[C@H]1CC[C@@H](C(=O)OCCOC(=O)c2ccc(-c3c4nc(c(-c5cccc(S(=O)(=O)[O-])c5F)c5ccc([nH]5)c(-c5cccc(S(=O)(=O)[O-])c5F)c5nc(c(-c6cccc(S(=O)(=O)[O-])c6F)c6ccc3[nH]6)C=C5)C=C4)cc2)CC1
REMARK SMILES IDX 16 1 15 2 13 3 14 4 12 5 9 6 10 7 85 8 11 9 84 10 8 11 6 12
REMARK SMILES IDX 7 13 5 15 4 16 3 17 2 18 1 19 17 20 18 21 19 22 20 23 21 24
REMARK SMILES IDX 22 25 83 26 23 27 82 28 24 29 25 30 26 31 76 32 27 33 81 34
REMARK SMILES IDX 75 35 77 36 28 37 80 38 74 39 73 40 29 42 61 43 41 44 60 45
REMARK SMILES IDX 42 46 45 47 59 48 78 49 43 50 44 51 58 53 79 54 46 55 30 56
REMARK SMILES IDX 31 57 39 58 32 59 34 60 40 61 33 62 35 63 36 64 37 65 38 66
REMARK SMILES IDX 62 67 63 68 71 69 64 70 66 71 72 72 65 73 67 74 68 75 69 76
REMARK SMILES IDX 70 77 47 78 48 79 56 80 49 81 51 82 57 83 50 84 52 85 53 86
REMARK SMILES IDX 54 87 55 88
REMARK H PARENT 8 14 77 41 45 52
REMARK Flexibility Score: inf
ROOT
ATOM      1  C   UNL A   1      35.731  20.188  25.001  1.00  0.00     0.274 C 
ENDROOT
BRANCH   1   2
ATOM      2  O   UNL A   1      35.122  21.084  25.948  1.00  0.00    -0.462 OA
BRANCH   2   3
ATOM      3  C   UNL A   1      33.768  21.076  25.996  1.00  0.00     0.309 C 
ATOM      4  O   UNL A   1      33.067  20.089  25.816  1.00  0.00    -0.252 OA
BRANCH   3   5
ATOM      5  C   UNL A   1      33.181  22.460  26.228  1.00  0.00     0.099 C 
ATOM      6  C   UNL A   1      33.332  24.347  23.957  1.00  0.00     0.082 C 
ATOM      7  C   UNL A   1      32.420  23.119  23.904  1.00  0.00     0.026 C 
ATOM      8  C   UNL A   1      34.580  24.088  24.794  1.00  0.00     0.026 C 
ATOM      9  C   UNL A   1      31.992  22.677  25.296  1.00  0.00     0.017 C 
ATOM     10  C   UNL A   1      34.191  23.618  26.199  1.00  0.00     0.017 C 
BRANCH   6  11
ATOM     11  N   UNL A   1      33.623  24.784  22.608  1.00  0.00    -0.353 N 
ATOM     12  C   UNL A   1      33.229  25.942  22.004  1.00  0.00     0.220 C 
ATOM     13  O   UNL A   1      33.279  26.013  20.775  1.00  0.00    -0.275 OA
ATOM     14  H   UNL A   1      34.172  24.175  22.063  1.00  0.00     0.163 HD
BRANCH  12  15
ATOM     15  C   UNL A   1      32.807  27.138  22.846  1.00  0.00     0.102 C 
BRANCH  15  16
ATOM     16  C   UNL A   1      31.376  27.637  22.634  1.00  0.00     0.038 C 
BRANCH  16  17
ATOM     17  C   UNL A   1      30.497  27.858  23.872  1.00  0.00     0.160 C 
BRANCH  17  18
ATOM     18  O   UNL A   1      30.897  27.112  25.017  1.00  0.00    -0.385 OA
ATOM     19  C   UNL A   1      30.138  25.946  25.295  1.00  0.00     0.194 C 
ENDBRANCH  17  18
ENDBRANCH  16  17
ENDBRANCH  15  16
ENDBRANCH  12  15
ENDBRANCH   6  11
ENDBRANCH   3   5
ENDBRANCH   2   3
ENDBRANCH   1   2
BRANCH   1  20
ATOM     20  C   UNL A   1      37.181  20.582  24.715  1.00  0.00     0.275 C 
BRANCH  20  21
ATOM     21  O   UNL A   1      37.711  21.434  25.746  1.00  0.00    -0.458 OA
BRANCH  21  22
ATOM     22  C   UNL A   1      38.979  21.169  26.125  1.00  0.00     0.338 C 
ATOM     23  O   UNL A   1      39.590  20.115  25.970  1.00  0.00    -0.246 OA
BRANCH  22  24
ATOM     24  C   UNL A   1      39.619  22.394  26.623  1.00  0.00     0.060 A 
ATOM     25  C   UNL A   1      39.196  23.617  26.096  1.00  0.00     0.016 A 
ATOM     26  C   UNL A   1      40.656  22.346  27.556  1.00  0.00     0.016 A 
ATOM     27  C   UNL A   1      39.789  24.805  26.512  1.00  0.00     0.010 A 
ATOM     28  C   UNL A   1      41.263  23.538  27.961  1.00  0.00     0.010 A 
ATOM     29  C   UNL A   1      40.836  24.773  27.439  1.00  0.00    -0.014 A 
BRANCH  29  30
ATOM     30  C   UNL A   1      41.518  26.032  27.819  1.00  0.00     0.031 A 
ATOM     31  C   UNL A   1      40.765  27.077  28.591  1.00  0.00     0.074 A 
ATOM     32  C   UNL A   1      42.801  26.233  27.466  1.00  0.00     0.049 A 
ATOM     33  N   UNL A   1      41.150  28.272  28.951  1.00  0.00    -0.248 NA
ATOM     34  C   UNL A   1      39.399  26.731  29.016  1.00  0.00     0.031 C 
ATOM     35  C   UNL A   1      43.634  25.279  26.733  1.00  0.00     0.029 A 
ATOM     36  N   UNL A   1      43.621  27.316  27.658  1.00  0.00    -0.354 N 
ATOM     37  C   UNL A   1      40.061  28.843  29.598  1.00  0.00     0.074 A 
ATOM     38  C   UNL A   1      39.002  27.856  29.595  1.00  0.00     0.031 C 
ATOM     39  C   UNL A   1      44.841  25.828  26.518  1.00  0.00     0.029 A 
ATOM     40  C   UNL A   1      44.854  27.182  27.064  1.00  0.00     0.049 A 
ATOM     41  H   UNL A   1      43.353  28.112  28.173  1.00  0.00     0.167 HD
ATOM     42  C   UNL A   1      39.958  30.075  30.149  1.00  0.00     0.034 A 
ATOM     43  C   UNL A   1      45.866  28.065  26.948  1.00  0.00     0.034 A 
ATOM     44  C   UNL A   1      41.030  31.033  30.188  1.00  0.00     0.049 A 
ATOM     45  C   UNL A   1      45.715  29.430  27.566  1.00  0.00     0.074 A 
ATOM     46  C   UNL A   1      41.040  32.287  30.772  1.00  0.00     0.029 A 
ATOM     47  N   UNL A   1      42.278  30.847  29.615  1.00  0.00    -0.354 N 
ATOM     48  N   UNL A   1      44.718  29.915  28.265  1.00  0.00    -0.248 NA
ATOM     49  C   UNL A   1      46.840  30.363  27.398  1.00  0.00     0.031 C 
ATOM     50  C   UNL A   1      42.291  32.867  30.537  1.00  0.00     0.029 A 
ATOM     51  C   UNL A   1      43.064  31.967  29.822  1.00  0.00     0.049 A 
ATOM     52  H   UNL A   1      42.564  30.037  29.134  1.00  0.00     0.167 HD
ATOM     53  C   UNL A   1      45.105  31.196  28.644  1.00  0.00     0.074 A 
ATOM     54  C   UNL A   1      46.441  31.401  28.121  1.00  0.00     0.031 C 
ATOM     55  C   UNL A   1      44.412  32.130  29.342  1.00  0.00     0.034 A 
BRANCH  42  56
ATOM     56  C   UNL A   1      38.646  30.457  30.776  1.00  0.00     0.023 A 
ATOM     57  C   UNL A   1      38.409  30.166  32.134  1.00  0.00     0.012 A 
ATOM     58  C   UNL A   1      37.679  31.170  30.041  1.00  0.00     0.148 A 
ATOM     59  C   UNL A   1      37.220  30.564  32.747  1.00  0.00     0.002 A 
ATOM     60  C   UNL A   1      36.513  31.596  30.667  1.00  0.00     0.091 A 
ATOM     61  F   UNL A   1      37.915  31.415  28.744  1.00  0.00    -0.205 F 
ATOM     62  C   UNL A   1      36.279  31.286  32.017  1.00  0.00     0.022 A 
BRANCH  60  63
ATOM     63  S   UNL A   1      35.271  32.590  29.834  1.00  0.00     0.127 S 
ATOM     64  O   UNL A   1      34.791  31.664  28.809  1.00  0.00    -0.237 OA
ATOM     65  O   UNL A   1      34.317  32.855  30.911  1.00  0.00    -0.237 OA
ATOM     66  O   UNL A   1      35.967  33.767  29.333  1.00  0.00    -0.744 OA
ENDBRANCH  60  63
ENDBRANCH  42  56
BRANCH  43  67
ATOM     67  C   UNL A   1      47.121  27.682  26.240  1.00  0.00     0.023 A 
ATOM     68  C   UNL A   1      48.192  27.137  26.974  1.00  0.00     0.012 A 
ATOM     69  C   UNL A   1      47.261  27.851  24.849  1.00  0.00     0.148 A 
ATOM     70  C   UNL A   1      49.389  26.798  26.342  1.00  0.00     0.002 A 
ATOM     71  C   UNL A   1      48.435  27.457  24.216  1.00  0.00     0.091 A 
ATOM     72  F   UNL A   1      46.244  28.397  24.167  1.00  0.00    -0.205 F 
ATOM     73  C   UNL A   1      49.507  26.946  24.963  1.00  0.00     0.022 A 
BRANCH  71  74
ATOM     74  S   UNL A   1      48.610  27.497  22.428  1.00  0.00     0.127 S 
ATOM     75  O   UNL A   1      47.424  28.248  22.028  1.00  0.00    -0.237 OA
ATOM     76  O   UNL A   1      49.877  28.209  22.258  1.00  0.00    -0.237 OA
ATOM     77  O   UNL A   1      48.654  26.100  22.017  1.00  0.00    -0.744 OA
ENDBRANCH  71  74
ENDBRANCH  43  67
BRANCH  55  78
ATOM     78  C   UNL A   1      45.092  33.447  29.605  1.00  0.00     0.023 A 
ATOM     79  C   UNL A   1      45.006  34.478  28.649  1.00  0.00     0.012 A 
ATOM     80  C   UNL A   1      45.757  33.686  30.823  1.00  0.00     0.148 A 
ATOM     81  C   UNL A   1      45.599  35.716  28.888  1.00  0.00     0.002 A 
ATOM     82  C   UNL A   1      46.306  34.938  31.074  1.00  0.00     0.091 A 
ATOM     83  F   UNL A   1      45.847  32.686  31.713  1.00  0.00    -0.205 F 
ATOM     84  C   UNL A   1      46.239  35.951  30.103  1.00  0.00     0.022 A 
BRANCH  82  85
ATOM     85  S   UNL A   1      47.062  35.352  32.650  1.00  0.00     0.127 S 
ATOM     86  O   UNL A   1      47.338  36.777  32.484  1.00  0.00    -0.237 OA
ATOM     87  O   UNL A   1      45.994  35.045  33.602  1.00  0.00    -0.237 OA
ATOM     88  O   UNL A   1      48.234  34.493  32.764  1.00  0.00    -0.744 OA
ENDBRANCH  82  85
ENDBRANCH  55  78
ENDBRANCH  29  30
ENDBRANCH  22  24
ENDBRANCH  21  22
ENDBRANCH  20  21
ENDBRANCH   1  20
TORSDOF 19
ENDMDL
