MODEL 1
REMARK VINA RESULT:     -12.0      0.000      0.000
REMARK SMILES O=C(CCCN1C(=O)/C(=C/c2ccccc2Cl)SC1=S)Nc1cccc(C(=O)OCCOC(=O)c2ccc(-c3c4nc(c(-c5cccc(S(=O)(=O)[O-])c5F)c5ccc([nH]5)c(-c5cccc(S(=O)(=O)[O-])c5F)c5nc(c(-c6cccc(S(=O)(=O)[O-])c6F)c6ccc3[nH]6)C=C5)C=C4)cc2)c1
REMARK SMILES IDX 29 1 27 2 28 3 26 4 22 5 23 6 98 7 24 8 25 9 21 10 1 11 2 12
REMARK SMILES IDX 3 14 4 15 5 16 6 17 7 18 19 19 8 20 9 21 18 22 20 23 10 24
REMARK SMILES IDX 11 25 12 26 16 27 13 28 15 29 17 30 14 31 30 32 31 33 32 34
REMARK SMILES IDX 33 35 34 36 35 37 36 38 97 39 37 40 96 41 38 42 39 43 40 44
REMARK SMILES IDX 90 45 41 46 95 47 89 48 91 49 42 50 94 51 88 52 87 53 43 55
REMARK SMILES IDX 75 56 55 57 74 58 56 59 59 60 73 61 92 62 57 63 58 64 72 66
REMARK SMILES IDX 93 67 60 68 44 69 45 70 53 71 46 72 48 73 54 74 47 75 49 76
REMARK SMILES IDX 50 77 51 78 52 79 76 80 77 81 85 82 78 83 80 84 86 85 79 86
REMARK SMILES IDX 81 87 82 88 83 89 84 90 61 91 62 92 70 93 63 94 65 95 71 96
REMARK SMILES IDX 64 97 66 98 67 99 68 100 69 101
REMARK H PARENT 21 13 91 54 59 65
REMARK Flexibility Score: inf
ROOT
ATOM      1  O   UNL A   1      34.317  32.844  30.475  1.00  0.00    -0.458 OA
ENDROOT
BRANCH   1   2
ATOM      2  C   UNL A   1      35.101  33.034  29.385  1.00  0.00     0.338 C 
ATOM      3  O   UNL A   1      35.791  34.011  29.145  1.00  0.00    -0.246 OA
BRANCH   2   4
ATOM      4  C   UNL A   1      35.114  31.806  28.554  1.00  0.00     0.062 A 
ATOM      5  C   UNL A   1      34.080  30.297  26.975  1.00  0.00     0.042 A 
ATOM      6  C   UNL A   1      35.056  29.336  27.273  1.00  0.00     0.026 A 
ATOM      7  C   UNL A   1      34.099  31.528  27.632  1.00  0.00     0.041 A 
ATOM      8  C   UNL A   1      36.104  29.637  28.139  1.00  0.00     0.003 A 
ATOM      9  C   UNL A   1      36.151  30.885  28.754  1.00  0.00     0.016 A 
BRANCH   5  10
ATOM     10  N   UNL A   1      33.099  29.944  26.030  1.00  0.00    -0.326 N 
ATOM     11  O   UNL A   1      31.852  28.422  27.259  1.00  0.00    -0.275 OA
ATOM     12  C   UNL A   1      32.084  29.030  26.217  1.00  0.00     0.224 C 
ATOM     13  H   UNL A   1      33.141  30.391  25.154  1.00  0.00     0.169 HD
BRANCH  12  14
ATOM     14  C   UNL A   1      31.225  28.792  24.989  1.00  0.00     0.102 C 
BRANCH  14  15
ATOM     15  C   UNL A   1      31.335  27.398  24.363  1.00  0.00     0.032 C 
BRANCH  15  16
ATOM     16  C   UNL A   1      32.753  26.895  24.035  1.00  0.00     0.128 C 
BRANCH  16  17
ATOM     17  N   UNL A   1      32.855  25.442  23.870  1.00  0.00    -0.293 N 
ATOM     18  C   UNL A   1      32.844  24.640  25.001  1.00  0.00     0.266 C 
ATOM     19  C   UNL A   1      32.907  24.781  22.658  1.00  0.00     0.148 C 
ATOM     20  O   UNL A   1      32.693  25.021  26.153  1.00  0.00    -0.268 OA
ATOM     21  C   UNL A   1      33.048  23.219  24.627  1.00  0.00     0.081 C 
ATOM     22  S   UNL A   1      33.109  23.059  22.919  1.00  0.00    -0.054 SA
ATOM     23  S   UNL A   1      32.803  25.428  21.127  1.00  0.00    -0.052 S 
ATOM     24  C   UNL A   1      33.188  22.247  25.537  1.00  0.00     0.031 C 
BRANCH  24  25
ATOM     25  C   UNL A   1      33.460  20.847  25.185  1.00  0.00    -0.006 A 
ATOM     26  C   UNL A   1      32.375  20.012  24.886  1.00  0.00     0.010 A 
ATOM     27  C   UNL A   1      34.766  20.344  25.062  1.00  0.00     0.048 A 
ATOM     28  C   UNL A   1      32.592  18.701  24.458  1.00  0.00     0.001 A 
ATOM     29  C   UNL A   1      34.978  19.032  24.630  1.00  0.00     0.021 A 
ATOM     30  Cl  UNL A   1      36.153  21.314  25.419  1.00  0.00    -0.084 Cl
ATOM     31  C   UNL A   1      33.890  18.213  24.324  1.00  0.00     0.002 A 
ENDBRANCH  24  25
ENDBRANCH  16  17
ENDBRANCH  15  16
ENDBRANCH  14  15
ENDBRANCH  12  14
ENDBRANCH   5  10
ENDBRANCH   2   4
ENDBRANCH   1   2
BRANCH   1  32
ATOM     32  C   UNL A   1      34.440  33.819  31.529  1.00  0.00     0.275 C 
BRANCH  32  33
ATOM     33  C   UNL A   1      34.626  33.132  32.882  1.00  0.00     0.275 C 
BRANCH  33  34
ATOM     34  O   UNL A   1      35.593  32.072  32.770  1.00  0.00    -0.458 OA
BRANCH  34  35
ATOM     35  C   UNL A   1      36.664  32.161  33.591  1.00  0.00     0.338 C 
ATOM     36  O   UNL A   1      36.670  32.395  34.786  1.00  0.00    -0.246 OA
BRANCH  35  37
ATOM     37  C   UNL A   1      37.875  31.794  32.840  1.00  0.00     0.060 A 
ATOM     38  C   UNL A   1      38.000  32.293  31.545  1.00  0.00     0.016 A 
ATOM     39  C   UNL A   1      38.813  30.894  33.343  1.00  0.00     0.016 A 
ATOM     40  C   UNL A   1      39.058  31.890  30.735  1.00  0.00     0.010 A 
ATOM     41  C   UNL A   1      39.887  30.499  32.532  1.00  0.00     0.010 A 
ATOM     42  C   UNL A   1      40.008  30.976  31.213  1.00  0.00    -0.014 A 
BRANCH  42  43
ATOM     43  C   UNL A   1      41.057  30.466  30.286  1.00  0.00     0.031 A 
ATOM     44  C   UNL A   1      42.331  31.245  30.084  1.00  0.00     0.074 A 
ATOM     45  C   UNL A   1      40.901  29.278  29.665  1.00  0.00     0.049 A 
ATOM     46  N   UNL A   1      43.350  30.979  29.307  1.00  0.00    -0.248 NA
ATOM     47  C   UNL A   1      42.477  32.490  30.855  1.00  0.00     0.031 C 
ATOM     48  C   UNL A   1      39.726  28.414  29.779  1.00  0.00     0.029 A 
ATOM     49  N   UNL A   1      41.738  28.592  28.819  1.00  0.00    -0.354 N 
ATOM     50  C   UNL A   1      44.232  32.044  29.454  1.00  0.00     0.074 A 
ATOM     51  C   UNL A   1      43.628  32.963  30.394  1.00  0.00     0.031 C 
ATOM     52  C   UNL A   1      39.924  27.305  29.047  1.00  0.00     0.029 A 
ATOM     53  C   UNL A   1      41.219  27.396  28.378  1.00  0.00     0.049 A 
ATOM     54  H   UNL A   1      42.625  28.925  28.552  1.00  0.00     0.167 HD
ATOM     55  C   UNL A   1      45.444  32.234  28.877  1.00  0.00     0.034 A 
ATOM     56  C   UNL A   1      41.723  26.482  27.524  1.00  0.00     0.034 A 
ATOM     57  C   UNL A   1      46.080  31.296  27.991  1.00  0.00     0.049 A 
ATOM     58  C   UNL A   1      43.081  26.709  26.916  1.00  0.00     0.074 A 
ATOM     59  C   UNL A   1      47.316  31.394  27.376  1.00  0.00     0.029 A 
ATOM     60  N   UNL A   1      45.539  30.079  27.604  1.00  0.00    -0.354 N 
ATOM     61  N   UNL A   1      43.925  27.692  27.120  1.00  0.00    -0.248 NA
ATOM     62  C   UNL A   1      43.568  25.688  25.976  1.00  0.00     0.031 C 
ATOM     63  C   UNL A   1      47.523  30.237  26.615  1.00  0.00     0.029 A 
ATOM     64  C   UNL A   1      46.420  29.413  26.766  1.00  0.00     0.049 A 
ATOM     65  H   UNL A   1      44.659  29.738  27.883  1.00  0.00     0.167 HD
ATOM     66  C   UNL A   1      45.048  27.395  26.355  1.00  0.00     0.074 A 
ATOM     67  C   UNL A   1      44.791  26.123  25.710  1.00  0.00     0.031 C 
ATOM     68  C   UNL A   1      46.180  28.122  26.179  1.00  0.00     0.034 A 
BRANCH  55  69
ATOM     69  C   UNL A   1      46.187  33.500  29.216  1.00  0.00     0.023 A 
ATOM     70  C   UNL A   1      47.002  33.542  30.365  1.00  0.00     0.012 A 
ATOM     71  C   UNL A   1      46.125  34.625  28.370  1.00  0.00     0.148 A 
ATOM     72  C   UNL A   1      47.720  34.693  30.684  1.00  0.00     0.002 A 
ATOM     73  C   UNL A   1      46.876  35.755  28.673  1.00  0.00     0.091 A 
ATOM     74  F   UNL A   1      45.328  34.575  27.294  1.00  0.00    -0.205 F 
ATOM     75  C   UNL A   1      47.666  35.795  29.834  1.00  0.00     0.022 A 
BRANCH  73  76
ATOM     76  S   UNL A   1      46.932  37.197  27.601  1.00  0.00     0.127 S 
ATOM     77  O   UNL A   1      47.281  36.596  26.315  1.00  0.00    -0.237 OA
ATOM     78  O   UNL A   1      45.560  37.699  27.686  1.00  0.00    -0.237 OA
ATOM     79  O   UNL A   1      47.936  38.082  28.174  1.00  0.00    -0.744 OA
ENDBRANCH  73  76
ENDBRANCH  55  69
BRANCH  56  80
ATOM     80  C   UNL A   1      40.957  25.237  27.223  1.00  0.00     0.023 A 
ATOM     81  C   UNL A   1      39.650  25.335  26.707  1.00  0.00     0.012 A 
ATOM     82  C   UNL A   1      41.514  23.962  27.435  1.00  0.00     0.148 A 
ATOM     83  C   UNL A   1      38.903  24.188  26.433  1.00  0.00     0.002 A 
ATOM     84  C   UNL A   1      40.789  22.824  27.105  1.00  0.00     0.091 A 
ATOM     85  F   UNL A   1      42.748  23.885  27.956  1.00  0.00    -0.205 F 
ATOM     86  C   UNL A   1      39.476  22.933  26.620  1.00  0.00     0.022 A 
BRANCH  84  87
ATOM     87  S   UNL A   1      41.508  21.181  27.190  1.00  0.00     0.127 S 
ATOM     88  O   UNL A   1      41.744  20.882  25.780  1.00  0.00    -0.237 OA
ATOM     89  O   UNL A   1      42.718  21.414  27.981  1.00  0.00    -0.237 OA
ATOM     90  O   UNL A   1      40.510  20.358  27.861  1.00  0.00    -0.744 OA
ENDBRANCH  84  87
ENDBRANCH  56  80
BRANCH  68  91
ATOM     91  C   UNL A   1      47.240  27.548  25.275  1.00  0.00     0.023 A 
ATOM     92  C   UNL A   1      48.142  26.591  25.781  1.00  0.00     0.012 A 
ATOM     93  C   UNL A   1      47.313  27.916  23.917  1.00  0.00     0.148 A 
ATOM     94  C   UNL A   1      49.125  26.038  24.960  1.00  0.00     0.002 A 
ATOM     95  C   UNL A   1      48.267  27.328  23.094  1.00  0.00     0.091 A 
ATOM     96  F   UNL A   1      46.462  28.845  23.456  1.00  0.00    -0.205 F 
ATOM     97  C   UNL A   1      49.181  26.398  23.615  1.00  0.00     0.022 A 
BRANCH  95  98
ATOM     98  S   UNL A   1      48.347  27.674  21.333  1.00  0.00     0.127 S 
ATOM     99  O   UNL A   1      49.454  28.625  21.263  1.00  0.00    -0.237 OA
ATOM    100  O   UNL A   1      48.636  26.358  20.763  1.00  0.00    -0.237 OA
ATOM    101  O   UNL A   1      47.035  28.203  20.978  1.00  0.00    -0.744 OA
ENDBRANCH  95  98
ENDBRANCH  68  91
ENDBRANCH  42  43
ENDBRANCH  35  37
ENDBRANCH  34  35
ENDBRANCH  33  34
ENDBRANCH  32  33
ENDBRANCH   1  32
TORSDOF 20
ENDMDL
MODEL 2
REMARK VINA RESULT:     -11.8      2.914      9.395
REMARK SMILES O=C(CCCN1C(=O)/C(=C/c2ccccc2Cl)SC1=S)Nc1cccc(C(=O)OCCOC(=O)c2ccc(-c3c4nc(c(-c5cccc(S(=O)(=O)[O-])c5F)c5ccc([nH]5)c(-c5cccc(S(=O)(=O)[O-])c5F)c5nc(c(-c6cccc(S(=O)(=O)[O-])c6F)c6ccc3[nH]6)C=C5)C=C4)cc2)c1
REMARK SMILES IDX 29 1 27 2 28 3 26 4 22 5 23 6 98 7 24 8 25 9 21 10 1 11 2 12
REMARK SMILES IDX 3 14 4 15 5 16 6 17 7 18 19 19 8 20 9 21 18 22 20 23 10 24
REMARK SMILES IDX 11 25 12 26 16 27 13 28 15 29 17 30 14 31 30 32 31 33 32 34
REMARK SMILES IDX 33 35 34 36 35 37 36 38 97 39 37 40 96 41 38 42 39 43 40 44
REMARK SMILES IDX 90 45 41 46 95 47 89 48 91 49 42 50 94 51 88 52 87 53 43 55
REMARK SMILES IDX 75 56 55 57 74 58 56 59 59 60 73 61 92 62 57 63 58 64 72 66
REMARK SMILES IDX 93 67 60 68 44 69 45 70 53 71 46 72 48 73 54 74 47 75 49 76
REMARK SMILES IDX 50 77 51 78 52 79 76 80 77 81 85 82 78 83 80 84 86 85 79 86
REMARK SMILES IDX 81 87 82 88 83 89 84 90 61 91 62 92 70 93 63 94 65 95 71 96
REMARK SMILES IDX 64 97 66 98 67 99 68 100 69 101
REMARK H PARENT 21 13 91 54 59 65
REMARK Flexibility Score: inf
ROOT
ATOM      1  O   UNL A   1      41.238  20.381  26.147  1.00  0.00    -0.458 OA
ENDROOT
BRANCH   1   2
ATOM      2  C   UNL A   1      40.001  19.970  25.770  1.00  0.00     0.338 C 
ATOM      3  O   UNL A   1      39.653  18.824  25.542  1.00  0.00    -0.246 OA
BRANCH   2   4
ATOM      4  C   UNL A   1      39.060  21.115  25.797  1.00  0.00     0.062 A 
ATOM      5  C   UNL A   1      37.019  22.205  25.098  1.00  0.00     0.042 A 
ATOM      6  C   UNL A   1      37.496  23.411  25.628  1.00  0.00     0.026 A 
ATOM      7  C   UNL A   1      37.812  21.058  25.166  1.00  0.00     0.041 A 
ATOM      8  C   UNL A   1      38.707  23.452  26.316  1.00  0.00     0.003 A 
ATOM      9  C   UNL A   1      39.473  22.295  26.428  1.00  0.00     0.016 A 
BRANCH   5  10
ATOM     10  N   UNL A   1      35.752  22.229  24.487  1.00  0.00    -0.326 N 
ATOM     11  O   UNL A   1      34.577  20.795  25.881  1.00  0.00    -0.275 OA
ATOM     12  C   UNL A   1      34.642  21.519  24.891  1.00  0.00     0.224 C 
ATOM     13  H   UNL A   1      35.648  22.808  23.697  1.00  0.00     0.169 HD
BRANCH  12  14
ATOM     14  C   UNL A   1      33.434  21.681  23.986  1.00  0.00     0.102 C 
BRANCH  14  15
ATOM     15  C   UNL A   1      33.502  22.844  22.992  1.00  0.00     0.032 C 
BRANCH  15  16
ATOM     16  C   UNL A   1      32.285  23.787  22.944  1.00  0.00     0.128 C 
BRANCH  16  17
ATOM     17  N   UNL A   1      32.327  24.878  23.922  1.00  0.00    -0.293 N 
ATOM     18  C   UNL A   1      32.932  26.073  23.561  1.00  0.00     0.266 C 
ATOM     19  C   UNL A   1      31.756  24.842  25.179  1.00  0.00     0.148 C 
ATOM     20  O   UNL A   1      33.395  26.344  22.463  1.00  0.00    -0.268 OA
ATOM     21  C   UNL A   1      32.950  27.009  24.713  1.00  0.00     0.081 C 
ATOM     22  S   UNL A   1      32.113  26.324  26.046  1.00  0.00    -0.054 SA
ATOM     23  S   UNL A   1      30.848  23.626  25.862  1.00  0.00    -0.052 S 
ATOM     24  C   UNL A   1      33.573  28.193  24.669  1.00  0.00     0.031 C 
BRANCH  24  25
ATOM     25  C   UNL A   1      33.660  29.100  25.821  1.00  0.00    -0.006 A 
ATOM     26  C   UNL A   1      34.798  29.035  26.636  1.00  0.00     0.010 A 
ATOM     27  C   UNL A   1      32.685  30.077  26.085  1.00  0.00     0.048 A 
ATOM     28  C   UNL A   1      34.967  29.940  27.687  1.00  0.00     0.001 A 
ATOM     29  C   UNL A   1      32.859  30.981  27.135  1.00  0.00     0.021 A 
ATOM     30  Cl  UNL A   1      31.251  30.213  25.126  1.00  0.00    -0.084 Cl
ATOM     31  C   UNL A   1      34.002  30.914  27.932  1.00  0.00     0.002 A 
ENDBRANCH  24  25
ENDBRANCH  16  17
ENDBRANCH  15  16
ENDBRANCH  14  15
ENDBRANCH  12  14
ENDBRANCH   5  10
ENDBRANCH   2   4
ENDBRANCH   1   2
BRANCH   1  32
ATOM     32  C   UNL A   1      42.053  19.410  26.833  1.00  0.00     0.275 C 
BRANCH  32  33
ATOM     33  C   UNL A   1      42.912  18.628  25.840  1.00  0.00     0.275 C 
BRANCH  33  34
ATOM     34  O   UNL A   1      43.169  19.427  24.671  1.00  0.00    -0.458 OA
BRANCH  34  35
ATOM     35  C   UNL A   1      44.424  19.922  24.559  1.00  0.00     0.338 C 
ATOM     36  O   UNL A   1      45.370  19.428  23.972  1.00  0.00    -0.246 OA
BRANCH  35  37
ATOM     37  C   UNL A   1      44.466  21.263  25.160  1.00  0.00     0.060 A 
ATOM     38  C   UNL A   1      44.140  22.342  24.340  1.00  0.00     0.016 A 
ATOM     39  C   UNL A   1      44.921  21.477  26.460  1.00  0.00     0.016 A 
ATOM     40  C   UNL A   1      44.274  23.647  24.807  1.00  0.00     0.010 A 
ATOM     41  C   UNL A   1      45.042  22.791  26.936  1.00  0.00     0.010 A 
ATOM     42  C   UNL A   1      44.742  23.889  26.107  1.00  0.00    -0.014 A 
BRANCH  42  43
ATOM     43  C   UNL A   1      44.996  25.292  26.539  1.00  0.00     0.031 A 
ATOM     44  C   UNL A   1      46.357  25.908  26.346  1.00  0.00     0.074 A 
ATOM     45  C   UNL A   1      43.997  26.039  27.054  1.00  0.00     0.049 A 
ATOM     46  N   UNL A   1      46.781  27.102  26.675  1.00  0.00    -0.248 NA
ATOM     47  C   UNL A   1      47.380  25.069  25.701  1.00  0.00     0.031 C 
ATOM     48  C   UNL A   1      42.629  25.576  27.285  1.00  0.00     0.029 A 
ATOM     49  N   UNL A   1      43.980  27.348  27.471  1.00  0.00    -0.354 N 
ATOM     50  C   UNL A   1      48.126  27.141  26.326  1.00  0.00     0.074 A 
ATOM     51  C   UNL A   1      48.452  25.849  25.762  1.00  0.00     0.031 C 
ATOM     52  C   UNL A   1      41.901  26.589  27.784  1.00  0.00     0.029 A 
ATOM     53  C   UNL A   1      42.757  27.760  27.948  1.00  0.00     0.049 A 
ATOM     54  H   UNL A   1      44.769  27.936  27.432  1.00  0.00     0.167 HD
ATOM     55  C   UNL A   1      49.009  28.163  26.446  1.00  0.00     0.034 A 
ATOM     56  C   UNL A   1      42.371  28.943  28.469  1.00  0.00     0.034 A 
ATOM     57  C   UNL A   1      48.678  29.471  26.947  1.00  0.00     0.049 A 
ATOM     58  C   UNL A   1      43.367  30.067  28.568  1.00  0.00     0.074 A 
ATOM     59  C   UNL A   1      49.502  30.575  27.083  1.00  0.00     0.029 A 
ATOM     60  N   UNL A   1      47.419  29.859  27.380  1.00  0.00    -0.354 N 
ATOM     61  N   UNL A   1      44.617  30.102  28.172  1.00  0.00    -0.248 NA
ATOM     62  C   UNL A   1      42.893  31.325  29.164  1.00  0.00     0.031 C 
ATOM     63  C   UNL A   1      48.742  31.630  27.600  1.00  0.00     0.029 A 
ATOM     64  C   UNL A   1      47.441  31.187  27.774  1.00  0.00     0.049 A 
ATOM     65  H   UNL A   1      46.626  29.277  27.402  1.00  0.00     0.167 HD
ATOM     66  C   UNL A   1      45.069  31.388  28.450  1.00  0.00     0.074 A 
ATOM     67  C   UNL A   1      43.948  32.112  29.014  1.00  0.00     0.031 C 
ATOM     68  C   UNL A   1      46.307  31.915  28.278  1.00  0.00     0.034 A 
BRANCH  55  69
ATOM     69  C   UNL A   1      50.424  27.919  25.989  1.00  0.00     0.023 A 
ATOM     70  C   UNL A   1      51.411  27.577  26.934  1.00  0.00     0.012 A 
ATOM     71  C   UNL A   1      50.763  27.972  24.623  1.00  0.00     0.148 A 
ATOM     72  C   UNL A   1      52.721  27.320  26.532  1.00  0.00     0.002 A 
ATOM     73  C   UNL A   1      52.061  27.674  24.224  1.00  0.00     0.091 A 
ATOM     74  F   UNL A   1      49.816  28.320  23.740  1.00  0.00    -0.205 F 
ATOM     75  C   UNL A   1      53.043  27.358  25.177  1.00  0.00     0.022 A 
BRANCH  73  76
ATOM     76  S   UNL A   1      52.557  27.622  22.498  1.00  0.00     0.127 S 
ATOM     77  O   UNL A   1      52.584  29.043  22.155  1.00  0.00    -0.237 OA
ATOM     78  O   UNL A   1      53.873  26.988  22.572  1.00  0.00    -0.237 OA
ATOM     79  O   UNL A   1      51.542  26.833  21.814  1.00  0.00    -0.744 OA
ENDBRANCH  73  76
ENDBRANCH  55  69
BRANCH  56  80
ATOM     80  C   UNL A   1      40.957  29.144  28.901  1.00  0.00     0.023 A 
ATOM     81  C   UNL A   1      39.964  29.387  27.932  1.00  0.00     0.012 A 
ATOM     82  C   UNL A   1      40.589  29.089  30.258  1.00  0.00     0.148 A 
ATOM     83  C   UNL A   1      38.637  29.598  28.308  1.00  0.00     0.002 A 
ATOM     84  C   UNL A   1      39.256  29.241  30.623  1.00  0.00     0.091 A 
ATOM     85  F   UNL A   1      41.550  28.889  31.171  1.00  0.00    -0.205 F 
ATOM     86  C   UNL A   1      38.280  29.512  29.651  1.00  0.00     0.022 A 
BRANCH  84  87
ATOM     87  S   UNL A   1      38.701  29.009  32.314  1.00  0.00     0.127 S 
ATOM     88  O   UNL A   1      39.029  30.297  32.918  1.00  0.00    -0.237 OA
ATOM     89  O   UNL A   1      37.269  28.759  32.137  1.00  0.00    -0.237 OA
ATOM     90  O   UNL A   1      39.447  27.860  32.810  1.00  0.00    -0.744 OA
ENDBRANCH  84  87
ENDBRANCH  56  80
BRANCH  68  91
ATOM     91  C   UNL A   1      46.512  33.353  28.679  1.00  0.00     0.023 A 
ATOM     92  C   UNL A   1      46.980  33.654  29.974  1.00  0.00     0.012 A 
ATOM     93  C   UNL A   1      46.289  34.401  27.764  1.00  0.00     0.148 A 
ATOM     94  C   UNL A   1      47.188  34.976  30.364  1.00  0.00     0.002 A 
ATOM     95  C   UNL A   1      46.541  35.714  28.147  1.00  0.00     0.091 A 
ATOM     96  F   UNL A   1      45.822  34.100  26.544  1.00  0.00    -0.205 F 
ATOM     97  C   UNL A   1      46.979  36.005  29.448  1.00  0.00     0.022 A 
BRANCH  95  98
ATOM     98  S   UNL A   1      46.378  37.086  26.997  1.00  0.00     0.127 S 
ATOM     99  O   UNL A   1      44.931  37.151  26.810  1.00  0.00    -0.237 OA
ATOM    100  O   UNL A   1      46.946  38.202  27.753  1.00  0.00    -0.237 OA
ATOM    101  O   UNL A   1      47.152  36.706  25.822  1.00  0.00    -0.744 OA
ENDBRANCH  95  98
ENDBRANCH  68  91
ENDBRANCH  42  43
ENDBRANCH  35  37
ENDBRANCH  34  35
ENDBRANCH  33  34
ENDBRANCH  32  33
ENDBRANCH   1  32
TORSDOF 20
ENDMDL
MODEL 3
REMARK VINA RESULT:     -11.7      3.269      9.273
REMARK SMILES O=C(CCCN1C(=O)/C(=C/c2ccccc2Cl)SC1=S)Nc1cccc(C(=O)OCCOC(=O)c2ccc(-c3c4nc(c(-c5cccc(S(=O)(=O)[O-])c5F)c5ccc([nH]5)c(-c5cccc(S(=O)(=O)[O-])c5F)c5nc(c(-c6cccc(S(=O)(=O)[O-])c6F)c6ccc3[nH]6)C=C5)C=C4)cc2)c1
REMARK SMILES IDX 29 1 27 2 28 3 26 4 22 5 23 6 98 7 24 8 25 9 21 10 1 11 2 12
REMARK SMILES IDX 3 14 4 15 5 16 6 17 7 18 19 19 8 20 9 21 18 22 20 23 10 24
REMARK SMILES IDX 11 25 12 26 16 27 13 28 15 29 17 30 14 31 30 32 31 33 32 34
REMARK SMILES IDX 33 35 34 36 35 37 36 38 97 39 37 40 96 41 38 42 39 43 40 44
REMARK SMILES IDX 90 45 41 46 95 47 89 48 91 49 42 50 94 51 88 52 87 53 43 55
REMARK SMILES IDX 75 56 55 57 74 58 56 59 59 60 73 61 92 62 57 63 58 64 72 66
REMARK SMILES IDX 93 67 60 68 44 69 45 70 53 71 46 72 48 73 54 74 47 75 49 76
REMARK SMILES IDX 50 77 51 78 52 79 76 80 77 81 85 82 78 83 80 84 86 85 79 86
REMARK SMILES IDX 81 87 82 88 83 89 84 90 61 91 62 92 70 93 63 94 65 95 71 96
REMARK SMILES IDX 64 97 66 98 67 99 68 100 69 101
REMARK H PARENT 21 13 91 54 59 65
REMARK Flexibility Score: inf
ROOT
ATOM      1  O   UNL A   1      41.394  20.313  26.263  1.00  0.00    -0.458 OA
ENDROOT
BRANCH   1   2
ATOM      2  C   UNL A   1      41.541  21.470  26.955  1.00  0.00     0.338 C 
ATOM      3  O   UNL A   1      42.556  21.867  27.502  1.00  0.00    -0.246 OA
BRANCH   2   4
ATOM      4  C   UNL A   1      40.304  22.280  26.851  1.00  0.00     0.062 A 
ATOM      5  C   UNL A   1      38.174  22.783  25.828  1.00  0.00     0.042 A 
ATOM      6  C   UNL A   1      38.166  24.023  26.482  1.00  0.00     0.026 A 
ATOM      7  C   UNL A   1      39.255  21.918  25.998  1.00  0.00     0.041 A 
ATOM      8  C   UNL A   1      39.176  24.354  27.382  1.00  0.00     0.003 A 
ATOM      9  C   UNL A   1      40.228  23.467  27.591  1.00  0.00     0.016 A 
BRANCH   5  10
ATOM     10  N   UNL A   1      37.078  22.491  24.995  1.00  0.00    -0.326 N 
ATOM     11  O   UNL A   1      35.652  21.463  26.508  1.00  0.00    -0.275 OA
ATOM     12  C   UNL A   1      35.922  21.841  25.371  1.00  0.00     0.224 C 
ATOM     13  H   UNL A   1      37.143  22.777  24.055  1.00  0.00     0.169 HD
BRANCH  12  14
ATOM     14  C   UNL A   1      34.948  21.591  24.235  1.00  0.00     0.102 C 
BRANCH  14  15
ATOM     15  C   UNL A   1      33.970  20.431  24.443  1.00  0.00     0.032 C 
BRANCH  15  16
ATOM     16  C   UNL A   1      32.576  20.789  24.991  1.00  0.00     0.128 C 
BRANCH  16  17
ATOM     17  N   UNL A   1      32.269  22.222  24.974  1.00  0.00    -0.293 N 
ATOM     18  C   UNL A   1      31.810  22.792  23.796  1.00  0.00     0.266 C 
ATOM     19  C   UNL A   1      32.345  23.064  26.067  1.00  0.00     0.148 C 
ATOM     20  O   UNL A   1      31.569  22.198  22.755  1.00  0.00    -0.268 OA
ATOM     21  C   UNL A   1      31.647  24.257  23.963  1.00  0.00     0.081 C 
ATOM     22  S   UNL A   1      31.973  24.708  25.587  1.00  0.00    -0.054 SA
ATOM     23  S   UNL A   1      32.723  22.676  27.641  1.00  0.00    -0.052 S 
ATOM     24  C   UNL A   1      31.320  25.066  22.947  1.00  0.00     0.031 C 
BRANCH  24  25
ATOM     25  C   UNL A   1      31.223  26.525  23.079  1.00  0.00    -0.006 A 
ATOM     26  C   UNL A   1      32.342  27.300  22.746  1.00  0.00     0.010 A 
ATOM     27  C   UNL A   1      30.030  27.169  23.449  1.00  0.00     0.048 A 
ATOM     28  C   UNL A   1      32.266  28.695  22.767  1.00  0.00     0.001 A 
ATOM     29  C   UNL A   1      29.958  28.564  23.466  1.00  0.00     0.021 A 
ATOM     30  Cl  UNL A   1      28.610  26.278  23.879  1.00  0.00    -0.084 Cl
ATOM     31  C   UNL A   1      31.075  29.325  23.121  1.00  0.00     0.002 A 
ENDBRANCH  24  25
ENDBRANCH  16  17
ENDBRANCH  15  16
ENDBRANCH  14  15
ENDBRANCH  12  14
ENDBRANCH   5  10
ENDBRANCH   2   4
ENDBRANCH   1   2
BRANCH   1  32
ATOM     32  C   UNL A   1      42.128  19.175  26.756  1.00  0.00     0.275 C 
BRANCH  32  33
ATOM     33  C   UNL A   1      42.981  18.559  25.646  1.00  0.00     0.275 C 
BRANCH  33  34
ATOM     34  O   UNL A   1      44.274  19.190  25.608  1.00  0.00    -0.458 OA
BRANCH  34  35
ATOM     35  C   UNL A   1      44.596  19.807  24.448  1.00  0.00     0.338 C 
ATOM     36  O   UNL A   1      44.526  19.355  23.319  1.00  0.00    -0.246 OA
BRANCH  35  37
ATOM     37  C   UNL A   1      44.937  21.209  24.730  1.00  0.00     0.060 A 
ATOM     38  C   UNL A   1      45.578  21.481  25.937  1.00  0.00     0.016 A 
ATOM     39  C   UNL A   1      44.543  22.250  23.890  1.00  0.00     0.016 A 
ATOM     40  C   UNL A   1      45.822  22.797  26.323  1.00  0.00     0.010 A 
ATOM     41  C   UNL A   1      44.803  23.574  24.272  1.00  0.00     0.010 A 
ATOM     42  C   UNL A   1      45.424  23.862  25.503  1.00  0.00    -0.014 A 
BRANCH  42  43
ATOM     43  C   UNL A   1      45.583  25.259  25.995  1.00  0.00     0.031 A 
ATOM     44  C   UNL A   1      46.934  25.925  25.953  1.00  0.00     0.074 A 
ATOM     45  C   UNL A   1      44.513  25.956  26.429  1.00  0.00     0.049 A 
ATOM     46  N   UNL A   1      47.280  27.123  26.353  1.00  0.00    -0.248 NA
ATOM     47  C   UNL A   1      48.044  25.141  25.389  1.00  0.00     0.031 C 
ATOM     48  C   UNL A   1      43.146  25.440  26.512  1.00  0.00     0.029 A 
ATOM     49  N   UNL A   1      44.408  27.251  26.877  1.00  0.00    -0.354 N 
ATOM     50  C   UNL A   1      48.650  27.217  26.140  1.00  0.00     0.074 A 
ATOM     51  C   UNL A   1      49.076  25.954  25.576  1.00  0.00     0.031 C 
ATOM     52  C   UNL A   1      42.337  26.413  26.964  1.00  0.00     0.029 A 
ATOM     53  C   UNL A   1      43.130  27.607  27.242  1.00  0.00     0.049 A 
ATOM     54  H   UNL A   1      45.175  27.866  26.931  1.00  0.00     0.167 HD
ATOM     55  C   UNL A   1      49.479  28.264  26.372  1.00  0.00     0.034 A 
ATOM     56  C   UNL A   1      42.652  28.760  27.754  1.00  0.00     0.034 A 
ATOM     57  C   UNL A   1      49.054  29.544  26.872  1.00  0.00     0.049 A 
ATOM     58  C   UNL A   1      43.593  29.913  27.980  1.00  0.00     0.074 A 
ATOM     59  C   UNL A   1      49.821  30.671  27.118  1.00  0.00     0.029 A 
ATOM     60  N   UNL A   1      47.746  29.877  27.190  1.00  0.00    -0.354 N 
ATOM     61  N   UNL A   1      44.873  30.002  27.710  1.00  0.00    -0.248 NA
ATOM     62  C   UNL A   1      43.018  31.137  28.560  1.00  0.00     0.031 C 
ATOM     63  C   UNL A   1      48.976  31.684  27.586  1.00  0.00     0.029 A 
ATOM     64  C   UNL A   1      47.682  31.192  27.620  1.00  0.00     0.049 A 
ATOM     65  H   UNL A   1      46.976  29.268  27.119  1.00  0.00     0.167 HD
ATOM     66  C   UNL A   1      45.249  31.293  28.065  1.00  0.00     0.074 A 
ATOM     67  C   UNL A   1      44.053  31.963  28.535  1.00  0.00     0.031 C 
ATOM     68  C   UNL A   1      46.478  31.867  28.029  1.00  0.00     0.034 A 
BRANCH  55  69
ATOM     69  C   UNL A   1      50.940  28.082  26.050  1.00  0.00     0.023 A 
ATOM     70  C   UNL A   1      51.844  27.757  27.080  1.00  0.00     0.012 A 
ATOM     71  C   UNL A   1      51.406  28.173  24.724  1.00  0.00     0.148 A 
ATOM     72  C   UNL A   1      53.196  27.557  26.802  1.00  0.00     0.002 A 
ATOM     73  C   UNL A   1      52.747  27.931  24.448  1.00  0.00     0.091 A 
ATOM     74  F   UNL A   1      50.535  28.502  23.760  1.00  0.00    -0.205 F 
ATOM     75  C   UNL A   1      53.645  27.633  25.486  1.00  0.00     0.022 A 
BRANCH  73  76
ATOM     76  S   UNL A   1      53.407  27.931  22.776  1.00  0.00     0.127 S 
ATOM     77  O   UNL A   1      54.202  29.158  22.772  1.00  0.00    -0.237 OA
ATOM     78  O   UNL A   1      54.192  26.697  22.753  1.00  0.00    -0.237 OA
ATOM     79  O   UNL A   1      52.251  27.930  21.890  1.00  0.00    -0.744 OA
ENDBRANCH  73  76
ENDBRANCH  55  69
BRANCH  56  80
ATOM     80  C   UNL A   1      41.197  28.901  28.050  1.00  0.00     0.023 A 
ATOM     81  C   UNL A   1      40.298  29.167  26.999  1.00  0.00     0.012 A 
ATOM     82  C   UNL A   1      40.697  28.765  29.359  1.00  0.00     0.148 A 
ATOM     83  C   UNL A   1      38.934  29.322  27.250  1.00  0.00     0.002 A 
ATOM     84  C   UNL A   1      39.331  28.862  29.594  1.00  0.00     0.091 A 
ATOM     85  F   UNL A   1      41.569  28.543  30.354  1.00  0.00    -0.205 F 
ATOM     86  C   UNL A   1      38.449  29.157  28.543  1.00  0.00     0.022 A 
BRANCH  84  87
ATOM     87  S   UNL A   1      38.618  28.528  31.208  1.00  0.00     0.127 S 
ATOM     88  O   UNL A   1      37.230  28.940  31.015  1.00  0.00    -0.237 OA
ATOM     89  O   UNL A   1      38.818  27.083  31.340  1.00  0.00    -0.237 OA
ATOM     90  O   UNL A   1      39.399  29.323  32.146  1.00  0.00    -0.744 OA
ENDBRANCH  84  87
ENDBRANCH  56  80
BRANCH  68  91
ATOM     91  C   UNL A   1      46.590  33.298  28.487  1.00  0.00     0.023 A 
ATOM     92  C   UNL A   1      46.869  33.576  29.839  1.00  0.00     0.012 A 
ATOM     93  C   UNL A   1      46.470  34.364  27.573  1.00  0.00     0.148 A 
ATOM     94  C   UNL A   1      46.989  34.892  30.284  1.00  0.00     0.002 A 
ATOM     95  C   UNL A   1      46.635  35.672  28.015  1.00  0.00     0.091 A 
ATOM     96  F   UNL A   1      46.182  34.084  26.294  1.00  0.00    -0.205 F 
ATOM     97  C   UNL A   1      46.883  35.940  29.371  1.00  0.00     0.022 A 
BRANCH  95  98
ATOM     98  S   UNL A   1      46.598  37.068  26.885  1.00  0.00     0.127 S 
ATOM     99  O   UNL A   1      45.181  37.135  26.535  1.00  0.00    -0.237 OA
ATOM    100  O   UNL A   1      47.071  38.169  27.725  1.00  0.00    -0.237 OA
ATOM    101  O   UNL A   1      47.502  36.717  25.797  1.00  0.00    -0.744 OA
ENDBRANCH  95  98
ENDBRANCH  68  91
ENDBRANCH  42  43
ENDBRANCH  35  37
ENDBRANCH  34  35
ENDBRANCH  33  34
ENDBRANCH  32  33
ENDBRANCH   1  32
TORSDOF 20
ENDMDL
