MODEL 1
REMARK VINA RESULT:     -11.5      0.000      0.000
REMARK SMILES Cc1csc(CNC(=O)NC[C@H]2CC[C@@H](C(=O)OCCOC(=O)c3ccc(-c4c5nc(c(-c6cccc(S(=O)(=O)[O-])c6F)c6ccc([nH]6)c(-c6cccc(S(=O)(=O)[O-])c6F)c6nc(c(-c7cccc(S(=O)(=O)[O-])c7F)c7ccc4[nH]7)C=C6)C=C5)cc3)CC2)n1
REMARK SMILES IDX 19 1 18 2 16 3 17 4 15 5 12 6 13 7 88 8 14 9 87 10 11 11
REMARK SMILES IDX 10 12 7 13 8 14 9 16 6 18 5 19 1 20 2 21 3 22 89 23 4 24
REMARK SMILES IDX 20 25 21 26 22 27 23 28 24 29 25 30 86 31 26 32 85 33 27 34
REMARK SMILES IDX 28 35 29 36 79 37 30 38 84 39 78 40 80 41 31 42 83 43 77 44
REMARK SMILES IDX 76 45 32 47 64 48 44 49 63 50 45 51 48 52 62 53 81 54 46 55
REMARK SMILES IDX 47 56 61 58 82 59 49 60 33 61 34 62 42 63 35 64 37 65 43 66
REMARK SMILES IDX 36 67 38 68 39 69 40 70 41 71 65 72 66 73 74 74 67 75 69 76
REMARK SMILES IDX 75 77 68 78 70 79 71 80 72 81 73 82 50 83 51 84 59 85 52 86
REMARK SMILES IDX 54 87 60 88 53 89 55 90 56 91 57 92 58 93
REMARK H PARENT 7 15 10 17 80 46 48 57
REMARK Flexibility Score: inf
ROOT
ATOM      1  C   UNL A   1      31.022  30.877  25.214  1.00  0.00     0.274 C 
ENDROOT
BRANCH   1   2
ATOM      2  O   UNL A   1      31.400  29.488  25.226  1.00  0.00    -0.462 OA
BRANCH   2   3
ATOM      3  C   UNL A   1      31.976  28.986  24.104  1.00  0.00     0.309 C 
ATOM      4  O   UNL A   1      31.554  29.164  22.969  1.00  0.00    -0.252 OA
BRANCH   3   5
ATOM      5  C   UNL A   1      33.182  28.096  24.402  1.00  0.00     0.099 C 
ATOM      6  C   UNL A   1      32.187  25.279  24.508  1.00  0.00     0.008 C 
ATOM      7  C   UNL A   1      32.357  26.055  23.187  1.00  0.00     0.006 C 
ATOM      8  C   UNL A   1      32.168  26.170  25.760  1.00  0.00     0.006 C 
ATOM      9  C   UNL A   1      33.429  27.132  23.249  1.00  0.00     0.015 C 
ATOM     10  C   UNL A   1      33.152  27.337  25.730  1.00  0.00     0.015 C 
BRANCH   6  11
ATOM     11  C   UNL A   1      30.885  24.456  24.460  1.00  0.00     0.121 C 
BRANCH  11  12
ATOM     12  N   UNL A   1      30.437  24.077  25.784  1.00  0.00    -0.338 N 
ATOM     13  N   UNL A   1      31.081  21.828  26.100  1.00  0.00    -0.332 N 
ATOM     14  C   UNL A   1      30.504  22.959  26.508  1.00  0.00     0.315 C 
ATOM     15  H   UNL A   1      30.975  21.089  26.741  1.00  0.00     0.165 HD
ATOM     16  O   UNL A   1      29.982  22.966  27.627  1.00  0.00    -0.249 OA
ATOM     17  H   UNL A   1      29.982  24.811  26.256  1.00  0.00     0.165 HD
BRANCH  13  18
ATOM     18  C   UNL A   1      31.830  21.449  24.919  1.00  0.00     0.185 C 
BRANCH  18  19
ATOM     19  C   UNL A   1      33.309  21.553  25.176  1.00  0.00     0.112 A 
ATOM     20  C   UNL A   1      36.193  23.497  26.126  1.00  0.00     0.067 C 
ATOM     21  C   UNL A   1      35.303  22.385  25.704  1.00  0.00     0.049 A 
ATOM     22  C   UNL A   1      35.670  21.078  25.459  1.00  0.00     0.090 A 
ATOM     23  N   UNL A   1      33.955  22.649  25.527  1.00  0.00    -0.245 NA
ATOM     24  S   UNL A   1      34.302  20.155  25.002  1.00  0.00    -0.125 S 
ENDBRANCH  18  19
ENDBRANCH  13  18
ENDBRANCH  11  12
ENDBRANCH   6  11
ENDBRANCH   3   5
ENDBRANCH   2   3
ENDBRANCH   1   2
BRANCH   1  25
ATOM     25  C   UNL A   1      31.391  31.559  26.533  1.00  0.00     0.275 C 
BRANCH  25  26
ATOM     26  O   UNL A   1      32.707  31.171  26.960  1.00  0.00    -0.458 OA
BRANCH  26  27
ATOM     27  C   UNL A   1      33.466  32.178  27.446  1.00  0.00     0.338 C 
ATOM     28  O   UNL A   1      33.137  33.348  27.597  1.00  0.00    -0.246 OA
BRANCH  27  29
ATOM     29  C   UNL A   1      34.742  31.640  27.931  1.00  0.00     0.060 A 
ATOM     30  C   UNL A   1      34.809  30.272  28.209  1.00  0.00     0.016 A 
ATOM     31  C   UNL A   1      35.830  32.473  28.188  1.00  0.00     0.016 A 
ATOM     32  C   UNL A   1      35.961  29.728  28.764  1.00  0.00     0.010 A 
ATOM     33  C   UNL A   1      36.987  31.927  28.751  1.00  0.00     0.010 A 
ATOM     34  C   UNL A   1      37.048  30.557  29.063  1.00  0.00    -0.014 A 
BRANCH  34  35
ATOM     35  C   UNL A   1      38.202  30.001  29.805  1.00  0.00     0.031 A 
ATOM     36  C   UNL A   1      38.402  30.383  31.243  1.00  0.00     0.074 A 
ATOM     37  C   UNL A   1      39.044  29.142  29.201  1.00  0.00     0.049 A 
ATOM     38  N   UNL A   1      39.362  30.047  32.063  1.00  0.00    -0.248 NA
ATOM     39  C   UNL A   1      37.382  31.264  31.838  1.00  0.00     0.031 C 
ATOM     40  C   UNL A   1      38.927  28.676  27.820  1.00  0.00     0.029 A 
ATOM     41  N   UNL A   1      40.167  28.514  29.675  1.00  0.00    -0.354 N 
ATOM     42  C   UNL A   1      39.088  30.704  33.256  1.00  0.00     0.074 A 
ATOM     43  C   UNL A   1      37.873  31.462  33.053  1.00  0.00     0.031 C 
ATOM     44  C   UNL A   1      39.942  27.837  27.555  1.00  0.00     0.029 A 
ATOM     45  C   UNL A   1      40.797  27.734  28.735  1.00  0.00     0.049 A 
ATOM     46  H   UNL A   1      40.490  28.613  30.600  1.00  0.00     0.167 HD
ATOM     47  C   UNL A   1      39.777  30.666  34.420  1.00  0.00     0.034 A 
ATOM     48  C   UNL A   1      41.942  27.028  28.818  1.00  0.00     0.034 A 
ATOM     49  C   UNL A   1      40.963  29.879  34.626  1.00  0.00     0.049 A 
ATOM     50  C   UNL A   1      42.699  27.018  30.119  1.00  0.00     0.074 A 
ATOM     51  C   UNL A   1      41.726  29.754  35.773  1.00  0.00     0.029 A 
ATOM     52  N   UNL A   1      41.557  29.080  33.660  1.00  0.00    -0.354 N 
ATOM     53  N   UNL A   1      42.388  27.584  31.261  1.00  0.00    -0.248 NA
ATOM     54  C   UNL A   1      43.951  26.250  30.151  1.00  0.00     0.031 C 
ATOM     55  C   UNL A   1      42.787  28.882  35.498  1.00  0.00     0.029 A 
ATOM     56  C   UNL A   1      42.677  28.456  34.184  1.00  0.00     0.049 A 
ATOM     57  H   UNL A   1      41.229  28.971  32.739  1.00  0.00     0.167 HD
ATOM     58  C   UNL A   1      43.386  27.214  32.155  1.00  0.00     0.074 A 
ATOM     59  C   UNL A   1      44.302  26.360  31.425  1.00  0.00     0.031 C 
ATOM     60  C   UNL A   1      43.541  27.561  33.457  1.00  0.00     0.034 A 
BRANCH  47  61
ATOM     61  C   UNL A   1      39.243  31.481  35.567  1.00  0.00     0.023 A 
ATOM     62  C   UNL A   1      38.301  30.910  36.446  1.00  0.00     0.012 A 
ATOM     63  C   UNL A   1      39.682  32.801  35.786  1.00  0.00     0.148 A 
ATOM     64  C   UNL A   1      37.778  31.652  37.506  1.00  0.00     0.002 A 
ATOM     65  C   UNL A   1      39.184  33.521  36.867  1.00  0.00     0.091 A 
ATOM     66  F   UNL A   1      40.554  33.339  34.922  1.00  0.00    -0.205 F 
ATOM     67  C   UNL A   1      38.227  32.952  37.722  1.00  0.00     0.022 A 
BRANCH  65  68
ATOM     68  S   UNL A   1      39.758  35.179  37.255  1.00  0.00     0.127 S 
ATOM     69  O   UNL A   1      38.978  35.488  38.453  1.00  0.00    -0.237 OA
ATOM     70  O   UNL A   1      41.186  34.969  37.497  1.00  0.00    -0.237 OA
ATOM     71  O   UNL A   1      39.459  35.984  36.080  1.00  0.00    -0.744 OA
ENDBRANCH  65  68
ENDBRANCH  47  61
BRANCH  48  72
ATOM     72  C   UNL A   1      42.408  26.226  27.651  1.00  0.00     0.023 A 
ATOM     73  C   UNL A   1      43.277  26.818  26.715  1.00  0.00     0.012 A 
ATOM     74  C   UNL A   1      42.027  24.881  27.481  1.00  0.00     0.148 A 
ATOM     75  C   UNL A   1      43.742  26.092  25.618  1.00  0.00     0.002 A 
ATOM     76  C   UNL A   1      42.534  24.148  26.414  1.00  0.00     0.091 A 
ATOM     77  F   UNL A   1      41.181  24.341  28.371  1.00  0.00    -0.205 F 
ATOM     78  C   UNL A   1      43.381  24.755  25.473  1.00  0.00     0.022 A 
BRANCH  76  79
ATOM     79  S   UNL A   1      42.219  22.390  26.219  1.00  0.00     0.127 S 
ATOM     80  O   UNL A   1      42.964  22.085  25.000  1.00  0.00    -0.237 OA
ATOM     81  O   UNL A   1      42.796  21.839  27.447  1.00  0.00    -0.237 OA
ATOM     82  O   UNL A   1      40.771  22.259  26.128  1.00  0.00    -0.744 OA
ENDBRANCH  76  79
ENDBRANCH  48  72
BRANCH  60  83
ATOM     83  C   UNL A   1      44.724  26.990  34.191  1.00  0.00     0.023 A 
ATOM     84  C   UNL A   1      45.966  27.652  34.133  1.00  0.00     0.012 A 
ATOM     85  C   UNL A   1      44.587  25.843  34.997  1.00  0.00     0.148 A 
ATOM     86  C   UNL A   1      47.062  27.163  34.843  1.00  0.00     0.002 A 
ATOM     87  C   UNL A   1      45.673  25.387  35.736  1.00  0.00     0.091 A 
ATOM     88  F   UNL A   1      43.404  25.213  35.021  1.00  0.00    -0.205 F 
ATOM     89  C   UNL A   1      46.913  26.040  35.653  1.00  0.00     0.022 A 
BRANCH  87  90
ATOM     90  S   UNL A   1      45.537  24.003  36.873  1.00  0.00     0.127 S 
ATOM     91  O   UNL A   1      44.584  24.514  37.855  1.00  0.00    -0.237 OA
ATOM     92  O   UNL A   1      45.014  22.940  36.013  1.00  0.00    -0.237 OA
ATOM     93  O   UNL A   1      46.886  23.763  37.366  1.00  0.00    -0.744 OA
ENDBRANCH  87  90
ENDBRANCH  60  83
ENDBRANCH  34  35
ENDBRANCH  27  29
ENDBRANCH  26  27
ENDBRANCH  25  26
ENDBRANCH   1  25
TORSDOF 18
ENDMDL
MODEL 2
REMARK VINA RESULT:     -11.4      4.985     10.365
REMARK SMILES Cc1csc(CNC(=O)NC[C@H]2CC[C@@H](C(=O)OCCOC(=O)c3ccc(-c4c5nc(c(-c6cccc(S(=O)(=O)[O-])c6F)c6ccc([nH]6)c(-c6cccc(S(=O)(=O)[O-])c6F)c6nc(c(-c7cccc(S(=O)(=O)[O-])c7F)c7ccc4[nH]7)C=C6)C=C5)cc3)CC2)n1
REMARK SMILES IDX 19 1 18 2 16 3 17 4 15 5 12 6 13 7 88 8 14 9 87 10 11 11
REMARK SMILES IDX 10 12 7 13 8 14 9 16 6 18 5 19 1 20 2 21 3 22 89 23 4 24
REMARK SMILES IDX 20 25 21 26 22 27 23 28 24 29 25 30 86 31 26 32 85 33 27 34
REMARK SMILES IDX 28 35 29 36 79 37 30 38 84 39 78 40 80 41 31 42 83 43 77 44
REMARK SMILES IDX 76 45 32 47 64 48 44 49 63 50 45 51 48 52 62 53 81 54 46 55
REMARK SMILES IDX 47 56 61 58 82 59 49 60 33 61 34 62 42 63 35 64 37 65 43 66
REMARK SMILES IDX 36 67 38 68 39 69 40 70 41 71 65 72 66 73 74 74 67 75 69 76
REMARK SMILES IDX 75 77 68 78 70 79 71 80 72 81 73 82 50 83 51 84 59 85 52 86
REMARK SMILES IDX 54 87 60 88 53 89 55 90 56 91 57 92 58 93
REMARK H PARENT 7 15 10 17 80 46 48 57
REMARK Flexibility Score: inf
ROOT
ATOM      1  C   UNL A   1      36.270  19.701  25.002  1.00  0.00     0.274 C 
ENDROOT
BRANCH   1   2
ATOM      2  O   UNL A   1      35.531  20.934  24.926  1.00  0.00    -0.462 OA
BRANCH   2   3
ATOM      3  C   UNL A   1      34.636  21.190  25.913  1.00  0.00     0.309 C 
ATOM      4  O   UNL A   1      33.831  20.376  26.347  1.00  0.00    -0.252 OA
BRANCH   3   5
ATOM      5  C   UNL A   1      34.674  22.642  26.391  1.00  0.00     0.099 C 
ATOM      6  C   UNL A   1      32.922  24.215  24.550  1.00  0.00     0.008 C 
ATOM      7  C   UNL A   1      32.362  23.270  25.630  1.00  0.00     0.006 C 
ATOM      8  C   UNL A   1      34.405  23.980  24.218  1.00  0.00     0.006 C 
ATOM      9  C   UNL A   1      33.286  23.095  26.824  1.00  0.00     0.015 C 
ATOM     10  C   UNL A   1      35.285  23.657  25.423  1.00  0.00     0.015 C 
BRANCH   6  11
ATOM     11  C   UNL A   1      32.093  24.075  23.259  1.00  0.00     0.121 C 
BRANCH  11  12
ATOM     12  N   UNL A   1      32.742  24.709  22.129  1.00  0.00    -0.338 N 
ATOM     13  N   UNL A   1      31.553  26.702  21.695  1.00  0.00    -0.332 N 
ATOM     14  C   UNL A   1      32.529  25.829  21.437  1.00  0.00     0.315 C 
ATOM     15  H   UNL A   1      31.510  27.434  21.039  1.00  0.00     0.165 HD
ATOM     16  O   UNL A   1      33.276  26.069  20.485  1.00  0.00    -0.249 OA
ATOM     17  H   UNL A   1      33.515  24.197  21.798  1.00  0.00     0.165 HD
BRANCH  13  18
ATOM     18  C   UNL A   1      30.543  26.807  22.727  1.00  0.00     0.185 C 
BRANCH  18  19
ATOM     19  C   UNL A   1      30.991  27.750  23.811  1.00  0.00     0.112 A 
ATOM     20  C   UNL A   1      32.747  28.364  26.898  1.00  0.00     0.067 C 
ATOM     21  C   UNL A   1      31.948  28.535  25.658  1.00  0.00     0.049 A 
ATOM     22  C   UNL A   1      31.418  29.711  25.171  1.00  0.00     0.090 A 
ATOM     23  N   UNL A   1      31.688  27.419  24.881  1.00  0.00    -0.245 NA
ATOM     24  S   UNL A   1      30.578  29.420  23.707  1.00  0.00    -0.125 S 
ENDBRANCH  18  19
ENDBRANCH  13  18
ENDBRANCH  11  12
ENDBRANCH   6  11
ENDBRANCH   3   5
ENDBRANCH   2   3
ENDBRANCH   1   2
BRANCH   1  25
ATOM     25  C   UNL A   1      37.768  19.945  24.811  1.00  0.00     0.275 C 
BRANCH  25  26
ATOM     26  O   UNL A   1      38.209  21.067  25.594  1.00  0.00    -0.458 OA
BRANCH  26  27
ATOM     27  C   UNL A   1      39.429  20.922  26.157  1.00  0.00     0.338 C 
ATOM     28  O   UNL A   1      40.142  19.927  26.133  1.00  0.00    -0.246 OA
BRANCH  27  29
ATOM     29  C   UNL A   1      39.876  22.212  26.696  1.00  0.00     0.060 A 
ATOM     30  C   UNL A   1      39.231  23.366  26.244  1.00  0.00     0.016 A 
ATOM     31  C   UNL A   1      40.964  22.297  27.564  1.00  0.00     0.016 A 
ATOM     32  C   UNL A   1      39.679  24.619  26.645  1.00  0.00     0.010 A 
ATOM     33  C   UNL A   1      41.418  23.557  27.963  1.00  0.00     0.010 A 
ATOM     34  C   UNL A   1      40.792  24.723  27.486  1.00  0.00    -0.014 A 
BRANCH  34  35
ATOM     35  C   UNL A   1      41.363  26.058  27.772  1.00  0.00     0.031 A 
ATOM     36  C   UNL A   1      42.749  26.382  27.291  1.00  0.00     0.074 A 
ATOM     37  C   UNL A   1      40.635  26.979  28.430  1.00  0.00     0.049 A 
ATOM     38  N   UNL A   1      43.452  27.469  27.466  1.00  0.00    -0.248 NA
ATOM     39  C   UNL A   1      43.434  25.339  26.509  1.00  0.00     0.031 C 
ATOM     40  C   UNL A   1      39.268  26.785  28.914  1.00  0.00     0.029 A 
ATOM     41  N   UNL A   1      40.949  28.258  28.811  1.00  0.00    -0.354 N 
ATOM     42  C   UNL A   1      44.676  27.229  26.853  1.00  0.00     0.074 A 
ATOM     43  C   UNL A   1      44.622  25.892  26.305  1.00  0.00     0.031 C 
ATOM     44  C   UNL A   1      38.861  27.906  29.531  1.00  0.00     0.029 A 
ATOM     45  C   UNL A   1      39.948  28.882  29.516  1.00  0.00     0.049 A 
ATOM     46  H   UNL A   1      41.809  28.688  28.598  1.00  0.00     0.167 HD
ATOM     47  C   UNL A   1      45.743  28.055  26.743  1.00  0.00     0.034 A 
ATOM     48  C   UNL A   1      39.920  30.099  30.094  1.00  0.00     0.034 A 
ATOM     49  C   UNL A   1      45.777  29.397  27.257  1.00  0.00     0.049 A 
ATOM     50  C   UNL A   1      41.128  30.990  29.973  1.00  0.00     0.074 A 
ATOM     51  C   UNL A   1      46.800  30.325  27.182  1.00  0.00     0.029 A 
ATOM     52  N   UNL A   1      44.734  30.005  27.942  1.00  0.00    -0.354 N 
ATOM     53  N   UNL A   1      42.250  30.779  29.326  1.00  0.00    -0.248 NA
ATOM     54  C   UNL A   1      41.056  32.299  30.638  1.00  0.00     0.031 C 
ATOM     55  C   UNL A   1      46.379  31.493  27.828  1.00  0.00     0.029 A 
ATOM     56  C   UNL A   1      45.088  31.297  28.294  1.00  0.00     0.049 A 
ATOM     57  H   UNL A   1      43.870  29.581  28.146  1.00  0.00     0.167 HD
ATOM     58  C   UNL A   1      43.002  31.938  29.477  1.00  0.00     0.074 A 
ATOM     59  C   UNL A   1      42.199  32.855  30.262  1.00  0.00     0.031 C 
ATOM     60  C   UNL A   1      44.250  32.215  29.023  1.00  0.00     0.034 A 
BRANCH  47  61
ATOM     61  C   UNL A   1      46.951  27.531  26.013  1.00  0.00     0.023 A 
ATOM     62  C   UNL A   1      47.067  27.738  24.624  1.00  0.00     0.012 A 
ATOM     63  C   UNL A   1      47.975  26.850  26.699  1.00  0.00     0.148 A 
ATOM     64  C   UNL A   1      48.168  27.248  23.922  1.00  0.00     0.002 A 
ATOM     65  C   UNL A   1      49.087  26.397  25.998  1.00  0.00     0.091 A 
ATOM     66  F   UNL A   1      47.833  26.633  28.014  1.00  0.00    -0.205 F 
ATOM     67  C   UNL A   1      49.181  26.586  24.610  1.00  0.00     0.022 A 
BRANCH  65  68
ATOM     68  S   UNL A   1      50.469  25.592  26.818  1.00  0.00     0.127 S 
ATOM     69  O   UNL A   1      50.924  26.642  27.730  1.00  0.00    -0.237 OA
ATOM     70  O   UNL A   1      49.826  24.454  27.474  1.00  0.00    -0.237 OA
ATOM     71  O   UNL A   1      51.398  25.229  25.757  1.00  0.00    -0.744 OA
ENDBRANCH  65  68
ENDBRANCH  47  61
BRANCH  48  72
ATOM     72  C   UNL A   1      38.687  30.567  30.787  1.00  0.00     0.023 A 
ATOM     73  C   UNL A   1      38.560  30.361  32.174  1.00  0.00     0.012 A 
ATOM     74  C   UNL A   1      37.662  31.239  30.095  1.00  0.00     0.148 A 
ATOM     75  C   UNL A   1      37.424  30.797  32.856  1.00  0.00     0.002 A 
ATOM     76  C   UNL A   1      36.555  31.716  30.790  1.00  0.00     0.091 A 
ATOM     77  F   UNL A   1      37.791  31.407  28.771  1.00  0.00    -0.205 F 
ATOM     78  C   UNL A   1      36.427  31.484  32.168  1.00  0.00     0.022 A 
BRANCH  76  79
ATOM     79  S   UNL A   1      35.286  32.716  30.005  1.00  0.00     0.127 S 
ATOM     80  O   UNL A   1      34.406  33.020  31.131  1.00  0.00    -0.237 OA
ATOM     81  O   UNL A   1      36.059  33.853  29.505  1.00  0.00    -0.237 OA
ATOM     82  O   UNL A   1      34.714  31.876  28.962  1.00  0.00    -0.744 OA
ENDBRANCH  76  79
ENDBRANCH  48  72
BRANCH  60  83
ATOM     83  C   UNL A   1      44.815  33.576  29.330  1.00  0.00     0.023 A 
ATOM     84  C   UNL A   1      45.504  33.788  30.540  1.00  0.00     0.012 A 
ATOM     85  C   UNL A   1      44.727  34.620  28.390  1.00  0.00     0.148 A 
ATOM     86  C   UNL A   1      46.073  35.029  30.822  1.00  0.00     0.002 A 
ATOM     87  C   UNL A   1      45.335  35.842  28.659  1.00  0.00     0.091 A 
ATOM     88  F   UNL A   1      44.047  34.407  27.254  1.00  0.00    -0.205 F 
ATOM     89  C   UNL A   1      45.999  36.051  29.878  1.00  0.00     0.022 A 
BRANCH  87  90
ATOM     90  S   UNL A   1      45.363  37.176  27.457  1.00  0.00     0.127 S 
ATOM     91  O   UNL A   1      43.937  37.425  27.252  1.00  0.00    -0.237 OA
ATOM     92  O   UNL A   1      46.069  38.236  28.179  1.00  0.00    -0.237 OA
ATOM     93  O   UNL A   1      46.085  36.654  26.304  1.00  0.00    -0.744 OA
ENDBRANCH  87  90
ENDBRANCH  60  83
ENDBRANCH  34  35
ENDBRANCH  27  29
ENDBRANCH  26  27
ENDBRANCH  25  26
ENDBRANCH   1  25
TORSDOF 18
ENDMDL
MODEL 3
REMARK VINA RESULT:     -11.3      1.305      1.904
REMARK SMILES Cc1csc(CNC(=O)NC[C@H]2CC[C@@H](C(=O)OCCOC(=O)c3ccc(-c4c5nc(c(-c6cccc(S(=O)(=O)[O-])c6F)c6ccc([nH]6)c(-c6cccc(S(=O)(=O)[O-])c6F)c6nc(c(-c7cccc(S(=O)(=O)[O-])c7F)c7ccc4[nH]7)C=C6)C=C5)cc3)CC2)n1
REMARK SMILES IDX 19 1 18 2 16 3 17 4 15 5 12 6 13 7 88 8 14 9 87 10 11 11
REMARK SMILES IDX 10 12 7 13 8 14 9 16 6 18 5 19 1 20 2 21 3 22 89 23 4 24
REMARK SMILES IDX 20 25 21 26 22 27 23 28 24 29 25 30 86 31 26 32 85 33 27 34
REMARK SMILES IDX 28 35 29 36 79 37 30 38 84 39 78 40 80 41 31 42 83 43 77 44
REMARK SMILES IDX 76 45 32 47 64 48 44 49 63 50 45 51 48 52 62 53 81 54 46 55
REMARK SMILES IDX 47 56 61 58 82 59 49 60 33 61 34 62 42 63 35 64 37 65 43 66
REMARK SMILES IDX 36 67 38 68 39 69 40 70 41 71 65 72 66 73 74 74 67 75 69 76
REMARK SMILES IDX 75 77 68 78 70 79 71 80 72 81 73 82 50 83 51 84 59 85 52 86
REMARK SMILES IDX 54 87 60 88 53 89 55 90 56 91 57 92 58 93
REMARK H PARENT 7 15 10 17 80 46 48 57
REMARK Flexibility Score: inf
ROOT
ATOM      1  C   UNL A   1      30.891  31.208  25.568  1.00  0.00     0.274 C 
ENDROOT
BRANCH   1   2
ATOM      2  O   UNL A   1      31.897  30.211  25.314  1.00  0.00    -0.462 OA
BRANCH   2   3
ATOM      3  C   UNL A   1      31.486  28.923  25.192  1.00  0.00     0.309 C 
ATOM      4  O   UNL A   1      30.993  28.445  24.179  1.00  0.00    -0.252 OA
BRANCH   3   5
ATOM      5  C   UNL A   1      31.627  28.128  26.490  1.00  0.00     0.099 C 
ATOM      6  C   UNL A   1      33.307  25.735  25.873  1.00  0.00     0.008 C 
ATOM      7  C   UNL A   1      33.892  27.154  26.003  1.00  0.00     0.006 C 
ATOM      8  C   UNL A   1      31.783  25.700  25.675  1.00  0.00     0.006 C 
ATOM      9  C   UNL A   1      33.087  28.062  26.918  1.00  0.00     0.015 C 
ATOM     10  C   UNL A   1      31.009  26.728  26.496  1.00  0.00     0.015 C 
BRANCH   6  11
ATOM     11  C   UNL A   1      33.981  25.003  24.695  1.00  0.00     0.121 C 
BRANCH  11  12
ATOM     12  N   UNL A   1      35.279  24.475  25.060  1.00  0.00    -0.338 N 
ATOM     13  N   UNL A   1      34.886  22.502  26.296  1.00  0.00    -0.332 N 
ATOM     14  C   UNL A   1      35.695  23.410  25.747  1.00  0.00     0.315 C 
ATOM     15  H   UNL A   1      35.368  21.824  26.820  1.00  0.00     0.165 HD
ATOM     16  O   UNL A   1      36.911  23.262  25.900  1.00  0.00    -0.249 OA
ATOM     17  H   UNL A   1      36.022  25.026  24.723  1.00  0.00     0.165 HD
BRANCH  13  18
ATOM     18  C   UNL A   1      33.452  22.296  26.288  1.00  0.00     0.185 C 
BRANCH  18  19
ATOM     19  C   UNL A   1      33.093  21.113  25.430  1.00  0.00     0.112 A 
ATOM     20  C   UNL A   1      32.533  17.572  25.057  1.00  0.00     0.067 C 
ATOM     21  C   UNL A   1      32.661  19.027  24.791  1.00  0.00     0.049 A 
ATOM     22  C   UNL A   1      32.430  19.675  23.595  1.00  0.00     0.090 A 
ATOM     23  N   UNL A   1      33.051  19.856  25.830  1.00  0.00    -0.245 NA
ATOM     24  S   UNL A   1      32.701  21.356  23.770  1.00  0.00    -0.125 S 
ENDBRANCH  18  19
ENDBRANCH  13  18
ENDBRANCH  11  12
ENDBRANCH   6  11
ENDBRANCH   3   5
ENDBRANCH   2   3
ENDBRANCH   1   2
BRANCH   1  25
ATOM     25  C   UNL A   1      31.373  32.224  26.606  1.00  0.00     0.275 C 
BRANCH  25  26
ATOM     26  O   UNL A   1      32.591  31.783  27.227  1.00  0.00    -0.458 OA
BRANCH  26  27
ATOM     27  C   UNL A   1      33.426  32.775  27.608  1.00  0.00     0.338 C 
ATOM     28  O   UNL A   1      33.161  33.966  27.716  1.00  0.00    -0.246 OA
BRANCH  27  29
ATOM     29  C   UNL A   1      34.705  32.200  28.042  1.00  0.00     0.060 A 
ATOM     30  C   UNL A   1      34.726  30.848  28.395  1.00  0.00     0.016 A 
ATOM     31  C   UNL A   1      35.845  32.991  28.181  1.00  0.00     0.016 A 
ATOM     32  C   UNL A   1      35.885  30.277  28.906  1.00  0.00     0.010 A 
ATOM     33  C   UNL A   1      37.009  32.418  28.701  1.00  0.00     0.010 A 
ATOM     34  C   UNL A   1      37.026  31.066  29.088  1.00  0.00    -0.014 A 
BRANCH  34  35
ATOM     35  C   UNL A   1      38.200  30.494  29.786  1.00  0.00     0.031 A 
ATOM     36  C   UNL A   1      38.485  30.910  31.201  1.00  0.00     0.074 A 
ATOM     37  C   UNL A   1      38.981  29.590  29.167  1.00  0.00     0.049 A 
ATOM     38  N   UNL A   1      39.476  30.565  31.980  1.00  0.00    -0.248 NA
ATOM     39  C   UNL A   1      37.526  31.840  31.820  1.00  0.00     0.031 C 
ATOM     40  C   UNL A   1      38.779  29.089  27.808  1.00  0.00     0.029 A 
ATOM     41  N   UNL A   1      40.108  28.940  29.601  1.00  0.00    -0.354 N 
ATOM     42  C   UNL A   1      39.285  31.264  33.165  1.00  0.00     0.074 A 
ATOM     43  C   UNL A   1      38.086  32.056  33.002  1.00  0.00     0.031 C 
ATOM     44  C   UNL A   1      39.752  28.211  27.517  1.00  0.00     0.029 A 
ATOM     45  C   UNL A   1      40.663  28.114  28.654  1.00  0.00     0.049 A 
ATOM     46  H   UNL A   1      40.481  29.054  30.505  1.00  0.00     0.167 HD
ATOM     47  C   UNL A   1      40.032  31.237  34.294  1.00  0.00     0.034 A 
ATOM     48  C   UNL A   1      41.788  27.373  28.700  1.00  0.00     0.034 A 
ATOM     49  C   UNL A   1      41.202  30.418  34.463  1.00  0.00     0.049 A 
ATOM     50  C   UNL A   1      42.611  27.375  29.960  1.00  0.00     0.074 A 
ATOM     51  C   UNL A   1      42.019  30.300  35.572  1.00  0.00     0.029 A 
ATOM     52  N   UNL A   1      41.719  29.572  33.492  1.00  0.00    -0.354 N 
ATOM     53  N   UNL A   1      42.378  27.983  31.099  1.00  0.00    -0.248 NA
ATOM     54  C   UNL A   1      43.839  26.568  29.952  1.00  0.00     0.031 C 
ATOM     55  C   UNL A   1      43.037  29.387  35.270  1.00  0.00     0.029 A 
ATOM     56  C   UNL A   1      42.845  28.928  33.976  1.00  0.00     0.049 A 
ATOM     57  H   UNL A   1      41.341  29.449  32.592  1.00  0.00     0.167 HD
ATOM     58  C   UNL A   1      43.408  27.606  31.953  1.00  0.00     0.074 A 
ATOM     59  C   UNL A   1      44.258  26.702  31.203  1.00  0.00     0.031 C 
ATOM     60  C   UNL A   1      43.641  27.984  33.234  1.00  0.00     0.034 A 
BRANCH  47  61
ATOM     61  C   UNL A   1      39.583  32.102  35.441  1.00  0.00     0.023 A 
ATOM     62  C   UNL A   1      38.707  31.572  36.409  1.00  0.00     0.012 A 
ATOM     63  C   UNL A   1      40.039  33.427  35.572  1.00  0.00     0.148 A 
ATOM     64  C   UNL A   1      38.264  32.359  37.472  1.00  0.00     0.002 A 
ATOM     65  C   UNL A   1      39.622  34.193  36.655  1.00  0.00     0.091 A 
ATOM     66  F   UNL A   1      40.847  33.925  34.625  1.00  0.00    -0.205 F 
ATOM     67  C   UNL A   1      38.729  33.665  37.600  1.00  0.00     0.022 A 
BRANCH  65  68
ATOM     68  S   UNL A   1      40.225  35.864  36.932  1.00  0.00     0.127 S 
ATOM     69  O   UNL A   1      39.661  36.168  38.247  1.00  0.00    -0.237 OA
ATOM     70  O   UNL A   1      41.676  35.681  36.921  1.00  0.00    -0.237 OA
ATOM     71  O   UNL A   1      39.710  36.656  35.823  1.00  0.00    -0.744 OA
ENDBRANCH  65  68
ENDBRANCH  47  61
BRANCH  48  72
ATOM     72  C   UNL A   1      42.168  26.523  27.536  1.00  0.00     0.023 A 
ATOM     73  C   UNL A   1      42.926  27.088  26.493  1.00  0.00     0.012 A 
ATOM     74  C   UNL A   1      41.816  25.161  27.470  1.00  0.00     0.148 A 
ATOM     75  C   UNL A   1      43.309  26.318  25.394  1.00  0.00     0.002 A 
ATOM     76  C   UNL A   1      42.243  24.387  26.397  1.00  0.00     0.091 A 
ATOM     77  F   UNL A   1      41.075  24.647  28.463  1.00  0.00    -0.205 F 
ATOM     78  C   UNL A   1      42.978  24.966  25.351  1.00  0.00     0.022 A 
BRANCH  76  79
ATOM     79  S   UNL A   1      41.967  22.613  26.322  1.00  0.00     0.127 S 
ATOM     80  O   UNL A   1      40.508  22.537  26.330  1.00  0.00    -0.237 OA
ATOM     81  O   UNL A   1      42.595  22.261  25.047  1.00  0.00    -0.237 OA
ATOM     82  O   UNL A   1      42.638  22.062  27.491  1.00  0.00    -0.744 OA
ENDBRANCH  76  79
ENDBRANCH  48  72
BRANCH  60  83
ATOM     83  C   UNL A   1      44.843  27.396  33.924  1.00  0.00     0.023 A 
ATOM     84  C   UNL A   1      46.040  28.136  33.991  1.00  0.00     0.012 A 
ATOM     85  C   UNL A   1      44.764  26.147  34.568  1.00  0.00     0.148 A 
ATOM     86  C   UNL A   1      47.150  27.627  34.665  1.00  0.00     0.002 A 
ATOM     87  C   UNL A   1      45.861  25.665  35.275  1.00  0.00     0.091 A 
ATOM     88  F   UNL A   1      43.624  25.447  34.473  1.00  0.00    -0.205 F 
ATOM     89  C   UNL A   1      47.056  26.399  35.316  1.00  0.00     0.022 A 
BRANCH  87  90
ATOM     90  S   UNL A   1      45.790  24.137  36.216  1.00  0.00     0.127 S 
ATOM     91  O   UNL A   1      44.496  24.257  36.885  1.00  0.00    -0.237 OA
ATOM     92  O   UNL A   1      45.840  23.118  35.166  1.00  0.00    -0.237 OA
ATOM     93  O   UNL A   1      46.957  24.156  37.088  1.00  0.00    -0.744 OA
ENDBRANCH  87  90
ENDBRANCH  60  83
ENDBRANCH  34  35
ENDBRANCH  27  29
ENDBRANCH  26  27
ENDBRANCH  25  26
ENDBRANCH   1  25
TORSDOF 18
ENDMDL
