MODEL 1
REMARK VINA RESULT:     -11.4      0.000      0.000
REMARK SMILES O=C(C[C@H]1CN(S(=O)(=O)N2CCCCC2)CCO1)OCCOC(=O)c1ccc(-c2c3nc(c(-c4cccc(S(=O)(=O)[O-])c4F)c4ccc([nH]4)c(-c4cccc(S(=O)(=O)[O-])c4F)c4nc(c(-c5cccc(S(=O)(=O)[O-])c5F)c5ccc2[nH]5)C=C4)C=C3)cc1
REMARK SMILES IDX 20 1 19 2 2 3 1 4 3 5 4 6 5 7 18 8 6 9 17 10 16 11 7 12 8 13
REMARK SMILES IDX 9 14 10 15 11 16 15 17 12 18 14 19 13 20 21 21 22 22 23 23
REMARK SMILES IDX 24 24 25 25 26 26 87 27 27 28 86 29 28 30 29 31 30 32 80 33
REMARK SMILES IDX 31 34 85 35 79 36 81 37 32 38 84 39 78 40 77 41 33 43 65 44
REMARK SMILES IDX 45 45 64 46 46 47 49 48 63 49 82 50 47 51 48 52 62 54 83 55
REMARK SMILES IDX 50 56 34 57 35 58 43 59 36 60 38 61 44 62 37 63 39 64 40 65
REMARK SMILES IDX 41 66 42 67 66 68 67 69 75 70 68 71 70 72 76 73 69 74 71 75
REMARK SMILES IDX 72 76 73 77 74 78 51 79 52 80 60 81 53 82 55 83 61 84 54 85
REMARK SMILES IDX 56 86 57 87 58 88 59 89
REMARK H PARENT 81 42 49 53
REMARK Flexibility Score: inf
ROOT
ATOM      1  C   UNL A   1      35.659  21.107  25.712  1.00  0.00     0.274 C 
ENDROOT
BRANCH   1   2
ATOM      2  O   UNL A   1      34.584  21.341  24.778  1.00  0.00    -0.462 OA
BRANCH   2   3
ATOM      3  C   UNL A   1      33.382  20.778  25.076  1.00  0.00     0.308 C 
ATOM      4  O   UNL A   1      33.166  19.573  25.120  1.00  0.00    -0.252 OA
BRANCH   3   5
ATOM      5  C   UNL A   1      32.309  21.814  25.314  1.00  0.00     0.156 C 
BRANCH   5   6
ATOM      6  C   UNL A   1      32.501  22.745  26.521  1.00  0.00     0.144 C 
ATOM      7  C   UNL A   1      33.124  24.115  26.229  1.00  0.00     0.136 C 
ATOM      8  O   UNL A   1      31.319  22.928  27.313  1.00  0.00    -0.375 OA
ATOM      9  N   UNL A   1      32.215  24.849  25.308  1.00  0.00    -0.184 NA
ATOM     10  C   UNL A   1      30.358  23.810  26.736  1.00  0.00     0.177 C 
ATOM     11  C   UNL A   1      30.921  25.082  26.067  1.00  0.00     0.132 C 
BRANCH   9  12
ATOM     12  S   UNL A   1      32.783  26.277  24.609  1.00  0.00     0.282 S 
ATOM     13  O   UNL A   1      33.589  26.948  25.609  1.00  0.00    -0.195 OA
ATOM     14  O   UNL A   1      33.388  25.897  23.349  1.00  0.00    -0.195 OA
BRANCH  12  15
ATOM     15  N   UNL A   1      31.488  27.327  24.265  1.00  0.00    -0.189 NA
ATOM     16  C   UNL A   1      31.922  28.750  24.485  1.00  0.00     0.103 C 
ATOM     17  C   UNL A   1      30.716  27.190  23.014  1.00  0.00     0.103 C 
ATOM     18  C   UNL A   1      30.768  29.742  24.391  1.00  0.00     0.017 C 
ATOM     19  C   UNL A   1      29.520  28.139  22.982  1.00  0.00     0.017 C 
ATOM     20  C   UNL A   1      29.990  29.578  23.096  1.00  0.00     0.003 C 
ENDBRANCH  12  15
ENDBRANCH   9  12
ENDBRANCH   5   6
ENDBRANCH   3   5
ENDBRANCH   2   3
ENDBRANCH   1   2
BRANCH   1  21
ATOM     21  C   UNL A   1      36.867  20.527  24.976  1.00  0.00     0.275 C 
BRANCH  21  22
ATOM     22  O   UNL A   1      37.988  21.415  25.058  1.00  0.00    -0.458 OA
BRANCH  22  23
ATOM     23  C   UNL A   1      38.997  21.009  25.872  1.00  0.00     0.338 C 
ATOM     24  O   UNL A   1      39.433  19.882  25.967  1.00  0.00    -0.246 OA
BRANCH  23  25
ATOM     25  C   UNL A   1      39.595  22.225  26.485  1.00  0.00     0.060 A 
ATOM     26  C   UNL A   1      39.098  23.481  26.107  1.00  0.00     0.016 A 
ATOM     27  C   UNL A   1      40.580  22.134  27.475  1.00  0.00     0.016 A 
ATOM     28  C   UNL A   1      39.607  24.644  26.689  1.00  0.00     0.010 A 
ATOM     29  C   UNL A   1      41.092  23.293  28.053  1.00  0.00     0.010 A 
ATOM     30  C   UNL A   1      40.632  24.553  27.639  1.00  0.00    -0.014 A 
BRANCH  30  31
ATOM     31  C   UNL A   1      41.398  25.746  28.064  1.00  0.00     0.031 A 
ATOM     32  C   UNL A   1      40.642  26.845  28.757  1.00  0.00     0.074 A 
ATOM     33  C   UNL A   1      42.691  25.905  27.731  1.00  0.00     0.049 A 
ATOM     34  N   UNL A   1      41.037  28.047  29.077  1.00  0.00    -0.248 NA
ATOM     35  C   UNL A   1      39.243  26.552  29.120  1.00  0.00     0.031 C 
ATOM     36  C   UNL A   1      43.517  24.917  27.039  1.00  0.00     0.029 A 
ATOM     37  N   UNL A   1      43.519  26.990  27.885  1.00  0.00    -0.354 N 
ATOM     38  C   UNL A   1      39.928  28.668  29.637  1.00  0.00     0.074 A 
ATOM     39  C   UNL A   1      38.846  27.711  29.624  1.00  0.00     0.031 C 
ATOM     40  C   UNL A   1      44.718  25.462  26.776  1.00  0.00     0.029 A 
ATOM     41  C   UNL A   1      44.734  26.845  27.255  1.00  0.00     0.049 A 
ATOM     42  H   UNL A   1      43.268  27.793  28.396  1.00  0.00     0.167 HD
ATOM     43  C   UNL A   1      39.822  29.925  30.121  1.00  0.00     0.034 A 
ATOM     44  C   UNL A   1      45.721  27.741  27.052  1.00  0.00     0.034 A 
ATOM     45  C   UNL A   1      40.903  30.868  30.151  1.00  0.00     0.049 A 
ATOM     46  C   UNL A   1      45.567  29.144  27.590  1.00  0.00     0.074 A 
ATOM     47  C   UNL A   1      40.921  32.133  30.709  1.00  0.00     0.029 A 
ATOM     48  N   UNL A   1      42.145  30.659  29.578  1.00  0.00    -0.354 N 
ATOM     49  N   UNL A   1      44.578  29.661  28.280  1.00  0.00    -0.248 NA
ATOM     50  C   UNL A   1      46.671  30.082  27.335  1.00  0.00     0.031 C 
ATOM     51  C   UNL A   1      42.169  32.704  30.443  1.00  0.00     0.029 A 
ATOM     52  C   UNL A   1      42.931  31.786  29.739  1.00  0.00     0.049 A 
ATOM     53  H   UNL A   1      42.427  29.833  29.123  1.00  0.00     0.167 HD
ATOM     54  C   UNL A   1      44.955  30.971  28.565  1.00  0.00     0.074 A 
ATOM     55  C   UNL A   1      46.271  31.161  27.997  1.00  0.00     0.031 C 
ATOM     56  C   UNL A   1      44.264  31.938  29.218  1.00  0.00     0.034 A 
BRANCH  43  57
ATOM     57  C   UNL A   1      38.495  30.354  30.678  1.00  0.00     0.023 A 
ATOM     58  C   UNL A   1      38.196  30.107  32.032  1.00  0.00     0.012 A 
ATOM     59  C   UNL A   1      37.580  31.067  29.881  1.00  0.00     0.148 A 
ATOM     60  C   UNL A   1      36.997  30.555  32.583  1.00  0.00     0.002 A 
ATOM     61  C   UNL A   1      36.404  31.543  30.446  1.00  0.00     0.091 A 
ATOM     62  F   UNL A   1      37.878  31.264  28.588  1.00  0.00    -0.205 F 
ATOM     63  C   UNL A   1      36.108  31.281  31.795  1.00  0.00     0.022 A 
BRANCH  61  64
ATOM     64  S   UNL A   1      35.226  32.545  29.535  1.00  0.00     0.127 S 
ATOM     65  O   UNL A   1      36.091  33.584  28.978  1.00  0.00    -0.237 OA
ATOM     66  O   UNL A   1      34.708  31.591  28.553  1.00  0.00    -0.237 OA
ATOM     67  O   UNL A   1      34.250  33.008  30.511  1.00  0.00    -0.744 OA
ENDBRANCH  61  64
ENDBRANCH  43  57
BRANCH  44  68
ATOM     68  C   UNL A   1      46.952  27.355  26.303  1.00  0.00     0.023 A 
ATOM     69  C   UNL A   1      47.050  27.654  24.930  1.00  0.00     0.012 A 
ATOM     70  C   UNL A   1      48.014  26.678  26.934  1.00  0.00     0.148 A 
ATOM     71  C   UNL A   1      48.165  27.251  24.191  1.00  0.00     0.002 A 
ATOM     72  C   UNL A   1      49.145  26.330  26.204  1.00  0.00     0.091 A 
ATOM     73  F   UNL A   1      47.895  26.377  28.234  1.00  0.00    -0.205 F 
ATOM     74  C   UNL A   1      49.215  26.598  24.829  1.00  0.00     0.022 A 
BRANCH  72  75
ATOM     75  S   UNL A   1      50.594  25.608  26.984  1.00  0.00     0.127 S 
ATOM     76  O   UNL A   1      50.055  24.367  27.530  1.00  0.00    -0.237 OA
ATOM     77  O   UNL A   1      51.502  25.440  25.847  1.00  0.00    -0.237 OA
ATOM     78  O   UNL A   1      51.039  26.598  27.957  1.00  0.00    -0.744 OA
ENDBRANCH  72  75
ENDBRANCH  44  68
BRANCH  56  79
ATOM     79  C   UNL A   1      44.915  33.286  29.381  1.00  0.00     0.023 A 
ATOM     80  C   UNL A   1      45.743  33.527  30.495  1.00  0.00     0.012 A 
ATOM     81  C   UNL A   1      44.796  34.269  28.379  1.00  0.00     0.148 A 
ATOM     82  C   UNL A   1      46.427  34.735  30.619  1.00  0.00     0.002 A 
ATOM     83  C   UNL A   1      45.517  35.453  28.487  1.00  0.00     0.091 A 
ATOM     84  F   UNL A   1      43.992  34.025  27.335  1.00  0.00    -0.205 F 
ATOM     85  C   UNL A   1      46.325  35.691  29.611  1.00  0.00     0.022 A 
BRANCH  83  86
ATOM     86  S   UNL A   1      45.526  36.698  27.192  1.00  0.00     0.127 S 
ATOM     87  O   UNL A   1      46.426  37.704  27.754  1.00  0.00    -0.237 OA
ATOM     88  O   UNL A   1      46.072  35.958  26.053  1.00  0.00    -0.237 OA
ATOM     89  O   UNL A   1      44.142  37.120  27.030  1.00  0.00    -0.744 OA
ENDBRANCH  83  86
ENDBRANCH  56  79
ENDBRANCH  30  31
ENDBRANCH  23  25
ENDBRANCH  22  23
ENDBRANCH  21  22
ENDBRANCH   1  21
TORSDOF 17
ENDMDL
MODEL 2
REMARK VINA RESULT:     -11.4      5.350     10.457
REMARK SMILES O=C(C[C@H]1CN(S(=O)(=O)N2CCCCC2)CCO1)OCCOC(=O)c1ccc(-c2c3nc(c(-c4cccc(S(=O)(=O)[O-])c4F)c4ccc([nH]4)c(-c4cccc(S(=O)(=O)[O-])c4F)c4nc(c(-c5cccc(S(=O)(=O)[O-])c5F)c5ccc2[nH]5)C=C4)C=C3)cc1
REMARK SMILES IDX 20 1 19 2 2 3 1 4 3 5 4 6 5 7 18 8 6 9 17 10 16 11 7 12 8 13
REMARK SMILES IDX 9 14 10 15 11 16 15 17 12 18 14 19 13 20 21 21 22 22 23 23
REMARK SMILES IDX 24 24 25 25 26 26 87 27 27 28 86 29 28 30 29 31 30 32 80 33
REMARK SMILES IDX 31 34 85 35 79 36 81 37 32 38 84 39 78 40 77 41 33 43 65 44
REMARK SMILES IDX 45 45 64 46 46 47 49 48 63 49 82 50 47 51 48 52 62 54 83 55
REMARK SMILES IDX 50 56 34 57 35 58 43 59 36 60 38 61 44 62 37 63 39 64 40 65
REMARK SMILES IDX 41 66 42 67 66 68 67 69 75 70 68 71 70 72 76 73 69 74 71 75
REMARK SMILES IDX 72 76 73 77 74 78 51 79 52 80 60 81 53 82 55 83 61 84 54 85
REMARK SMILES IDX 56 86 57 87 58 88 59 89
REMARK H PARENT 81 42 49 53
REMARK Flexibility Score: inf
ROOT
ATOM      1  C   UNL A   1      31.812  30.688  26.263  1.00  0.00     0.274 C 
ENDROOT
BRANCH   1   2
ATOM      2  O   UNL A   1      32.229  29.705  27.234  1.00  0.00    -0.462 OA
BRANCH   2   3
ATOM      3  C   UNL A   1      31.741  28.446  27.076  1.00  0.00     0.308 C 
ATOM      4  O   UNL A   1      31.184  27.797  27.952  1.00  0.00    -0.252 OA
BRANCH   3   5
ATOM      5  C   UNL A   1      31.998  27.903  25.689  1.00  0.00     0.156 C 
BRANCH   5   6
ATOM      6  C   UNL A   1      33.465  27.657  25.303  1.00  0.00     0.144 C 
ATOM      7  C   UNL A   1      33.824  26.228  24.880  1.00  0.00     0.136 C 
ATOM      8  O   UNL A   1      33.975  28.576  24.328  1.00  0.00    -0.375 OA
ATOM      9  N   UNL A   1      33.036  25.895  23.662  1.00  0.00    -0.184 NA
ATOM     10  C   UNL A   1      33.540  28.317  22.994  1.00  0.00     0.177 C 
ATOM     11  C   UNL A   1      33.509  26.834  22.567  1.00  0.00     0.132 C 
BRANCH   9  12
ATOM     12  S   UNL A   1      33.033  24.291  23.136  1.00  0.00     0.282 S 
ATOM     13  O   UNL A   1      31.746  23.728  23.494  1.00  0.00    -0.195 OA
ATOM     14  O   UNL A   1      33.430  24.322  21.744  1.00  0.00    -0.195 OA
BRANCH  12  15
ATOM     15  N   UNL A   1      34.196  23.384  23.986  1.00  0.00    -0.189 NA
ATOM     16  C   UNL A   1      33.633  22.030  24.320  1.00  0.00     0.103 C 
ATOM     17  C   UNL A   1      35.583  23.279  23.488  1.00  0.00     0.103 C 
ATOM     18  C   UNL A   1      34.535  21.228  25.252  1.00  0.00     0.017 C 
ATOM     19  C   UNL A   1      36.482  22.541  24.477  1.00  0.00     0.017 C 
ATOM     20  C   UNL A   1      35.955  21.137  24.718  1.00  0.00     0.003 C 
ENDBRANCH  12  15
ENDBRANCH   9  12
ENDBRANCH   5   6
ENDBRANCH   3   5
ENDBRANCH   2   3
ENDBRANCH   1   2
BRANCH   1  21
ATOM     21  C   UNL A   1      31.634  32.046  26.944  1.00  0.00     0.275 C 
BRANCH  21  22
ATOM     22  O   UNL A   1      32.812  32.847  26.799  1.00  0.00    -0.458 OA
BRANCH  22  23
ATOM     23  C   UNL A   1      33.165  33.571  27.893  1.00  0.00     0.338 C 
ATOM     24  O   UNL A   1      32.492  34.417  28.442  1.00  0.00    -0.246 OA
BRANCH  23  25
ATOM     25  C   UNL A   1      34.442  33.009  28.409  1.00  0.00     0.060 A 
ATOM     26  C   UNL A   1      34.405  31.805  29.128  1.00  0.00     0.016 A 
ATOM     27  C   UNL A   1      35.672  33.614  28.127  1.00  0.00     0.016 A 
ATOM     28  C   UNL A   1      35.587  31.226  29.595  1.00  0.00     0.010 A 
ATOM     29  C   UNL A   1      36.851  33.041  28.596  1.00  0.00     0.010 A 
ATOM     30  C   UNL A   1      36.811  31.863  29.359  1.00  0.00    -0.014 A 
BRANCH  30  31
ATOM     31  C   UNL A   1      38.042  31.455  30.071  1.00  0.00     0.031 A 
ATOM     32  C   UNL A   1      38.893  30.393  29.433  1.00  0.00     0.074 A 
ATOM     33  C   UNL A   1      38.328  31.916  31.302  1.00  0.00     0.049 A 
ATOM     34  N   UNL A   1      39.917  29.748  29.921  1.00  0.00    -0.248 NA
ATOM     35  C   UNL A   1      38.522  29.990  28.063  1.00  0.00     0.031 C 
ATOM     36  C   UNL A   1      37.562  32.928  32.027  1.00  0.00     0.029 A 
ATOM     37  N   UNL A   1      39.315  31.544  32.181  1.00  0.00    -0.354 N 
ATOM     38  C   UNL A   1      40.287  28.836  28.940  1.00  0.00     0.074 A 
ATOM     39  C   UNL A   1      39.386  29.014  27.825  1.00  0.00     0.031 C 
ATOM     40  C   UNL A   1      38.074  33.056  33.265  1.00  0.00     0.029 A 
ATOM     41  C   UNL A   1      39.182  32.115  33.427  1.00  0.00     0.049 A 
ATOM     42  H   UNL A   1      40.046  30.929  31.944  1.00  0.00     0.167 HD
ATOM     43  C   UNL A   1      41.289  27.931  28.968  1.00  0.00     0.034 A 
ATOM     44  C   UNL A   1      39.851  31.869  34.572  1.00  0.00     0.034 A 
ATOM     45  C   UNL A   1      42.195  27.769  30.068  1.00  0.00     0.049 A 
ATOM     46  C   UNL A   1      40.955  30.839  34.575  1.00  0.00     0.074 A 
ATOM     47  C   UNL A   1      43.303  26.945  30.152  1.00  0.00     0.029 A 
ATOM     48  N   UNL A   1      42.082  28.420  31.284  1.00  0.00    -0.354 N 
ATOM     49  N   UNL A   1      41.412  30.113  33.583  1.00  0.00    -0.248 NA
ATOM     50  C   UNL A   1      41.648  30.606  35.852  1.00  0.00     0.031 C 
ATOM     51  C   UNL A   1      43.842  27.076  31.435  1.00  0.00     0.029 A 
ATOM     52  C   UNL A   1      43.082  27.995  32.139  1.00  0.00     0.049 A 
ATOM     53  H   UNL A   1      41.392  29.087  31.506  1.00  0.00     0.167 HD
ATOM     54  C   UNL A   1      42.460  29.362  34.109  1.00  0.00     0.074 A 
ATOM     55  C   UNL A   1      42.589  29.740  35.500  1.00  0.00     0.031 C 
ATOM     56  C   UNL A   1      43.233  28.426  33.503  1.00  0.00     0.034 A 
BRANCH  43  57
ATOM     57  C   UNL A   1      41.477  27.054  27.763  1.00  0.00     0.023 A 
ATOM     58  C   UNL A   1      42.112  27.572  26.617  1.00  0.00     0.012 A 
ATOM     59  C   UNL A   1      41.094  25.699  27.796  1.00  0.00     0.148 A 
ATOM     60  C   UNL A   1      42.353  26.756  25.514  1.00  0.00     0.002 A 
ATOM     61  C   UNL A   1      41.371  24.883  26.708  1.00  0.00     0.091 A 
ATOM     62  F   UNL A   1      40.467  25.240  28.889  1.00  0.00    -0.205 F 
ATOM     63  C   UNL A   1      41.994  25.411  25.563  1.00  0.00     0.022 A 
BRANCH  61  64
ATOM     64  S   UNL A   1      41.011  23.124  26.697  1.00  0.00     0.127 S 
ATOM     65  O   UNL A   1      41.487  22.718  28.019  1.00  0.00    -0.237 OA
ATOM     66  O   UNL A   1      39.555  23.112  26.543  1.00  0.00    -0.237 OA
ATOM     67  O   UNL A   1      41.750  22.567  25.574  1.00  0.00    -0.744 OA
ENDBRANCH  61  64
ENDBRANCH  43  57
BRANCH  44  68
ATOM     68  C   UNL A   1      39.504  32.603  35.823  1.00  0.00     0.023 A 
ATOM     69  C   UNL A   1      40.065  33.873  36.060  1.00  0.00     0.012 A 
ATOM     70  C   UNL A   1      38.641  32.045  36.786  1.00  0.00     0.148 A 
ATOM     71  C   UNL A   1      39.805  34.556  37.250  1.00  0.00     0.002 A 
ATOM     72  C   UNL A   1      38.342  32.756  37.944  1.00  0.00     0.091 A 
ATOM     73  F   UNL A   1      38.135  30.825  36.559  1.00  0.00    -0.205 F 
ATOM     74  C   UNL A   1      38.937  34.002  38.186  1.00  0.00     0.022 A 
BRANCH  72  75
ATOM     75  S   UNL A   1      37.129  32.169  39.132  1.00  0.00     0.127 S 
ATOM     76  O   UNL A   1      35.886  32.704  38.583  1.00  0.00    -0.237 OA
ATOM     77  O   UNL A   1      37.274  30.716  39.027  1.00  0.00    -0.237 OA
ATOM     78  O   UNL A   1      37.553  32.716  40.415  1.00  0.00    -0.744 OA
ENDBRANCH  72  75
ENDBRANCH  44  68
BRANCH  56  79
ATOM     79  C   UNL A   1      44.304  27.754  34.321  1.00  0.00     0.023 A 
ATOM     80  C   UNL A   1      45.546  28.395  34.497  1.00  0.00     0.012 A 
ATOM     81  C   UNL A   1      44.041  26.550  35.003  1.00  0.00     0.148 A 
ATOM     82  C   UNL A   1      46.520  27.834  35.322  1.00  0.00     0.002 A 
ATOM     83  C   UNL A   1      44.998  26.022  35.861  1.00  0.00     0.091 A 
ATOM     84  F   UNL A   1      42.857  25.952  34.811  1.00  0.00    -0.205 F 
ATOM     85  C   UNL A   1      46.242  26.657  36.014  1.00  0.00     0.022 A 
BRANCH  83  86
ATOM     86  S   UNL A   1      44.693  24.566  36.868  1.00  0.00     0.127 S 
ATOM     87  O   UNL A   1      46.022  24.298  37.414  1.00  0.00    -0.237 OA
ATOM     88  O   UNL A   1      43.720  25.061  37.843  1.00  0.00    -0.237 OA
ATOM     89  O   UNL A   1      44.174  23.551  35.961  1.00  0.00    -0.744 OA
ENDBRANCH  83  86
ENDBRANCH  56  79
ENDBRANCH  30  31
ENDBRANCH  23  25
ENDBRANCH  22  23
ENDBRANCH  21  22
ENDBRANCH   1  21
TORSDOF 17
ENDMDL
MODEL 3
REMARK VINA RESULT:     -11.4      4.825      9.957
REMARK SMILES O=C(C[C@H]1CN(S(=O)(=O)N2CCCCC2)CCO1)OCCOC(=O)c1ccc(-c2c3nc(c(-c4cccc(S(=O)(=O)[O-])c4F)c4ccc([nH]4)c(-c4cccc(S(=O)(=O)[O-])c4F)c4nc(c(-c5cccc(S(=O)(=O)[O-])c5F)c5ccc2[nH]5)C=C4)C=C3)cc1
REMARK SMILES IDX 20 1 19 2 2 3 1 4 3 5 4 6 5 7 18 8 6 9 17 10 16 11 7 12 8 13
REMARK SMILES IDX 9 14 10 15 11 16 15 17 12 18 14 19 13 20 21 21 22 22 23 23
REMARK SMILES IDX 24 24 25 25 26 26 87 27 27 28 86 29 28 30 29 31 30 32 80 33
REMARK SMILES IDX 31 34 85 35 79 36 81 37 32 38 84 39 78 40 77 41 33 43 65 44
REMARK SMILES IDX 45 45 64 46 46 47 49 48 63 49 82 50 47 51 48 52 62 54 83 55
REMARK SMILES IDX 50 56 34 57 35 58 43 59 36 60 38 61 44 62 37 63 39 64 40 65
REMARK SMILES IDX 41 66 42 67 66 68 67 69 75 70 68 71 70 72 76 73 69 74 71 75
REMARK SMILES IDX 72 76 73 77 74 78 51 79 52 80 60 81 53 82 55 83 61 84 54 85
REMARK SMILES IDX 56 86 57 87 58 88 59 89
REMARK H PARENT 81 42 49 53
REMARK Flexibility Score: inf
ROOT
ATOM      1  C   UNL A   1      31.649  29.004  24.551  1.00  0.00     0.274 C 
ENDROOT
BRANCH   1   2
ATOM      2  O   UNL A   1      32.041  28.537  23.244  1.00  0.00    -0.462 OA
BRANCH   2   3
ATOM      3  C   UNL A   1      31.544  27.334  22.851  1.00  0.00     0.308 C 
ATOM      4  O   UNL A   1      31.006  27.117  21.772  1.00  0.00    -0.252 OA
BRANCH   3   5
ATOM      5  C   UNL A   1      31.692  26.277  23.921  1.00  0.00     0.156 C 
BRANCH   5   6
ATOM      6  C   UNL A   1      30.514  25.309  24.106  1.00  0.00     0.144 C 
ATOM      7  C   UNL A   1      30.744  23.865  23.647  1.00  0.00     0.136 C 
ATOM      8  O   UNL A   1      29.969  25.297  25.432  1.00  0.00    -0.375 OA
ATOM      9  N   UNL A   1      31.853  23.294  24.458  1.00  0.00    -0.184 NA
ATOM     10  C   UNL A   1      30.757  24.582  26.383  1.00  0.00     0.177 C 
ATOM     11  C   UNL A   1      31.363  23.249  25.895  1.00  0.00     0.132 C 
BRANCH   9  12
ATOM     12  S   UNL A   1      32.496  21.806  23.983  1.00  0.00     0.282 S 
ATOM     13  O   UNL A   1      32.006  20.813  24.919  1.00  0.00    -0.195 OA
ATOM     14  O   UNL A   1      32.188  21.666  22.575  1.00  0.00    -0.195 OA
BRANCH  12  15
ATOM     15  N   UNL A   1      34.190  21.811  24.145  1.00  0.00    -0.189 NA
ATOM     16  C   UNL A   1      34.771  22.938  23.337  1.00  0.00     0.103 C 
ATOM     17  C   UNL A   1      34.822  21.726  25.478  1.00  0.00     0.103 C 
ATOM     18  C   UNL A   1      36.293  22.893  23.267  1.00  0.00     0.017 C 
ATOM     19  C   UNL A   1      36.340  21.602  25.375  1.00  0.00     0.017 C 
ATOM     20  C   UNL A   1      36.917  22.805  24.651  1.00  0.00     0.003 C 
ENDBRANCH  12  15
ENDBRANCH   9  12
ENDBRANCH   5   6
ENDBRANCH   3   5
ENDBRANCH   2   3
ENDBRANCH   1   2
BRANCH   1  21
ATOM     21  C   UNL A   1      32.825  29.716  25.221  1.00  0.00     0.275 C 
BRANCH  21  22
ATOM     22  O   UNL A   1      32.542  29.984  26.599  1.00  0.00    -0.458 OA
BRANCH  22  23
ATOM     23  C   UNL A   1      33.015  31.165  27.074  1.00  0.00     0.338 C 
ATOM     24  O   UNL A   1      32.393  32.201  27.170  1.00  0.00    -0.246 OA
BRANCH  23  25
ATOM     25  C   UNL A   1      34.371  30.912  27.631  1.00  0.00     0.060 A 
ATOM     26  C   UNL A   1      34.695  29.612  28.046  1.00  0.00     0.016 A 
ATOM     27  C   UNL A   1      35.341  31.920  27.676  1.00  0.00     0.016 A 
ATOM     28  C   UNL A   1      35.971  29.327  28.538  1.00  0.00     0.010 A 
ATOM     29  C   UNL A   1      36.612  31.639  28.171  1.00  0.00     0.010 A 
ATOM     30  C   UNL A   1      36.922  30.350  28.635  1.00  0.00    -0.014 A 
BRANCH  30  31
ATOM     31  C   UNL A   1      38.171  30.172  29.408  1.00  0.00     0.031 A 
ATOM     32  C   UNL A   1      39.177  29.186  28.884  1.00  0.00     0.074 A 
ATOM     33  C   UNL A   1      38.349  30.769  30.600  1.00  0.00     0.049 A 
ATOM     34  N   UNL A   1      40.260  28.729  29.450  1.00  0.00    -0.248 NA
ATOM     35  C   UNL A   1      38.910  28.625  27.546  1.00  0.00     0.031 C 
ATOM     36  C   UNL A   1      37.432  31.725  31.216  1.00  0.00     0.029 A 
ATOM     37  N   UNL A   1      39.345  30.608  31.531  1.00  0.00    -0.354 N 
ATOM     38  C   UNL A   1      40.781  27.797  28.562  1.00  0.00     0.074 A 
ATOM     39  C   UNL A   1      39.904  27.758  27.415  1.00  0.00     0.031 C 
ATOM     40  C   UNL A   1      37.878  32.023  32.450  1.00  0.00     0.029 A 
ATOM     41  C   UNL A   1      39.095  31.257  32.719  1.00  0.00     0.049 A 
ATOM     42  H   UNL A   1      40.160  30.080  31.366  1.00  0.00     0.167 HD
ATOM     43  C   UNL A   1      41.893  27.040  28.691  1.00  0.00     0.034 A 
ATOM     44  C   UNL A   1      39.750  31.200  33.896  1.00  0.00     0.034 A 
ATOM     45  C   UNL A   1      42.774  27.094  29.823  1.00  0.00     0.049 A 
ATOM     46  C   UNL A   1      40.981  30.332  34.015  1.00  0.00     0.074 A 
ATOM     47  C   UNL A   1      43.977  26.437  30.004  1.00  0.00     0.029 A 
ATOM     48  N   UNL A   1      42.532  27.823  30.974  1.00  0.00    -0.354 N 
ATOM     49  N   UNL A   1      41.564  29.595  33.101  1.00  0.00    -0.248 NA
ATOM     50  C   UNL A   1      41.653  30.303  35.324  1.00  0.00     0.031 C 
ATOM     51  C   UNL A   1      44.449  26.746  31.282  1.00  0.00     0.029 A 
ATOM     52  C   UNL A   1      43.550  27.610  31.886  1.00  0.00     0.049 A 
ATOM     53  H   UNL A   1      41.753  28.407  31.121  1.00  0.00     0.167 HD
ATOM     54  C   UNL A   1      42.683  29.039  33.715  1.00  0.00     0.074 A 
ATOM     55  C   UNL A   1      42.712  29.545  35.070  1.00  0.00     0.031 C 
ATOM     56  C   UNL A   1      43.594  28.169  33.211  1.00  0.00     0.034 A 
BRANCH  43  57
ATOM     57  C   UNL A   1      42.237  26.101  27.572  1.00  0.00     0.023 A 
ATOM     58  C   UNL A   1      43.083  26.535  26.533  1.00  0.00     0.012 A 
ATOM     59  C   UNL A   1      41.786  24.767  27.592  1.00  0.00     0.148 A 
ATOM     60  C   UNL A   1      43.466  25.658  25.520  1.00  0.00     0.002 A 
ATOM     61  C   UNL A   1      42.201  23.888  26.600  1.00  0.00     0.091 A 
ATOM     62  F   UNL A   1      40.960  24.388  28.578  1.00  0.00    -0.205 F 
ATOM     63  C   UNL A   1      43.035  24.333  25.560  1.00  0.00     0.022 A 
BRANCH  61  64
ATOM     64  S   UNL A   1      41.758  22.149  26.598  1.00  0.00     0.127 S 
ATOM     65  O   UNL A   1      42.377  21.689  25.355  1.00  0.00    -0.237 OA
ATOM     66  O   UNL A   1      42.407  21.667  27.818  1.00  0.00    -0.237 OA
ATOM     67  O   UNL A   1      40.303  22.102  26.620  1.00  0.00    -0.744 OA
ENDBRANCH  61  64
ENDBRANCH  43  57
BRANCH  44  68
ATOM     68  C   UNL A   1      39.265  31.981  35.070  1.00  0.00     0.023 A 
ATOM     69  C   UNL A   1      38.272  31.433  35.906  1.00  0.00     0.012 A 
ATOM     70  C   UNL A   1      39.764  33.267  35.353  1.00  0.00     0.148 A 
ATOM     71  C   UNL A   1      37.757  32.167  36.977  1.00  0.00     0.002 A 
ATOM     72  C   UNL A   1      39.287  33.970  36.455  1.00  0.00     0.091 A 
ATOM     73  F   UNL A   1      40.689  33.787  34.534  1.00  0.00    -0.205 F 
ATOM     74  C   UNL A   1      38.271  33.430  37.257  1.00  0.00     0.022 A 
BRANCH  72  75
ATOM     75  S   UNL A   1      39.993  35.543  36.957  1.00  0.00     0.127 S 
ATOM     76  O   UNL A   1      41.417  35.227  37.022  1.00  0.00    -0.237 OA
ATOM     77  O   UNL A   1      39.605  36.421  35.851  1.00  0.00    -0.237 OA
ATOM     78  O   UNL A   1      39.349  35.866  38.224  1.00  0.00    -0.744 OA
ENDBRANCH  72  75
ENDBRANCH  44  68
BRANCH  56  79
ATOM     79  C   UNL A   1      44.716  27.719  34.109  1.00  0.00     0.023 A 
ATOM     80  C   UNL A   1      45.894  28.488  34.187  1.00  0.00     0.012 A 
ATOM     81  C   UNL A   1      44.559  26.603  34.954  1.00  0.00     0.148 A 
ATOM     82  C   UNL A   1      46.908  28.139  35.078  1.00  0.00     0.002 A 
ATOM     83  C   UNL A   1      45.554  26.288  35.872  1.00  0.00     0.091 A 
ATOM     84  F   UNL A   1      43.435  25.877  34.853  1.00  0.00    -0.205 F 
ATOM     85  C   UNL A   1      46.733  27.050  35.929  1.00  0.00     0.022 A 
BRANCH  83  86
ATOM     86  S   UNL A   1      45.374  24.966  37.074  1.00  0.00     0.127 S 
ATOM     87  O   UNL A   1      45.246  23.793  36.210  1.00  0.00    -0.237 OA
ATOM     88  O   UNL A   1      46.634  25.044  37.814  1.00  0.00    -0.237 OA
ATOM     89  O   UNL A   1      44.192  25.294  37.860  1.00  0.00    -0.744 OA
ENDBRANCH  83  86
ENDBRANCH  56  79
ENDBRANCH  30  31
ENDBRANCH  23  25
ENDBRANCH  22  23
ENDBRANCH  21  22
ENDBRANCH   1  21
TORSDOF 17
ENDMDL
