MODEL 1
REMARK VINA RESULT:     -11.7      0.000      0.000
REMARK SMILES Cc1cnc(C)c(N2CCC[C@@](CC3CC3)(C(=O)OCCOC(=O)c3ccc(-c4c5nc(c(-c6cccc(S(=O)(=O)[O-])c6F)c6ccc([nH]6)c(-c6cccc(S(=O)(=O)[O-])c6F)c6nc(c(-c7cccc(S(=O)(=O)[O-])c7F)c7ccc4[nH]7)C=C6)C=C5)cc3)C2)n1
REMARK SMILES IDX 21 1 20 2 19 3 17 4 18 5 12 6 8 7 9 8 88 9 10 10 11 11 7 12
REMARK SMILES IDX 1 13 2 14 3 15 89 16 4 17 5 18 6 19 13 20 14 21 15 22 16 23
REMARK SMILES IDX 22 24 23 25 24 26 25 27 26 28 87 29 27 30 86 31 28 32 29 33
REMARK SMILES IDX 30 34 80 35 31 36 85 37 79 38 81 39 32 40 84 41 78 42 77 43
REMARK SMILES IDX 33 45 65 46 45 47 64 48 46 49 49 50 63 51 82 52 47 53 48 54
REMARK SMILES IDX 62 56 83 57 50 58 34 59 35 60 43 61 36 62 38 63 44 64 37 65
REMARK SMILES IDX 39 66 40 67 41 68 42 69 66 70 67 71 75 72 68 73 70 74 76 75
REMARK SMILES IDX 69 76 71 77 72 78 73 79 74 80 51 81 52 82 60 83 53 84 55 85
REMARK SMILES IDX 61 86 54 87 56 88 57 89 58 90 59 91
REMARK H PARENT 81 44 49 55
REMARK Flexibility Score: inf
ROOT
ATOM      1  C   UNL A   1      37.779  20.568  24.940  1.00  0.00     0.275 C 
ENDROOT
BRANCH   1   2
ATOM      2  C   UNL A   1      36.263  20.703  24.946  1.00  0.00     0.274 C 
BRANCH   2   3
ATOM      3  O   UNL A   1      35.881  22.093  25.046  1.00  0.00    -0.462 OA
BRANCH   3   4
ATOM      4  C   UNL A   1      35.536  22.708  23.881  1.00  0.00     0.314 C 
ATOM      5  O   UNL A   1      36.318  22.907  22.958  1.00  0.00    -0.252 OA
BRANCH   4   6
ATOM      6  C   UNL A   1      34.089  23.200  23.866  1.00  0.00     0.086 C 
ATOM      7  N   UNL A   1      32.796  25.191  24.549  1.00  0.00    -0.354 N 
ATOM      8  C   UNL A   1      32.246  25.483  23.229  1.00  0.00     0.118 C 
ATOM      9  C   UNL A   1      34.136  24.601  24.538  1.00  0.00     0.137 C 
ATOM     10  C   UNL A   1      32.172  24.175  22.438  1.00  0.00     0.023 C 
ATOM     11  C   UNL A   1      33.503  23.407  22.446  1.00  0.00     0.022 C 
BRANCH   7  12
ATOM     12  C   UNL A   1      32.656  26.232  25.473  1.00  0.00     0.150 A 
ATOM     13  C   UNL A   1      34.698  28.935  26.916  1.00  0.00     0.068 C 
ATOM     14  C   UNL A   1      33.547  28.019  26.637  1.00  0.00     0.058 A 
ATOM     15  C   UNL A   1      32.374  28.127  27.371  1.00  0.00     0.135 A 
ATOM     16  N   UNL A   1      33.703  27.062  25.685  1.00  0.00    -0.233 NA
ATOM     17  N   UNL A   1      31.308  27.317  27.177  1.00  0.00    -0.256 NA
ATOM     18  C   UNL A   1      31.464  26.371  26.212  1.00  0.00     0.080 A 
ATOM     19  C   UNL A   1      30.335  25.400  26.046  1.00  0.00     0.071 C 
ENDBRANCH   7  12
BRANCH   6  20
ATOM     20  C   UNL A   1      33.245  22.275  24.779  1.00  0.00     0.024 C 
BRANCH  20  21
ATOM     21  C   UNL A   1      32.408  21.161  24.209  1.00  0.00    -0.010 C 
ATOM     22  C   UNL A   1      32.866  19.902  23.516  1.00  0.00     0.004 C 
ATOM     23  C   UNL A   1      32.358  19.832  24.926  1.00  0.00     0.004 C 
ENDBRANCH  20  21
ENDBRANCH   6  20
ENDBRANCH   4   6
ENDBRANCH   3   4
ENDBRANCH   2   3
ENDBRANCH   1   2
BRANCH   1  24
ATOM     24  O   UNL A   1      38.341  21.719  25.583  1.00  0.00    -0.458 OA
BRANCH  24  25
ATOM     25  C   UNL A   1      39.447  21.496  26.327  1.00  0.00     0.338 C 
ATOM     26  O   UNL A   1      40.029  20.438  26.490  1.00  0.00    -0.246 OA
BRANCH  25  27
ATOM     27  C   UNL A   1      39.902  22.770  26.909  1.00  0.00     0.060 A 
ATOM     28  C   UNL A   1      39.355  23.970  26.458  1.00  0.00     0.016 A 
ATOM     29  C   UNL A   1      40.957  22.780  27.818  1.00  0.00     0.016 A 
ATOM     30  C   UNL A   1      39.932  25.184  26.825  1.00  0.00     0.010 A 
ATOM     31  C   UNL A   1      41.459  24.002  28.275  1.00  0.00     0.010 A 
ATOM     32  C   UNL A   1      40.987  25.219  27.750  1.00  0.00    -0.014 A 
BRANCH  32  33
ATOM     33  C   UNL A   1      41.629  26.509  28.137  1.00  0.00     0.031 A 
ATOM     34  C   UNL A   1      40.847  27.536  28.917  1.00  0.00     0.074 A 
ATOM     35  C   UNL A   1      42.901  26.780  27.783  1.00  0.00     0.049 A 
ATOM     36  N   UNL A   1      41.142  28.786  29.166  1.00  0.00    -0.248 NA
ATOM     37  C   UNL A   1      39.550  27.109  29.469  1.00  0.00     0.031 C 
ATOM     38  C   UNL A   1      43.786  25.881  27.042  1.00  0.00     0.029 A 
ATOM     39  N   UNL A   1      43.675  27.895  28.003  1.00  0.00    -0.354 N 
ATOM     40  C   UNL A   1      40.029  29.321  29.805  1.00  0.00     0.074 A 
ATOM     41  C   UNL A   1      39.063  28.251  29.937  1.00  0.00     0.031 C 
ATOM     42  C   UNL A   1      44.989  26.458  26.905  1.00  0.00     0.029 A 
ATOM     43  C   UNL A   1      44.942  27.801  27.474  1.00  0.00     0.049 A 
ATOM     44  H   UNL A   1      43.354  28.686  28.494  1.00  0.00     0.167 HD
ATOM     45  C   UNL A   1      39.830  30.585  30.248  1.00  0.00     0.034 A 
ATOM     46  C   UNL A   1      45.944  28.700  27.421  1.00  0.00     0.034 A 
ATOM     47  C   UNL A   1      40.830  31.619  30.218  1.00  0.00     0.049 A 
ATOM     48  C   UNL A   1      45.725  30.075  27.989  1.00  0.00     0.074 A 
ATOM     49  C   UNL A   1      40.734  32.923  30.672  1.00  0.00     0.029 A 
ATOM     50  N   UNL A   1      42.119  31.457  29.736  1.00  0.00    -0.354 N 
ATOM     51  N   UNL A   1      44.671  30.556  28.603  1.00  0.00    -0.248 NA
ATOM     52  C   UNL A   1      46.833  31.033  27.856  1.00  0.00     0.031 C 
ATOM     53  C   UNL A   1      41.971  33.546  30.474  1.00  0.00     0.029 A 
ATOM     54  C   UNL A   1      42.835  32.630  29.895  1.00  0.00     0.049 A 
ATOM     55  H   UNL A   1      42.473  30.628  29.340  1.00  0.00     0.167 HD
ATOM     56  C   UNL A   1      44.986  31.871  28.925  1.00  0.00     0.074 A 
ATOM     57  C   UNL A   1      46.347  32.096  28.483  1.00  0.00     0.031 C 
ATOM     58  C   UNL A   1      44.206  32.819  29.498  1.00  0.00     0.034 A 
BRANCH  45  59
ATOM     59  C   UNL A   1      38.484  30.919  30.832  1.00  0.00     0.023 A 
ATOM     60  C   UNL A   1      38.214  30.623  32.182  1.00  0.00     0.012 A 
ATOM     61  C   UNL A   1      37.508  31.579  30.059  1.00  0.00     0.148 A 
ATOM     62  C   UNL A   1      36.982  30.956  32.748  1.00  0.00     0.002 A 
ATOM     63  C   UNL A   1      36.296  31.939  30.641  1.00  0.00     0.091 A 
ATOM     64  F   UNL A   1      37.771  31.827  28.768  1.00  0.00    -0.205 F 
ATOM     65  C   UNL A   1      36.030  31.621  31.981  1.00  0.00     0.022 A 
BRANCH  63  66
ATOM     66  S   UNL A   1      35.042  32.861  29.743  1.00  0.00     0.127 S 
ATOM     67  O   UNL A   1      35.842  33.905  29.103  1.00  0.00    -0.237 OA
ATOM     68  O   UNL A   1      34.508  31.855  28.825  1.00  0.00    -0.237 OA
ATOM     69  O   UNL A   1      34.094  33.318  30.750  1.00  0.00    -0.744 OA
ENDBRANCH  63  66
ENDBRANCH  45  59
BRANCH  46  70
ATOM     70  C   UNL A   1      47.257  28.310  26.834  1.00  0.00     0.023 A 
ATOM     71  C   UNL A   1      48.343  28.056  27.694  1.00  0.00     0.012 A 
ATOM     72  C   UNL A   1      47.425  28.126  25.449  1.00  0.00     0.148 A 
ATOM     73  C   UNL A   1      49.572  27.634  27.185  1.00  0.00     0.002 A 
ATOM     74  C   UNL A   1      48.632  27.643  24.953  1.00  0.00     0.091 A 
ATOM     75  F   UNL A   1      46.396  28.406  24.637  1.00  0.00    -0.205 F 
ATOM     76  C   UNL A   1      49.711  27.409  25.818  1.00  0.00     0.022 A 
BRANCH  74  77
ATOM     77  S   UNL A   1      48.812  27.176  23.228  1.00  0.00     0.127 S 
ATOM     78  O   UNL A   1      48.023  25.950  23.162  1.00  0.00    -0.237 OA
ATOM     79  O   UNL A   1      48.228  28.322  22.528  1.00  0.00    -0.237 OA
ATOM     80  O   UNL A   1      50.248  27.032  23.029  1.00  0.00    -0.744 OA
ENDBRANCH  74  77
ENDBRANCH  46  70
BRANCH  58  81
ATOM     81  C   UNL A   1      44.801  34.189  29.676  1.00  0.00     0.023 A 
ATOM     82  C   UNL A   1      45.467  34.494  30.880  1.00  0.00     0.012 A 
ATOM     83  C   UNL A   1      44.762  35.144  28.643  1.00  0.00     0.148 A 
ATOM     84  C   UNL A   1      46.068  35.739  31.061  1.00  0.00     0.002 A 
ATOM     85  C   UNL A   1      45.394  36.371  28.818  1.00  0.00     0.091 A 
ATOM     86  F   UNL A   1      44.101  34.845  27.515  1.00  0.00    -0.205 F 
ATOM     87  C   UNL A   1      46.040  36.673  30.028  1.00  0.00     0.022 A 
BRANCH  85  88
ATOM     88  S   UNL A   1      45.465  37.593  27.503  1.00  0.00     0.127 S 
ATOM     89  O   UNL A   1      46.174  36.864  26.454  1.00  0.00    -0.237 OA
ATOM     90  O   UNL A   1      44.050  37.841  27.222  1.00  0.00    -0.237 OA
ATOM     91  O   UNL A   1      46.170  38.735  28.070  1.00  0.00    -0.744 OA
ENDBRANCH  85  88
ENDBRANCH  58  81
ENDBRANCH  32  33
ENDBRANCH  25  27
ENDBRANCH  24  25
ENDBRANCH   1  24
TORSDOF 17
ENDMDL
MODEL 2
REMARK VINA RESULT:     -11.7      5.283     10.179
REMARK SMILES Cc1cnc(C)c(N2CCC[C@@](CC3CC3)(C(=O)OCCOC(=O)c3ccc(-c4c5nc(c(-c6cccc(S(=O)(=O)[O-])c6F)c6ccc([nH]6)c(-c6cccc(S(=O)(=O)[O-])c6F)c6nc(c(-c7cccc(S(=O)(=O)[O-])c7F)c7ccc4[nH]7)C=C6)C=C5)cc3)C2)n1
REMARK SMILES IDX 21 1 20 2 19 3 17 4 18 5 12 6 8 7 9 8 88 9 10 10 11 11 7 12
REMARK SMILES IDX 1 13 2 14 3 15 89 16 4 17 5 18 6 19 13 20 14 21 15 22 16 23
REMARK SMILES IDX 22 24 23 25 24 26 25 27 26 28 87 29 27 30 86 31 28 32 29 33
REMARK SMILES IDX 30 34 80 35 31 36 85 37 79 38 81 39 32 40 84 41 78 42 77 43
REMARK SMILES IDX 33 45 65 46 45 47 64 48 46 49 49 50 63 51 82 52 47 53 48 54
REMARK SMILES IDX 62 56 83 57 50 58 34 59 35 60 43 61 36 62 38 63 44 64 37 65
REMARK SMILES IDX 39 66 40 67 41 68 42 69 66 70 67 71 75 72 68 73 70 74 76 75
REMARK SMILES IDX 69 76 71 77 72 78 73 79 74 80 51 81 52 82 60 83 53 84 55 85
REMARK SMILES IDX 61 86 54 87 56 88 57 89 58 90 59 91
REMARK H PARENT 81 44 49 55
REMARK Flexibility Score: inf
ROOT
ATOM      1  C   UNL A   1      31.614  29.882  26.383  1.00  0.00     0.275 C 
ENDROOT
BRANCH   1   2
ATOM      2  C   UNL A   1      31.784  28.417  26.758  1.00  0.00     0.274 C 
BRANCH   2   3
ATOM      3  O   UNL A   1      31.167  27.567  25.765  1.00  0.00    -0.462 OA
BRANCH   3   4
ATOM      4  C   UNL A   1      31.426  26.235  25.867  1.00  0.00     0.314 C 
ATOM      5  O   UNL A   1      31.206  25.572  26.875  1.00  0.00    -0.252 OA
BRANCH   4   6
ATOM      6  C   UNL A   1      32.095  25.654  24.621  1.00  0.00     0.086 C 
ATOM      7  N   UNL A   1      33.033  23.504  23.846  1.00  0.00    -0.354 N 
ATOM      8  C   UNL A   1      32.171  23.368  22.677  1.00  0.00     0.118 C 
ATOM      9  C   UNL A   1      32.414  24.177  24.990  1.00  0.00     0.137 C 
ATOM     10  C   UNL A   1      31.753  24.768  22.221  1.00  0.00     0.023 C 
ATOM     11  C   UNL A   1      31.182  25.614  23.369  1.00  0.00     0.022 C 
BRANCH   7  12
ATOM     12  C   UNL A   1      33.717  22.334  24.196  1.00  0.00     0.150 A 
ATOM     13  C   UNL A   1      32.939  18.886  25.228  1.00  0.00     0.068 C 
ATOM     14  C   UNL A   1      33.702  20.126  24.877  1.00  0.00     0.058 A 
ATOM     15  C   UNL A   1      35.084  20.156  25.004  1.00  0.00     0.135 A 
ATOM     16  N   UNL A   1      33.003  21.221  24.481  1.00  0.00    -0.233 NA
ATOM     17  N   UNL A   1      35.825  21.250  24.720  1.00  0.00    -0.256 NA
ATOM     18  C   UNL A   1      35.121  22.339  24.309  1.00  0.00     0.080 A 
ATOM     19  C   UNL A   1      35.910  23.593  24.082  1.00  0.00     0.071 C 
ENDBRANCH   7  12
BRANCH   6  20
ATOM     20  C   UNL A   1      33.448  26.381  24.405  1.00  0.00     0.024 C 
BRANCH  20  21
ATOM     21  C   UNL A   1      33.655  27.326  23.253  1.00  0.00    -0.010 C 
ATOM     22  C   UNL A   1      32.981  28.649  22.989  1.00  0.00     0.004 C 
ATOM     23  C   UNL A   1      34.397  28.622  23.483  1.00  0.00     0.004 C 
ENDBRANCH  20  21
ENDBRANCH   6  20
ENDBRANCH   4   6
ENDBRANCH   3   4
ENDBRANCH   2   3
ENDBRANCH   1   2
BRANCH   1  24
ATOM     24  O   UNL A   1      32.913  30.449  26.165  1.00  0.00    -0.458 OA
BRANCH  24  25
ATOM     25  C   UNL A   1      33.293  31.403  27.044  1.00  0.00     0.338 C 
ATOM     26  O   UNL A   1      32.652  32.374  27.406  1.00  0.00    -0.246 OA
BRANCH  25  27
ATOM     27  C   UNL A   1      34.632  31.074  27.563  1.00  0.00     0.060 A 
ATOM     28  C   UNL A   1      34.962  29.748  27.833  1.00  0.00     0.016 A 
ATOM     29  C   UNL A   1      35.518  32.097  27.891  1.00  0.00     0.016 A 
ATOM     30  C   UNL A   1      36.127  29.445  28.536  1.00  0.00     0.010 A 
ATOM     31  C   UNL A   1      36.741  31.780  28.491  1.00  0.00     0.010 A 
ATOM     32  C   UNL A   1      37.041  30.457  28.865  1.00  0.00    -0.014 A 
BRANCH  32  33
ATOM     33  C   UNL A   1      38.282  30.153  29.634  1.00  0.00     0.031 A 
ATOM     34  C   UNL A   1      39.350  29.278  29.027  1.00  0.00     0.074 A 
ATOM     35  C   UNL A   1      38.458  30.637  30.881  1.00  0.00     0.049 A 
ATOM     36  N   UNL A   1      40.390  28.726  29.597  1.00  0.00    -0.248 NA
ATOM     37  C   UNL A   1      39.218  28.960  27.595  1.00  0.00     0.031 C 
ATOM     38  C   UNL A   1      37.522  31.507  31.593  1.00  0.00     0.029 A 
ATOM     39  N   UNL A   1      39.492  30.467  31.770  1.00  0.00    -0.354 N 
ATOM     40  C   UNL A   1      40.972  27.916  28.628  1.00  0.00     0.074 A 
ATOM     41  C   UNL A   1      40.188  28.072  27.422  1.00  0.00     0.031 C 
ATOM     42  C   UNL A   1      38.039  31.828  32.788  1.00  0.00     0.029 A 
ATOM     43  C   UNL A   1      39.304  31.123  32.966  1.00  0.00     0.049 A 
ATOM     44  H   UNL A   1      40.292  29.927  31.572  1.00  0.00     0.167 HD
ATOM     45  C   UNL A   1      42.061  27.119  28.730  1.00  0.00     0.034 A 
ATOM     46  C   UNL A   1      40.046  31.135  34.091  1.00  0.00     0.034 A 
ATOM     47  C   UNL A   1      42.905  27.048  29.894  1.00  0.00     0.049 A 
ATOM     48  C   UNL A   1      41.295  30.300  34.153  1.00  0.00     0.074 A 
ATOM     49  C   UNL A   1      44.051  26.294  30.081  1.00  0.00     0.029 A 
ATOM     50  N   UNL A   1      42.715  27.782  31.053  1.00  0.00    -0.354 N 
ATOM     51  N   UNL A   1      41.836  29.553  33.221  1.00  0.00    -0.248 NA
ATOM     52  C   UNL A   1      42.037  30.308  35.423  1.00  0.00     0.031 C 
ATOM     53  C   UNL A   1      44.559  26.582  31.354  1.00  0.00     0.029 A 
ATOM     54  C   UNL A   1      43.728  27.512  31.956  1.00  0.00     0.049 A 
ATOM     55  H   UNL A   1      41.968  28.404  31.211  1.00  0.00     0.167 HD
ATOM     56  C   UNL A   1      42.976  29.000  33.792  1.00  0.00     0.074 A 
ATOM     57  C   UNL A   1      43.076  29.536  35.133  1.00  0.00     0.031 C 
ATOM     58  C   UNL A   1      43.840  28.097  33.267  1.00  0.00     0.034 A 
BRANCH  45  59
ATOM     59  C   UNL A   1      42.426  26.274  27.540  1.00  0.00     0.023 A 
ATOM     60  C   UNL A   1      43.244  26.808  26.525  1.00  0.00     0.012 A 
ATOM     61  C   UNL A   1      42.005  24.932  27.454  1.00  0.00     0.148 A 
ATOM     62  C   UNL A   1      43.617  26.028  25.431  1.00  0.00     0.002 A 
ATOM     63  C   UNL A   1      42.410  24.150  26.377  1.00  0.00     0.091 A 
ATOM     64  F   UNL A   1      41.203  24.448  28.413  1.00  0.00    -0.205 F 
ATOM     65  C   UNL A   1      43.209  24.698  25.362  1.00  0.00     0.022 A 
BRANCH  63  66
ATOM     66  S   UNL A   1      41.988  22.408  26.248  1.00  0.00     0.127 S 
ATOM     67  O   UNL A   1      42.658  22.031  25.004  1.00  0.00    -0.237 OA
ATOM     68  O   UNL A   1      42.592  21.847  27.458  1.00  0.00    -0.237 OA
ATOM     69  O   UNL A   1      40.533  22.356  26.224  1.00  0.00    -0.744 OA
ENDBRANCH  63  66
ENDBRANCH  45  59
BRANCH  46  70
ATOM     70  C   UNL A   1      39.638  31.996  35.237  1.00  0.00     0.023 A 
ATOM     71  C   UNL A   1      39.951  33.369  35.208  1.00  0.00     0.012 A 
ATOM     72  C   UNL A   1      38.893  31.487  36.318  1.00  0.00     0.148 A 
ATOM     73  C   UNL A   1      39.536  34.216  36.236  1.00  0.00     0.002 A 
ATOM     74  C   UNL A   1      38.426  32.348  37.305  1.00  0.00     0.091 A 
ATOM     75  F   UNL A   1      38.632  30.173  36.353  1.00  0.00    -0.205 F 
ATOM     76  C   UNL A   1      38.758  33.710  37.274  1.00  0.00     0.022 A 
BRANCH  74  77
ATOM     77  S   UNL A   1      37.283  31.784  38.571  1.00  0.00     0.127 S 
ATOM     78  O   UNL A   1      37.026  30.408  38.155  1.00  0.00    -0.237 OA
ATOM     79  O   UNL A   1      38.075  31.920  39.795  1.00  0.00    -0.237 OA
ATOM     80  O   UNL A   1      36.156  32.703  38.492  1.00  0.00    -0.744 OA
ENDBRANCH  74  77
ENDBRANCH  46  70
BRANCH  58  81
ATOM     81  C   UNL A   1      44.967  27.627  34.145  1.00  0.00     0.023 A 
ATOM     82  C   UNL A   1      46.175  28.353  34.155  1.00  0.00     0.012 A 
ATOM     83  C   UNL A   1      44.815  26.522  35.003  1.00  0.00     0.148 A 
ATOM     84  C   UNL A   1      47.224  27.970  34.990  1.00  0.00     0.002 A 
ATOM     85  C   UNL A   1      45.854  26.168  35.858  1.00  0.00     0.091 A 
ATOM     86  F   UNL A   1      43.668  25.829  34.961  1.00  0.00    -0.205 F 
ATOM     87  C   UNL A   1      47.060  26.886  35.848  1.00  0.00     0.022 A 
BRANCH  85  88
ATOM     88  S   UNL A   1      45.685  24.830  37.045  1.00  0.00     0.127 S 
ATOM     89  O   UNL A   1      44.514  25.253  37.810  1.00  0.00    -0.237 OA
ATOM     90  O   UNL A   1      45.463  23.666  36.185  1.00  0.00    -0.237 OA
ATOM     91  O   UNL A   1      46.944  24.799  37.777  1.00  0.00    -0.744 OA
ENDBRANCH  85  88
ENDBRANCH  58  81
ENDBRANCH  32  33
ENDBRANCH  25  27
ENDBRANCH  24  25
ENDBRANCH   1  24
TORSDOF 17
ENDMDL
MODEL 3
REMARK VINA RESULT:     -11.7      5.060      9.981
REMARK SMILES Cc1cnc(C)c(N2CCC[C@@](CC3CC3)(C(=O)OCCOC(=O)c3ccc(-c4c5nc(c(-c6cccc(S(=O)(=O)[O-])c6F)c6ccc([nH]6)c(-c6cccc(S(=O)(=O)[O-])c6F)c6nc(c(-c7cccc(S(=O)(=O)[O-])c7F)c7ccc4[nH]7)C=C6)C=C5)cc3)C2)n1
REMARK SMILES IDX 21 1 20 2 19 3 17 4 18 5 12 6 8 7 9 8 88 9 10 10 11 11 7 12
REMARK SMILES IDX 1 13 2 14 3 15 89 16 4 17 5 18 6 19 13 20 14 21 15 22 16 23
REMARK SMILES IDX 22 24 23 25 24 26 25 27 26 28 87 29 27 30 86 31 28 32 29 33
REMARK SMILES IDX 30 34 80 35 31 36 85 37 79 38 81 39 32 40 84 41 78 42 77 43
REMARK SMILES IDX 33 45 65 46 45 47 64 48 46 49 49 50 63 51 82 52 47 53 48 54
REMARK SMILES IDX 62 56 83 57 50 58 34 59 35 60 43 61 36 62 38 63 44 64 37 65
REMARK SMILES IDX 39 66 40 67 41 68 42 69 66 70 67 71 75 72 68 73 70 74 76 75
REMARK SMILES IDX 69 76 71 77 72 78 73 79 74 80 51 81 52 82 60 83 53 84 55 85
REMARK SMILES IDX 61 86 54 87 56 88 57 89 58 90 59 91
REMARK H PARENT 81 44 49 55
REMARK Flexibility Score: inf
ROOT
ATOM      1  C   UNL A   1      32.112  30.190  25.336  1.00  0.00     0.275 C 
ENDROOT
BRANCH   1   2
ATOM      2  C   UNL A   1      31.275  28.940  25.103  1.00  0.00     0.274 C 
BRANCH   2   3
ATOM      3  O   UNL A   1      31.996  27.763  25.533  1.00  0.00    -0.462 OA
BRANCH   3   4
ATOM      4  C   UNL A   1      31.279  26.838  26.228  1.00  0.00     0.314 C 
ATOM      5  O   UNL A   1      30.656  27.088  27.253  1.00  0.00    -0.252 OA
BRANCH   4   6
ATOM      6  C   UNL A   1      31.391  25.429  25.646  1.00  0.00     0.086 C 
ATOM      7  N   UNL A   1      33.139  23.753  25.156  1.00  0.00    -0.354 N 
ATOM      8  C   UNL A   1      32.571  22.688  25.977  1.00  0.00     0.118 C 
ATOM      9  C   UNL A   1      32.912  25.107  25.666  1.00  0.00     0.137 C 
ATOM     10  C   UNL A   1      31.058  22.904  26.067  1.00  0.00     0.023 C 
ATOM     11  C   UNL A   1      30.692  24.334  26.492  1.00  0.00     0.022 C 
BRANCH   7  12
ATOM     12  C   UNL A   1      34.459  23.527  24.753  1.00  0.00     0.150 A 
ATOM     13  C   UNL A   1      37.860  23.869  26.123  1.00  0.00     0.068 C 
ATOM     14  C   UNL A   1      36.730  23.590  25.182  1.00  0.00     0.058 A 
ATOM     15  C   UNL A   1      36.988  23.211  23.872  1.00  0.00     0.135 A 
ATOM     16  N   UNL A   1      35.460  23.761  25.634  1.00  0.00    -0.233 NA
ATOM     17  N   UNL A   1      36.010  22.964  22.972  1.00  0.00    -0.256 NA
ATOM     18  C   UNL A   1      34.740  23.121  23.434  1.00  0.00     0.080 A 
ATOM     19  C   UNL A   1      33.641  22.947  22.429  1.00  0.00     0.071 C 
ENDBRANCH   7  12
BRANCH   6  20
ATOM     20  C   UNL A   1      30.945  25.473  24.161  1.00  0.00     0.024 C 
BRANCH  20  21
ATOM     21  C   UNL A   1      31.810  26.101  23.102  1.00  0.00    -0.010 C 
ATOM     22  C   UNL A   1      31.820  25.834  21.617  1.00  0.00     0.004 C 
ATOM     23  C   UNL A   1      31.199  27.096  22.142  1.00  0.00     0.004 C 
ENDBRANCH  20  21
ENDBRANCH   6  20
ENDBRANCH   4   6
ENDBRANCH   3   4
ENDBRANCH   2   3
ENDBRANCH   1   2
BRANCH   1  24
ATOM     24  O   UNL A   1      32.318  30.343  26.747  1.00  0.00    -0.458 OA
BRANCH  24  25
ATOM     25  C   UNL A   1      32.927  31.487  27.132  1.00  0.00     0.338 C 
ATOM     26  O   UNL A   1      32.467  32.615  27.106  1.00  0.00    -0.246 OA
BRANCH  25  27
ATOM     27  C   UNL A   1      34.269  31.170  27.649  1.00  0.00     0.060 A 
ATOM     28  C   UNL A   1      34.615  29.845  27.904  1.00  0.00     0.016 A 
ATOM     29  C   UNL A   1      35.142  32.200  27.991  1.00  0.00     0.016 A 
ATOM     30  C   UNL A   1      35.782  29.548  28.606  1.00  0.00     0.010 A 
ATOM     31  C   UNL A   1      36.367  31.891  28.590  1.00  0.00     0.010 A 
ATOM     32  C   UNL A   1      36.683  30.567  28.949  1.00  0.00    -0.014 A 
BRANCH  32  33
ATOM     33  C   UNL A   1      37.927  30.270  29.717  1.00  0.00     0.031 A 
ATOM     34  C   UNL A   1      39.011  29.425  29.097  1.00  0.00     0.074 A 
ATOM     35  C   UNL A   1      38.090  30.733  30.973  1.00  0.00     0.049 A 
ATOM     36  N   UNL A   1      40.059  28.880  29.661  1.00  0.00    -0.248 NA
ATOM     37  C   UNL A   1      38.889  29.131  27.659  1.00  0.00     0.031 C 
ATOM     38  C   UNL A   1      37.137  31.573  31.697  1.00  0.00     0.029 A 
ATOM     39  N   UNL A   1      39.123  30.564  31.863  1.00  0.00    -0.354 N 
ATOM     40  C   UNL A   1      40.657  28.098  28.679  1.00  0.00     0.074 A 
ATOM     41  C   UNL A   1      39.875  28.264  27.473  1.00  0.00     0.031 C 
ATOM     42  C   UNL A   1      37.644  31.880  32.901  1.00  0.00     0.029 A 
ATOM     43  C   UNL A   1      38.920  31.194  33.070  1.00  0.00     0.049 A 
ATOM     44  H   UNL A   1      39.933  30.042  31.658  1.00  0.00     0.167 HD
ATOM     45  C   UNL A   1      41.760  27.318  28.770  1.00  0.00     0.034 A 
ATOM     46  C   UNL A   1      39.658  31.197  34.198  1.00  0.00     0.034 A 
ATOM     47  C   UNL A   1      42.601  27.239  29.935  1.00  0.00     0.049 A 
ATOM     48  C   UNL A   1      40.920  30.382  34.249  1.00  0.00     0.074 A 
ATOM     49  C   UNL A   1      43.758  26.502  30.113  1.00  0.00     0.029 A 
ATOM     50  N   UNL A   1      42.394  27.948  31.108  1.00  0.00    -0.354 N 
ATOM     51  N   UNL A   1      41.477  29.663  33.305  1.00  0.00    -0.248 NA
ATOM     52  C   UNL A   1      41.658  30.379  35.522  1.00  0.00     0.031 C 
ATOM     53  C   UNL A   1      44.257  26.773  31.393  1.00  0.00     0.029 A 
ATOM     54  C   UNL A   1      43.408  27.679  32.009  1.00  0.00     0.049 A 
ATOM     55  H   UNL A   1      41.636  28.555  31.274  1.00  0.00     0.167 HD
ATOM     56  C   UNL A   1      42.624  29.118  33.870  1.00  0.00     0.074 A 
ATOM     57  C   UNL A   1      42.711  29.630  35.221  1.00  0.00     0.031 C 
ATOM     58  C   UNL A   1      43.506  28.240  33.332  1.00  0.00     0.034 A 
BRANCH  45  59
ATOM     59  C   UNL A   1      42.143  26.501  27.565  1.00  0.00     0.023 A 
ATOM     60  C   UNL A   1      42.803  27.117  26.484  1.00  0.00     0.012 A 
ATOM     61  C   UNL A   1      41.900  25.114  27.529  1.00  0.00     0.148 A 
ATOM     62  C   UNL A   1      43.193  26.368  25.374  1.00  0.00     0.002 A 
ATOM     63  C   UNL A   1      42.324  24.369  26.434  1.00  0.00     0.091 A 
ATOM     64  F   UNL A   1      41.244  24.550  28.554  1.00  0.00    -0.205 F 
ATOM     65  C   UNL A   1      42.963  24.995  25.353  1.00  0.00     0.022 A 
BRANCH  63  66
ATOM     66  S   UNL A   1      42.129  22.584  26.359  1.00  0.00     0.127 S 
ATOM     67  O   UNL A   1      42.664  22.281  25.033  1.00  0.00    -0.237 OA
ATOM     68  O   UNL A   1      42.966  22.129  27.471  1.00  0.00    -0.237 OA
ATOM     69  O   UNL A   1      40.706  22.334  26.540  1.00  0.00    -0.744 OA
ENDBRANCH  63  66
ENDBRANCH  45  59
BRANCH  46  70
ATOM     70  C   UNL A   1      39.231  32.029  35.358  1.00  0.00     0.023 A 
ATOM     71  C   UNL A   1      38.407  31.456  36.346  1.00  0.00     0.012 A 
ATOM     72  C   UNL A   1      39.680  33.353  35.526  1.00  0.00     0.148 A 
ATOM     73  C   UNL A   1      38.034  32.188  37.474  1.00  0.00     0.002 A 
ATOM     74  C   UNL A   1      39.359  34.054  36.683  1.00  0.00     0.091 A 
ATOM     75  F   UNL A   1      40.434  33.900  34.562  1.00  0.00    -0.205 F 
ATOM     76  C   UNL A   1      38.524  33.479  37.652  1.00  0.00     0.022 A 
BRANCH  74  77
ATOM     77  S   UNL A   1      40.098  35.651  37.042  1.00  0.00     0.127 S 
ATOM     78  O   UNL A   1      39.654  36.453  35.905  1.00  0.00    -0.237 OA
ATOM     79  O   UNL A   1      39.481  36.004  38.322  1.00  0.00    -0.237 OA
ATOM     80  O   UNL A   1      41.528  35.390  37.128  1.00  0.00    -0.744 OA
ENDBRANCH  74  77
ENDBRANCH  46  70
BRANCH  58  81
ATOM     81  C   UNL A   1      44.637  27.773  34.205  1.00  0.00     0.023 A 
ATOM     82  C   UNL A   1      45.845  28.500  34.208  1.00  0.00     0.012 A 
ATOM     83  C   UNL A   1      44.491  26.669  35.065  1.00  0.00     0.148 A 
ATOM     84  C   UNL A   1      46.898  28.120  35.038  1.00  0.00     0.002 A 
ATOM     85  C   UNL A   1      45.534  26.317  35.916  1.00  0.00     0.091 A 
ATOM     86  F   UNL A   1      43.344  25.974  35.030  1.00  0.00    -0.205 F 
ATOM     87  C   UNL A   1      46.740  27.037  35.898  1.00  0.00     0.022 A 
BRANCH  85  88
ATOM     88  S   UNL A   1      45.373  24.981  37.105  1.00  0.00     0.127 S 
ATOM     89  O   UNL A   1      45.193  23.822  36.233  1.00  0.00    -0.237 OA
ATOM     90  O   UNL A   1      46.658  25.021  37.806  1.00  0.00    -0.237 OA
ATOM     91  O   UNL A   1      44.229  25.334  37.935  1.00  0.00    -0.744 OA
ENDBRANCH  85  88
ENDBRANCH  58  81
ENDBRANCH  32  33
ENDBRANCH  25  27
ENDBRANCH  24  25
ENDBRANCH   1  24
TORSDOF 17
ENDMDL
