MODEL 1
REMARK VINA RESULT:     -12.8      0.000      0.000
REMARK SMILES Cc1c(Cl)cccc1NC(=O)NCc1cn([C@@H]2C[NH2+][C@H](C(=O)OCCOC(=O)c3ccc(-c4c5nc(c(-c6cccc(S(=O)(=O)[O-])c6F)c6ccc([nH]6)c(-c6cccc(S(=O)(=O)[O-])c6F)c6nc(c(-c7cccc(S(=O)(=O)[O-])c7F)c7ccc4[nH]7)C=C6)C=C5)cc3)C2)nn1
REMARK SMILES IDX 24 1 23 2 21 3 22 4 20 5 17 6 18 7 92 8 19 9 16 12 14 13
REMARK SMILES IDX 15 14 94 15 93 16 13 17 12 18 9 19 10 20 11 22 8 24 1 25
REMARK SMILES IDX 2 26 3 27 4 28 5 29 7 30 6 31 25 32 26 33 27 34 28 35 29 36
REMARK SMILES IDX 30 37 91 38 31 39 90 40 32 41 33 42 34 43 84 44 35 45 89 46
REMARK SMILES IDX 83 47 85 48 36 49 88 50 82 51 81 52 37 54 69 55 49 56 68 57
REMARK SMILES IDX 50 58 53 59 67 60 86 61 51 62 52 63 66 65 87 66 54 67 38 68
REMARK SMILES IDX 39 69 47 70 40 71 42 72 48 73 41 74 43 75 44 76 45 77 46 78
REMARK SMILES IDX 70 79 71 80 79 81 72 82 74 83 80 84 73 85 75 86 76 87 77 88
REMARK SMILES IDX 78 89 55 90 56 91 64 92 57 93 59 94 65 95 58 96 60 97 61 98
REMARK SMILES IDX 62 99 63 100
REMARK H PARENT 19 10 19 11 9 21 12 23 85 53 53 64
REMARK Flexibility Score: inf
ROOT
ATOM      1  C   UNL A   1      32.613  30.753  27.125  1.00  0.00     0.274 C 
ENDROOT
BRANCH   1   2
ATOM      2  O   UNL A   1      33.216  29.510  26.731  1.00  0.00    -0.458 OA
BRANCH   2   3
ATOM      3  C   UNL A   1      32.479  28.710  25.910  1.00  0.00     0.365 C 
ATOM      4  O   UNL A   1      31.913  27.684  26.277  1.00  0.00    -0.245 OA
BRANCH   3   5
ATOM      5  C   UNL A   1      32.344  29.276  24.482  1.00  0.00     0.295 C 
ATOM      6  C   UNL A   1      32.633  27.890  22.494  1.00  0.00     0.170 C 
ATOM      7  C   UNL A   1      33.968  28.399  23.026  1.00  0.00     0.289 C 
ATOM      8  C   UNL A   1      31.611  28.309  23.553  1.00  0.00     0.110 C 
ATOM      9  N   UNL A   1      33.650  29.567  23.839  1.00  0.00    -0.333 N 
ATOM     10  H   UNL A   1      33.578  30.398  23.253  1.00  0.00     0.347 HD
ATOM     11  H   UNL A   1      34.375  29.748  24.534  1.00  0.00     0.347 HD
BRANCH   6  12
ATOM     12  N   UNL A   1      32.667  26.465  22.266  1.00  0.00    -0.243 N 
ATOM     13  C   UNL A   1      32.701  24.327  22.562  1.00  0.00     0.102 A 
ATOM     14  C   UNL A   1      32.297  25.503  23.150  1.00  0.00     0.137 A 
ATOM     15  N   UNL A   1      33.224  24.600  21.329  1.00  0.00    -0.134 NA
ATOM     16  N   UNL A   1      33.203  25.922  21.157  1.00  0.00    -0.067 NA
BRANCH  13  17
ATOM     17  C   UNL A   1      32.599  23.005  23.206  1.00  0.00     0.178 C 
BRANCH  17  18
ATOM     18  N   UNL A   1      31.564  22.866  24.190  1.00  0.00    -0.332 N 
ATOM     19  N   UNL A   1      32.063  21.069  25.719  1.00  0.00    -0.308 N 
ATOM     20  C   UNL A   1      31.447  22.205  25.342  1.00  0.00     0.319 C 
ATOM     21  H   UNL A   1      31.835  20.831  26.647  1.00  0.00     0.171 HD
ATOM     22  O   UNL A   1      30.594  22.636  26.130  1.00  0.00    -0.248 OA
ATOM     23  H   UNL A   1      30.754  23.376  23.961  1.00  0.00     0.165 HD
BRANCH  19  24
ATOM     24  C   UNL A   1      32.945  20.127  25.152  1.00  0.00     0.047 A 
ATOM     25  C   UNL A   1      34.962  21.582  25.796  1.00  0.00     0.048 C 
ATOM     26  C   UNL A   1      34.344  20.309  25.268  1.00  0.00    -0.009 A 
ATOM     27  C   UNL A   1      35.199  19.278  24.813  1.00  0.00     0.046 A 
ATOM     28  Cl  UNL A   1      36.924  19.396  24.930  1.00  0.00    -0.084 Cl
ATOM     29  C   UNL A   1      34.689  18.119  24.227  1.00  0.00     0.021 A 
ATOM     30  C   UNL A   1      32.486  19.064  24.375  1.00  0.00     0.026 A 
ATOM     31  C   UNL A   1      33.330  18.030  23.970  1.00  0.00     0.004 A 
ENDBRANCH  19  24
ENDBRANCH  17  18
ENDBRANCH  13  17
ENDBRANCH   6  12
ENDBRANCH   3   5
ENDBRANCH   2   3
ENDBRANCH   1   2
BRANCH   1  32
ATOM     32  C   UNL A   1      33.676  31.707  27.656  1.00  0.00     0.275 C 
BRANCH  32  33
ATOM     33  O   UNL A   1      34.986  31.144  27.564  1.00  0.00    -0.458 OA
BRANCH  33  34
ATOM     34  C   UNL A   1      35.975  31.943  28.025  1.00  0.00     0.338 C 
ATOM     35  O   UNL A   1      36.067  33.150  27.901  1.00  0.00    -0.246 OA
BRANCH  34  36
ATOM     36  C   UNL A   1      37.053  31.124  28.582  1.00  0.00     0.060 A 
ATOM     37  C   UNL A   1      38.100  31.781  29.238  1.00  0.00     0.016 A 
ATOM     38  C   UNL A   1      37.125  29.766  28.250  1.00  0.00     0.016 A 
ATOM     39  C   UNL A   1      39.273  31.091  29.476  1.00  0.00     0.010 A 
ATOM     40  C   UNL A   1      38.297  29.083  28.479  1.00  0.00     0.010 A 
ATOM     41  C   UNL A   1      39.376  29.766  29.042  1.00  0.00    -0.014 A 
BRANCH  41  42
ATOM     42  C   UNL A   1      40.621  29.060  29.277  1.00  0.00     0.031 A 
ATOM     43  C   UNL A   1      40.926  28.826  30.706  1.00  0.00     0.074 A 
ATOM     44  C   UNL A   1      41.337  28.520  28.273  1.00  0.00     0.049 A 
ATOM     45  N   UNL A   1      41.950  29.239  31.377  1.00  0.00    -0.248 NA
ATOM     46  C   UNL A   1      39.902  28.150  31.518  1.00  0.00     0.031 C 
ATOM     47  C   UNL A   1      40.946  28.437  26.862  1.00  0.00     0.029 A 
ATOM     48  N   UNL A   1      42.487  27.790  28.328  1.00  0.00    -0.354 N 
ATOM     49  C   UNL A   1      41.812  28.664  32.636  1.00  0.00     0.074 A 
ATOM     50  C   UNL A   1      40.464  28.171  32.725  1.00  0.00     0.031 C 
ATOM     51  C   UNL A   1      41.701  27.498  26.252  1.00  0.00     0.029 A 
ATOM     52  C   UNL A   1      42.701  27.020  27.191  1.00  0.00     0.049 A 
ATOM     53  H   UNL A   1      43.104  27.807  29.096  1.00  0.00     0.167 HD
ATOM     54  C   UNL A   1      42.895  28.377  33.404  1.00  0.00     0.034 A 
ATOM     55  C   UNL A   1      43.587  26.007  27.054  1.00  0.00     0.034 A 
ATOM     56  C   UNL A   1      44.074  29.065  32.959  1.00  0.00     0.049 A 
ATOM     57  C   UNL A   1      44.623  26.164  28.096  1.00  0.00     0.074 A 
ATOM     58  C   UNL A   1      44.482  30.377  32.867  1.00  0.00     0.029 A 
ATOM     59  N   UNL A   1      44.924  28.322  32.181  1.00  0.00    -0.354 N 
ATOM     60  N   UNL A   1      45.479  27.147  28.120  1.00  0.00    -0.248 NA
ATOM     61  C   UNL A   1      44.533  25.388  29.324  1.00  0.00     0.031 C 
ATOM     62  C   UNL A   1      45.385  30.420  31.765  1.00  0.00     0.029 A 
ATOM     63  C   UNL A   1      45.500  29.131  31.239  1.00  0.00     0.049 A 
ATOM     64  H   UNL A   1      45.093  27.358  32.284  1.00  0.00     0.167 HD
ATOM     65  C   UNL A   1      45.687  27.387  29.468  1.00  0.00     0.074 A 
ATOM     66  C   UNL A   1      45.249  26.170  30.137  1.00  0.00     0.031 C 
ATOM     67  C   UNL A   1      45.893  28.657  29.926  1.00  0.00     0.034 A 
BRANCH  54  68
ATOM     68  C   UNL A   1      42.989  27.162  34.297  1.00  0.00     0.023 A 
ATOM     69  C   UNL A   1      42.764  27.345  35.678  1.00  0.00     0.012 A 
ATOM     70  C   UNL A   1      43.553  25.929  33.896  1.00  0.00     0.148 A 
ATOM     71  C   UNL A   1      43.100  26.356  36.611  1.00  0.00     0.002 A 
ATOM     72  C   UNL A   1      43.798  24.916  34.814  1.00  0.00     0.091 A 
ATOM     73  F   UNL A   1      43.999  25.771  32.644  1.00  0.00    -0.205 F 
ATOM     74  C   UNL A   1      43.600  25.134  36.178  1.00  0.00     0.022 A 
BRANCH  72  75
ATOM     75  S   UNL A   1      44.375  23.302  34.279  1.00  0.00     0.127 S 
ATOM     76  O   UNL A   1      45.759  23.590  33.918  1.00  0.00    -0.237 OA
ATOM     77  O   UNL A   1      44.202  22.501  35.492  1.00  0.00    -0.237 OA
ATOM     78  O   UNL A   1      43.482  22.925  33.189  1.00  0.00    -0.744 OA
ENDBRANCH  72  75
ENDBRANCH  54  68
BRANCH  55  79
ATOM     79  C   UNL A   1      43.509  24.808  26.193  1.00  0.00     0.023 A 
ATOM     80  C   UNL A   1      44.402  24.661  25.115  1.00  0.00     0.012 A 
ATOM     81  C   UNL A   1      42.728  23.692  26.575  1.00  0.00     0.148 A 
ATOM     82  C   UNL A   1      44.536  23.434  24.456  1.00  0.00     0.002 A 
ATOM     83  C   UNL A   1      42.857  22.479  25.909  1.00  0.00     0.091 A 
ATOM     84  F   UNL A   1      41.928  23.799  27.644  1.00  0.00    -0.205 F 
ATOM     85  C   UNL A   1      43.770  22.342  24.856  1.00  0.00     0.022 A 
BRANCH  83  86
ATOM     86  S   UNL A   1      41.909  21.024  26.377  1.00  0.00     0.127 S 
ATOM     87  O   UNL A   1      40.534  21.470  26.146  1.00  0.00    -0.237 OA
ATOM     88  O   UNL A   1      42.397  20.028  25.427  1.00  0.00    -0.237 OA
ATOM     89  O   UNL A   1      42.229  20.774  27.777  1.00  0.00    -0.744 OA
ENDBRANCH  83  86
ENDBRANCH  55  79
BRANCH  67  90
ATOM     90  C   UNL A   1      46.295  29.704  28.917  1.00  0.00     0.023 A 
ATOM     91  C   UNL A   1      47.627  29.851  28.478  1.00  0.00     0.012 A 
ATOM     92  C   UNL A   1      45.290  30.472  28.304  1.00  0.00     0.148 A 
ATOM     93  C   UNL A   1      47.956  30.769  27.478  1.00  0.00     0.002 A 
ATOM     94  C   UNL A   1      45.614  31.348  27.275  1.00  0.00     0.091 A 
ATOM     95  F   UNL A   1      44.025  30.317  28.725  1.00  0.00    -0.205 F 
ATOM     96  C   UNL A   1      46.947  31.509  26.868  1.00  0.00     0.022 A 
BRANCH  94  97
ATOM     97  S   UNL A   1      44.349  32.233  26.359  1.00  0.00     0.127 S 
ATOM     98  O   UNL A   1      45.104  32.761  25.225  1.00  0.00    -0.237 OA
ATOM     99  O   UNL A   1      43.402  31.169  26.021  1.00  0.00    -0.237 OA
ATOM    100  O   UNL A   1      43.816  33.231  27.279  1.00  0.00    -0.744 OA
ENDBRANCH  94  97
ENDBRANCH  67  90
ENDBRANCH  41  42
ENDBRANCH  34  36
ENDBRANCH  33  34
ENDBRANCH  32  33
ENDBRANCH   1  32
TORSDOF 18
ENDMDL
MODEL 2
REMARK VINA RESULT:     -12.6      3.542      7.141
REMARK SMILES Cc1c(Cl)cccc1NC(=O)NCc1cn([C@@H]2C[NH2+][C@H](C(=O)OCCOC(=O)c3ccc(-c4c5nc(c(-c6cccc(S(=O)(=O)[O-])c6F)c6ccc([nH]6)c(-c6cccc(S(=O)(=O)[O-])c6F)c6nc(c(-c7cccc(S(=O)(=O)[O-])c7F)c7ccc4[nH]7)C=C6)C=C5)cc3)C2)nn1
REMARK SMILES IDX 24 1 23 2 21 3 22 4 20 5 17 6 18 7 92 8 19 9 16 12 14 13
REMARK SMILES IDX 15 14 94 15 93 16 13 17 12 18 9 19 10 20 11 22 8 24 1 25
REMARK SMILES IDX 2 26 3 27 4 28 5 29 7 30 6 31 25 32 26 33 27 34 28 35 29 36
REMARK SMILES IDX 30 37 91 38 31 39 90 40 32 41 33 42 34 43 84 44 35 45 89 46
REMARK SMILES IDX 83 47 85 48 36 49 88 50 82 51 81 52 37 54 69 55 49 56 68 57
REMARK SMILES IDX 50 58 53 59 67 60 86 61 51 62 52 63 66 65 87 66 54 67 38 68
REMARK SMILES IDX 39 69 47 70 40 71 42 72 48 73 41 74 43 75 44 76 45 77 46 78
REMARK SMILES IDX 70 79 71 80 79 81 72 82 74 83 80 84 73 85 75 86 76 87 77 88
REMARK SMILES IDX 78 89 55 90 56 91 64 92 57 93 59 94 65 95 58 96 60 97 61 98
REMARK SMILES IDX 62 99 63 100
REMARK H PARENT 19 10 19 11 9 21 12 23 85 53 53 64
REMARK Flexibility Score: inf
ROOT
ATOM      1  C   UNL A   1      32.548  31.459  26.869  1.00  0.00     0.274 C 
ENDROOT
BRANCH   1   2
ATOM      2  O   UNL A   1      31.622  30.880  25.935  1.00  0.00    -0.458 OA
BRANCH   2   3
ATOM      3  C   UNL A   1      31.842  29.582  25.587  1.00  0.00     0.365 C 
ATOM      4  O   UNL A   1      30.962  28.726  25.533  1.00  0.00    -0.245 OA
BRANCH   3   5
ATOM      5  C   UNL A   1      33.301  29.309  25.171  1.00  0.00     0.295 C 
ATOM      6  C   UNL A   1      34.023  27.161  24.265  1.00  0.00     0.170 C 
ATOM      7  C   UNL A   1      34.011  27.155  25.790  1.00  0.00     0.289 C 
ATOM      8  C   UNL A   1      33.384  28.496  23.879  1.00  0.00     0.110 C 
ATOM      9  N   UNL A   1      34.073  28.556  26.191  1.00  0.00    -0.333 N 
ATOM     10  H   UNL A   1      35.041  28.876  26.211  1.00  0.00     0.347 HD
ATOM     11  H   UNL A   1      33.689  28.694  27.126  1.00  0.00     0.347 HD
BRANCH   6  12
ATOM     12  N   UNL A   1      33.325  26.017  23.729  1.00  0.00    -0.243 N 
ATOM     13  C   UNL A   1      31.997  24.331  23.498  1.00  0.00     0.102 A 
ATOM     14  C   UNL A   1      32.143  25.520  24.174  1.00  0.00     0.137 A 
ATOM     15  N   UNL A   1      33.038  24.183  22.624  1.00  0.00    -0.134 NA
ATOM     16  N   UNL A   1      33.854  25.227  22.777  1.00  0.00    -0.067 NA
BRANCH  13  17
ATOM     17  C   UNL A   1      30.897  23.378  23.731  1.00  0.00     0.178 C 
BRANCH  17  18
ATOM     18  N   UNL A   1      30.389  23.324  25.071  1.00  0.00    -0.332 N 
ATOM     19  N   UNL A   1      31.975  22.274  26.553  1.00  0.00    -0.308 N 
ATOM     20  C   UNL A   1      30.918  23.057  26.265  1.00  0.00     0.319 C 
ATOM     21  H   UNL A   1      32.184  22.298  27.515  1.00  0.00     0.171 HD
ATOM     22  O   UNL A   1      30.305  23.506  27.243  1.00  0.00    -0.248 OA
ATOM     23  H   UNL A   1      29.429  23.533  25.120  1.00  0.00     0.165 HD
BRANCH  19  24
ATOM     24  C   UNL A   1      32.864  21.431  25.858  1.00  0.00     0.047 A 
ATOM     25  C   UNL A   1      34.686  23.241  25.933  1.00  0.00     0.048 C 
ATOM     26  C   UNL A   1      34.202  21.841  25.639  1.00  0.00    -0.009 A 
ATOM     27  C   UNL A   1      35.106  20.918  25.064  1.00  0.00     0.046 A 
ATOM     28  Cl  UNL A   1      36.767  21.316  24.775  1.00  0.00    -0.084 Cl
ATOM     29  C   UNL A   1      34.693  19.641  24.682  1.00  0.00     0.021 A 
ATOM     30  C   UNL A   1      32.442  20.238  25.272  1.00  0.00     0.026 A 
ATOM     31  C   UNL A   1      33.348  19.315  24.749  1.00  0.00     0.004 A 
ENDBRANCH  19  24
ENDBRANCH  17  18
ENDBRANCH  13  17
ENDBRANCH   6  12
ENDBRANCH   3   5
ENDBRANCH   2   3
ENDBRANCH   1   2
BRANCH   1  32
ATOM     32  C   UNL A   1      31.881  32.594  27.636  1.00  0.00     0.275 C 
BRANCH  32  33
ATOM     33  O   UNL A   1      32.488  33.855  27.347  1.00  0.00    -0.458 OA
BRANCH  33  34
ATOM     34  C   UNL A   1      32.843  34.572  28.438  1.00  0.00     0.338 C 
ATOM     35  O   UNL A   1      32.212  35.464  28.972  1.00  0.00    -0.246 OA
BRANCH  34  36
ATOM     36  C   UNL A   1      34.214  34.237  28.825  1.00  0.00     0.060 A 
ATOM     37  C   UNL A   1      35.188  34.207  27.821  1.00  0.00     0.016 A 
ATOM     38  C   UNL A   1      34.461  33.740  30.111  1.00  0.00     0.016 A 
ATOM     39  C   UNL A   1      36.392  33.583  28.081  1.00  0.00     0.010 A 
ATOM     40  C   UNL A   1      35.658  33.110  30.365  1.00  0.00     0.010 A 
ATOM     41  C   UNL A   1      36.590  32.993  29.334  1.00  0.00    -0.014 A 
BRANCH  41  42
ATOM     42  C   UNL A   1      37.850  32.320  29.585  1.00  0.00     0.031 A 
ATOM     43  C   UNL A   1      37.876  30.902  29.161  1.00  0.00     0.074 A 
ATOM     44  C   UNL A   1      38.943  32.982  30.007  1.00  0.00     0.049 A 
ATOM     45  N   UNL A   1      38.077  29.857  29.894  1.00  0.00    -0.248 NA
ATOM     46  C   UNL A   1      37.513  30.603  27.766  1.00  0.00     0.031 C 
ATOM     47  C   UNL A   1      39.088  34.434  30.153  1.00  0.00     0.029 A 
ATOM     48  N   UNL A   1      40.201  32.512  30.239  1.00  0.00    -0.354 N 
ATOM     49  C   UNL A   1      38.106  28.791  29.001  1.00  0.00     0.074 A 
ATOM     50  C   UNL A   1      37.573  29.273  27.755  1.00  0.00     0.031 C 
ATOM     51  C   UNL A   1      40.402  34.742  30.200  1.00  0.00     0.029 A 
ATOM     52  C   UNL A   1      41.170  33.509  30.220  1.00  0.00     0.049 A 
ATOM     53  H   UNL A   1      40.404  31.562  30.403  1.00  0.00     0.167 HD
ATOM     54  C   UNL A   1      38.829  27.671  29.260  1.00  0.00     0.034 A 
ATOM     55  C   UNL A   1      42.509  33.336  30.147  1.00  0.00     0.034 A 
ATOM     56  C   UNL A   1      39.196  27.571  30.645  1.00  0.00     0.049 A 
ATOM     57  C   UNL A   1      42.815  31.960  30.592  1.00  0.00     0.074 A 
ATOM     58  C   UNL A   1      38.529  27.422  31.841  1.00  0.00     0.029 A 
ATOM     59  N   UNL A   1      40.469  27.984  30.943  1.00  0.00    -0.354 N 
ATOM     60  N   UNL A   1      42.648  31.544  31.816  1.00  0.00    -0.248 NA
ATOM     61  C   UNL A   1      43.028  30.914  29.603  1.00  0.00     0.031 C 
ATOM     62  C   UNL A   1      39.343  28.068  32.816  1.00  0.00     0.029 A 
ATOM     63  C   UNL A   1      40.477  28.573  32.178  1.00  0.00     0.049 A 
ATOM     64  H   UNL A   1      41.254  27.874  30.359  1.00  0.00     0.167 HD
ATOM     65  C   UNL A   1      42.287  30.214  31.679  1.00  0.00     0.074 A 
ATOM     66  C   UNL A   1      42.728  29.842  30.342  1.00  0.00     0.031 C 
ATOM     67  C   UNL A   1      41.389  29.644  32.535  1.00  0.00     0.034 A 
BRANCH  54  68
ATOM     68  C   UNL A   1      39.559  26.881  28.200  1.00  0.00     0.023 A 
ATOM     69  C   UNL A   1      39.354  25.486  28.164  1.00  0.00     0.012 A 
ATOM     70  C   UNL A   1      40.632  27.393  27.432  1.00  0.00     0.148 A 
ATOM     71  C   UNL A   1      40.186  24.643  27.416  1.00  0.00     0.002 A 
ATOM     72  C   UNL A   1      41.394  26.564  26.619  1.00  0.00     0.091 A 
ATOM     73  F   UNL A   1      41.023  28.663  27.591  1.00  0.00    -0.205 F 
ATOM     74  C   UNL A   1      41.195  25.184  26.629  1.00  0.00     0.022 A 
BRANCH  72  75
ATOM     75  S   UNL A   1      42.657  27.241  25.536  1.00  0.00     0.127 S 
ATOM     76  O   UNL A   1      42.907  26.118  24.639  1.00  0.00    -0.237 OA
ATOM     77  O   UNL A   1      41.960  28.377  24.932  1.00  0.00    -0.237 OA
ATOM     78  O   UNL A   1      43.750  27.621  26.424  1.00  0.00    -0.744 OA
ENDBRANCH  72  75
ENDBRANCH  54  68
BRANCH  55  79
ATOM     79  C   UNL A   1      43.535  34.220  29.553  1.00  0.00     0.023 A 
ATOM     80  C   UNL A   1      44.262  35.100  30.377  1.00  0.00     0.012 A 
ATOM     81  C   UNL A   1      43.976  34.026  28.224  1.00  0.00     0.148 A 
ATOM     82  C   UNL A   1      45.410  35.744  29.903  1.00  0.00     0.002 A 
ATOM     83  C   UNL A   1      45.110  34.678  27.754  1.00  0.00     0.091 A 
ATOM     84  F   UNL A   1      43.335  33.137  27.454  1.00  0.00    -0.205 F 
ATOM     85  C   UNL A   1      45.838  35.529  28.595  1.00  0.00     0.022 A 
BRANCH  83  86
ATOM     86  S   UNL A   1      45.728  34.440  26.082  1.00  0.00     0.127 S 
ATOM     87  O   UNL A   1      46.249  33.073  26.143  1.00  0.00    -0.237 OA
ATOM     88  O   UNL A   1      44.514  34.597  25.286  1.00  0.00    -0.237 OA
ATOM     89  O   UNL A   1      46.750  35.460  25.886  1.00  0.00    -0.744 OA
ENDBRANCH  83  86
ENDBRANCH  55  79
BRANCH  67  90
ATOM     90  C   UNL A   1      41.128  30.351  33.842  1.00  0.00     0.023 A 
ATOM     91  C   UNL A   1      42.025  30.277  34.927  1.00  0.00     0.012 A 
ATOM     92  C   UNL A   1      40.019  31.210  33.936  1.00  0.00     0.148 A 
ATOM     93  C   UNL A   1      41.803  31.013  36.094  1.00  0.00     0.002 A 
ATOM     94  C   UNL A   1      39.828  31.978  35.078  1.00  0.00     0.091 A 
ATOM     95  F   UNL A   1      39.177  31.277  32.894  1.00  0.00    -0.205 F 
ATOM     96  C   UNL A   1      40.711  31.872  36.165  1.00  0.00     0.022 A 
BRANCH  94  97
ATOM     97  S   UNL A   1      38.518  33.201  35.183  1.00  0.00     0.127 S 
ATOM     98  O   UNL A   1      38.740  33.993  33.976  1.00  0.00    -0.237 OA
ATOM     99  O   UNL A   1      37.312  32.372  35.159  1.00  0.00    -0.237 OA
ATOM    100  O   UNL A   1      38.729  33.903  36.444  1.00  0.00    -0.744 OA
ENDBRANCH  94  97
ENDBRANCH  67  90
ENDBRANCH  41  42
ENDBRANCH  34  36
ENDBRANCH  33  34
ENDBRANCH  32  33
ENDBRANCH   1  32
TORSDOF 18
ENDMDL
MODEL 3
REMARK VINA RESULT:     -12.5      5.296      8.020
REMARK SMILES Cc1c(Cl)cccc1NC(=O)NCc1cn([C@@H]2C[NH2+][C@H](C(=O)OCCOC(=O)c3ccc(-c4c5nc(c(-c6cccc(S(=O)(=O)[O-])c6F)c6ccc([nH]6)c(-c6cccc(S(=O)(=O)[O-])c6F)c6nc(c(-c7cccc(S(=O)(=O)[O-])c7F)c7ccc4[nH]7)C=C6)C=C5)cc3)C2)nn1
REMARK SMILES IDX 24 1 23 2 21 3 22 4 20 5 17 6 18 7 92 8 19 9 16 12 14 13
REMARK SMILES IDX 15 14 94 15 93 16 13 17 12 18 9 19 10 20 11 22 8 24 1 25
REMARK SMILES IDX 2 26 3 27 4 28 5 29 7 30 6 31 25 32 26 33 27 34 28 35 29 36
REMARK SMILES IDX 30 37 91 38 31 39 90 40 32 41 33 42 34 43 84 44 35 45 89 46
REMARK SMILES IDX 83 47 85 48 36 49 88 50 82 51 81 52 37 54 69 55 49 56 68 57
REMARK SMILES IDX 50 58 53 59 67 60 86 61 51 62 52 63 66 65 87 66 54 67 38 68
REMARK SMILES IDX 39 69 47 70 40 71 42 72 48 73 41 74 43 75 44 76 45 77 46 78
REMARK SMILES IDX 70 79 71 80 79 81 72 82 74 83 80 84 73 85 75 86 76 87 77 88
REMARK SMILES IDX 78 89 55 90 56 91 64 92 57 93 59 94 65 95 58 96 60 97 61 98
REMARK SMILES IDX 62 99 63 100
REMARK H PARENT 19 10 19 11 9 21 12 23 85 53 53 64
REMARK Flexibility Score: inf
ROOT
ATOM      1  C   UNL A   1      33.847  34.527  28.909  1.00  0.00     0.274 C 
ENDROOT
BRANCH   1   2
ATOM      2  O   UNL A   1      33.258  34.664  30.212  1.00  0.00    -0.458 OA
BRANCH   2   3
ATOM      3  C   UNL A   1      33.203  35.925  30.725  1.00  0.00     0.365 C 
ATOM      4  O   UNL A   1      33.088  36.940  30.043  1.00  0.00    -0.245 OA
BRANCH   3   5
ATOM      5  C   UNL A   1      33.206  35.949  32.267  1.00  0.00     0.295 C 
ATOM      6  C   UNL A   1      34.705  34.555  33.594  1.00  0.00     0.170 C 
ATOM      7  C   UNL A   1      33.446  33.799  33.185  1.00  0.00     0.289 C 
ATOM      8  C   UNL A   1      34.622  35.881  32.836  1.00  0.00     0.110 C 
ATOM      9  N   UNL A   1      32.454  34.822  32.874  1.00  0.00    -0.333 N 
ATOM     10  H   UNL A   1      31.982  35.128  33.724  1.00  0.00     0.347 HD
ATOM     11  H   UNL A   1      31.738  34.467  32.240  1.00  0.00     0.347 HD
BRANCH   6  12
ATOM     12  N   UNL A   1      35.895  33.796  33.289  1.00  0.00    -0.243 N 
ATOM     13  C   UNL A   1      37.399  32.249  33.232  1.00  0.00     0.102 A 
ATOM     14  C   UNL A   1      36.059  32.460  33.460  1.00  0.00     0.137 A 
ATOM     15  N   UNL A   1      37.981  33.430  32.862  1.00  0.00    -0.134 NA
ATOM     16  N   UNL A   1      37.046  34.379  32.905  1.00  0.00    -0.067 NA
BRANCH  13  17
ATOM     17  C   UNL A   1      38.071  30.948  33.402  1.00  0.00     0.178 C 
BRANCH  17  18
ATOM     18  N   UNL A   1      38.027  30.390  34.722  1.00  0.00    -0.332 N 
ATOM     19  N   UNL A   1      39.331  31.711  36.261  1.00  0.00    -0.308 N 
ATOM     20  C   UNL A   1      38.377  30.819  35.935  1.00  0.00     0.319 C 
ATOM     21  H   UNL A   1      39.339  31.886  37.230  1.00  0.00     0.171 HD
ATOM     22  O   UNL A   1      37.822  30.259  36.890  1.00  0.00    -0.248 OA
ATOM     23  H   UNL A   1      37.653  29.480  34.736  1.00  0.00     0.165 HD
BRANCH  19  24
ATOM     24  C   UNL A   1      40.321  32.464  35.598  1.00  0.00     0.047 A 
ATOM     25  C   UNL A   1      39.070  34.642  36.139  1.00  0.00     0.048 C 
ATOM     26  C   UNL A   1      40.263  33.878  35.616  1.00  0.00    -0.009 A 
ATOM     27  C   UNL A   1      41.344  34.606  35.063  1.00  0.00     0.046 A 
ATOM     28  Cl  UNL A   1      41.378  36.338  35.054  1.00  0.00    -0.084 Cl
ATOM     29  C   UNL A   1      42.431  33.955  34.478  1.00  0.00     0.021 A 
ATOM     30  C   UNL A   1      41.309  31.859  34.822  1.00  0.00     0.026 A 
ATOM     31  C   UNL A   1      42.394  32.579  34.320  1.00  0.00     0.004 A 
ENDBRANCH  19  24
ENDBRANCH  17  18
ENDBRANCH  13  17
ENDBRANCH   6  12
ENDBRANCH   3   5
ENDBRANCH   2   3
ENDBRANCH   1   2
BRANCH   1  32
ATOM     32  C   UNL A   1      35.347  34.291  29.031  1.00  0.00     0.275 C 
BRANCH  32  33
ATOM     33  O   UNL A   1      35.724  33.010  28.521  1.00  0.00    -0.458 OA
BRANCH  33  34
ATOM     34  C   UNL A   1      35.907  32.060  29.466  1.00  0.00     0.338 C 
ATOM     35  O   UNL A   1      35.204  31.836  30.433  1.00  0.00    -0.246 OA
BRANCH  34  36
ATOM     36  C   UNL A   1      37.198  31.402  29.262  1.00  0.00     0.060 A 
ATOM     37  C   UNL A   1      37.194  30.053  28.894  1.00  0.00     0.016 A 
ATOM     38  C   UNL A   1      38.371  32.058  29.657  1.00  0.00     0.016 A 
ATOM     39  C   UNL A   1      38.362  29.325  29.019  1.00  0.00     0.010 A 
ATOM     40  C   UNL A   1      39.532  31.329  29.789  1.00  0.00     0.010 A 
ATOM     41  C   UNL A   1      39.503  29.961  29.518  1.00  0.00    -0.014 A 
BRANCH  41  42
ATOM     42  C   UNL A   1      40.716  29.180  29.666  1.00  0.00     0.031 A 
ATOM     43  C   UNL A   1      41.125  28.954  31.070  1.00  0.00     0.074 A 
ATOM     44  C   UNL A   1      41.309  28.575  28.620  1.00  0.00     0.049 A 
ATOM     45  N   UNL A   1      42.226  29.312  31.644  1.00  0.00    -0.248 NA
ATOM     46  C   UNL A   1      40.132  28.362  31.981  1.00  0.00     0.031 C 
ATOM     47  C   UNL A   1      40.797  28.491  27.248  1.00  0.00     0.029 A 
ATOM     48  N   UNL A   1      42.411  27.773  28.598  1.00  0.00    -0.354 N 
ATOM     49  C   UNL A   1      42.158  28.771  32.923  1.00  0.00     0.074 A 
ATOM     50  C   UNL A   1      40.793  28.368  33.136  1.00  0.00     0.031 C 
ATOM     51  C   UNL A   1      41.437  27.494  26.601  1.00  0.00     0.029 A 
ATOM     52  C   UNL A   1      42.480  26.970  27.465  1.00  0.00     0.049 A 
ATOM     53  H   UNL A   1      43.090  27.764  29.311  1.00  0.00     0.167 HD
ATOM     54  C   UNL A   1      43.281  28.428  33.607  1.00  0.00     0.034 A 
ATOM     55  C   UNL A   1      43.285  25.898  27.281  1.00  0.00     0.034 A 
ATOM     56  C   UNL A   1      44.460  29.030  33.049  1.00  0.00     0.049 A 
ATOM     57  C   UNL A   1      44.413  26.008  28.229  1.00  0.00     0.074 A 
ATOM     58  C   UNL A   1      44.941  30.310  32.891  1.00  0.00     0.029 A 
ATOM     59  N   UNL A   1      45.193  28.218  32.222  1.00  0.00    -0.354 N 
ATOM     60  N   UNL A   1      45.328  26.933  28.158  1.00  0.00    -0.248 NA
ATOM     61  C   UNL A   1      44.377  25.262  29.479  1.00  0.00     0.031 C 
ATOM     62  C   UNL A   1      45.749  30.273  31.718  1.00  0.00     0.029 A 
ATOM     63  C   UNL A   1      45.737  28.970  31.216  1.00  0.00     0.049 A 
ATOM     64  H   UNL A   1      45.308  27.247  32.334  1.00  0.00     0.167 HD
ATOM     65  C   UNL A   1      45.664  27.184  29.478  1.00  0.00     0.074 A 
ATOM     66  C   UNL A   1      45.207  26.012  30.211  1.00  0.00     0.031 C 
ATOM     67  C   UNL A   1      45.988  28.446  29.887  1.00  0.00     0.034 A 
BRANCH  54  68
ATOM     68  C   UNL A   1      43.373  27.227  34.518  1.00  0.00     0.023 A 
ATOM     69  C   UNL A   1      43.384  27.460  35.910  1.00  0.00     0.012 A 
ATOM     70  C   UNL A   1      43.725  25.929  34.080  1.00  0.00     0.148 A 
ATOM     71  C   UNL A   1      43.745  26.456  36.816  1.00  0.00     0.002 A 
ATOM     72  C   UNL A   1      43.991  24.912  34.988  1.00  0.00     0.091 A 
ATOM     73  F   UNL A   1      43.953  25.698  32.782  1.00  0.00    -0.205 F 
ATOM     74  C   UNL A   1      44.031  25.176  36.357  1.00  0.00     0.022 A 
BRANCH  72  75
ATOM     75  S   UNL A   1      44.293  23.232  34.430  1.00  0.00     0.127 S 
ATOM     76  O   UNL A   1      45.530  23.391  33.672  1.00  0.00    -0.237 OA
ATOM     77  O   UNL A   1      44.428  22.512  35.697  1.00  0.00    -0.237 OA
ATOM     78  O   UNL A   1      43.104  22.869  33.667  1.00  0.00    -0.744 OA
ENDBRANCH  72  75
ENDBRANCH  54  68
BRANCH  55  79
ATOM     79  C   UNL A   1      43.059  24.690  26.458  1.00  0.00     0.023 A 
ATOM     80  C   UNL A   1      44.000  24.326  25.477  1.00  0.00     0.012 A 
ATOM     81  C   UNL A   1      42.052  23.759  26.802  1.00  0.00     0.148 A 
ATOM     82  C   UNL A   1      43.958  23.062  24.877  1.00  0.00     0.002 A 
ATOM     83  C   UNL A   1      42.009  22.510  26.195  1.00  0.00     0.091 A 
ATOM     84  F   UNL A   1      41.196  24.067  27.785  1.00  0.00    -0.205 F 
ATOM     85  C   UNL A   1      42.969  22.152  25.239  1.00  0.00     0.022 A 
BRANCH  83  86
ATOM     86  S   UNL A   1      40.767  21.280  26.620  1.00  0.00     0.127 S 
ATOM     87  O   UNL A   1      41.364  20.052  26.092  1.00  0.00    -0.237 OA
ATOM     88  O   UNL A   1      40.741  21.370  28.078  1.00  0.00    -0.237 OA
ATOM     89  O   UNL A   1      39.547  21.693  25.938  1.00  0.00    -0.744 OA
ENDBRANCH  83  86
ENDBRANCH  55  79
BRANCH  67  90
ATOM     90  C   UNL A   1      46.369  29.445  28.822  1.00  0.00     0.023 A 
ATOM     91  C   UNL A   1      47.663  29.492  28.266  1.00  0.00     0.012 A 
ATOM     92  C   UNL A   1      45.368  30.271  28.282  1.00  0.00     0.148 A 
ATOM     93  C   UNL A   1      47.964  30.368  27.220  1.00  0.00     0.002 A 
ATOM     94  C   UNL A   1      45.658  31.105  27.208  1.00  0.00     0.091 A 
ATOM     95  F   UNL A   1      44.138  30.212  28.815  1.00  0.00    -0.205 F 
ATOM     96  C   UNL A   1      46.959  31.166  26.683  1.00  0.00     0.022 A 
BRANCH  94  97
ATOM     97  S   UNL A   1      44.381  32.061  26.386  1.00  0.00     0.127 S 
ATOM     98  O   UNL A   1      45.094  32.594  25.228  1.00  0.00    -0.237 OA
ATOM     99  O   UNL A   1      43.379  31.041  26.071  1.00  0.00    -0.237 OA
ATOM    100  O   UNL A   1      43.934  33.049  27.361  1.00  0.00    -0.744 OA
ENDBRANCH  94  97
ENDBRANCH  67  90
ENDBRANCH  41  42
ENDBRANCH  34  36
ENDBRANCH  33  34
ENDBRANCH  32  33
ENDBRANCH   1  32
TORSDOF 18
ENDMDL
