MODEL 1
REMARK VINA RESULT:     -11.5      0.000      0.000
REMARK SMILES C[C@]([NH2+]Cc1noc(C2CC2)n1)(C(=O)OCCOC(=O)c1ccc(-c2c3nc(c(-c4cccc(S(=O)(=O)[O-])c4F)c4ccc([nH]4)c(-c4cccc(S(=O)(=O)[O-])c4F)c4nc(c(-c5cccc(S(=O)(=O)[O-])c5F)c5ccc2[nH]5)C=C4)C=C3)cc1)C(F)(F)F
REMARK SMILES IDX 16 1 15 2 13 3 14 4 2 5 1 6 84 7 85 8 86 9 87 10 3 11 4 14
REMARK SMILES IDX 5 15 6 16 12 17 7 18 8 19 9 20 10 21 11 22 17 23 18 24 19 25
REMARK SMILES IDX 20 26 21 27 22 28 83 29 23 30 82 31 24 32 25 33 26 34 76 35
REMARK SMILES IDX 27 36 81 37 75 38 77 39 28 40 80 41 74 42 73 43 29 45 61 46
REMARK SMILES IDX 41 47 60 48 42 49 45 50 59 51 78 52 43 53 44 54 58 56 79 57
REMARK SMILES IDX 46 58 30 59 31 60 39 61 32 62 34 63 40 64 33 65 35 66 36 67
REMARK SMILES IDX 37 68 38 69 62 70 63 71 71 72 64 73 66 74 72 75 65 76 67 77
REMARK SMILES IDX 68 78 69 79 70 80 47 81 48 82 56 83 49 84 51 85 57 86 50 87
REMARK SMILES IDX 52 88 53 89 54 90 55 91
REMARK H PARENT 3 12 3 13 77 44 45 55
REMARK Flexibility Score: inf
ROOT
ATOM      1  C   UNL A   1      35.175  21.662  26.371  1.00  0.00     0.274 C 
ENDROOT
BRANCH   1   2
ATOM      2  O   UNL A   1      34.843  22.977  25.877  1.00  0.00    -0.457 OA
BRANCH   2   3
ATOM      3  C   UNL A   1      33.560  23.409  26.095  1.00  0.00     0.377 C 
ATOM      4  O   UNL A   1      32.986  23.288  27.169  1.00  0.00    -0.244 OA
BRANCH   3   5
ATOM      5  C   UNL A   1      32.887  23.903  24.799  1.00  0.00     0.287 C 
ATOM      6  C   UNL A   1      31.381  23.940  25.111  1.00  0.00     0.103 C 
BRANCH   5   7
ATOM      7  C   UNL A   1      33.386  25.350  24.555  1.00  0.00     0.455 C 
ATOM      8  F   UNL A   1      33.942  25.886  25.662  1.00  0.00    -0.164 F 
ATOM      9  F   UNL A   1      34.362  25.345  23.604  1.00  0.00    -0.164 F 
ATOM     10  F   UNL A   1      32.436  26.192  24.106  1.00  0.00    -0.164 F 
ENDBRANCH   5   7
BRANCH   5  11
ATOM     11  N   UNL A   1      33.158  22.918  23.691  1.00  0.00    -0.318 N 
ATOM     12  H   UNL A   1      33.930  22.317  23.979  1.00  0.00     0.347 HD
ATOM     13  H   UNL A   1      33.370  23.469  22.859  1.00  0.00     0.347 HD
BRANCH  11  14
ATOM     14  C   UNL A   1      32.015  22.061  23.345  1.00  0.00     0.344 C 
BRANCH  14  15
ATOM     15  C   UNL A   1      32.205  20.673  23.873  1.00  0.00     0.226 A 
ATOM     16  N   UNL A   1      32.020  20.350  25.162  1.00  0.00    -0.056 NA
ATOM     17  N   UNL A   1      32.498  19.616  23.050  1.00  0.00    -0.190 NA
ATOM     18  O   UNL A   1      32.266  18.974  25.179  1.00  0.00    -0.339 OA
ATOM     19  C   UNL A   1      32.539  18.605  23.890  1.00  0.00     0.229 A 
BRANCH  19  20
ATOM     20  C   UNL A   1      32.830  17.168  23.485  1.00  0.00     0.079 C 
ATOM     21  C   UNL A   1      34.241  16.812  23.057  1.00  0.00     0.014 C 
ATOM     22  C   UNL A   1      33.727  16.326  24.368  1.00  0.00     0.014 C 
ENDBRANCH  19  20
ENDBRANCH  14  15
ENDBRANCH  11  14
ENDBRANCH   5  11
ENDBRANCH   3   5
ENDBRANCH   2   3
ENDBRANCH   1   2
BRANCH   1  23
ATOM     23  C   UNL A   1      35.972  20.884  25.329  1.00  0.00     0.275 C 
BRANCH  23  24
ATOM     24  O   UNL A   1      37.143  21.638  24.988  1.00  0.00    -0.458 OA
BRANCH  24  25
ATOM     25  C   UNL A   1      38.295  21.242  25.572  1.00  0.00     0.338 C 
ATOM     26  O   UNL A   1      38.750  20.106  25.606  1.00  0.00    -0.246 OA
BRANCH  25  27
ATOM     27  C   UNL A   1      38.954  22.405  26.194  1.00  0.00     0.060 A 
ATOM     28  C   UNL A   1      38.435  23.688  26.014  1.00  0.00     0.016 A 
ATOM     29  C   UNL A   1      40.147  22.230  26.891  1.00  0.00     0.016 A 
ATOM     30  C   UNL A   1      39.155  24.803  26.440  1.00  0.00     0.010 A 
ATOM     31  C   UNL A   1      40.815  23.345  27.408  1.00  0.00     0.010 A 
ATOM     32  C   UNL A   1      40.350  24.648  27.152  1.00  0.00    -0.014 A 
BRANCH  32  33
ATOM     33  C   UNL A   1      41.141  25.833  27.591  1.00  0.00     0.031 A 
ATOM     34  C   UNL A   1      40.502  26.879  28.470  1.00  0.00     0.074 A 
ATOM     35  C   UNL A   1      42.419  25.994  27.192  1.00  0.00     0.049 A 
ATOM     36  N   UNL A   1      40.939  28.069  28.790  1.00  0.00    -0.248 NA
ATOM     37  C   UNL A   1      39.187  26.550  29.046  1.00  0.00     0.031 C 
ATOM     38  C   UNL A   1      43.172  25.056  26.357  1.00  0.00     0.029 A 
ATOM     39  N   UNL A   1      43.309  27.015  27.426  1.00  0.00    -0.354 N 
ATOM     40  C   UNL A   1      39.920  28.662  29.527  1.00  0.00     0.074 A 
ATOM     41  C   UNL A   1      38.848  27.695  29.621  1.00  0.00     0.031 C 
ATOM     42  C   UNL A   1      44.412  25.532  26.167  1.00  0.00     0.029 A 
ATOM     43  C   UNL A   1      44.521  26.842  26.799  1.00  0.00     0.049 A 
ATOM     44  H   UNL A   1      43.098  27.795  27.988  1.00  0.00     0.167 HD
ATOM     45  C   UNL A   1      39.885  29.895  30.085  1.00  0.00     0.034 A 
ATOM     46  C   UNL A   1      45.589  27.658  26.707  1.00  0.00     0.034 A 
ATOM     47  C   UNL A   1      40.987  30.817  30.078  1.00  0.00     0.049 A 
ATOM     48  C   UNL A   1      45.540  29.007  27.368  1.00  0.00     0.074 A 
ATOM     49  C   UNL A   1      41.065  32.072  30.658  1.00  0.00     0.029 A 
ATOM     50  N   UNL A   1      42.215  30.577  29.480  1.00  0.00    -0.354 N 
ATOM     51  N   UNL A   1      44.582  29.538  28.089  1.00  0.00    -0.248 NA
ATOM     52  C   UNL A   1      46.720  29.868  27.210  1.00  0.00     0.031 C 
ATOM     53  C   UNL A   1      42.342  32.589  30.413  1.00  0.00     0.029 A 
ATOM     54  C   UNL A   1      43.059  31.656  29.682  1.00  0.00     0.049 A 
ATOM     55  H   UNL A   1      42.452  29.759  28.985  1.00  0.00     0.167 HD
ATOM     56  C   UNL A   1      45.045  30.789  28.477  1.00  0.00     0.074 A 
ATOM     57  C   UNL A   1      46.384  30.923  27.941  1.00  0.00     0.031 C 
ATOM     58  C   UNL A   1      44.408  31.752  29.189  1.00  0.00     0.034 A 
BRANCH  45  59
ATOM     59  C   UNL A   1      38.617  30.310  30.785  1.00  0.00     0.023 A 
ATOM     60  C   UNL A   1      38.428  29.979  32.142  1.00  0.00     0.012 A 
ATOM     61  C   UNL A   1      37.640  31.072  30.117  1.00  0.00     0.148 A 
ATOM     62  C   UNL A   1      37.272  30.377  32.814  1.00  0.00     0.002 A 
ATOM     63  C   UNL A   1      36.507  31.497  30.804  1.00  0.00     0.091 A 
ATOM     64  F   UNL A   1      37.822  31.355  28.818  1.00  0.00    -0.205 F 
ATOM     65  C   UNL A   1      36.319  31.143  32.149  1.00  0.00     0.022 A 
BRANCH  63  66
ATOM     66  S   UNL A   1      35.264  32.548  30.044  1.00  0.00     0.127 S 
ATOM     67  O   UNL A   1      34.778  31.698  28.959  1.00  0.00    -0.237 OA
ATOM     68  O   UNL A   1      34.309  32.746  31.136  1.00  0.00    -0.237 OA
ATOM     69  O   UNL A   1      35.966  33.757  29.635  1.00  0.00    -0.744 OA
ENDBRANCH  63  66
ENDBRANCH  45  59
BRANCH  46  70
ATOM     70  C   UNL A   1      46.806  27.200  25.977  1.00  0.00     0.023 A 
ATOM     71  C   UNL A   1      47.659  26.258  26.584  1.00  0.00     0.012 A 
ATOM     72  C   UNL A   1      47.091  27.640  24.670  1.00  0.00     0.148 A 
ATOM     73  C   UNL A   1      48.777  25.770  25.906  1.00  0.00     0.002 A 
ATOM     74  C   UNL A   1      48.171  27.105  23.978  1.00  0.00     0.091 A 
ATOM     75  F   UNL A   1      46.287  28.561  24.118  1.00  0.00    -0.205 F 
ATOM     76  C   UNL A   1      49.024  26.180  24.599  1.00  0.00     0.022 A 
BRANCH  74  77
ATOM     77  S   UNL A   1      48.459  27.467  22.242  1.00  0.00     0.127 S 
ATOM     78  O   UNL A   1      47.214  28.128  21.861  1.00  0.00    -0.237 OA
ATOM     79  O   UNL A   1      49.630  28.343  22.297  1.00  0.00    -0.237 OA
ATOM     80  O   UNL A   1      48.715  26.175  21.617  1.00  0.00    -0.744 OA
ENDBRANCH  74  77
ENDBRANCH  46  70
BRANCH  58  81
ATOM     81  C   UNL A   1      45.152  33.036  29.437  1.00  0.00     0.023 A 
ATOM     82  C   UNL A   1      45.966  33.150  30.581  1.00  0.00     0.012 A 
ATOM     83  C   UNL A   1      45.103  34.095  28.512  1.00  0.00     0.148 A 
ATOM     84  C   UNL A   1      46.704  34.309  30.812  1.00  0.00     0.002 A 
ATOM     85  C   UNL A   1      45.871  35.233  28.729  1.00  0.00     0.091 A 
ATOM     86  F   UNL A   1      44.303  33.976  27.441  1.00  0.00    -0.205 F 
ATOM     87  C   UNL A   1      46.665  35.346  29.881  1.00  0.00     0.022 A 
BRANCH  85  88
ATOM     88  S   UNL A   1      45.940  36.578  27.540  1.00  0.00     0.127 S 
ATOM     89  O   UNL A   1      44.529  36.938  27.411  1.00  0.00    -0.237 OA
ATOM     90  O   UNL A   1      46.762  37.571  28.232  1.00  0.00    -0.237 OA
ATOM     91  O   UNL A   1      46.559  36.018  26.346  1.00  0.00    -0.744 OA
ENDBRANCH  85  88
ENDBRANCH  58  81
ENDBRANCH  32  33
ENDBRANCH  25  27
ENDBRANCH  24  25
ENDBRANCH  23  24
ENDBRANCH   1  23
TORSDOF 19
ENDMDL
MODEL 2
REMARK VINA RESULT:     -11.0      5.331      9.909
REMARK SMILES C[C@]([NH2+]Cc1noc(C2CC2)n1)(C(=O)OCCOC(=O)c1ccc(-c2c3nc(c(-c4cccc(S(=O)(=O)[O-])c4F)c4ccc([nH]4)c(-c4cccc(S(=O)(=O)[O-])c4F)c4nc(c(-c5cccc(S(=O)(=O)[O-])c5F)c5ccc2[nH]5)C=C4)C=C3)cc1)C(F)(F)F
REMARK SMILES IDX 16 1 15 2 13 3 14 4 2 5 1 6 84 7 85 8 86 9 87 10 3 11 4 14
REMARK SMILES IDX 5 15 6 16 12 17 7 18 8 19 9 20 10 21 11 22 17 23 18 24 19 25
REMARK SMILES IDX 20 26 21 27 22 28 83 29 23 30 82 31 24 32 25 33 26 34 76 35
REMARK SMILES IDX 27 36 81 37 75 38 77 39 28 40 80 41 74 42 73 43 29 45 61 46
REMARK SMILES IDX 41 47 60 48 42 49 45 50 59 51 78 52 43 53 44 54 58 56 79 57
REMARK SMILES IDX 46 58 30 59 31 60 39 61 32 62 34 63 40 64 33 65 35 66 36 67
REMARK SMILES IDX 37 68 38 69 62 70 63 71 71 72 64 73 66 74 72 75 65 76 67 77
REMARK SMILES IDX 68 78 69 79 70 80 47 81 48 82 56 83 49 84 51 85 57 86 50 87
REMARK SMILES IDX 52 88 53 89 54 90 55 91
REMARK H PARENT 3 12 3 13 77 44 45 55
REMARK Flexibility Score: inf
ROOT
ATOM      1  C   UNL A   1      31.365  28.442  25.991  1.00  0.00     0.274 C 
ENDROOT
BRANCH   1   2
ATOM      2  O   UNL A   1      31.432  27.670  24.772  1.00  0.00    -0.457 OA
BRANCH   2   3
ATOM      3  C   UNL A   1      32.645  27.105  24.470  1.00  0.00     0.377 C 
ATOM      4  O   UNL A   1      33.486  26.834  25.315  1.00  0.00    -0.244 OA
BRANCH   3   5
ATOM      5  C   UNL A   1      32.876  27.014  22.948  1.00  0.00     0.287 C 
ATOM      6  C   UNL A   1      31.477  26.836  22.334  1.00  0.00     0.103 C 
BRANCH   5   7
ATOM      7  C   UNL A   1      33.453  28.380  22.497  1.00  0.00     0.455 C 
ATOM      8  F   UNL A   1      33.938  28.333  21.239  1.00  0.00    -0.164 F 
ATOM      9  F   UNL A   1      32.462  29.316  22.487  1.00  0.00    -0.164 F 
ATOM     10  F   UNL A   1      34.414  28.867  23.305  1.00  0.00    -0.164 F 
ENDBRANCH   5   7
BRANCH   5  11
ATOM     11  N   UNL A   1      33.728  25.808  22.646  1.00  0.00    -0.318 N 
ATOM     12  H   UNL A   1      34.479  25.765  23.335  1.00  0.00     0.347 HD
ATOM     13  H   UNL A   1      34.068  25.925  21.691  1.00  0.00     0.347 HD
BRANCH  11  14
ATOM     14  C   UNL A   1      33.004  24.529  22.677  1.00  0.00     0.344 C 
BRANCH  14  15
ATOM     15  C   UNL A   1      33.838  23.455  23.304  1.00  0.00     0.226 A 
ATOM     16  N   UNL A   1      33.312  22.361  23.876  1.00  0.00    -0.056 NA
ATOM     17  N   UNL A   1      35.209  23.477  23.256  1.00  0.00    -0.190 NA
ATOM     18  O   UNL A   1      34.441  21.642  24.277  1.00  0.00    -0.339 OA
ATOM     19  C   UNL A   1      35.532  22.362  23.872  1.00  0.00     0.229 A 
BRANCH  19  20
ATOM     20  C   UNL A   1      36.962  21.892  24.095  1.00  0.00     0.079 C 
ATOM     21  C   UNL A   1      37.582  22.097  25.464  1.00  0.00     0.014 C 
ATOM     22  C   UNL A   1      37.212  20.723  25.025  1.00  0.00     0.014 C 
ENDBRANCH  19  20
ENDBRANCH  14  15
ENDBRANCH  11  14
ENDBRANCH   5  11
ENDBRANCH   3   5
ENDBRANCH   2   3
ENDBRANCH   1   2
BRANCH   1  23
ATOM     23  C   UNL A   1      31.493  29.932  25.689  1.00  0.00     0.275 C 
BRANCH  23  24
ATOM     24  O   UNL A   1      32.863  30.319  25.863  1.00  0.00    -0.458 OA
BRANCH  24  25
ATOM     25  C   UNL A   1      33.111  31.190  26.865  1.00  0.00     0.338 C 
ATOM     26  O   UNL A   1      32.385  32.099  27.246  1.00  0.00    -0.246 OA
BRANCH  25  27
ATOM     27  C   UNL A   1      34.427  30.892  27.459  1.00  0.00     0.060 A 
ATOM     28  C   UNL A   1      34.823  29.570  27.667  1.00  0.00     0.016 A 
ATOM     29  C   UNL A   1      35.240  31.937  27.893  1.00  0.00     0.016 A 
ATOM     30  C   UNL A   1      35.977  29.289  28.395  1.00  0.00     0.010 A 
ATOM     31  C   UNL A   1      36.450  31.650  28.532  1.00  0.00     0.010 A 
ATOM     32  C   UNL A   1      36.813  30.324  28.830  1.00  0.00    -0.014 A 
BRANCH  32  33
ATOM     33  C   UNL A   1      38.037  30.037  29.631  1.00  0.00     0.031 A 
ATOM     34  C   UNL A   1      39.139  29.191  29.042  1.00  0.00     0.074 A 
ATOM     35  C   UNL A   1      38.163  30.506  30.888  1.00  0.00     0.049 A 
ATOM     36  N   UNL A   1      40.177  28.658  29.632  1.00  0.00    -0.248 NA
ATOM     37  C   UNL A   1      39.047  28.888  27.604  1.00  0.00     0.031 C 
ATOM     38  C   UNL A   1      37.188  31.350  31.581  1.00  0.00     0.029 A 
ATOM     39  N   UNL A   1      39.162  30.328  31.816  1.00  0.00    -0.354 N 
ATOM     40  C   UNL A   1      40.810  27.887  28.663  1.00  0.00     0.074 A 
ATOM     41  C   UNL A   1      40.048  28.034  27.441  1.00  0.00     0.031 C 
ATOM     42  C   UNL A   1      37.644  31.634  32.810  1.00  0.00     0.029 A 
ATOM     43  C   UNL A   1      38.904  30.931  33.024  1.00  0.00     0.049 A 
ATOM     44  H   UNL A   1      39.983  29.816  31.632  1.00  0.00     0.167 HD
ATOM     45  C   UNL A   1      41.930  27.134  28.776  1.00  0.00     0.034 A 
ATOM     46  C   UNL A   1      39.582  30.896  34.189  1.00  0.00     0.034 A 
ATOM     47  C   UNL A   1      42.742  27.068  29.960  1.00  0.00     0.049 A 
ATOM     48  C   UNL A   1      40.844  30.084  34.278  1.00  0.00     0.074 A 
ATOM     49  C   UNL A   1      43.922  26.372  30.157  1.00  0.00     0.029 A 
ATOM     50  N   UNL A   1      42.474  27.741  31.142  1.00  0.00    -0.354 N 
ATOM     51  N   UNL A   1      41.445  29.389  33.343  1.00  0.00    -0.248 NA
ATOM     52  C   UNL A   1      41.525  30.056  35.580  1.00  0.00     0.031 C 
ATOM     53  C   UNL A   1      44.368  26.626  31.459  1.00  0.00     0.029 A 
ATOM     54  C   UNL A   1      43.467  27.483  32.070  1.00  0.00     0.049 A 
ATOM     55  H   UNL A   1      41.691  28.319  31.298  1.00  0.00     0.167 HD
ATOM     56  C   UNL A   1      42.578  28.849  33.939  1.00  0.00     0.074 A 
ATOM     57  C   UNL A   1      42.599  29.326  35.307  1.00  0.00     0.031 C 
ATOM     58  C   UNL A   1      43.502  28.009  33.410  1.00  0.00     0.034 A 
BRANCH  45  59
ATOM     59  C   UNL A   1      42.366  26.343  27.571  1.00  0.00     0.023 A 
ATOM     60  C   UNL A   1      43.128  26.968  26.564  1.00  0.00     0.012 A 
ATOM     61  C   UNL A   1      42.068  24.971  27.462  1.00  0.00     0.148 A 
ATOM     62  C   UNL A   1      43.562  26.244  25.453  1.00  0.00     0.002 A 
ATOM     63  C   UNL A   1      42.536  24.248  26.370  1.00  0.00     0.091 A 
ATOM     64  F   UNL A   1      41.318  24.399  28.416  1.00  0.00    -0.205 F 
ATOM     65  C   UNL A   1      43.276  24.885  25.361  1.00  0.00     0.022 A 
BRANCH  63  66
ATOM     66  S   UNL A   1      42.274  22.477  26.211  1.00  0.00     0.127 S 
ATOM     67  O   UNL A   1      42.949  22.190  24.947  1.00  0.00    -0.237 OA
ATOM     68  O   UNL A   1      42.954  21.951  27.397  1.00  0.00    -0.237 OA
ATOM     69  O   UNL A   1      40.830  22.289  26.215  1.00  0.00    -0.744 OA
ENDBRANCH  63  66
ENDBRANCH  45  59
BRANCH  46  70
ATOM     70  C   UNL A   1      39.085  31.681  35.355  1.00  0.00     0.023 A 
ATOM     71  C   UNL A   1      38.237  31.059  36.292  1.00  0.00     0.012 A 
ATOM     72  C   UNL A   1      39.492  33.011  35.576  1.00  0.00     0.148 A 
ATOM     73  C   UNL A   1      37.797  31.751  37.421  1.00  0.00     0.002 A 
ATOM     74  C   UNL A   1      39.099  33.673  36.733  1.00  0.00     0.091 A 
ATOM     75  F   UNL A   1      40.274  33.599  34.659  1.00  0.00    -0.205 F 
ATOM     76  C   UNL A   1      38.240  33.050  37.651  1.00  0.00     0.022 A 
BRANCH  74  77
ATOM     77  S   UNL A   1      39.756  35.288  37.172  1.00  0.00     0.127 S 
ATOM     78  O   UNL A   1      39.280  36.117  36.068  1.00  0.00    -0.237 OA
ATOM     79  O   UNL A   1      39.110  35.546  38.460  1.00  0.00    -0.237 OA
ATOM     80  O   UNL A   1      41.199  35.105  37.260  1.00  0.00    -0.744 OA
ENDBRANCH  74  77
ENDBRANCH  46  70
BRANCH  58  81
ATOM     81  C   UNL A   1      44.621  27.556  34.308  1.00  0.00     0.023 A 
ATOM     82  C   UNL A   1      45.803  28.319  34.375  1.00  0.00     0.012 A 
ATOM     83  C   UNL A   1      44.477  26.424  35.134  1.00  0.00     0.148 A 
ATOM     84  C   UNL A   1      46.836  27.949  35.235  1.00  0.00     0.002 A 
ATOM     85  C   UNL A   1      45.496  26.084  36.016  1.00  0.00     0.091 A 
ATOM     86  F   UNL A   1      43.353  25.698  35.037  1.00  0.00    -0.205 F 
ATOM     87  C   UNL A   1      46.679  26.839  36.062  1.00  0.00     0.022 A 
BRANCH  85  88
ATOM     88  S   UNL A   1      45.339  24.717  37.172  1.00  0.00     0.127 S 
ATOM     89  O   UNL A   1      44.176  25.123  37.959  1.00  0.00    -0.237 OA
ATOM     90  O   UNL A   1      45.108  23.577  36.285  1.00  0.00    -0.237 OA
ATOM     91  O   UNL A   1      46.603  24.666  37.895  1.00  0.00    -0.744 OA
ENDBRANCH  85  88
ENDBRANCH  58  81
ENDBRANCH  32  33
ENDBRANCH  25  27
ENDBRANCH  24  25
ENDBRANCH  23  24
ENDBRANCH   1  23
TORSDOF 19
ENDMDL
MODEL 3
REMARK VINA RESULT:     -11.0      2.202      3.763
REMARK SMILES C[C@]([NH2+]Cc1noc(C2CC2)n1)(C(=O)OCCOC(=O)c1ccc(-c2c3nc(c(-c4cccc(S(=O)(=O)[O-])c4F)c4ccc([nH]4)c(-c4cccc(S(=O)(=O)[O-])c4F)c4nc(c(-c5cccc(S(=O)(=O)[O-])c5F)c5ccc2[nH]5)C=C4)C=C3)cc1)C(F)(F)F
REMARK SMILES IDX 16 1 15 2 13 3 14 4 2 5 1 6 84 7 85 8 86 9 87 10 3 11 4 14
REMARK SMILES IDX 5 15 6 16 12 17 7 18 8 19 9 20 10 21 11 22 17 23 18 24 19 25
REMARK SMILES IDX 20 26 21 27 22 28 83 29 23 30 82 31 24 32 25 33 26 34 76 35
REMARK SMILES IDX 27 36 81 37 75 38 77 39 28 40 80 41 74 42 73 43 29 45 61 46
REMARK SMILES IDX 41 47 60 48 42 49 45 50 59 51 78 52 43 53 44 54 58 56 79 57
REMARK SMILES IDX 46 58 30 59 31 60 39 61 32 62 34 63 40 64 33 65 35 66 36 67
REMARK SMILES IDX 37 68 38 69 62 70 63 71 71 72 64 73 66 74 72 75 65 76 67 77
REMARK SMILES IDX 68 78 69 79 70 80 47 81 48 82 56 83 49 84 51 85 57 86 50 87
REMARK SMILES IDX 52 88 53 89 54 90 55 91
REMARK H PARENT 3 12 3 13 77 44 45 55
REMARK Flexibility Score: inf
ROOT
ATOM      1  C   UNL A   1      34.911  20.869  24.631  1.00  0.00     0.274 C 
ENDROOT
BRANCH   1   2
ATOM      2  O   UNL A   1      34.537  21.992  25.457  1.00  0.00    -0.457 OA
BRANCH   2   3
ATOM      3  C   UNL A   1      33.336  22.591  25.172  1.00  0.00     0.377 C 
ATOM      4  O   UNL A   1      32.284  21.973  25.085  1.00  0.00    -0.244 OA
BRANCH   3   5
ATOM      5  C   UNL A   1      33.504  24.082  24.817  1.00  0.00     0.287 C 
ATOM      6  C   UNL A   1      34.704  24.566  25.650  1.00  0.00     0.103 C 
BRANCH   5   7
ATOM      7  C   UNL A   1      33.875  24.148  23.314  1.00  0.00     0.455 C 
ATOM      8  F   UNL A   1      33.755  25.398  22.819  1.00  0.00    -0.164 F 
ATOM      9  F   UNL A   1      35.182  23.798  23.148  1.00  0.00    -0.164 F 
ATOM     10  F   UNL A   1      33.165  23.312  22.533  1.00  0.00    -0.164 F 
ENDBRANCH   5   7
BRANCH   5  11
ATOM     11  N   UNL A   1      32.261  24.833  25.222  1.00  0.00    -0.318 N 
ATOM     12  H   UNL A   1      31.755  24.269  25.906  1.00  0.00     0.347 HD
ATOM     13  H   UNL A   1      31.729  24.995  24.367  1.00  0.00     0.347 HD
BRANCH  11  14
ATOM     14  C   UNL A   1      32.515  26.153  25.815  1.00  0.00     0.344 C 
BRANCH  14  15
ATOM     15  C   UNL A   1      32.006  27.247  24.928  1.00  0.00     0.226 A 
ATOM     16  N   UNL A   1      32.720  28.347  24.641  1.00  0.00    -0.056 NA
ATOM     17  N   UNL A   1      30.803  27.155  24.275  1.00  0.00    -0.190 NA
ATOM     18  O   UNL A   1      31.882  29.047  23.770  1.00  0.00    -0.339 OA
ATOM     19  C   UNL A   1      30.763  28.278  23.594  1.00  0.00     0.229 A 
BRANCH  19  20
ATOM     20  C   UNL A   1      29.616  28.683  22.679  1.00  0.00     0.079 C 
ATOM     21  C   UNL A   1      28.794  29.901  23.053  1.00  0.00     0.014 C 
ATOM     22  C   UNL A   1      29.727  29.974  21.895  1.00  0.00     0.014 C 
ENDBRANCH  19  20
ENDBRANCH  14  15
ENDBRANCH  11  14
ENDBRANCH   5  11
ENDBRANCH   3   5
ENDBRANCH   2   3
ENDBRANCH   1   2
BRANCH   1  23
ATOM     23  C   UNL A   1      36.281  20.336  25.038  1.00  0.00     0.275 C 
BRANCH  23  24
ATOM     24  O   UNL A   1      37.104  21.442  25.434  1.00  0.00    -0.458 OA
BRANCH  24  25
ATOM     25  C   UNL A   1      38.375  21.141  25.780  1.00  0.00     0.338 C 
ATOM     26  O   UNL A   1      38.938  20.063  25.646  1.00  0.00    -0.246 OA
BRANCH  25  27
ATOM     27  C   UNL A   1      39.017  22.331  26.368  1.00  0.00     0.060 A 
ATOM     28  C   UNL A   1      38.491  23.603  26.136  1.00  0.00     0.016 A 
ATOM     29  C   UNL A   1      40.203  22.191  27.085  1.00  0.00     0.016 A 
ATOM     30  C   UNL A   1      39.196  24.738  26.531  1.00  0.00     0.010 A 
ATOM     31  C   UNL A   1      40.855  23.329  27.570  1.00  0.00     0.010 A 
ATOM     32  C   UNL A   1      40.384  24.618  27.263  1.00  0.00    -0.014 A 
BRANCH  32  33
ATOM     33  C   UNL A   1      41.160  25.824  27.668  1.00  0.00     0.031 A 
ATOM     34  C   UNL A   1      40.509  26.885  28.520  1.00  0.00     0.074 A 
ATOM     35  C   UNL A   1      42.435  25.991  27.262  1.00  0.00     0.049 A 
ATOM     36  N   UNL A   1      40.930  28.089  28.809  1.00  0.00    -0.248 NA
ATOM     37  C   UNL A   1      39.199  26.553  29.108  1.00  0.00     0.031 C 
ATOM     38  C   UNL A   1      43.198  25.042  26.451  1.00  0.00     0.029 A 
ATOM     39  N   UNL A   1      43.312  27.029  27.468  1.00  0.00    -0.354 N 
ATOM     40  C   UNL A   1      39.905  28.687  29.532  1.00  0.00     0.074 A 
ATOM     41  C   UNL A   1      38.846  27.709  29.653  1.00  0.00     0.031 C 
ATOM     42  C   UNL A   1      44.432  25.528  26.247  1.00  0.00     0.029 A 
ATOM     43  C   UNL A   1      44.525  26.856  26.843  1.00  0.00     0.049 A 
ATOM     44  H   UNL A   1      43.092  27.821  28.010  1.00  0.00     0.167 HD
ATOM     45  C   UNL A   1      39.854  29.934  30.057  1.00  0.00     0.034 A 
ATOM     46  C   UNL A   1      45.582  27.684  26.728  1.00  0.00     0.034 A 
ATOM     47  C   UNL A   1      40.945  30.870  30.023  1.00  0.00     0.049 A 
ATOM     48  C   UNL A   1      45.516  29.049  27.353  1.00  0.00     0.074 A 
ATOM     49  C   UNL A   1      41.006  32.140  30.570  1.00  0.00     0.029 A 
ATOM     50  N   UNL A   1      42.174  30.630  29.430  1.00  0.00    -0.354 N 
ATOM     51  N   UNL A   1      44.552  29.585  28.061  1.00  0.00    -0.248 NA
ATOM     52  C   UNL A   1      46.685  29.921  27.170  1.00  0.00     0.031 C 
ATOM     53  C   UNL A   1      42.276  32.667  30.309  1.00  0.00     0.029 A 
ATOM     54  C   UNL A   1      43.004  31.725  29.602  1.00  0.00     0.049 A 
ATOM     55  H   UNL A   1      42.421  29.803  28.956  1.00  0.00     0.167 HD
ATOM     56  C   UNL A   1      45.000  30.852  28.416  1.00  0.00     0.074 A 
ATOM     57  C   UNL A   1      46.336  30.990  27.874  1.00  0.00     0.031 C 
ATOM     58  C   UNL A   1      44.352  31.825  29.103  1.00  0.00     0.034 A 
BRANCH  45  59
ATOM     59  C   UNL A   1      38.582  30.351  30.749  1.00  0.00     0.023 A 
ATOM     60  C   UNL A   1      38.397  30.045  32.112  1.00  0.00     0.012 A 
ATOM     61  C   UNL A   1      37.597  31.089  30.064  1.00  0.00     0.148 A 
ATOM     62  C   UNL A   1      37.237  30.445  32.775  1.00  0.00     0.002 A 
ATOM     63  C   UNL A   1      36.461  31.516  30.743  1.00  0.00     0.091 A 
ATOM     64  F   UNL A   1      37.778  31.347  28.761  1.00  0.00    -0.205 F 
ATOM     65  C   UNL A   1      36.275  31.188  32.095  1.00  0.00     0.022 A 
BRANCH  63  66
ATOM     66  S   UNL A   1      35.208  32.540  29.961  1.00  0.00     0.127 S 
ATOM     67  O   UNL A   1      34.294  32.794  31.073  1.00  0.00    -0.237 OA
ATOM     68  O   UNL A   1      35.980  33.708  29.530  1.00  0.00    -0.237 OA
ATOM     69  O   UNL A   1      34.670  31.741  28.869  1.00  0.00    -0.744 OA
ENDBRANCH  63  66
ENDBRANCH  45  59
BRANCH  46  70
ATOM     70  C   UNL A   1      46.804  27.222  26.008  1.00  0.00     0.023 A 
ATOM     71  C   UNL A   1      46.938  27.497  24.633  1.00  0.00     0.012 A 
ATOM     72  C   UNL A   1      47.856  26.573  26.683  1.00  0.00     0.148 A 
ATOM     73  C   UNL A   1      48.091  27.125  23.943  1.00  0.00     0.002 A 
ATOM     74  C   UNL A   1      49.027  26.260  26.002  1.00  0.00     0.091 A 
ATOM     75  F   UNL A   1      47.701  26.291  27.984  1.00  0.00    -0.205 F 
ATOM     76  C   UNL A   1      49.142  26.522  24.629  1.00  0.00     0.022 A 
BRANCH  74  77
ATOM     77  S   UNL A   1      50.478  25.627  26.853  1.00  0.00     0.127 S 
ATOM     78  O   UNL A   1      51.440  25.510  25.761  1.00  0.00    -0.237 OA
ATOM     79  O   UNL A   1      50.763  26.691  27.815  1.00  0.00    -0.237 OA
ATOM     80  O   UNL A   1      50.049  24.375  27.464  1.00  0.00    -0.744 OA
ENDBRANCH  74  77
ENDBRANCH  46  70
BRANCH  58  81
ATOM     81  C   UNL A   1      45.078  33.125  29.316  1.00  0.00     0.023 A 
ATOM     82  C   UNL A   1      45.898  33.278  30.452  1.00  0.00     0.012 A 
ATOM     83  C   UNL A   1      45.010  34.161  28.366  1.00  0.00     0.148 A 
ATOM     84  C   UNL A   1      46.621  34.452  30.650  1.00  0.00     0.002 A 
ATOM     85  C   UNL A   1      45.763  35.314  28.551  1.00  0.00     0.091 A 
ATOM     86  F   UNL A   1      44.205  34.005  27.304  1.00  0.00    -0.205 F 
ATOM     87  C   UNL A   1      46.562  35.466  29.696  1.00  0.00     0.022 A 
BRANCH  85  88
ATOM     88  S   UNL A   1      45.807  36.632  27.330  1.00  0.00     0.127 S 
ATOM     89  O   UNL A   1      46.690  37.605  27.970  1.00  0.00    -0.237 OA
ATOM     90  O   UNL A   1      46.381  35.962  26.163  1.00  0.00    -0.237 OA
ATOM     91  O   UNL A   1      44.424  37.054  27.157  1.00  0.00    -0.744 OA
ENDBRANCH  85  88
ENDBRANCH  58  81
ENDBRANCH  32  33
ENDBRANCH  25  27
ENDBRANCH  24  25
ENDBRANCH  23  24
ENDBRANCH   1  23
TORSDOF 19
ENDMDL
