MODEL 1
REMARK VINA RESULT:     -11.9      0.000      0.000
REMARK SMILES Cc1ccccc1NC(=O)C[NH+]1CCC(CC(=O)OCCOC(=O)c2ccc(-c3c4nc(c(-c5cccc(S(=O)(=O)[O-])c5F)c5ccc([nH]5)c(-c5cccc(S(=O)(=O)[O-])c5F)c5nc(c(-c6cccc(S(=O)(=O)[O-])c6F)c6ccc3[nH]6)C=C5)C=C4)cc2)CC1
REMARK SMILES IDX 20 1 19 2 17 3 18 4 16 5 15 6 12 7 13 8 89 9 14 11 88 12
REMARK SMILES IDX 11 13 9 14 8 15 10 17 7 18 1 19 2 20 3 21 4 22 6 23 5 24
REMARK SMILES IDX 21 25 22 26 23 27 24 28 25 29 26 30 87 31 27 32 86 33 28 34
REMARK SMILES IDX 29 35 30 36 80 37 31 38 85 39 79 40 81 41 32 42 84 43 78 44
REMARK SMILES IDX 77 45 33 47 65 48 45 49 64 50 46 51 49 52 63 53 82 54 47 55
REMARK SMILES IDX 48 56 62 58 83 59 50 60 34 61 35 62 43 63 36 64 38 65 44 66
REMARK SMILES IDX 37 67 39 68 40 69 41 70 42 71 66 72 67 73 75 74 68 75 70 76
REMARK SMILES IDX 76 77 69 78 71 79 72 80 73 81 74 82 51 83 52 84 60 85 53 86
REMARK SMILES IDX 55 87 61 88 54 89 56 90 57 91 58 92 59 93
REMARK H PARENT 12 10 8 16 81 46 49 57
REMARK Flexibility Score: inf
ROOT
ATOM      1  C   UNL A   1      32.279  28.587  26.361  1.00  0.00     0.274 C 
ENDROOT
BRANCH   1   2
ATOM      2  O   UNL A   1      32.295  27.362  25.601  1.00  0.00    -0.462 OA
BRANCH   2   3
ATOM      3  C   UNL A   1      31.701  27.394  24.389  1.00  0.00     0.306 C 
ATOM      4  O   UNL A   1      30.573  27.836  24.211  1.00  0.00    -0.252 OA
BRANCH   3   5
ATOM      5  C   UNL A   1      32.600  26.822  23.303  1.00  0.00     0.126 C 
BRANCH   5   6
ATOM      6  C   UNL A   1      32.429  25.306  23.297  1.00  0.00     0.011 C 
ATOM      7  N   UNL A   1      32.696  22.516  24.035  1.00  0.00    -0.327 N 
ATOM      8  C   UNL A   1      33.631  23.148  23.103  1.00  0.00     0.262 C 
ATOM      9  C   UNL A   1      31.400  23.203  24.135  1.00  0.00     0.262 C 
ATOM     10  H   UNL A   1      33.090  22.625  24.971  1.00  0.00     0.348 HD
ATOM     11  C   UNL A   1      33.792  24.623  23.425  1.00  0.00     0.066 C 
ATOM     12  C   UNL A   1      31.518  24.721  24.376  1.00  0.00     0.066 C 
BRANCH   7  13
ATOM     13  C   UNL A   1      32.603  21.060  23.800  1.00  0.00     0.363 C 
BRANCH  13  14
ATOM     14  C   UNL A   1      32.948  20.164  25.001  1.00  0.00     0.279 C 
ATOM     15  N   UNL A   1      34.069  20.290  25.771  1.00  0.00    -0.321 N 
ATOM     16  H   UNL A   1      34.094  19.666  26.531  1.00  0.00     0.170 HD
ATOM     17  O   UNL A   1      32.147  19.282  25.354  1.00  0.00    -0.268 OA
BRANCH  15  18
ATOM     18  C   UNL A   1      35.194  21.131  25.702  1.00  0.00     0.044 A 
ATOM     19  C   UNL A   1      34.034  22.852  27.238  1.00  0.00     0.046 C 
ATOM     20  C   UNL A   1      35.151  22.391  26.337  1.00  0.00    -0.027 A 
ATOM     21  C   UNL A   1      36.211  23.295  26.133  1.00  0.00     0.005 A 
ATOM     22  C   UNL A   1      37.301  22.958  25.335  1.00  0.00     0.000 A 
ATOM     23  C   UNL A   1      36.347  20.773  24.999  1.00  0.00     0.026 A 
ATOM     24  C   UNL A   1      37.381  21.686  24.790  1.00  0.00     0.002 A 
ENDBRANCH  15  18
ENDBRANCH  13  14
ENDBRANCH   7  13
ENDBRANCH   5   6
ENDBRANCH   3   5
ENDBRANCH   2   3
ENDBRANCH   1   2
BRANCH   1  25
ATOM     25  C   UNL A   1      33.528  28.887  27.237  1.00  0.00     0.275 C 
BRANCH  25  26
ATOM     26  O   UNL A   1      34.278  30.083  26.908  1.00  0.00    -0.458 OA
BRANCH  26  27
ATOM     27  C   UNL A   1      34.690  30.880  27.947  1.00  0.00     0.338 C 
ATOM     28  O   UNL A   1      34.116  31.872  28.323  1.00  0.00    -0.246 OA
BRANCH  27  29
ATOM     29  C   UNL A   1      35.946  30.322  28.522  1.00  0.00     0.060 A 
ATOM     30  C   UNL A   1      36.049  29.811  29.826  1.00  0.00     0.016 A 
ATOM     31  C   UNL A   1      36.984  30.131  27.626  1.00  0.00     0.016 A 
ATOM     32  C   UNL A   1      37.163  29.022  30.183  1.00  0.00     0.010 A 
ATOM     33  C   UNL A   1      37.890  29.145  27.883  1.00  0.00     0.010 A 
ATOM     34  C   UNL A   1      38.060  28.644  29.184  1.00  0.00    -0.014 A 
BRANCH  34  35
ATOM     35  C   UNL A   1      39.378  28.021  29.329  1.00  0.00     0.031 A 
ATOM     36  C   UNL A   1      39.787  26.675  28.901  1.00  0.00     0.074 A 
ATOM     37  C   UNL A   1      40.328  28.980  29.449  1.00  0.00     0.049 A 
ATOM     38  N   UNL A   1      40.990  26.249  29.093  1.00  0.00    -0.248 NA
ATOM     39  C   UNL A   1      38.944  25.705  28.221  1.00  0.00     0.031 C 
ATOM     40  C   UNL A   1      41.686  29.025  28.945  1.00  0.00     0.029 A 
ATOM     41  N   UNL A   1      40.147  30.235  30.032  1.00  0.00    -0.354 N 
ATOM     42  C   UNL A   1      41.173  25.107  28.348  1.00  0.00     0.074 A 
ATOM     43  C   UNL A   1      39.842  24.758  27.899  1.00  0.00     0.031 C 
ATOM     44  C   UNL A   1      42.283  30.125  29.438  1.00  0.00     0.029 A 
ATOM     45  C   UNL A   1      41.389  30.702  30.431  1.00  0.00     0.049 A 
ATOM     46  H   UNL A   1      39.289  30.705  30.139  1.00  0.00     0.167 HD
ATOM     47  C   UNL A   1      42.450  24.685  28.108  1.00  0.00     0.034 A 
ATOM     48  C   UNL A   1      41.639  30.943  31.750  1.00  0.00     0.034 A 
ATOM     49  C   UNL A   1      43.436  25.629  28.684  1.00  0.00     0.049 A 
ATOM     50  C   UNL A   1      42.698  29.987  32.270  1.00  0.00     0.074 A 
ATOM     51  C   UNL A   1      44.250  26.615  28.147  1.00  0.00     0.029 A 
ATOM     52  N   UNL A   1      43.507  25.789  30.060  1.00  0.00    -0.354 N 
ATOM     53  N   UNL A   1      43.405  29.174  31.532  1.00  0.00    -0.248 NA
ATOM     54  C   UNL A   1      42.949  29.797  33.692  1.00  0.00     0.031 C 
ATOM     55  C   UNL A   1      44.811  27.369  29.220  1.00  0.00     0.029 A 
ATOM     56  C   UNL A   1      44.363  26.827  30.412  1.00  0.00     0.049 A 
ATOM     57  H   UNL A   1      43.013  25.236  30.707  1.00  0.00     0.167 HD
ATOM     58  C   UNL A   1      43.996  28.229  32.330  1.00  0.00     0.074 A 
ATOM     59  C   UNL A   1      43.720  28.699  33.680  1.00  0.00     0.031 C 
ATOM     60  C   UNL A   1      44.585  27.093  31.831  1.00  0.00     0.034 A 
BRANCH  47  61
ATOM     61  C   UNL A   1      42.894  23.559  27.175  1.00  0.00     0.023 A 
ATOM     62  C   UNL A   1      43.827  23.893  26.159  1.00  0.00     0.012 A 
ATOM     63  C   UNL A   1      42.487  22.205  27.204  1.00  0.00     0.148 A 
ATOM     64  C   UNL A   1      44.257  22.985  25.186  1.00  0.00     0.002 A 
ATOM     65  C   UNL A   1      42.886  21.301  26.206  1.00  0.00     0.091 A 
ATOM     66  F   UNL A   1      41.762  21.753  28.231  1.00  0.00    -0.205 F 
ATOM     67  C   UNL A   1      43.765  21.692  25.193  1.00  0.00     0.022 A 
BRANCH  65  68
ATOM     68  S   UNL A   1      42.269  19.608  26.106  1.00  0.00     0.127 S 
ATOM     69  O   UNL A   1      42.582  19.093  27.442  1.00  0.00    -0.237 OA
ATOM     70  O   UNL A   1      40.843  19.802  25.854  1.00  0.00    -0.237 OA
ATOM     71  O   UNL A   1      43.012  18.966  25.030  1.00  0.00    -0.744 OA
ENDBRANCH  65  68
ENDBRANCH  47  61
BRANCH  48  72
ATOM     72  C   UNL A   1      40.394  31.369  32.495  1.00  0.00     0.023 A 
ATOM     73  C   UNL A   1      39.556  30.335  32.991  1.00  0.00     0.012 A 
ATOM     74  C   UNL A   1      40.297  32.641  33.095  1.00  0.00     0.148 A 
ATOM     75  C   UNL A   1      38.751  30.529  34.119  1.00  0.00     0.002 A 
ATOM     76  C   UNL A   1      39.500  32.821  34.228  1.00  0.00     0.091 A 
ATOM     77  F   UNL A   1      41.064  33.637  32.638  1.00  0.00    -0.205 F 
ATOM     78  C   UNL A   1      38.745  31.765  34.757  1.00  0.00     0.022 A 
BRANCH  76  79
ATOM     79  S   UNL A   1      39.578  34.371  35.140  1.00  0.00     0.127 S 
ATOM     80  O   UNL A   1      39.009  34.019  36.442  1.00  0.00    -0.237 OA
ATOM     81  O   UNL A   1      41.002  34.674  35.184  1.00  0.00    -0.237 OA
ATOM     82  O   UNL A   1      38.742  35.241  34.320  1.00  0.00    -0.744 OA
ENDBRANCH  76  79
ENDBRANCH  48  72
BRANCH  60  83
ATOM     83  C   UNL A   1      45.349  26.073  32.669  1.00  0.00     0.023 A 
ATOM     84  C   UNL A   1      46.745  25.929  32.567  1.00  0.00     0.012 A 
ATOM     85  C   UNL A   1      44.693  25.144  33.522  1.00  0.00     0.148 A 
ATOM     86  C   UNL A   1      47.469  25.051  33.381  1.00  0.00     0.002 A 
ATOM     87  C   UNL A   1      45.409  24.253  34.316  1.00  0.00     0.091 A 
ATOM     88  F   UNL A   1      43.360  25.055  33.521  1.00  0.00    -0.205 F 
ATOM     89  C   UNL A   1      46.802  24.230  34.276  1.00  0.00     0.022 A 
BRANCH  87  90
ATOM     90  S   UNL A   1      44.593  23.078  35.406  1.00  0.00     0.127 S 
ATOM     91  O   UNL A   1      44.154  22.056  34.456  1.00  0.00    -0.237 OA
ATOM     92  O   UNL A   1      45.691  22.665  36.282  1.00  0.00    -0.237 OA
ATOM     93  O   UNL A   1      43.532  23.817  36.073  1.00  0.00    -0.744 OA
ENDBRANCH  87  90
ENDBRANCH  60  83
ENDBRANCH  34  35
ENDBRANCH  27  29
ENDBRANCH  26  27
ENDBRANCH  25  26
ENDBRANCH   1  25
TORSDOF 18
ENDMDL
MODEL 2
REMARK VINA RESULT:     -11.9      2.020      2.652
REMARK SMILES Cc1ccccc1NC(=O)C[NH+]1CCC(CC(=O)OCCOC(=O)c2ccc(-c3c4nc(c(-c5cccc(S(=O)(=O)[O-])c5F)c5ccc([nH]5)c(-c5cccc(S(=O)(=O)[O-])c5F)c5nc(c(-c6cccc(S(=O)(=O)[O-])c6F)c6ccc3[nH]6)C=C5)C=C4)cc2)CC1
REMARK SMILES IDX 20 1 19 2 17 3 18 4 16 5 15 6 12 7 13 8 89 9 14 11 88 12
REMARK SMILES IDX 11 13 9 14 8 15 10 17 7 18 1 19 2 20 3 21 4 22 6 23 5 24
REMARK SMILES IDX 21 25 22 26 23 27 24 28 25 29 26 30 87 31 27 32 86 33 28 34
REMARK SMILES IDX 29 35 30 36 80 37 31 38 85 39 79 40 81 41 32 42 84 43 78 44
REMARK SMILES IDX 77 45 33 47 65 48 45 49 64 50 46 51 49 52 63 53 82 54 47 55
REMARK SMILES IDX 48 56 62 58 83 59 50 60 34 61 35 62 43 63 36 64 38 65 44 66
REMARK SMILES IDX 37 67 39 68 40 69 41 70 42 71 66 72 67 73 75 74 68 75 70 76
REMARK SMILES IDX 76 77 69 78 71 79 72 80 73 81 74 82 51 83 52 84 60 85 53 86
REMARK SMILES IDX 55 87 61 88 54 89 56 90 57 91 58 92 59 93
REMARK H PARENT 12 10 8 16 81 46 49 57
REMARK Flexibility Score: inf
ROOT
ATOM      1  C   UNL A   1      33.341  29.599  25.881  1.00  0.00     0.274 C 
ENDROOT
BRANCH   1   2
ATOM      2  O   UNL A   1      32.684  28.330  25.692  1.00  0.00    -0.462 OA
BRANCH   2   3
ATOM      3  C   UNL A   1      32.114  28.116  24.487  1.00  0.00     0.306 C 
ATOM      4  O   UNL A   1      32.473  28.693  23.469  1.00  0.00    -0.252 OA
BRANCH   3   5
ATOM      5  C   UNL A   1      30.996  27.086  24.565  1.00  0.00     0.126 C 
BRANCH   5   6
ATOM      6  C   UNL A   1      31.595  25.716  24.265  1.00  0.00     0.011 C 
ATOM      7  N   UNL A   1      31.832  22.960  23.397  1.00  0.00    -0.327 N 
ATOM      8  C   UNL A   1      31.422  23.295  24.762  1.00  0.00     0.262 C 
ATOM      9  C   UNL A   1      32.578  24.032  22.721  1.00  0.00     0.262 C 
ATOM     10  H   UNL A   1      30.980  22.883  22.841  1.00  0.00     0.348 HD
ATOM     11  C   UNL A   1      30.671  24.614  24.787  1.00  0.00     0.066 C 
ATOM     12  C   UNL A   1      31.891  25.410  22.797  1.00  0.00     0.066 C 
BRANCH   7  13
ATOM     13  C   UNL A   1      32.478  21.632  23.338  1.00  0.00     0.363 C 
BRANCH  13  14
ATOM     14  C   UNL A   1      32.724  20.946  24.692  1.00  0.00     0.279 C 
ATOM     15  N   UNL A   1      33.807  21.172  25.494  1.00  0.00    -0.321 N 
ATOM     16  H   UNL A   1      33.767  20.687  26.349  1.00  0.00     0.170 HD
ATOM     17  O   UNL A   1      31.873  20.161  25.142  1.00  0.00    -0.268 OA
BRANCH  15  18
ATOM     18  C   UNL A   1      34.964  21.956  25.349  1.00  0.00     0.044 A 
ATOM     19  C   UNL A   1      36.361  19.845  24.840  1.00  0.00     0.046 C 
ATOM     20  C   UNL A   1      36.202  21.319  25.115  1.00  0.00    -0.027 A 
ATOM     21  C   UNL A   1      37.381  22.089  25.131  1.00  0.00     0.005 A 
ATOM     22  C   UNL A   1      37.340  23.462  25.355  1.00  0.00     0.000 A 
ATOM     23  C   UNL A   1      34.937  23.349  25.459  1.00  0.00     0.026 A 
ATOM     24  C   UNL A   1      36.115  24.097  25.492  1.00  0.00     0.002 A 
ENDBRANCH  15  18
ENDBRANCH  13  14
ENDBRANCH   7  13
ENDBRANCH   5   6
ENDBRANCH   3   5
ENDBRANCH   2   3
ENDBRANCH   1   2
BRANCH   1  25
ATOM     25  C   UNL A   1      34.026  29.840  27.255  1.00  0.00     0.275 C 
BRANCH  25  26
ATOM     26  O   UNL A   1      34.907  30.987  27.348  1.00  0.00    -0.458 OA
BRANCH  26  27
ATOM     27  C   UNL A   1      35.710  31.083  28.458  1.00  0.00     0.338 C 
ATOM     28  O   UNL A   1      35.535  31.855  29.368  1.00  0.00    -0.246 OA
BRANCH  27  29
ATOM     29  C   UNL A   1      36.816  30.091  28.348  1.00  0.00     0.060 A 
ATOM     30  C   UNL A   1      37.728  30.053  27.280  1.00  0.00     0.016 A 
ATOM     31  C   UNL A   1      37.045  29.320  29.474  1.00  0.00     0.016 A 
ATOM     32  C   UNL A   1      38.919  29.307  27.403  1.00  0.00     0.010 A 
ATOM     33  C   UNL A   1      38.306  28.851  29.695  1.00  0.00     0.010 A 
ATOM     34  C   UNL A   1      39.230  28.748  28.642  1.00  0.00    -0.014 A 
BRANCH  34  35
ATOM     35  C   UNL A   1      40.275  27.773  28.967  1.00  0.00     0.031 A 
ATOM     36  C   UNL A   1      40.310  26.345  28.619  1.00  0.00     0.074 A 
ATOM     37  C   UNL A   1      41.446  28.415  29.194  1.00  0.00     0.049 A 
ATOM     38  N   UNL A   1      41.299  25.595  28.972  1.00  0.00    -0.248 NA
ATOM     39  C   UNL A   1      39.304  25.631  27.850  1.00  0.00     0.031 C 
ATOM     40  C   UNL A   1      42.806  28.030  28.872  1.00  0.00     0.029 A 
ATOM     41  N   UNL A   1      41.581  29.697  29.728  1.00  0.00    -0.354 N 
ATOM     42  C   UNL A   1      41.220  24.411  28.277  1.00  0.00     0.074 A 
ATOM     43  C   UNL A   1      39.909  24.446  27.664  1.00  0.00     0.031 C 
ATOM     44  C   UNL A   1      43.641  28.931  29.420  1.00  0.00     0.029 A 
ATOM     45  C   UNL A   1      42.848  29.799  30.278  1.00  0.00     0.049 A 
ATOM     46  H   UNL A   1      40.896  30.404  29.716  1.00  0.00     0.167 HD
ATOM     47  C   UNL A   1      42.332  23.620  28.212  1.00  0.00     0.034 A 
ATOM     48  C   UNL A   1      42.999  30.027  31.615  1.00  0.00     0.034 A 
ATOM     49  C   UNL A   1      43.478  24.261  28.896  1.00  0.00     0.049 A 
ATOM     50  C   UNL A   1      43.654  28.831  32.284  1.00  0.00     0.074 A 
ATOM     51  C   UNL A   1      44.608  24.933  28.454  1.00  0.00     0.029 A 
ATOM     52  N   UNL A   1      43.429  24.468  30.267  1.00  0.00    -0.354 N 
ATOM     53  N   UNL A   1      44.169  27.808  31.658  1.00  0.00    -0.248 NA
ATOM     54  C   UNL A   1      43.664  28.654  33.730  1.00  0.00     0.031 C 
ATOM     55  C   UNL A   1      45.236  25.546  29.579  1.00  0.00     0.029 A 
ATOM     56  C   UNL A   1      44.508  25.225  30.710  1.00  0.00     0.049 A 
ATOM     57  H   UNL A   1      42.719  24.121  30.853  1.00  0.00     0.167 HD
ATOM     58  C   UNL A   1      44.350  26.775  32.542  1.00  0.00     0.074 A 
ATOM     59  C   UNL A   1      44.067  27.378  33.836  1.00  0.00     0.031 C 
ATOM     60  C   UNL A   1      44.628  25.491  32.142  1.00  0.00     0.034 A 
BRANCH  47  61
ATOM     61  C   UNL A   1      42.527  22.364  27.363  1.00  0.00     0.023 A 
ATOM     62  C   UNL A   1      41.647  21.278  27.605  1.00  0.00     0.012 A 
ATOM     63  C   UNL A   1      43.487  22.152  26.346  1.00  0.00     0.148 A 
ATOM     64  C   UNL A   1      41.760  20.042  26.961  1.00  0.00     0.002 A 
ATOM     65  C   UNL A   1      43.629  20.899  25.726  1.00  0.00     0.091 A 
ATOM     66  F   UNL A   1      44.233  23.173  25.916  1.00  0.00    -0.205 F 
ATOM     67  C   UNL A   1      42.770  19.842  26.038  1.00  0.00     0.022 A 
BRANCH  65  68
ATOM     68  S   UNL A   1      44.938  20.530  24.541  1.00  0.00     0.127 S 
ATOM     69  O   UNL A   1      46.144  20.826  25.318  1.00  0.00    -0.237 OA
ATOM     70  O   UNL A   1      44.730  19.109  24.268  1.00  0.00    -0.237 OA
ATOM     71  O   UNL A   1      44.725  21.421  23.407  1.00  0.00    -0.744 OA
ENDBRANCH  65  68
ENDBRANCH  47  61
BRANCH  48  72
ATOM     72  C   UNL A   1      41.859  30.841  32.184  1.00  0.00     0.023 A 
ATOM     73  C   UNL A   1      41.663  32.140  31.642  1.00  0.00     0.012 A 
ATOM     74  C   UNL A   1      40.768  30.225  32.831  1.00  0.00     0.148 A 
ATOM     75  C   UNL A   1      40.399  32.741  31.634  1.00  0.00     0.002 A 
ATOM     76  C   UNL A   1      39.508  30.828  32.806  1.00  0.00     0.091 A 
ATOM     77  F   UNL A   1      40.930  29.008  33.363  1.00  0.00    -0.205 F 
ATOM     78  C   UNL A   1      39.314  32.072  32.190  1.00  0.00     0.022 A 
BRANCH  76  79
ATOM     79  S   UNL A   1      38.072  29.924  33.404  1.00  0.00     0.127 S 
ATOM     80  O   UNL A   1      38.165  30.077  34.857  1.00  0.00    -0.237 OA
ATOM     81  O   UNL A   1      36.946  30.631  32.810  1.00  0.00    -0.237 OA
ATOM     82  O   UNL A   1      38.341  28.577  32.910  1.00  0.00    -0.744 OA
ENDBRANCH  76  79
ENDBRANCH  48  72
BRANCH  60  83
ATOM     83  C   UNL A   1      44.946  24.339  33.089  1.00  0.00     0.023 A 
ATOM     84  C   UNL A   1      43.962  23.412  33.483  1.00  0.00     0.012 A 
ATOM     85  C   UNL A   1      46.218  24.189  33.705  1.00  0.00     0.148 A 
ATOM     86  C   UNL A   1      44.254  22.308  34.291  1.00  0.00     0.002 A 
ATOM     87  C   UNL A   1      46.505  23.103  34.528  1.00  0.00     0.091 A 
ATOM     88  F   UNL A   1      47.149  25.137  33.567  1.00  0.00    -0.205 F 
ATOM     89  C   UNL A   1      45.534  22.138  34.793  1.00  0.00     0.022 A 
BRANCH  87  90
ATOM     90  S   UNL A   1      48.112  22.896  35.307  1.00  0.00     0.127 S 
ATOM     91  O   UNL A   1      48.132  24.022  36.239  1.00  0.00    -0.237 OA
ATOM     92  O   UNL A   1      47.974  21.583  35.940  1.00  0.00    -0.237 OA
ATOM     93  O   UNL A   1      49.091  22.949  34.232  1.00  0.00    -0.744 OA
ENDBRANCH  87  90
ENDBRANCH  60  83
ENDBRANCH  34  35
ENDBRANCH  27  29
ENDBRANCH  26  27
ENDBRANCH  25  26
ENDBRANCH   1  25
TORSDOF 18
ENDMDL
MODEL 3
REMARK VINA RESULT:     -11.9      3.920      9.571
REMARK SMILES Cc1ccccc1NC(=O)C[NH+]1CCC(CC(=O)OCCOC(=O)c2ccc(-c3c4nc(c(-c5cccc(S(=O)(=O)[O-])c5F)c5ccc([nH]5)c(-c5cccc(S(=O)(=O)[O-])c5F)c5nc(c(-c6cccc(S(=O)(=O)[O-])c6F)c6ccc3[nH]6)C=C5)C=C4)cc2)CC1
REMARK SMILES IDX 20 1 19 2 17 3 18 4 16 5 15 6 12 7 13 8 89 9 14 11 88 12
REMARK SMILES IDX 11 13 9 14 8 15 10 17 7 18 1 19 2 20 3 21 4 22 6 23 5 24
REMARK SMILES IDX 21 25 22 26 23 27 24 28 25 29 26 30 87 31 27 32 86 33 28 34
REMARK SMILES IDX 29 35 30 36 80 37 31 38 85 39 79 40 81 41 32 42 84 43 78 44
REMARK SMILES IDX 77 45 33 47 65 48 45 49 64 50 46 51 49 52 63 53 82 54 47 55
REMARK SMILES IDX 48 56 62 58 83 59 50 60 34 61 35 62 43 63 36 64 38 65 44 66
REMARK SMILES IDX 37 67 39 68 40 69 41 70 42 71 66 72 67 73 75 74 68 75 70 76
REMARK SMILES IDX 76 77 69 78 71 79 72 80 73 81 74 82 51 83 52 84 60 85 53 86
REMARK SMILES IDX 55 87 61 88 54 89 56 90 57 91 58 92 59 93
REMARK H PARENT 12 10 8 16 81 46 49 57
REMARK Flexibility Score: inf
ROOT
ATOM      1  C   UNL A   1      36.724  21.638  24.713  1.00  0.00     0.274 C 
ENDROOT
BRANCH   1   2
ATOM      2  O   UNL A   1      35.305  21.405  24.613  1.00  0.00    -0.462 OA
BRANCH   2   3
ATOM      3  C   UNL A   1      34.551  22.434  24.170  1.00  0.00     0.306 C 
ATOM      4  O   UNL A   1      35.031  23.492  23.783  1.00  0.00    -0.252 OA
BRANCH   3   5
ATOM      5  C   UNL A   1      33.066  22.109  24.215  1.00  0.00     0.126 C 
BRANCH   5   6
ATOM      6  C   UNL A   1      32.298  23.420  24.339  1.00  0.00     0.011 C 
ATOM      7  N   UNL A   1      30.103  25.312  24.434  1.00  0.00    -0.327 N 
ATOM      8  C   UNL A   1      30.750  24.962  23.169  1.00  0.00     0.262 C 
ATOM      9  C   UNL A   1      30.940  25.065  25.618  1.00  0.00     0.262 C 
ATOM     10  H   UNL A   1      29.325  24.663  24.560  1.00  0.00     0.348 HD
ATOM     11  C   UNL A   1      31.271  23.536  23.210  1.00  0.00     0.066 C 
ATOM     12  C   UNL A   1      31.561  23.655  25.657  1.00  0.00     0.066 C 
BRANCH   7  13
ATOM     13  C   UNL A   1      29.502  26.661  24.377  1.00  0.00     0.363 C 
BRANCH  13  14
ATOM     14  C   UNL A   1      30.189  27.661  23.433  1.00  0.00     0.279 C 
ATOM     15  N   UNL A   1      31.309  28.380  23.741  1.00  0.00    -0.321 N 
ATOM     16  H   UNL A   1      31.640  28.927  22.993  1.00  0.00     0.170 HD
ATOM     17  O   UNL A   1      29.749  27.813  22.281  1.00  0.00    -0.268 OA
BRANCH  15  18
ATOM     18  C   UNL A   1      32.086  28.499  24.906  1.00  0.00     0.044 A 
ATOM     19  C   UNL A   1      33.826  26.852  23.944  1.00  0.00     0.046 C 
ATOM     20  C   UNL A   1      33.249  27.710  25.040  1.00  0.00    -0.027 A 
ATOM     21  C   UNL A   1      33.936  27.709  26.270  1.00  0.00     0.005 A 
ATOM     22  C   UNL A   1      33.497  28.485  27.339  1.00  0.00     0.000 A 
ATOM     23  C   UNL A   1      31.730  29.353  25.953  1.00  0.00     0.026 A 
ATOM     24  C   UNL A   1      32.409  29.328  27.172  1.00  0.00     0.002 A 
ENDBRANCH  15  18
ENDBRANCH  13  14
ENDBRANCH   7  13
ENDBRANCH   5   6
ENDBRANCH   3   5
ENDBRANCH   2   3
ENDBRANCH   1   2
BRANCH   1  25
ATOM     25  C   UNL A   1      37.220  22.437  25.951  1.00  0.00     0.275 C 
BRANCH  25  26
ATOM     26  O   UNL A   1      38.428  23.218  25.775  1.00  0.00    -0.458 OA
BRANCH  26  27
ATOM     27  C   UNL A   1      39.405  23.101  26.732  1.00  0.00     0.338 C 
ATOM     28  O   UNL A   1      39.856  22.054  27.130  1.00  0.00    -0.246 OA
BRANCH  27  29
ATOM     29  C   UNL A   1      39.808  24.460  27.190  1.00  0.00     0.060 A 
ATOM     30  C   UNL A   1      40.403  25.420  26.355  1.00  0.00     0.016 A 
ATOM     31  C   UNL A   1      39.370  24.823  28.451  1.00  0.00     0.016 A 
ATOM     32  C   UNL A   1      40.460  26.768  26.768  1.00  0.00     0.010 A 
ATOM     33  C   UNL A   1      39.167  26.146  28.712  1.00  0.00     0.010 A 
ATOM     34  C   UNL A   1      39.787  27.137  27.933  1.00  0.00    -0.014 A 
BRANCH  34  35
ATOM     35  C   UNL A   1      39.867  28.399  28.673  1.00  0.00     0.031 A 
ATOM     36  C   UNL A   1      38.924  29.527  28.629  1.00  0.00     0.074 A 
ATOM     37  C   UNL A   1      40.631  28.234  29.780  1.00  0.00     0.049 A 
ATOM     38  N   UNL A   1      39.118  30.588  29.338  1.00  0.00    -0.248 NA
ATOM     39  C   UNL A   1      37.701  29.586  27.845  1.00  0.00     0.031 C 
ATOM     40  C   UNL A   1      40.498  28.804  31.106  1.00  0.00     0.029 A 
ATOM     41  N   UNL A   1      41.706  27.353  29.902  1.00  0.00    -0.354 N 
ATOM     42  C   UNL A   1      37.962  31.333  29.334  1.00  0.00     0.074 A 
ATOM     43  C   UNL A   1      37.143  30.714  28.314  1.00  0.00     0.031 C 
ATOM     44  C   UNL A   1      41.577  28.449  31.827  1.00  0.00     0.029 A 
ATOM     45  C   UNL A   1      42.523  27.816  30.920  1.00  0.00     0.049 A 
ATOM     46  H   UNL A   1      41.856  26.545  29.360  1.00  0.00     0.167 HD
ATOM     47  C   UNL A   1      37.807  32.298  30.290  1.00  0.00     0.034 A 
ATOM     48  C   UNL A   1      43.809  28.183  30.654  1.00  0.00     0.034 A 
ATOM     49  C   UNL A   1      38.957  32.307  31.223  1.00  0.00     0.049 A 
ATOM     50  C   UNL A   1      43.991  29.673  30.887  1.00  0.00     0.074 A 
ATOM     51  C   UNL A   1      39.150  31.840  32.514  1.00  0.00     0.029 A 
ATOM     52  N   UNL A   1      40.216  32.654  30.755  1.00  0.00    -0.354 N 
ATOM     53  N   UNL A   1      43.108  30.462  31.437  1.00  0.00    -0.248 NA
ATOM     54  C   UNL A   1      45.153  30.404  30.399  1.00  0.00     0.031 C 
ATOM     55  C   UNL A   1      40.543  31.912  32.815  1.00  0.00     0.029 A 
ATOM     56  C   UNL A   1      41.196  32.449  31.720  1.00  0.00     0.049 A 
ATOM     57  H   UNL A   1      40.393  33.004  29.853  1.00  0.00     0.167 HD
ATOM     58  C   UNL A   1      43.438  31.768  31.179  1.00  0.00     0.074 A 
ATOM     59  C   UNL A   1      44.757  31.674  30.571  1.00  0.00     0.031 C 
ATOM     60  C   UNL A   1      42.574  32.813  31.398  1.00  0.00     0.034 A 
BRANCH  47  61
ATOM     61  C   UNL A   1      36.551  33.118  30.583  1.00  0.00     0.023 A 
ATOM     62  C   UNL A   1      36.127  33.188  31.935  1.00  0.00     0.012 A 
ATOM     63  C   UNL A   1      35.753  33.832  29.658  1.00  0.00     0.148 A 
ATOM     64  C   UNL A   1      34.953  33.833  32.336  1.00  0.00     0.002 A 
ATOM     65  C   UNL A   1      34.553  34.447  30.053  1.00  0.00     0.091 A 
ATOM     66  F   UNL A   1      36.173  33.983  28.400  1.00  0.00    -0.205 F 
ATOM     67  C   UNL A   1      34.150  34.442  31.390  1.00  0.00     0.022 A 
BRANCH  65  68
ATOM     68  S   UNL A   1      33.420  35.231  28.888  1.00  0.00     0.127 S 
ATOM     69  O   UNL A   1      32.548  35.997  29.782  1.00  0.00    -0.237 OA
ATOM     70  O   UNL A   1      34.316  36.049  28.073  1.00  0.00    -0.237 OA
ATOM     71  O   UNL A   1      32.747  34.149  28.181  1.00  0.00    -0.744 OA
ENDBRANCH  65  68
ENDBRANCH  47  61
BRANCH  48  72
ATOM     72  C   UNL A   1      44.400  27.391  29.509  1.00  0.00     0.023 A 
ATOM     73  C   UNL A   1      44.644  26.011  29.741  1.00  0.00     0.012 A 
ATOM     74  C   UNL A   1      44.270  27.822  28.173  1.00  0.00     0.148 A 
ATOM     75  C   UNL A   1      44.630  25.084  28.693  1.00  0.00     0.002 A 
ATOM     76  C   UNL A   1      44.245  26.887  27.136  1.00  0.00     0.091 A 
ATOM     77  F   UNL A   1      44.055  29.119  27.926  1.00  0.00    -0.205 F 
ATOM     78  C   UNL A   1      44.401  25.518  27.392  1.00  0.00     0.022 A 
BRANCH  76  79
ATOM     79  S   UNL A   1      43.823  27.414  25.467  1.00  0.00     0.127 S 
ATOM     80  O   UNL A   1      45.108  27.855  24.923  1.00  0.00    -0.237 OA
ATOM     81  O   UNL A   1      43.305  26.203  24.844  1.00  0.00    -0.237 OA
ATOM     82  O   UNL A   1      42.866  28.484  25.726  1.00  0.00    -0.744 OA
ENDBRANCH  76  79
ENDBRANCH  48  72
BRANCH  60  83
ATOM     83  C   UNL A   1      42.935  34.285  31.231  1.00  0.00     0.023 A 
ATOM     84  C   UNL A   1      43.200  35.112  32.339  1.00  0.00     0.012 A 
ATOM     85  C   UNL A   1      42.928  34.932  29.965  1.00  0.00     0.148 A 
ATOM     86  C   UNL A   1      43.604  36.444  32.200  1.00  0.00     0.002 A 
ATOM     87  C   UNL A   1      43.308  36.264  29.826  1.00  0.00     0.091 A 
ATOM     88  F   UNL A   1      42.479  34.289  28.884  1.00  0.00    -0.205 F 
ATOM     89  C   UNL A   1      43.684  37.014  30.939  1.00  0.00     0.022 A 
BRANCH  87  90
ATOM     90  S   UNL A   1      43.312  37.093  28.230  1.00  0.00     0.127 S 
ATOM     91  O   UNL A   1      44.213  36.237  27.460  1.00  0.00    -0.237 OA
ATOM     92  O   UNL A   1      41.904  37.004  27.840  1.00  0.00    -0.237 OA
ATOM     93  O   UNL A   1      43.787  38.445  28.481  1.00  0.00    -0.744 OA
ENDBRANCH  87  90
ENDBRANCH  60  83
ENDBRANCH  34  35
ENDBRANCH  27  29
ENDBRANCH  26  27
ENDBRANCH  25  26
ENDBRANCH   1  25
TORSDOF 18
ENDMDL
