MODEL 1
REMARK VINA RESULT:     -11.5      0.000      0.000
REMARK SMILES C[C@@H](C(=O)OCCOC(=O)c1ccc(-c2c3nc(c(-c4cccc(S(=O)(=O)[O-])c4F)c4ccc([nH]4)c(-c4cccc(S(=O)(=O)[O-])c4F)c4nc(c(-c5cccc(S(=O)(=O)[O-])c5F)c5ccc2[nH]5)C=C4)C=C3)cc1)c1ccc(C[C@@H]2CCC[C@@H]2O)cc1F
REMARK SMILES IDX 6 1 5 2 3 3 4 4 2 5 1 6 74 7 75 8 86 9 76 10 85 11 87 12
REMARK SMILES IDX 77 13 78 14 79 15 80 16 83 17 81 18 82 19 84 20 7 22 8 23
REMARK SMILES IDX 9 24 10 25 11 26 12 27 73 28 13 29 72 30 14 31 15 32 16 33
REMARK SMILES IDX 66 34 17 35 71 36 65 37 67 38 18 39 70 40 64 41 63 42 19 44
REMARK SMILES IDX 51 45 31 46 50 47 32 48 35 49 49 50 68 51 33 52 34 53 48 55
REMARK SMILES IDX 69 56 36 57 20 58 21 59 29 60 22 61 24 62 30 63 23 64 25 65
REMARK SMILES IDX 26 66 27 67 28 68 52 69 53 70 61 71 54 72 56 73 62 74 55 75
REMARK SMILES IDX 57 76 58 77 59 78 60 79 37 80 38 81 46 82 39 83 41 84 47 85
REMARK SMILES IDX 40 86 42 87 43 88 44 89 45 90
REMARK H PARENT 84 21 67 43 35 54
REMARK Flexibility Score: inf
ROOT
ATOM      1  C   UNL A   1      31.750  30.859  26.831  1.00  0.00     0.274 C 
ENDROOT
BRANCH   1   2
ATOM      2  O   UNL A   1      32.559  30.539  25.680  1.00  0.00    -0.462 OA
BRANCH   2   3
ATOM      3  C   UNL A   1      32.574  29.225  25.314  1.00  0.00     0.313 C 
ATOM      4  O   UNL A   1      32.133  28.848  24.234  1.00  0.00    -0.252 OA
BRANCH   3   5
ATOM      5  C   UNL A   1      33.074  28.280  26.442  1.00  0.00     0.129 C 
ATOM      6  C   UNL A   1      34.484  28.685  26.902  1.00  0.00     0.025 C 
BRANCH   5   7
ATOM      7  C   UNL A   1      32.914  26.790  26.087  1.00  0.00     0.002 A 
ATOM      8  C   UNL A   1      34.030  26.065  25.634  1.00  0.00     0.008 A 
ATOM      9  C   UNL A   1      31.722  26.062  26.213  1.00  0.00     0.127 A 
ATOM     10  C   UNL A   1      34.000  24.675  25.496  1.00  0.00     0.004 A 
ATOM     11  C   UNL A   1      31.668  24.679  25.998  1.00  0.00     0.043 A 
ATOM     12  F   UNL A   1      30.584  26.660  26.589  1.00  0.00    -0.207 F 
ATOM     13  C   UNL A   1      32.819  23.956  25.667  1.00  0.00    -0.045 A 
BRANCH  13  14
ATOM     14  C   UNL A   1      32.793  22.442  25.638  1.00  0.00     0.041 C 
BRANCH  14  15
ATOM     15  C   UNL A   1      33.453  21.672  24.476  1.00  0.00     0.022 C 
ATOM     16  C   UNL A   1      32.490  21.012  23.483  1.00  0.00     0.007 C 
ATOM     17  C   UNL A   1      34.400  20.537  24.866  1.00  0.00     0.117 C 
ATOM     18  C   UNL A   1      32.494  19.512  23.791  1.00  0.00     0.003 C 
ATOM     19  C   UNL A   1      33.516  19.296  24.902  1.00  0.00     0.032 C 
BRANCH  17  20
ATOM     20  O   UNL A   1      35.070  20.777  26.088  1.00  0.00    -0.393 OA
ATOM     21  H   UNL A   1      36.017  20.595  25.979  1.00  0.00     0.210 HD
ENDBRANCH  17  20
ENDBRANCH  14  15
ENDBRANCH  13  14
ENDBRANCH   5   7
ENDBRANCH   3   5
ENDBRANCH   2   3
ENDBRANCH   1   2
BRANCH   1  22
ATOM     22  C   UNL A   1      31.545  32.366  27.000  1.00  0.00     0.275 C 
BRANCH  22  23
ATOM     23  O   UNL A   1      32.775  33.099  26.851  1.00  0.00    -0.458 OA
BRANCH  23  24
ATOM     24  C   UNL A   1      33.185  33.767  27.953  1.00  0.00     0.338 C 
ATOM     25  O   UNL A   1      32.555  34.617  28.571  1.00  0.00    -0.246 OA
BRANCH  24  26
ATOM     26  C   UNL A   1      34.453  33.206  28.443  1.00  0.00     0.060 A 
ATOM     27  C   UNL A   1      34.402  31.914  28.961  1.00  0.00     0.016 A 
ATOM     28  C   UNL A   1      35.648  33.929  28.481  1.00  0.00     0.016 A 
ATOM     29  C   UNL A   1      35.543  31.328  29.496  1.00  0.00     0.010 A 
ATOM     30  C   UNL A   1      36.798  33.338  29.036  1.00  0.00     0.010 A 
ATOM     31  C   UNL A   1      36.750  32.030  29.543  1.00  0.00    -0.014 A 
BRANCH  31  32
ATOM     32  C   UNL A   1      37.907  31.378  30.206  1.00  0.00     0.031 A 
ATOM     33  C   UNL A   1      38.199  31.677  31.649  1.00  0.00     0.074 A 
ATOM     34  C   UNL A   1      38.618  30.430  29.567  1.00  0.00     0.049 A 
ATOM     35  N   UNL A   1      39.131  31.181  32.422  1.00  0.00    -0.248 NA
ATOM     36  C   UNL A   1      37.311  32.643  32.314  1.00  0.00     0.031 C 
ATOM     37  C   UNL A   1      38.373  29.973  28.201  1.00  0.00     0.029 A 
ATOM     38  N   UNL A   1      39.676  29.665  29.993  1.00  0.00    -0.354 N 
ATOM     39  C   UNL A   1      38.969  31.803  33.652  1.00  0.00     0.074 A 
ATOM     40  C   UNL A   1      37.830  32.690  33.533  1.00  0.00     0.031 C 
ATOM     41  C   UNL A   1      39.252  28.999  27.903  1.00  0.00     0.029 A 
ATOM     42  C   UNL A   1      40.142  28.786  29.043  1.00  0.00     0.049 A 
ATOM     43  H   UNL A   1      40.066  29.738  30.895  1.00  0.00     0.167 HD
ATOM     44  C   UNL A   1      39.705  31.657  34.780  1.00  0.00     0.034 A 
ATOM     45  C   UNL A   1      41.175  27.918  29.085  1.00  0.00     0.034 A 
ATOM     46  C   UNL A   1      40.828  30.770  34.915  1.00  0.00     0.049 A 
ATOM     47  C   UNL A   1      42.013  27.822  30.335  1.00  0.00     0.074 A 
ATOM     48  C   UNL A   1      41.649  30.587  36.015  1.00  0.00     0.029 A 
ATOM     49  N   UNL A   1      41.293  29.922  33.924  1.00  0.00    -0.354 N 
ATOM     50  N   UNL A   1      41.824  28.384  31.505  1.00  0.00    -0.248 NA
ATOM     51  C   UNL A   1      43.208  26.966  30.271  1.00  0.00     0.031 C 
ATOM     52  C   UNL A   1      42.624  29.641  35.680  1.00  0.00     0.029 A 
ATOM     53  C   UNL A   1      42.399  29.224  34.379  1.00  0.00     0.049 A 
ATOM     54  H   UNL A   1      40.895  29.828  33.028  1.00  0.00     0.167 HD
ATOM     55  C   UNL A   1      42.865  27.939  32.316  1.00  0.00     0.074 A 
ATOM     56  C   UNL A   1      43.659  27.031  31.517  1.00  0.00     0.031 C 
ATOM     57  C   UNL A   1      43.153  28.277  33.597  1.00  0.00     0.034 A 
BRANCH  44  58
ATOM     58  C   UNL A   1      39.325  32.501  35.962  1.00  0.00     0.023 A 
ATOM     59  C   UNL A   1      39.825  33.812  36.077  1.00  0.00     0.012 A 
ATOM     60  C   UNL A   1      38.438  32.004  36.936  1.00  0.00     0.148 A 
ATOM     61  C   UNL A   1      39.460  34.613  37.158  1.00  0.00     0.002 A 
ATOM     62  C   UNL A   1      38.055  32.819  37.994  1.00  0.00     0.091 A 
ATOM     63  F   UNL A   1      38.002  30.742  36.821  1.00  0.00    -0.205 F 
ATOM     64  C   UNL A   1      38.569  34.121  38.110  1.00  0.00     0.022 A 
BRANCH  62  65
ATOM     65  S   UNL A   1      36.869  32.283  39.232  1.00  0.00     0.127 S 
ATOM     66  O   UNL A   1      37.160  30.854  39.321  1.00  0.00    -0.237 OA
ATOM     67  O   UNL A   1      37.270  33.061  40.405  1.00  0.00    -0.237 OA
ATOM     68  O   UNL A   1      35.557  32.628  38.700  1.00  0.00    -0.744 OA
ENDBRANCH  62  65
ENDBRANCH  44  58
BRANCH  45  69
ATOM     69  C   UNL A   1      41.473  27.042  27.915  1.00  0.00     0.023 A 
ATOM     70  C   UNL A   1      42.212  27.563  26.834  1.00  0.00     0.012 A 
ATOM     71  C   UNL A   1      41.026  25.709  27.857  1.00  0.00     0.148 A 
ATOM     72  C   UNL A   1      42.478  26.780  25.709  1.00  0.00     0.002 A 
ATOM     73  C   UNL A   1      41.346  24.915  26.760  1.00  0.00     0.091 A 
ATOM     74  F   UNL A   1      40.289  25.238  28.873  1.00  0.00    -0.205 F 
ATOM     75  C   UNL A   1      42.057  25.453  25.678  1.00  0.00     0.022 A 
BRANCH  73  76
ATOM     76  S   UNL A   1      40.956  23.163  26.716  1.00  0.00     0.127 S 
ATOM     77  O   UNL A   1      41.792  22.695  25.614  1.00  0.00    -0.237 OA
ATOM     78  O   UNL A   1      41.380  22.717  28.044  1.00  0.00    -0.237 OA
ATOM     79  O   UNL A   1      39.516  23.100  26.502  1.00  0.00    -0.744 OA
ENDBRANCH  73  76
ENDBRANCH  45  69
BRANCH  57  80
ATOM     80  C   UNL A   1      44.381  27.673  34.229  1.00  0.00     0.023 A 
ATOM     81  C   UNL A   1      45.608  28.362  34.149  1.00  0.00     0.012 A 
ATOM     82  C   UNL A   1      44.307  26.479  34.974  1.00  0.00     0.148 A 
ATOM     83  C   UNL A   1      46.746  27.862  34.781  1.00  0.00     0.002 A 
ATOM     84  C   UNL A   1      45.436  26.009  35.636  1.00  0.00     0.091 A 
ATOM     85  F   UNL A   1      43.137  25.825  35.022  1.00  0.00    -0.205 F 
ATOM     86  C   UNL A   1      46.657  26.695  35.534  1.00  0.00     0.022 A 
BRANCH  84  87
ATOM     87  S   UNL A   1      45.391  24.562  36.702  1.00  0.00     0.127 S 
ATOM     88  O   UNL A   1      44.305  24.899  37.619  1.00  0.00    -0.237 OA
ATOM     89  O   UNL A   1      45.083  23.485  35.759  1.00  0.00    -0.237 OA
ATOM     90  O   UNL A   1      46.716  24.471  37.303  1.00  0.00    -0.744 OA
ENDBRANCH  84  87
ENDBRANCH  57  80
ENDBRANCH  31  32
ENDBRANCH  24  26
ENDBRANCH  23  24
ENDBRANCH  22  23
ENDBRANCH   1  22
TORSDOF 18
ENDMDL
MODEL 2
REMARK VINA RESULT:     -11.4      1.832      2.267
REMARK SMILES C[C@@H](C(=O)OCCOC(=O)c1ccc(-c2c3nc(c(-c4cccc(S(=O)(=O)[O-])c4F)c4ccc([nH]4)c(-c4cccc(S(=O)(=O)[O-])c4F)c4nc(c(-c5cccc(S(=O)(=O)[O-])c5F)c5ccc2[nH]5)C=C4)C=C3)cc1)c1ccc(C[C@@H]2CCC[C@@H]2O)cc1F
REMARK SMILES IDX 6 1 5 2 3 3 4 4 2 5 1 6 74 7 75 8 86 9 76 10 85 11 87 12
REMARK SMILES IDX 77 13 78 14 79 15 80 16 83 17 81 18 82 19 84 20 7 22 8 23
REMARK SMILES IDX 9 24 10 25 11 26 12 27 73 28 13 29 72 30 14 31 15 32 16 33
REMARK SMILES IDX 66 34 17 35 71 36 65 37 67 38 18 39 70 40 64 41 63 42 19 44
REMARK SMILES IDX 51 45 31 46 50 47 32 48 35 49 49 50 68 51 33 52 34 53 48 55
REMARK SMILES IDX 69 56 36 57 20 58 21 59 29 60 22 61 24 62 30 63 23 64 25 65
REMARK SMILES IDX 26 66 27 67 28 68 52 69 53 70 61 71 54 72 56 73 62 74 55 75
REMARK SMILES IDX 57 76 58 77 59 78 60 79 37 80 38 81 46 82 39 83 41 84 47 85
REMARK SMILES IDX 40 86 42 87 43 88 44 89 45 90
REMARK H PARENT 84 21 67 43 35 54
REMARK Flexibility Score: inf
ROOT
ATOM      1  C   UNL A   1      31.842  29.750  25.095  1.00  0.00     0.274 C 
ENDROOT
BRANCH   1   2
ATOM      2  O   UNL A   1      32.438  28.664  25.836  1.00  0.00    -0.462 OA
BRANCH   2   3
ATOM      3  C   UNL A   1      31.606  27.624  26.132  1.00  0.00     0.313 C 
ATOM      4  O   UNL A   1      31.216  27.411  27.274  1.00  0.00    -0.252 OA
BRANCH   3   5
ATOM      5  C   UNL A   1      31.329  26.695  24.917  1.00  0.00     0.129 C 
ATOM      6  C   UNL A   1      30.036  25.892  25.133  1.00  0.00     0.025 C 
BRANCH   5   7
ATOM      7  C   UNL A   1      32.554  25.850  24.520  1.00  0.00     0.002 A 
ATOM      8  C   UNL A   1      33.620  25.712  25.427  1.00  0.00     0.008 A 
ATOM      9  C   UNL A   1      32.689  25.157  23.308  1.00  0.00     0.127 A 
ATOM     10  C   UNL A   1      34.657  24.799  25.213  1.00  0.00     0.004 A 
ATOM     11  C   UNL A   1      33.767  24.300  23.056  1.00  0.00     0.043 A 
ATOM     12  F   UNL A   1      31.758  25.255  22.350  1.00  0.00    -0.207 F 
ATOM     13  C   UNL A   1      34.755  24.081  24.023  1.00  0.00    -0.045 A 
BRANCH  13  14
ATOM     14  C   UNL A   1      35.801  23.004  23.821  1.00  0.00     0.041 C 
BRANCH  14  15
ATOM     15  C   UNL A   1      35.611  21.607  24.444  1.00  0.00     0.022 C 
ATOM     16  C   UNL A   1      34.174  21.073  24.456  1.00  0.00     0.007 C 
ATOM     17  C   UNL A   1      36.066  21.442  25.895  1.00  0.00     0.117 C 
ATOM     18  C   UNL A   1      33.662  21.211  25.892  1.00  0.00     0.003 C 
ATOM     19  C   UNL A   1      34.823  21.745  26.722  1.00  0.00     0.032 C 
BRANCH  17  20
ATOM     20  O   UNL A   1      37.166  22.270  26.222  1.00  0.00    -0.393 OA
ATOM     21  H   UNL A   1      37.662  21.874  26.955  1.00  0.00     0.210 HD
ENDBRANCH  17  20
ENDBRANCH  14  15
ENDBRANCH  13  14
ENDBRANCH   5   7
ENDBRANCH   3   5
ENDBRANCH   2   3
ENDBRANCH   1   2
BRANCH   1  22
ATOM     22  C   UNL A   1      31.492  30.942  25.989  1.00  0.00     0.275 C 
BRANCH  22  23
ATOM     23  O   UNL A   1      32.289  30.971  27.188  1.00  0.00    -0.458 OA
BRANCH  23  24
ATOM     24  C   UNL A   1      33.023  32.093  27.364  1.00  0.00     0.338 C 
ATOM     25  O   UNL A   1      32.632  33.249  27.261  1.00  0.00    -0.246 OA
BRANCH  24  26
ATOM     26  C   UNL A   1      34.356  31.749  27.884  1.00  0.00     0.060 A 
ATOM     27  C   UNL A   1      34.543  30.431  28.292  1.00  0.00     0.016 A 
ATOM     28  C   UNL A   1      35.379  32.686  28.052  1.00  0.00     0.016 A 
ATOM     29  C   UNL A   1      35.753  30.035  28.847  1.00  0.00     0.010 A 
ATOM     30  C   UNL A   1      36.599  32.285  28.626  1.00  0.00     0.010 A 
ATOM     31  C   UNL A   1      36.792  30.952  29.024  1.00  0.00    -0.014 A 
BRANCH  31  32
ATOM     32  C   UNL A   1      38.026  30.482  29.702  1.00  0.00     0.031 A 
ATOM     33  C   UNL A   1      38.293  30.893  31.121  1.00  0.00     0.074 A 
ATOM     34  C   UNL A   1      38.841  29.594  29.102  1.00  0.00     0.049 A 
ATOM     35  N   UNL A   1      39.286  30.557  31.904  1.00  0.00    -0.248 NA
ATOM     36  C   UNL A   1      37.300  31.779  31.749  1.00  0.00     0.031 C 
ATOM     37  C   UNL A   1      38.640  29.037  27.766  1.00  0.00     0.029 A 
ATOM     38  N   UNL A   1      39.988  28.987  29.551  1.00  0.00    -0.354 N 
ATOM     39  C   UNL A   1      39.062  31.221  33.102  1.00  0.00     0.074 A 
ATOM     40  C   UNL A   1      37.822  31.956  32.955  1.00  0.00     0.031 C 
ATOM     41  C   UNL A   1      39.628  28.162  27.507  1.00  0.00     0.029 A 
ATOM     42  C   UNL A   1      40.548  28.121  28.642  1.00  0.00     0.049 A 
ATOM     43  H   UNL A   1      40.375  29.156  30.442  1.00  0.00     0.167 HD
ATOM     44  C   UNL A   1      39.821  31.227  34.224  1.00  0.00     0.034 A 
ATOM     45  C   UNL A   1      41.680  27.387  28.713  1.00  0.00     0.034 A 
ATOM     46  C   UNL A   1      41.045  30.491  34.388  1.00  0.00     0.049 A 
ATOM     47  C   UNL A   1      42.535  27.462  29.953  1.00  0.00     0.074 A 
ATOM     48  C   UNL A   1      41.893  30.470  35.482  1.00  0.00     0.029 A 
ATOM     49  N   UNL A   1      41.600  29.652  33.436  1.00  0.00    -0.354 N 
ATOM     50  N   UNL A   1      42.291  28.060  31.094  1.00  0.00    -0.248 NA
ATOM     51  C   UNL A   1      43.826  26.754  29.914  1.00  0.00     0.031 C 
ATOM     52  C   UNL A   1      42.972  29.631  35.182  1.00  0.00     0.029 A 
ATOM     53  C   UNL A   1      42.787  29.119  33.909  1.00  0.00     0.049 A 
ATOM     54  H   UNL A   1      41.207  29.462  32.553  1.00  0.00     0.167 HD
ATOM     55  C   UNL A   1      43.386  27.790  31.910  1.00  0.00     0.074 A 
ATOM     56  C   UNL A   1      44.277  26.942  31.148  1.00  0.00     0.031 C 
ATOM     57  C   UNL A   1      43.643  28.230  33.166  1.00  0.00     0.034 A 
BRANCH  44  58
ATOM     58  C   UNL A   1      39.353  32.082  35.366  1.00  0.00     0.023 A 
ATOM     59  C   UNL A   1      38.431  31.567  36.296  1.00  0.00     0.012 A 
ATOM     60  C   UNL A   1      39.863  33.383  35.536  1.00  0.00     0.148 A 
ATOM     61  C   UNL A   1      38.007  32.344  37.374  1.00  0.00     0.002 A 
ATOM     62  C   UNL A   1      39.460  34.140  36.629  1.00  0.00     0.091 A 
ATOM     63  F   UNL A   1      40.715  33.862  34.618  1.00  0.00    -0.205 F 
ATOM     64  C   UNL A   1      38.528  33.625  37.545  1.00  0.00     0.022 A 
BRANCH  62  65
ATOM     65  S   UNL A   1      40.124  35.777  36.954  1.00  0.00     0.127 S 
ATOM     66  O   UNL A   1      39.668  36.520  35.782  1.00  0.00    -0.237 OA
ATOM     67  O   UNL A   1      39.457  36.141  38.205  1.00  0.00    -0.237 OA
ATOM     68  O   UNL A   1      41.566  35.604  37.070  1.00  0.00    -0.744 OA
ENDBRANCH  62  65
ENDBRANCH  44  58
BRANCH  45  69
ATOM     69  C   UNL A   1      42.071  26.491  27.586  1.00  0.00     0.023 A 
ATOM     70  C   UNL A   1      42.855  27.007  26.535  1.00  0.00     0.012 A 
ATOM     71  C   UNL A   1      41.669  25.143  27.540  1.00  0.00     0.148 A 
ATOM     72  C   UNL A   1      43.209  26.204  25.449  1.00  0.00     0.002 A 
ATOM     73  C   UNL A   1      42.075  24.332  26.485  1.00  0.00     0.091 A 
ATOM     74  F   UNL A   1      40.888  24.675  28.525  1.00  0.00    -0.205 F 
ATOM     75  C   UNL A   1      42.830  24.864  25.431  1.00  0.00     0.022 A 
BRANCH  73  76
ATOM     76  S   UNL A   1      41.741  22.568  26.467  1.00  0.00     0.127 S 
ATOM     77  O   UNL A   1      40.282  22.537  26.412  1.00  0.00    -0.237 OA
ATOM     78  O   UNL A   1      42.413  22.137  25.241  1.00  0.00    -0.237 OA
ATOM     79  O   UNL A   1      42.348  22.053  27.688  1.00  0.00    -0.744 OA
ENDBRANCH  73  76
ENDBRANCH  45  69
BRANCH  57  80
ATOM     80  C   UNL A   1      44.941  27.814  33.809  1.00  0.00     0.023 A 
ATOM     81  C   UNL A   1      46.070  28.649  33.687  1.00  0.00     0.012 A 
ATOM     82  C   UNL A   1      45.024  26.654  34.605  1.00  0.00     0.148 A 
ATOM     83  C   UNL A   1      47.267  28.326  34.327  1.00  0.00     0.002 A 
ATOM     84  C   UNL A   1      46.208  26.359  35.273  1.00  0.00     0.091 A 
ATOM     85  F   UNL A   1      43.948  25.859  34.693  1.00  0.00    -0.205 F 
ATOM     86  C   UNL A   1      47.331  27.190  35.129  1.00  0.00     0.022 A 
BRANCH  84  87
ATOM     87  S   UNL A   1      46.354  24.966  36.399  1.00  0.00     0.127 S 
ATOM     88  O   UNL A   1      45.197  25.162  37.270  1.00  0.00    -0.237 OA
ATOM     89  O   UNL A   1      46.251  23.818  35.496  1.00  0.00    -0.237 OA
ATOM     90  O   UNL A   1      47.655  25.109  37.041  1.00  0.00    -0.744 OA
ENDBRANCH  84  87
ENDBRANCH  57  80
ENDBRANCH  31  32
ENDBRANCH  24  26
ENDBRANCH  23  24
ENDBRANCH  22  23
ENDBRANCH   1  22
TORSDOF 18
ENDMDL
MODEL 3
REMARK VINA RESULT:     -11.4      5.270      8.546
REMARK SMILES C[C@@H](C(=O)OCCOC(=O)c1ccc(-c2c3nc(c(-c4cccc(S(=O)(=O)[O-])c4F)c4ccc([nH]4)c(-c4cccc(S(=O)(=O)[O-])c4F)c4nc(c(-c5cccc(S(=O)(=O)[O-])c5F)c5ccc2[nH]5)C=C4)C=C3)cc1)c1ccc(C[C@@H]2CCC[C@@H]2O)cc1F
REMARK SMILES IDX 6 1 5 2 3 3 4 4 2 5 1 6 74 7 75 8 86 9 76 10 85 11 87 12
REMARK SMILES IDX 77 13 78 14 79 15 80 16 83 17 81 18 82 19 84 20 7 22 8 23
REMARK SMILES IDX 9 24 10 25 11 26 12 27 73 28 13 29 72 30 14 31 15 32 16 33
REMARK SMILES IDX 66 34 17 35 71 36 65 37 67 38 18 39 70 40 64 41 63 42 19 44
REMARK SMILES IDX 51 45 31 46 50 47 32 48 35 49 49 50 68 51 33 52 34 53 48 55
REMARK SMILES IDX 69 56 36 57 20 58 21 59 29 60 22 61 24 62 30 63 23 64 25 65
REMARK SMILES IDX 26 66 27 67 28 68 52 69 53 70 61 71 54 72 56 73 62 74 55 75
REMARK SMILES IDX 57 76 58 77 59 78 60 79 37 80 38 81 46 82 39 83 41 84 47 85
REMARK SMILES IDX 40 86 42 87 43 88 44 89 45 90
REMARK H PARENT 84 21 67 43 35 54
REMARK Flexibility Score: inf
ROOT
ATOM      1  C   UNL A   1      35.226  19.950  24.990  1.00  0.00     0.274 C 
ENDROOT
BRANCH   1   2
ATOM      2  O   UNL A   1      33.955  20.152  24.338  1.00  0.00    -0.462 OA
BRANCH   2   3
ATOM      3  C   UNL A   1      33.068  20.946  25.005  1.00  0.00     0.313 C 
ATOM      4  O   UNL A   1      32.939  20.891  26.223  1.00  0.00    -0.252 OA
BRANCH   3   5
ATOM      5  C   UNL A   1      32.178  21.800  24.060  1.00  0.00     0.129 C 
ATOM      6  C   UNL A   1      32.176  21.212  22.640  1.00  0.00     0.025 C 
BRANCH   5   7
ATOM      7  C   UNL A   1      32.500  23.304  24.135  1.00  0.00     0.002 A 
ATOM      8  C   UNL A   1      33.787  23.716  24.524  1.00  0.00     0.008 A 
ATOM      9  C   UNL A   1      31.603  24.331  23.806  1.00  0.00     0.127 A 
ATOM     10  C   UNL A   1      34.202  25.046  24.412  1.00  0.00     0.004 A 
ATOM     11  C   UNL A   1      31.993  25.676  23.769  1.00  0.00     0.043 A 
ATOM     12  F   UNL A   1      30.335  24.059  23.469  1.00  0.00    -0.207 F 
ATOM     13  C   UNL A   1      33.313  26.052  24.040  1.00  0.00    -0.045 A 
BRANCH  13  14
ATOM     14  C   UNL A   1      33.770  27.476  23.800  1.00  0.00     0.041 C 
BRANCH  14  15
ATOM     15  C   UNL A   1      33.762  28.503  24.950  1.00  0.00     0.022 C 
ATOM     16  C   UNL A   1      33.926  27.924  26.359  1.00  0.00     0.007 C 
ATOM     17  C   UNL A   1      32.517  29.382  25.066  1.00  0.00     0.117 C 
ATOM     18  C   UNL A   1      32.543  27.956  27.016  1.00  0.00     0.003 C 
ATOM     19  C   UNL A   1      31.602  28.625  26.021  1.00  0.00     0.032 C 
BRANCH  17  20
ATOM     20  O   UNL A   1      31.915  29.648  23.814  1.00  0.00    -0.393 OA
ATOM     21  H   UNL A   1      32.580  30.006  23.205  1.00  0.00     0.210 HD
ENDBRANCH  17  20
ENDBRANCH  14  15
ENDBRANCH  13  14
ENDBRANCH   5   7
ENDBRANCH   3   5
ENDBRANCH   2   3
ENDBRANCH   1   2
BRANCH   1  22
ATOM     22  C   UNL A   1      36.239  21.045  24.645  1.00  0.00     0.275 C 
BRANCH  22  23
ATOM     23  O   UNL A   1      36.927  21.531  25.812  1.00  0.00    -0.458 OA
BRANCH  23  24
ATOM     24  C   UNL A   1      38.245  21.232  25.871  1.00  0.00     0.338 C 
ATOM     25  O   UNL A   1      38.786  20.218  25.446  1.00  0.00    -0.246 OA
BRANCH  24  26
ATOM     26  C   UNL A   1      39.006  22.389  26.368  1.00  0.00     0.060 A 
ATOM     27  C   UNL A   1      38.549  23.646  25.980  1.00  0.00     0.016 A 
ATOM     28  C   UNL A   1      40.177  22.272  27.121  1.00  0.00     0.016 A 
ATOM     29  C   UNL A   1      39.240  24.790  26.358  1.00  0.00     0.010 A 
ATOM     30  C   UNL A   1      40.882  23.431  27.491  1.00  0.00     0.010 A 
ATOM     31  C   UNL A   1      40.412  24.699  27.113  1.00  0.00    -0.014 A 
BRANCH  31  32
ATOM     32  C   UNL A   1      41.148  25.954  27.409  1.00  0.00     0.031 A 
ATOM     33  C   UNL A   1      40.506  27.003  28.271  1.00  0.00     0.074 A 
ATOM     34  C   UNL A   1      42.427  26.107  27.018  1.00  0.00     0.049 A 
ATOM     35  N   UNL A   1      40.994  28.144  28.682  1.00  0.00    -0.248 NA
ATOM     36  C   UNL A   1      39.145  26.717  28.753  1.00  0.00     0.031 C 
ATOM     37  C   UNL A   1      43.199  25.121  26.264  1.00  0.00     0.029 A 
ATOM     38  N   UNL A   1      43.309  27.140  27.222  1.00  0.00    -0.354 N 
ATOM     39  C   UNL A   1      39.989  28.734  29.436  1.00  0.00     0.074 A 
ATOM     40  C   UNL A   1      38.874  27.810  29.452  1.00  0.00     0.031 C 
ATOM     41  C   UNL A   1      44.444  25.595  26.076  1.00  0.00     0.029 A 
ATOM     42  C   UNL A   1      44.548  26.928  26.666  1.00  0.00     0.049 A 
ATOM     43  H   UNL A   1      43.075  27.957  27.721  1.00  0.00     0.167 HD
ATOM     44  C   UNL A   1      39.989  29.938  30.055  1.00  0.00     0.034 A 
ATOM     45  C   UNL A   1      45.638  27.723  26.628  1.00  0.00     0.034 A 
ATOM     46  C   UNL A   1      41.094  30.858  30.059  1.00  0.00     0.049 A 
ATOM     47  C   UNL A   1      45.586  29.085  27.276  1.00  0.00     0.074 A 
ATOM     48  C   UNL A   1      41.162  32.115  30.634  1.00  0.00     0.029 A 
ATOM     49  N   UNL A   1      42.320  30.626  29.458  1.00  0.00    -0.354 N 
ATOM     50  N   UNL A   1      44.645  29.612  28.021  1.00  0.00    -0.248 NA
ATOM     51  C   UNL A   1      46.752  29.961  27.078  1.00  0.00     0.031 C 
ATOM     52  C   UNL A   1      42.426  32.652  30.364  1.00  0.00     0.029 A 
ATOM     53  C   UNL A   1      43.148  31.722  29.634  1.00  0.00     0.049 A 
ATOM     54  H   UNL A   1      42.567  29.803  28.977  1.00  0.00     0.167 HD
ATOM     55  C   UNL A   1      45.111  30.871  28.391  1.00  0.00     0.074 A 
ATOM     56  C   UNL A   1      46.434  31.013  27.821  1.00  0.00     0.031 C 
ATOM     57  C   UNL A   1      44.486  31.835  29.112  1.00  0.00     0.034 A 
BRANCH  44  58
ATOM     58  C   UNL A   1      38.731  30.343  30.769  1.00  0.00     0.023 A 
ATOM     59  C   UNL A   1      38.565  30.026  32.130  1.00  0.00     0.012 A 
ATOM     60  C   UNL A   1      37.735  31.076  30.097  1.00  0.00     0.148 A 
ATOM     61  C   UNL A   1      37.411  30.417  32.810  1.00  0.00     0.002 A 
ATOM     62  C   UNL A   1      36.603  31.490  30.788  1.00  0.00     0.091 A 
ATOM     63  F   UNL A   1      37.903  31.338  28.792  1.00  0.00    -0.205 F 
ATOM     64  C   UNL A   1      36.437  31.157  32.142  1.00  0.00     0.022 A 
BRANCH  62  65
ATOM     65  S   UNL A   1      35.327  32.492  30.018  1.00  0.00     0.127 S 
ATOM     66  O   UNL A   1      36.086  33.669  29.600  1.00  0.00    -0.237 OA
ATOM     67  O   UNL A   1      34.877  31.635  28.920  1.00  0.00    -0.237 OA
ATOM     68  O   UNL A   1      34.326  32.722  31.051  1.00  0.00    -0.744 OA
ENDBRANCH  62  65
ENDBRANCH  44  58
BRANCH  45  69
ATOM     69  C   UNL A   1      46.894  27.254  25.974  1.00  0.00     0.023 A 
ATOM     70  C   UNL A   1      47.062  27.443  24.587  1.00  0.00     0.012 A 
ATOM     71  C   UNL A   1      47.914  26.616  26.704  1.00  0.00     0.148 A 
ATOM     72  C   UNL A   1      48.209  26.983  23.939  1.00  0.00     0.002 A 
ATOM     73  C   UNL A   1      49.082  26.214  26.063  1.00  0.00     0.091 A 
ATOM     74  F   UNL A   1      47.725  26.404  28.015  1.00  0.00    -0.205 F 
ATOM     75  C   UNL A   1      49.224  26.382  24.679  1.00  0.00     0.022 A 
BRANCH  73  76
ATOM     76  S   UNL A   1      50.483  25.560  26.975  1.00  0.00     0.127 S 
ATOM     77  O   UNL A   1      49.924  24.343  27.557  1.00  0.00    -0.237 OA
ATOM     78  O   UNL A   1      51.468  25.340  25.915  1.00  0.00    -0.237 OA
ATOM     79  O   UNL A   1      50.850  26.612  27.915  1.00  0.00    -0.744 OA
ENDBRANCH  73  76
ENDBRANCH  45  69
BRANCH  57  80
ATOM     80  C   UNL A   1      45.212  33.137  29.331  1.00  0.00     0.023 A 
ATOM     81  C   UNL A   1      46.003  33.301  30.486  1.00  0.00     0.012 A 
ATOM     82  C   UNL A   1      45.189  34.159  28.360  1.00  0.00     0.148 A 
ATOM     83  C   UNL A   1      46.742  34.467  30.683  1.00  0.00     0.002 A 
ATOM     84  C   UNL A   1      45.960  35.302  28.544  1.00  0.00     0.091 A 
ATOM     85  F   UNL A   1      44.415  33.997  27.277  1.00  0.00    -0.205 F 
ATOM     86  C   UNL A   1      46.730  35.460  29.708  1.00  0.00     0.022 A 
BRANCH  84  87
ATOM     87  S   UNL A   1      46.077  36.592  27.298  1.00  0.00     0.127 S 
ATOM     88  O   UNL A   1      44.722  37.140  27.307  1.00  0.00    -0.237 OA
ATOM     89  O   UNL A   1      47.098  37.480  27.859  1.00  0.00    -0.237 OA
ATOM     90  O   UNL A   1      46.476  35.921  26.068  1.00  0.00    -0.744 OA
ENDBRANCH  84  87
ENDBRANCH  57  80
ENDBRANCH  31  32
ENDBRANCH  24  26
ENDBRANCH  23  24
ENDBRANCH  22  23
ENDBRANCH   1  22
TORSDOF 18
ENDMDL
