MODEL 1
REMARK VINA RESULT:     -12.8      0.000      0.000
REMARK SMILES C[C@@H]1c2ccccc2-c2ccc(C(=O)OCCOC(=O)c3ccc(-c4c5nc(c(-c6cccc(S(=O)(=O)[O-])c6F)c6ccc([nH]6)c(-c6cccc(S(=O)(=O)[O-])c6F)c6nc(c(-c7cccc(S(=O)(=O)[O-])c7F)c7ccc4[nH]7)C=C6)C=C5)cc3)cc21
REMARK SMILES IDX 18 1 17 2 16 3 15 4 13 5 14 6 12 7 1 8 2 9 3 10 85 11 4 12
REMARK SMILES IDX 8 13 9 14 84 15 5 16 7 17 10 18 6 19 11 20 19 21 20 22 21 23
REMARK SMILES IDX 22 24 83 25 23 26 82 27 24 28 25 29 26 30 76 31 27 32 81 33
REMARK SMILES IDX 75 34 77 35 28 36 80 37 74 38 73 39 29 41 61 42 41 43 60 44
REMARK SMILES IDX 42 45 45 46 59 47 78 48 43 49 44 50 58 52 79 53 46 54 30 55
REMARK SMILES IDX 31 56 39 57 32 58 34 59 40 60 33 61 35 62 36 63 37 64 38 65
REMARK SMILES IDX 62 66 63 67 71 68 64 69 66 70 72 71 65 72 67 73 68 74 69 75
REMARK SMILES IDX 70 76 47 77 48 78 56 79 49 80 51 81 57 82 50 83 52 84 53 85
REMARK SMILES IDX 54 86 55 87
REMARK H PARENT 77 40 45 51
REMARK Flexibility Score: inf
ROOT
ATOM      1  O   UNL A   1      37.491  21.223  25.470  1.00  0.00    -0.458 OA
ENDROOT
BRANCH   1   2
ATOM      2  C   UNL A   1      36.943  20.189  24.632  1.00  0.00     0.275 C 
BRANCH   2   3
ATOM      3  C   UNL A   1      35.488  19.896  25.005  1.00  0.00     0.275 C 
BRANCH   3   4
ATOM      4  O   UNL A   1      34.834  21.055  25.562  1.00  0.00    -0.458 OA
BRANCH   4   5
ATOM      5  C   UNL A   1      33.835  21.578  24.804  1.00  0.00     0.338 C 
ATOM      6  O   UNL A   1      33.103  20.962  24.051  1.00  0.00    -0.246 OA
BRANCH   5   7
ATOM      7  C   UNL A   1      33.675  23.031  25.054  1.00  0.00     0.060 A 
ATOM      8  C   UNL A   1      30.090  25.785  25.618  1.00  0.00     0.018 C 
ATOM      9  C   UNL A   1      31.340  25.738  26.485  1.00  0.00     0.047 C 
ATOM     10  C   UNL A   1      32.001  27.102  26.652  1.00  0.00    -0.033 A 
ATOM     11  C   UNL A   1      32.455  24.923  25.842  1.00  0.00    -0.032 A 
ATOM     12  C   UNL A   1      31.501  28.244  27.257  1.00  0.00     0.005 A 
ATOM     13  C   UNL A   1      33.312  27.073  26.138  1.00  0.00    -0.014 A 
ATOM     14  C   UNL A   1      33.592  25.743  25.654  1.00  0.00    -0.014 A 
ATOM     15  C   UNL A   1      32.473  23.568  25.525  1.00  0.00     0.020 A 
ATOM     16  C   UNL A   1      32.329  29.369  27.331  1.00  0.00     0.000 A 
ATOM     17  C   UNL A   1      34.130  28.189  26.198  1.00  0.00     0.009 A 
ATOM     18  C   UNL A   1      34.767  25.224  25.156  1.00  0.00     0.010 A 
ATOM     19  C   UNL A   1      33.631  29.344  26.802  1.00  0.00     0.001 A 
ATOM     20  C   UNL A   1      34.809  23.857  24.899  1.00  0.00     0.016 A 
ENDBRANCH   5   7
ENDBRANCH   4   5
ENDBRANCH   3   4
ENDBRANCH   2   3
ENDBRANCH   1   2
BRANCH   1  21
ATOM     21  C   UNL A   1      38.783  21.040  25.823  1.00  0.00     0.338 C 
ATOM     22  O   UNL A   1      39.502  20.097  25.534  1.00  0.00    -0.246 OA
BRANCH  21  23
ATOM     23  C   UNL A   1      39.287  22.204  26.565  1.00  0.00     0.060 A 
ATOM     24  C   UNL A   1      38.822  23.456  26.192  1.00  0.00     0.016 A 
ATOM     25  C   UNL A   1      40.360  22.093  27.441  1.00  0.00     0.016 A 
ATOM     26  C   UNL A   1      39.536  24.600  26.537  1.00  0.00     0.010 A 
ATOM     27  C   UNL A   1      40.975  23.256  27.921  1.00  0.00     0.010 A 
ATOM     28  C   UNL A   1      40.614  24.525  27.428  1.00  0.00    -0.014 A 
BRANCH  28  29
ATOM     29  C   UNL A   1      41.363  25.757  27.828  1.00  0.00     0.031 A 
ATOM     30  C   UNL A   1      40.690  26.825  28.659  1.00  0.00     0.074 A 
ATOM     31  C   UNL A   1      42.640  25.940  27.431  1.00  0.00     0.049 A 
ATOM     32  N   UNL A   1      41.088  28.044  28.920  1.00  0.00    -0.248 NA
ATOM     33  C   UNL A   1      39.389  26.485  29.259  1.00  0.00     0.031 C 
ATOM     34  C   UNL A   1      43.432  24.992  26.644  1.00  0.00     0.029 A 
ATOM     35  N   UNL A   1      43.496  27.001  27.617  1.00  0.00    -0.354 N 
ATOM     36  C   UNL A   1      40.050  28.643  29.629  1.00  0.00     0.074 A 
ATOM     37  C   UNL A   1      39.010  27.648  29.769  1.00  0.00     0.031 C 
ATOM     38  C   UNL A   1      44.655  25.496  26.434  1.00  0.00     0.029 A 
ATOM     39  C   UNL A   1      44.702  26.849  26.969  1.00  0.00     0.049 A 
ATOM     40  H   UNL A   1      43.268  27.791  28.159  1.00  0.00     0.167 HD
ATOM     41  C   UNL A   1      39.974  29.905  30.121  1.00  0.00     0.034 A 
ATOM     42  C   UNL A   1      45.713  27.715  26.763  1.00  0.00     0.034 A 
ATOM     43  C   UNL A   1      41.042  30.867  30.041  1.00  0.00     0.049 A 
ATOM     44  C   UNL A   1      45.600  29.109  27.309  1.00  0.00     0.074 A 
ATOM     45  C   UNL A   1      41.084  32.151  30.557  1.00  0.00     0.029 A 
ATOM     46  N   UNL A   1      42.258  30.652  29.409  1.00  0.00    -0.354 N 
ATOM     47  N   UNL A   1      44.630  29.645  28.009  1.00  0.00    -0.248 NA
ATOM     48  C   UNL A   1      46.726  30.015  27.045  1.00  0.00     0.031 C 
ATOM     49  C   UNL A   1      42.311  32.725  30.207  1.00  0.00     0.029 A 
ATOM     50  C   UNL A   1      43.051  31.783  29.510  1.00  0.00     0.049 A 
ATOM     51  H   UNL A   1      42.518  29.819  28.955  1.00  0.00     0.167 HD
ATOM     52  C   UNL A   1      45.040  30.940  28.296  1.00  0.00     0.074 A 
ATOM     53  C   UNL A   1      46.358  31.100  27.714  1.00  0.00     0.031 C 
ATOM     54  C   UNL A   1      44.379  31.914  28.968  1.00  0.00     0.034 A 
BRANCH  41  55
ATOM     55  C   UNL A   1      38.690  30.326  30.796  1.00  0.00     0.023 A 
ATOM     56  C   UNL A   1      38.480  30.050  32.162  1.00  0.00     0.012 A 
ATOM     57  C   UNL A   1      37.711  31.048  30.081  1.00  0.00     0.148 A 
ATOM     58  C   UNL A   1      37.301  30.447  32.794  1.00  0.00     0.002 A 
ATOM     59  C   UNL A   1      36.563  31.485  30.731  1.00  0.00     0.091 A 
ATOM     60  F   UNL A   1      37.919  31.291  28.780  1.00  0.00    -0.205 F 
ATOM     61  C   UNL A   1      36.349  31.173  32.083  1.00  0.00     0.022 A 
BRANCH  59  62
ATOM     62  S   UNL A   1      35.317  32.500  29.925  1.00  0.00     0.127 S 
ATOM     63  O   UNL A   1      34.338  32.672  30.997  1.00  0.00    -0.237 OA
ATOM     64  O   UNL A   1      36.073  33.707  29.592  1.00  0.00    -0.237 OA
ATOM     65  O   UNL A   1      34.855  31.735  28.776  1.00  0.00    -0.744 OA
ENDBRANCH  59  62
ENDBRANCH  41  55
BRANCH  42  66
ATOM     66  C   UNL A   1      46.913  27.287  25.988  1.00  0.00     0.023 A 
ATOM     67  C   UNL A   1      47.851  26.422  26.583  1.00  0.00     0.012 A 
ATOM     68  C   UNL A   1      47.108  27.698  24.654  1.00  0.00     0.148 A 
ATOM     69  C   UNL A   1      48.973  25.996  25.872  1.00  0.00     0.002 A 
ATOM     70  C   UNL A   1      48.193  27.219  23.932  1.00  0.00     0.091 A 
ATOM     71  F   UNL A   1      46.211  28.534  24.109  1.00  0.00    -0.205 F 
ATOM     72  C   UNL A   1      49.138  26.382  24.545  1.00  0.00     0.022 A 
BRANCH  70  73
ATOM     73  S   UNL A   1      48.407  27.549  22.179  1.00  0.00     0.127 S 
ATOM     74  O   UNL A   1      49.538  28.472  22.186  1.00  0.00    -0.237 OA
ATOM     75  O   UNL A   1      48.703  26.214  21.656  1.00  0.00    -0.237 OA
ATOM     76  O   UNL A   1      47.141  28.105  21.724  1.00  0.00    -0.744 OA
ENDBRANCH  70  73
ENDBRANCH  42  66
BRANCH  54  77
ATOM     77  C   UNL A   1      45.089  33.228  29.159  1.00  0.00     0.023 A 
ATOM     78  C   UNL A   1      45.919  33.427  30.280  1.00  0.00     0.012 A 
ATOM     79  C   UNL A   1      44.975  34.247  28.192  1.00  0.00     0.148 A 
ATOM     80  C   UNL A   1      46.596  34.634  30.454  1.00  0.00     0.002 A 
ATOM     81  C   UNL A   1      45.694  35.424  28.345  1.00  0.00     0.091 A 
ATOM     82  F   UNL A   1      44.165  34.044  27.143  1.00  0.00    -0.205 F 
ATOM     83  C   UNL A   1      46.493  35.626  29.481  1.00  0.00     0.022 A 
BRANCH  81  84
ATOM     84  S   UNL A   1      45.702  36.717  27.098  1.00  0.00     0.127 S 
ATOM     85  O   UNL A   1      46.598  37.705  27.698  1.00  0.00    -0.237 OA
ATOM     86  O   UNL A   1      46.254  36.021  25.935  1.00  0.00    -0.237 OA
ATOM     87  O   UNL A   1      44.317  37.141  26.948  1.00  0.00    -0.744 OA
ENDBRANCH  81  84
ENDBRANCH  54  77
ENDBRANCH  28  29
ENDBRANCH  21  23
ENDBRANCH   1  21
TORSDOF 14
ENDMDL
MODEL 2
REMARK VINA RESULT:     -12.7      5.210     10.336
REMARK SMILES C[C@@H]1c2ccccc2-c2ccc(C(=O)OCCOC(=O)c3ccc(-c4c5nc(c(-c6cccc(S(=O)(=O)[O-])c6F)c6ccc([nH]6)c(-c6cccc(S(=O)(=O)[O-])c6F)c6nc(c(-c7cccc(S(=O)(=O)[O-])c7F)c7ccc4[nH]7)C=C6)C=C5)cc3)cc21
REMARK SMILES IDX 18 1 17 2 16 3 15 4 13 5 14 6 12 7 1 8 2 9 3 10 85 11 4 12
REMARK SMILES IDX 8 13 9 14 84 15 5 16 7 17 10 18 6 19 11 20 19 21 20 22 21 23
REMARK SMILES IDX 22 24 83 25 23 26 82 27 24 28 25 29 26 30 76 31 27 32 81 33
REMARK SMILES IDX 75 34 77 35 28 36 80 37 74 38 73 39 29 41 61 42 41 43 60 44
REMARK SMILES IDX 42 45 45 46 59 47 78 48 43 49 44 50 58 52 79 53 46 54 30 55
REMARK SMILES IDX 31 56 39 57 32 58 34 59 40 60 33 61 35 62 36 63 37 64 38 65
REMARK SMILES IDX 62 66 63 67 71 68 64 69 66 70 72 71 65 72 67 73 68 74 69 75
REMARK SMILES IDX 70 76 47 77 48 78 56 79 49 80 51 81 57 82 50 83 52 84 53 85
REMARK SMILES IDX 54 86 55 87
REMARK H PARENT 77 40 45 51
REMARK Flexibility Score: inf
ROOT
ATOM      1  O   UNL A   1      32.359  30.467  26.983  1.00  0.00    -0.458 OA
ENDROOT
BRANCH   1   2
ATOM      2  C   UNL A   1      31.658  30.441  25.727  1.00  0.00     0.275 C 
BRANCH   2   3
ATOM      3  C   UNL A   1      31.568  29.016  25.178  1.00  0.00     0.275 C 
BRANCH   3   4
ATOM      4  O   UNL A   1      32.476  28.123  25.857  1.00  0.00    -0.458 OA
BRANCH   4   5
ATOM      5  C   UNL A   1      31.887  27.179  26.637  1.00  0.00     0.338 C 
ATOM      6  O   UNL A   1      31.183  27.382  27.608  1.00  0.00    -0.246 OA
BRANCH   5   7
ATOM      7  C   UNL A   1      32.145  25.815  26.116  1.00  0.00     0.060 A 
ATOM      8  C   UNL A   1      35.809  23.694  24.431  1.00  0.00     0.018 C 
ATOM      9  C   UNL A   1      34.851  23.150  25.482  1.00  0.00     0.047 C 
ATOM     10  C   UNL A   1      34.296  21.774  25.126  1.00  0.00    -0.033 A 
ATOM     11  C   UNL A   1      33.581  23.984  25.590  1.00  0.00    -0.032 A 
ATOM     12  C   UNL A   1      34.972  20.574  24.974  1.00  0.00     0.005 A 
ATOM     13  C   UNL A   1      32.893  21.831  25.014  1.00  0.00    -0.014 A 
ATOM     14  C   UNL A   1      32.457  23.174  25.306  1.00  0.00    -0.014 A 
ATOM     15  C   UNL A   1      33.443  25.315  25.974  1.00  0.00     0.020 A 
ATOM     16  C   UNL A   1      34.224  19.426  24.694  1.00  0.00     0.000 A 
ATOM     17  C   UNL A   1      32.151  20.698  24.724  1.00  0.00     0.009 A 
ATOM     18  C   UNL A   1      31.178  23.675  25.410  1.00  0.00     0.010 A 
ATOM     19  C   UNL A   1      32.826  19.486  24.565  1.00  0.00     0.001 A 
ATOM     20  C   UNL A   1      31.033  24.985  25.856  1.00  0.00     0.016 A 
ENDBRANCH   5   7
ENDBRANCH   4   5
ENDBRANCH   3   4
ENDBRANCH   2   3
ENDBRANCH   1   2
BRANCH   1  21
ATOM     21  C   UNL A   1      33.035  31.610  27.231  1.00  0.00     0.338 C 
ATOM     22  O   UNL A   1      32.589  32.747  27.243  1.00  0.00    -0.246 OA
BRANCH  21  23
ATOM     23  C   UNL A   1      34.430  31.320  27.590  1.00  0.00     0.060 A 
ATOM     24  C   UNL A   1      34.758  30.006  27.888  1.00  0.00     0.016 A 
ATOM     25  C   UNL A   1      35.336  32.340  27.854  1.00  0.00     0.016 A 
ATOM     26  C   UNL A   1      35.905  29.719  28.621  1.00  0.00     0.010 A 
ATOM     27  C   UNL A   1      36.567  32.027  28.444  1.00  0.00     0.010 A 
ATOM     28  C   UNL A   1      36.845  30.721  28.894  1.00  0.00    -0.014 A 
BRANCH  28  29
ATOM     29  C   UNL A   1      38.096  30.410  29.653  1.00  0.00     0.031 A 
ATOM     30  C   UNL A   1      39.148  29.503  29.056  1.00  0.00     0.074 A 
ATOM     31  C   UNL A   1      38.290  30.916  30.890  1.00  0.00     0.049 A 
ATOM     32  N   UNL A   1      40.182  28.943  29.631  1.00  0.00    -0.248 NA
ATOM     33  C   UNL A   1      39.006  29.163  27.631  1.00  0.00     0.031 C 
ATOM     34  C   UNL A   1      37.379  31.823  31.592  1.00  0.00     0.029 A 
ATOM     35  N   UNL A   1      39.312  30.724  31.790  1.00  0.00    -0.354 N 
ATOM     36  C   UNL A   1      40.756  28.117  28.669  1.00  0.00     0.074 A 
ATOM     37  C   UNL A   1      39.961  28.258  27.468  1.00  0.00     0.031 C 
ATOM     38  C   UNL A   1      37.886  32.125  32.794  1.00  0.00     0.029 A 
ATOM     39  C   UNL A   1      39.099  31.347  32.999  1.00  0.00     0.049 A 
ATOM     40  H   UNL A   1      40.116  30.191  31.590  1.00  0.00     0.167 HD
ATOM     41  C   UNL A   1      41.845  27.317  28.775  1.00  0.00     0.034 A 
ATOM     42  C   UNL A   1      39.759  31.260  34.171  1.00  0.00     0.034 A 
ATOM     43  C   UNL A   1      42.674  27.236  29.951  1.00  0.00     0.049 A 
ATOM     44  C   UNL A   1      40.956  30.360  34.266  1.00  0.00     0.074 A 
ATOM     45  C   UNL A   1      43.830  26.499  30.139  1.00  0.00     0.029 A 
ATOM     46  N   UNL A   1      42.438  27.917  31.136  1.00  0.00    -0.354 N 
ATOM     47  N   UNL A   1      41.506  29.617  33.337  1.00  0.00    -0.248 NA
ATOM     48  C   UNL A   1      41.631  30.294  35.569  1.00  0.00     0.031 C 
ATOM     49  C   UNL A   1      44.274  26.707  31.449  1.00  0.00     0.029 A 
ATOM     50  C   UNL A   1      43.420  27.607  32.064  1.00  0.00     0.049 A 
ATOM     51  H   UNL A   1      41.684  28.529  31.295  1.00  0.00     0.167 HD
ATOM     52  C   UNL A   1      42.608  29.018  33.933  1.00  0.00     0.074 A 
ATOM     53  C   UNL A   1      42.663  29.505  35.296  1.00  0.00     0.031 C 
ATOM     54  C   UNL A   1      43.488  28.134  33.402  1.00  0.00     0.034 A 
BRANCH  41  55
ATOM     55  C   UNL A   1      42.214  26.459  27.588  1.00  0.00     0.023 A 
ATOM     56  C   UNL A   1      42.998  26.989  26.544  1.00  0.00     0.012 A 
ATOM     57  C   UNL A   1      41.826  25.104  27.538  1.00  0.00     0.148 A 
ATOM     58  C   UNL A   1      43.353  26.198  25.450  1.00  0.00     0.002 A 
ATOM     59  C   UNL A   1      42.226  24.309  26.470  1.00  0.00     0.091 A 
ATOM     60  F   UNL A   1      41.068  24.619  28.531  1.00  0.00    -0.205 F 
ATOM     61  C   UNL A   1      42.976  24.858  25.418  1.00  0.00     0.022 A 
BRANCH  59  62
ATOM     62  S   UNL A   1      41.865  22.551  26.379  1.00  0.00     0.127 S 
ATOM     63  O   UNL A   1      42.513  22.054  27.593  1.00  0.00    -0.237 OA
ATOM     64  O   UNL A   1      40.402  22.535  26.421  1.00  0.00    -0.237 OA
ATOM     65  O   UNL A   1      42.443  22.084  25.128  1.00  0.00    -0.744 OA
ENDBRANCH  59  62
ENDBRANCH  41  55
BRANCH  42  66
ATOM     66  C   UNL A   1      39.286  32.040  35.351  1.00  0.00     0.023 A 
ATOM     67  C   UNL A   1      38.425  31.432  36.284  1.00  0.00     0.012 A 
ATOM     68  C   UNL A   1      39.716  33.364  35.573  1.00  0.00     0.148 A 
ATOM     69  C   UNL A   1      37.981  32.138  37.404  1.00  0.00     0.002 A 
ATOM     70  C   UNL A   1      39.322  34.037  36.722  1.00  0.00     0.091 A 
ATOM     71  F   UNL A   1      40.525  33.930  34.665  1.00  0.00    -0.205 F 
ATOM     72  C   UNL A   1      38.439  33.433  37.629  1.00  0.00     0.022 A 
BRANCH  70  73
ATOM     73  S   UNL A   1      39.975  35.650  37.166  1.00  0.00     0.127 S 
ATOM     74  O   UNL A   1      39.290  35.912  38.430  1.00  0.00    -0.237 OA
ATOM     75  O   UNL A   1      41.407  35.373  37.287  1.00  0.00    -0.237 OA
ATOM     76  O   UNL A   1      39.626  36.536  36.064  1.00  0.00    -0.744 OA
ENDBRANCH  70  73
ENDBRANCH  42  66
BRANCH  54  77
ATOM     77  C   UNL A   1      44.620  27.671  34.282  1.00  0.00     0.023 A 
ATOM     78  C   UNL A   1      45.798  28.438  34.380  1.00  0.00     0.012 A 
ATOM     79  C   UNL A   1      44.489  26.501  35.055  1.00  0.00     0.148 A 
ATOM     80  C   UNL A   1      46.842  28.026  35.208  1.00  0.00     0.002 A 
ATOM     81  C   UNL A   1      45.511  26.126  35.916  1.00  0.00     0.091 A 
ATOM     82  F   UNL A   1      43.367  25.775  34.931  1.00  0.00    -0.205 F 
ATOM     83  C   UNL A   1      46.694  26.879  35.984  1.00  0.00     0.022 A 
BRANCH  81  84
ATOM     84  S   UNL A   1      45.369  24.722  37.026  1.00  0.00     0.127 S 
ATOM     85  O   UNL A   1      44.218  25.103  37.845  1.00  0.00    -0.237 OA
ATOM     86  O   UNL A   1      45.117  23.619  36.097  1.00  0.00    -0.237 OA
ATOM     87  O   UNL A   1      46.638  24.637  37.735  1.00  0.00    -0.744 OA
ENDBRANCH  81  84
ENDBRANCH  54  77
ENDBRANCH  28  29
ENDBRANCH  21  23
ENDBRANCH   1  21
TORSDOF 14
ENDMDL
MODEL 3
REMARK VINA RESULT:     -12.6      5.302     10.448
REMARK SMILES C[C@@H]1c2ccccc2-c2ccc(C(=O)OCCOC(=O)c3ccc(-c4c5nc(c(-c6cccc(S(=O)(=O)[O-])c6F)c6ccc([nH]6)c(-c6cccc(S(=O)(=O)[O-])c6F)c6nc(c(-c7cccc(S(=O)(=O)[O-])c7F)c7ccc4[nH]7)C=C6)C=C5)cc3)cc21
REMARK SMILES IDX 18 1 17 2 16 3 15 4 13 5 14 6 12 7 1 8 2 9 3 10 85 11 4 12
REMARK SMILES IDX 8 13 9 14 84 15 5 16 7 17 10 18 6 19 11 20 19 21 20 22 21 23
REMARK SMILES IDX 22 24 83 25 23 26 82 27 24 28 25 29 26 30 76 31 27 32 81 33
REMARK SMILES IDX 75 34 77 35 28 36 80 37 74 38 73 39 29 41 61 42 41 43 60 44
REMARK SMILES IDX 42 45 45 46 59 47 78 48 43 49 44 50 58 52 79 53 46 54 30 55
REMARK SMILES IDX 31 56 39 57 32 58 34 59 40 60 33 61 35 62 36 63 37 64 38 65
REMARK SMILES IDX 62 66 63 67 71 68 64 69 66 70 72 71 65 72 67 73 68 74 69 75
REMARK SMILES IDX 70 76 47 77 48 78 56 79 49 80 51 81 57 82 50 83 52 84 53 85
REMARK SMILES IDX 54 86 55 87
REMARK H PARENT 77 40 45 51
REMARK Flexibility Score: inf
ROOT
ATOM      1  O   UNL A   1      32.409  30.623  27.138  1.00  0.00    -0.458 OA
ENDROOT
BRANCH   1   2
ATOM      2  C   UNL A   1      31.946  30.482  25.782  1.00  0.00     0.275 C 
BRANCH   2   3
ATOM      3  C   UNL A   1      32.231  29.076  25.249  1.00  0.00     0.275 C 
BRANCH   3   4
ATOM      4  O   UNL A   1      31.152  28.163  25.543  1.00  0.00    -0.458 OA
BRANCH   4   5
ATOM      5  C   UNL A   1      31.391  27.288  26.554  1.00  0.00     0.338 C 
ATOM      6  O   UNL A   1      31.253  27.506  27.743  1.00  0.00    -0.246 OA
BRANCH   5   7
ATOM      7  C   UNL A   1      31.786  25.958  26.031  1.00  0.00     0.060 A 
ATOM      8  C   UNL A   1      35.767  24.013  24.972  1.00  0.00     0.018 C 
ATOM      9  C   UNL A   1      34.649  23.394  25.799  1.00  0.00     0.047 C 
ATOM     10  C   UNL A   1      34.216  22.025  25.285  1.00  0.00    -0.033 A 
ATOM     11  C   UNL A   1      33.355  24.192  25.703  1.00  0.00    -0.032 A 
ATOM     12  C   UNL A   1      34.947  20.850  25.209  1.00  0.00     0.005 A 
ATOM     13  C   UNL A   1      32.857  22.053  24.914  1.00  0.00    -0.014 A 
ATOM     14  C   UNL A   1      32.330  23.370  25.178  1.00  0.00    -0.014 A 
ATOM     15  C   UNL A   1      33.103  25.497  26.113  1.00  0.00     0.020 A 
ATOM     16  C   UNL A   1      34.303  19.700  24.743  1.00  0.00     0.000 A 
ATOM     17  C   UNL A   1      32.220  20.918  24.439  1.00  0.00     0.009 A 
ATOM     18  C   UNL A   1      31.039  23.834  25.062  1.00  0.00     0.010 A 
ATOM     19  C   UNL A   1      32.953  19.733  24.357  1.00  0.00     0.001 A 
ATOM     20  C   UNL A   1      30.770  25.116  25.530  1.00  0.00     0.016 A 
ENDBRANCH   5   7
ENDBRANCH   4   5
ENDBRANCH   3   4
ENDBRANCH   2   3
ENDBRANCH   1   2
BRANCH   1  21
ATOM     21  C   UNL A   1      33.109  31.753  27.382  1.00  0.00     0.338 C 
ATOM     22  O   UNL A   1      32.679  32.896  27.418  1.00  0.00    -0.246 OA
BRANCH  21  23
ATOM     23  C   UNL A   1      34.507  31.439  27.702  1.00  0.00     0.060 A 
ATOM     24  C   UNL A   1      34.817  30.123  28.011  1.00  0.00     0.016 A 
ATOM     25  C   UNL A   1      35.442  32.444  27.923  1.00  0.00     0.016 A 
ATOM     26  C   UNL A   1      35.980  29.823  28.713  1.00  0.00     0.010 A 
ATOM     27  C   UNL A   1      36.684  32.113  28.480  1.00  0.00     0.010 A 
ATOM     28  C   UNL A   1      36.948  30.809  28.942  1.00  0.00    -0.014 A 
BRANCH  28  29
ATOM     29  C   UNL A   1      38.216  30.483  29.667  1.00  0.00     0.031 A 
ATOM     30  C   UNL A   1      39.232  29.549  29.050  1.00  0.00     0.074 A 
ATOM     31  C   UNL A   1      38.457  31.000  30.891  1.00  0.00     0.049 A 
ATOM     32  N   UNL A   1      40.272  28.976  29.601  1.00  0.00    -0.248 NA
ATOM     33  C   UNL A   1      39.041  29.195  27.633  1.00  0.00     0.031 C 
ATOM     34  C   UNL A   1      37.583  31.932  31.609  1.00  0.00     0.029 A 
ATOM     35  N   UNL A   1      39.501  30.798  31.763  1.00  0.00    -0.354 N 
ATOM     36  C   UNL A   1      40.801  28.128  28.632  1.00  0.00     0.074 A 
ATOM     37  C   UNL A   1      39.973  28.270  27.454  1.00  0.00     0.031 C 
ATOM     38  C   UNL A   1      38.132  32.238  32.792  1.00  0.00     0.029 A 
ATOM     39  C   UNL A   1      39.336  31.440  32.970  1.00  0.00     0.049 A 
ATOM     40  H   UNL A   1      40.289  30.248  31.545  1.00  0.00     0.167 HD
ATOM     41  C   UNL A   1      41.878  27.308  28.716  1.00  0.00     0.034 A 
ATOM     42  C   UNL A   1      40.029  31.354  34.122  1.00  0.00     0.034 A 
ATOM     43  C   UNL A   1      42.740  27.226  29.867  1.00  0.00     0.049 A 
ATOM     44  C   UNL A   1      41.212  30.432  34.193  1.00  0.00     0.074 A 
ATOM     45  C   UNL A   1      43.887  26.469  30.030  1.00  0.00     0.029 A 
ATOM     46  N   UNL A   1      42.553  27.924  31.050  1.00  0.00    -0.354 N 
ATOM     47  N   UNL A   1      41.719  29.668  33.257  1.00  0.00    -0.248 NA
ATOM     48  C   UNL A   1      41.924  30.368  35.476  1.00  0.00     0.031 C 
ATOM     49  C   UNL A   1      44.375  26.684  31.324  1.00  0.00     0.029 A 
ATOM     50  C   UNL A   1      43.556  27.607  31.952  1.00  0.00     0.049 A 
ATOM     51  H   UNL A   1      41.816  28.552  31.224  1.00  0.00     0.167 HD
ATOM     52  C   UNL A   1      42.828  29.055  33.827  1.00  0.00     0.074 A 
ATOM     53  C   UNL A   1      42.932  29.557  35.182  1.00  0.00     0.031 C 
ATOM     54  C   UNL A   1      43.674  28.149  33.282  1.00  0.00     0.034 A 
BRANCH  41  55
ATOM     55  C   UNL A   1      42.195  26.430  27.529  1.00  0.00     0.023 A 
ATOM     56  C   UNL A   1      42.933  26.941  26.443  1.00  0.00     0.012 A 
ATOM     57  C   UNL A   1      41.804  25.075  27.519  1.00  0.00     0.148 A 
ATOM     58  C   UNL A   1      43.240  26.131  25.348  1.00  0.00     0.002 A 
ATOM     59  C   UNL A   1      42.158  24.261  26.449  1.00  0.00     0.091 A 
ATOM     60  F   UNL A   1      41.091  24.607  28.553  1.00  0.00    -0.205 F 
ATOM     61  C   UNL A   1      42.863  24.791  25.356  1.00  0.00     0.022 A 
BRANCH  59  62
ATOM     62  S   UNL A   1      41.793  22.502  26.404  1.00  0.00     0.127 S 
ATOM     63  O   UNL A   1      40.333  22.506  26.309  1.00  0.00    -0.237 OA
ATOM     64  O   UNL A   1      42.481  22.076  25.186  1.00  0.00    -0.237 OA
ATOM     65  O   UNL A   1      42.335  21.946  27.635  1.00  0.00    -0.744 OA
ENDBRANCH  59  62
ENDBRANCH  41  55
BRANCH  42  66
ATOM     66  C   UNL A   1      39.606  32.156  35.306  1.00  0.00     0.023 A 
ATOM     67  C   UNL A   1      39.953  33.518  35.381  1.00  0.00     0.012 A 
ATOM     68  C   UNL A   1      38.829  31.587  36.336  1.00  0.00     0.148 A 
ATOM     69  C   UNL A   1      39.555  34.292  36.472  1.00  0.00     0.002 A 
ATOM     70  C   UNL A   1      38.383  32.379  37.385  1.00  0.00     0.091 A 
ATOM     71  F   UNL A   1      38.521  30.284  36.253  1.00  0.00    -0.205 F 
ATOM     72  C   UNL A   1      38.760  33.727  37.466  1.00  0.00     0.022 A 
BRANCH  70  73
ATOM     73  S   UNL A   1      37.239  31.773  38.632  1.00  0.00     0.127 S 
ATOM     74  O   UNL A   1      37.026  30.395  38.195  1.00  0.00    -0.237 OA
ATOM     75  O   UNL A   1      38.027  31.915  39.857  1.00  0.00    -0.237 OA
ATOM     76  O   UNL A   1      36.076  32.645  38.560  1.00  0.00    -0.744 OA
ENDBRANCH  70  73
ENDBRANCH  42  66
BRANCH  54  77
ATOM     77  C   UNL A   1      44.823  27.674  34.132  1.00  0.00     0.023 A 
ATOM     78  C   UNL A   1      46.044  28.377  34.126  1.00  0.00     0.012 A 
ATOM     79  C   UNL A   1      44.668  26.561  34.982  1.00  0.00     0.148 A 
ATOM     80  C   UNL A   1      47.106  27.956  34.927  1.00  0.00     0.002 A 
ATOM     81  C   UNL A   1      45.712  26.180  35.815  1.00  0.00     0.091 A 
ATOM     82  F   UNL A   1      43.504  25.894  34.957  1.00  0.00    -0.205 F 
ATOM     83  C   UNL A   1      46.936  26.867  35.778  1.00  0.00     0.022 A 
BRANCH  81  84
ATOM     84  S   UNL A   1      45.551  24.854  37.014  1.00  0.00     0.127 S 
ATOM     85  O   UNL A   1      45.379  23.687  36.148  1.00  0.00    -0.237 OA
ATOM     86  O   UNL A   1      46.836  24.910  37.712  1.00  0.00    -0.237 OA
ATOM     87  O   UNL A   1      44.399  25.192  37.839  1.00  0.00    -0.744 OA
ENDBRANCH  81  84
ENDBRANCH  54  77
ENDBRANCH  28  29
ENDBRANCH  21  23
ENDBRANCH   1  21
TORSDOF 14
ENDMDL
