MODEL 1
REMARK VINA RESULT:     -11.5      0.000      0.000
REMARK SMILES CC[C@@H]1CCc2c(sc(NC(=O)COCC(=O)OCCOC(=O)c3ccc(-c4c5nc(c(-c6cccc(S(=O)(=O)[O-])c6F)c6ccc([nH]6)c(-c6cccc(S(=O)(=O)[O-])c6F)c6nc(c(-c7cccc(S(=O)(=O)[O-])c7F)c7ccc4[nH]7)C=C6)C=C5)cc3)c2C(N)=O)C1
REMARK SMILES IDX 19 1 18 2 16 3 17 4 15 5 14 6 13 7 11 8 10 9 12 11 9 12 3 13
REMARK SMILES IDX 4 14 91 15 5 16 7 17 6 18 8 19 87 20 2 21 1 22 88 23 89 24
REMARK SMILES IDX 90 25 20 28 21 29 22 30 23 31 24 32 25 33 86 34 26 35 85 36
REMARK SMILES IDX 27 37 28 38 29 39 79 40 30 41 84 42 78 43 80 44 31 45 83 46
REMARK SMILES IDX 77 47 76 48 32 50 64 51 44 52 63 53 45 54 48 55 62 56 81 57
REMARK SMILES IDX 46 58 47 59 61 61 82 62 49 63 33 64 34 65 42 66 35 67 37 68
REMARK SMILES IDX 43 69 36 70 38 71 39 72 40 73 41 74 65 75 66 76 74 77 67 78
REMARK SMILES IDX 69 79 75 80 68 81 70 82 71 83 72 84 73 85 50 86 51 87 59 88
REMARK SMILES IDX 52 89 54 90 60 91 53 92 55 93 56 94 57 95 58 96
REMARK H PARENT 10 10 89 26 89 27 80 49 48 60
REMARK Flexibility Score: inf
ROOT
ATOM      1  C   UNL A   1      31.345  29.810  25.104  1.00  0.00     0.274 C 
ENDROOT
BRANCH   1   2
ATOM      2  O   UNL A   1      30.494  30.176  24.005  1.00  0.00    -0.460 OA
BRANCH   2   3
ATOM      3  C   UNL A   1      29.877  29.151  23.355  1.00  0.00     0.332 C 
ATOM      4  O   UNL A   1      28.996  29.277  22.514  1.00  0.00    -0.250 OA
BRANCH   3   5
ATOM      5  C   UNL A   1      30.423  27.795  23.789  1.00  0.00     0.283 C 
BRANCH   5   6
ATOM      6  O   UNL A   1      30.614  26.884  22.723  1.00  0.00    -0.360 OA
BRANCH   6   7
ATOM      7  C   UNL A   1      31.864  26.930  22.086  1.00  0.00     0.261 C 
BRANCH   7   8
ATOM      8  C   UNL A   1      33.069  27.334  22.912  1.00  0.00     0.251 C 
ATOM      9  N   UNL A   1      33.669  26.540  23.823  1.00  0.00    -0.315 N 
ATOM     10  H   UNL A   1      34.471  26.967  24.201  1.00  0.00     0.170 HD
ATOM     11  O   UNL A   1      33.533  28.474  22.782  1.00  0.00    -0.272 OA
BRANCH   9  12
ATOM     12  C   UNL A   1      33.460  25.295  24.366  1.00  0.00     0.108 A 
ATOM     13  C   UNL A   1      34.134  20.505  25.275  1.00  0.00    -0.006 C 
ATOM     14  C   UNL A   1      33.551  21.092  26.581  1.00  0.00     0.009 C 
ATOM     15  C   UNL A   1      34.855  21.602  24.450  1.00  0.00     0.050 C 
ATOM     16  C   UNL A   1      32.526  22.202  26.314  1.00  0.00     0.038 C 
ATOM     17  C   UNL A   1      34.153  22.926  24.548  1.00  0.00     0.011 A 
ATOM     18  C   UNL A   1      33.097  23.226  25.377  1.00  0.00    -0.019 A 
ATOM     19  S   UNL A   1      34.668  24.273  23.676  1.00  0.00    -0.122 S 
ATOM     20  C   UNL A   1      32.636  24.598  25.238  1.00  0.00     0.077 A 
BRANCH  13  21
ATOM     21  C   UNL A   1      33.034  19.792  24.460  1.00  0.00     0.000 C 
ATOM     22  C   UNL A   1      32.555  18.514  25.133  1.00  0.00     0.004 C 
ENDBRANCH  13  21
BRANCH  20  23
ATOM     23  C   UNL A   1      31.453  25.018  25.975  1.00  0.00     0.251 C 
ATOM     24  N   UNL A   1      30.258  24.561  25.498  1.00  0.00    -0.365 N 
ATOM     25  O   UNL A   1      31.492  25.839  26.879  1.00  0.00    -0.269 OA
ATOM     26  H   UNL A   1      30.241  23.900  24.769  1.00  0.00     0.159 HD
ATOM     27  H   UNL A   1      29.415  24.893  25.882  1.00  0.00     0.159 HD
ENDBRANCH  20  23
ENDBRANCH   9  12
ENDBRANCH   7   8
ENDBRANCH   6   7
ENDBRANCH   5   6
ENDBRANCH   3   5
ENDBRANCH   2   3
ENDBRANCH   1   2
BRANCH   1  28
ATOM     28  C   UNL A   1      31.414  30.967  26.097  1.00  0.00     0.275 C 
BRANCH  28  29
ATOM     29  O   UNL A   1      32.457  30.712  27.059  1.00  0.00    -0.458 OA
BRANCH  29  30
ATOM     30  C   UNL A   1      33.243  31.773  27.360  1.00  0.00     0.338 C 
ATOM     31  O   UNL A   1      32.893  32.941  27.428  1.00  0.00    -0.246 OA
BRANCH  30  32
ATOM     32  C   UNL A   1      34.619  31.347  27.697  1.00  0.00     0.060 A 
ATOM     33  C   UNL A   1      34.907  30.008  27.964  1.00  0.00     0.016 A 
ATOM     34  C   UNL A   1      35.575  32.327  27.966  1.00  0.00     0.016 A 
ATOM     35  C   UNL A   1      36.085  29.676  28.640  1.00  0.00     0.010 A 
ATOM     36  C   UNL A   1      36.808  31.968  28.524  1.00  0.00     0.010 A 
ATOM     37  C   UNL A   1      37.062  30.646  28.924  1.00  0.00    -0.014 A 
BRANCH  37  38
ATOM     38  C   UNL A   1      38.329  30.297  29.643  1.00  0.00     0.031 A 
ATOM     39  C   UNL A   1      39.334  29.343  29.034  1.00  0.00     0.074 A 
ATOM     40  C   UNL A   1      38.573  30.794  30.875  1.00  0.00     0.049 A 
ATOM     41  N   UNL A   1      40.354  28.741  29.599  1.00  0.00    -0.248 NA
ATOM     42  C   UNL A   1      39.156  28.995  27.616  1.00  0.00     0.031 C 
ATOM     43  C   UNL A   1      37.709  31.723  31.603  1.00  0.00     0.029 A 
ATOM     44  N   UNL A   1      39.615  30.567  31.743  1.00  0.00    -0.354 N 
ATOM     45  C   UNL A   1      40.879  27.883  28.637  1.00  0.00     0.074 A 
ATOM     46  C   UNL A   1      40.070  28.048  27.447  1.00  0.00     0.031 C 
ATOM     47  C   UNL A   1      38.263  32.008  32.789  1.00  0.00     0.029 A 
ATOM     48  C   UNL A   1      39.472  31.211  32.951  1.00  0.00     0.049 A 
ATOM     49  H   UNL A   1      40.389  30.001  31.522  1.00  0.00     0.167 HD
ATOM     50  C   UNL A   1      41.944  27.048  28.726  1.00  0.00     0.034 A 
ATOM     51  C   UNL A   1      40.193  31.139  34.087  1.00  0.00     0.034 A 
ATOM     52  C   UNL A   1      42.818  26.961  29.869  1.00  0.00     0.049 A 
ATOM     53  C   UNL A   1      41.387  30.231  34.149  1.00  0.00     0.074 A 
ATOM     54  C   UNL A   1      43.961  26.192  30.022  1.00  0.00     0.029 A 
ATOM     55  N   UNL A   1      42.667  27.682  31.043  1.00  0.00    -0.354 N 
ATOM     56  N   UNL A   1      41.889  29.463  33.215  1.00  0.00    -0.248 NA
ATOM     57  C   UNL A   1      42.120  30.191  35.422  1.00  0.00     0.031 C 
ATOM     58  C   UNL A   1      44.495  26.442  31.291  1.00  0.00     0.029 A 
ATOM     59  C   UNL A   1      43.693  27.377  31.924  1.00  0.00     0.049 A 
ATOM     60  H   UNL A   1      41.937  28.316  31.226  1.00  0.00     0.167 HD
ATOM     61  C   UNL A   1      43.006  28.861  33.780  1.00  0.00     0.074 A 
ATOM     62  C   UNL A   1      43.127  29.381  35.126  1.00  0.00     0.031 C 
ATOM     63  C   UNL A   1      43.839  27.937  33.242  1.00  0.00     0.034 A 
BRANCH  50  64
ATOM     64  C   UNL A   1      42.267  26.175  27.537  1.00  0.00     0.023 A 
ATOM     65  C   UNL A   1      43.045  26.692  26.482  1.00  0.00     0.012 A 
ATOM     66  C   UNL A   1      41.881  24.819  27.508  1.00  0.00     0.148 A 
ATOM     67  C   UNL A   1      43.409  25.885  25.404  1.00  0.00     0.002 A 
ATOM     68  C   UNL A   1      42.282  24.008  26.449  1.00  0.00     0.091 A 
ATOM     69  F   UNL A   1      41.130  24.346  28.511  1.00  0.00    -0.205 F 
ATOM     70  C   UNL A   1      43.038  24.542  25.393  1.00  0.00     0.022 A 
BRANCH  68  71
ATOM     71  S   UNL A   1      41.924  22.248  26.389  1.00  0.00     0.127 S 
ATOM     72  O   UNL A   1      40.467  22.247  26.260  1.00  0.00    -0.237 OA
ATOM     73  O   UNL A   1      42.641  21.826  25.185  1.00  0.00    -0.237 OA
ATOM     74  O   UNL A   1      42.446  21.691  27.629  1.00  0.00    -0.744 OA
ENDBRANCH  68  71
ENDBRANCH  50  64
BRANCH  51  75
ATOM     75  C   UNL A   1      39.803  31.973  35.258  1.00  0.00     0.023 A 
ATOM     76  C   UNL A   1      40.218  33.318  35.315  1.00  0.00     0.012 A 
ATOM     77  C   UNL A   1      38.984  31.462  36.284  1.00  0.00     0.148 A 
ATOM     78  C   UNL A   1      39.838  34.133  36.381  1.00  0.00     0.002 A 
ATOM     79  C   UNL A   1      38.556  32.297  37.308  1.00  0.00     0.091 A 
ATOM     80  F   UNL A   1      38.620  30.174  36.226  1.00  0.00    -0.205 F 
ATOM     81  C   UNL A   1      38.996  33.629  37.368  1.00  0.00     0.022 A 
BRANCH  79  82
ATOM     82  S   UNL A   1      37.345  31.768  38.524  1.00  0.00     0.127 S 
ATOM     83  O   UNL A   1      38.074  31.955  39.776  1.00  0.00    -0.237 OA
ATOM     84  O   UNL A   1      36.251  32.715  38.301  1.00  0.00    -0.237 OA
ATOM     85  O   UNL A   1      37.020  30.392  38.172  1.00  0.00    -0.744 OA
ENDBRANCH  79  82
ENDBRANCH  51  75
BRANCH  63  86
ATOM     86  C   UNL A   1      44.971  27.443  34.106  1.00  0.00     0.023 A 
ATOM     87  C   UNL A   1      46.219  28.095  34.055  1.00  0.00     0.012 A 
ATOM     88  C   UNL A   1      44.792  26.361  34.989  1.00  0.00     0.148 A 
ATOM     89  C   UNL A   1      47.283  27.655  34.841  1.00  0.00     0.002 A 
ATOM     90  C   UNL A   1      45.846  25.953  35.802  1.00  0.00     0.091 A 
ATOM     91  F   UNL A   1      43.606  25.736  35.008  1.00  0.00    -0.205 F 
ATOM     92  C   UNL A   1      47.094  26.592  35.720  1.00  0.00     0.022 A 
BRANCH  90  93
ATOM     93  S   UNL A   1      45.663  24.646  37.019  1.00  0.00     0.127 S 
ATOM     94  O   UNL A   1      45.049  23.581  36.227  1.00  0.00    -0.237 OA
ATOM     95  O   UNL A   1      47.047  24.388  37.416  1.00  0.00    -0.237 OA
ATOM     96  O   UNL A   1      44.831  25.205  38.077  1.00  0.00    -0.744 OA
ENDBRANCH  90  93
ENDBRANCH  63  86
ENDBRANCH  37  38
ENDBRANCH  30  32
ENDBRANCH  29  30
ENDBRANCH  28  29
ENDBRANCH   1  28
TORSDOF 20
ENDMDL
MODEL 2
REMARK VINA RESULT:     -11.3      1.934      3.961
REMARK SMILES CC[C@@H]1CCc2c(sc(NC(=O)COCC(=O)OCCOC(=O)c3ccc(-c4c5nc(c(-c6cccc(S(=O)(=O)[O-])c6F)c6ccc([nH]6)c(-c6cccc(S(=O)(=O)[O-])c6F)c6nc(c(-c7cccc(S(=O)(=O)[O-])c7F)c7ccc4[nH]7)C=C6)C=C5)cc3)c2C(N)=O)C1
REMARK SMILES IDX 19 1 18 2 16 3 17 4 15 5 14 6 13 7 11 8 10 9 12 11 9 12 3 13
REMARK SMILES IDX 4 14 91 15 5 16 7 17 6 18 8 19 87 20 2 21 1 22 88 23 89 24
REMARK SMILES IDX 90 25 20 28 21 29 22 30 23 31 24 32 25 33 86 34 26 35 85 36
REMARK SMILES IDX 27 37 28 38 29 39 79 40 30 41 84 42 78 43 80 44 31 45 83 46
REMARK SMILES IDX 77 47 76 48 32 50 64 51 44 52 63 53 45 54 48 55 62 56 81 57
REMARK SMILES IDX 46 58 47 59 61 61 82 62 49 63 33 64 34 65 42 66 35 67 37 68
REMARK SMILES IDX 43 69 36 70 38 71 39 72 40 73 41 74 65 75 66 76 74 77 67 78
REMARK SMILES IDX 69 79 75 80 68 81 70 82 71 83 72 84 73 85 50 86 51 87 59 88
REMARK SMILES IDX 52 89 54 90 60 91 53 92 55 93 56 94 57 95 58 96
REMARK H PARENT 10 10 89 26 89 27 80 49 48 60
REMARK Flexibility Score: inf
ROOT
ATOM      1  C   UNL A   1      31.942  28.424  27.223  1.00  0.00     0.274 C 
ENDROOT
BRANCH   1   2
ATOM      2  O   UNL A   1      31.614  27.490  26.180  1.00  0.00    -0.460 OA
BRANCH   2   3
ATOM      3  C   UNL A   1      31.867  26.179  26.446  1.00  0.00     0.332 C 
ATOM      4  O   UNL A   1      31.081  25.400  26.971  1.00  0.00    -0.250 OA
BRANCH   3   5
ATOM      5  C   UNL A   1      33.266  25.770  25.999  1.00  0.00     0.283 C 
BRANCH   5   6
ATOM      6  O   UNL A   1      33.376  24.410  25.624  1.00  0.00    -0.360 OA
BRANCH   6   7
ATOM      7  C   UNL A   1      32.886  24.077  24.351  1.00  0.00     0.261 C 
BRANCH   7   8
ATOM      8  C   UNL A   1      31.432  23.667  24.233  1.00  0.00     0.251 C 
ATOM      9  N   UNL A   1      30.447  24.476  23.791  1.00  0.00    -0.315 N 
ATOM     10  H   UNL A   1      29.589  23.998  23.729  1.00  0.00     0.170 HD
ATOM     11  O   UNL A   1      31.096  22.530  24.588  1.00  0.00    -0.272 OA
BRANCH   9  12
ATOM     12  C   UNL A   1      30.319  25.788  23.404  1.00  0.00     0.108 A 
ATOM     13  C   UNL A   1      28.246  30.200  22.724  1.00  0.00    -0.006 C 
ATOM     14  C   UNL A   1      29.752  30.482  22.928  1.00  0.00     0.009 C 
ATOM     15  C   UNL A   1      27.839  28.861  23.392  1.00  0.00     0.050 C 
ATOM     16  C   UNL A   1      30.637  29.387  22.318  1.00  0.00     0.038 C 
ATOM     17  C   UNL A   1      28.922  27.827  23.273  1.00  0.00     0.011 A 
ATOM     18  C   UNL A   1      30.193  28.033  22.789  1.00  0.00    -0.019 A 
ATOM     19  S   UNL A   1      28.711  26.250  23.829  1.00  0.00    -0.122 S 
ATOM     20  C   UNL A   1      31.009  26.830  22.800  1.00  0.00     0.077 A 
BRANCH  13  21
ATOM     21  C   UNL A   1      27.883  30.236  21.224  1.00  0.00     0.000 C 
ATOM     22  C   UNL A   1      27.972  31.640  20.644  1.00  0.00     0.004 C 
ENDBRANCH  13  21
BRANCH  20  23
ATOM     23  C   UNL A   1      32.340  26.880  22.212  1.00  0.00     0.251 C 
ATOM     24  N   UNL A   1      32.486  26.248  21.010  1.00  0.00    -0.365 N 
ATOM     25  O   UNL A   1      33.310  27.329  22.804  1.00  0.00    -0.269 OA
ATOM     26  H   UNL A   1      31.696  25.890  20.545  1.00  0.00     0.159 HD
ATOM     27  H   UNL A   1      33.380  26.151  20.611  1.00  0.00     0.159 HD
ENDBRANCH  20  23
ENDBRANCH   9  12
ENDBRANCH   7   8
ENDBRANCH   6   7
ENDBRANCH   5   6
ENDBRANCH   3   5
ENDBRANCH   2   3
ENDBRANCH   1   2
BRANCH   1  28
ATOM     28  C   UNL A   1      31.630  29.841  26.748  1.00  0.00     0.275 C 
BRANCH  28  29
ATOM     29  O   UNL A   1      32.838  30.460  26.261  1.00  0.00    -0.458 OA
BRANCH  29  30
ATOM     30  C   UNL A   1      33.359  31.424  27.055  1.00  0.00     0.338 C 
ATOM     31  O   UNL A   1      32.785  32.426  27.454  1.00  0.00    -0.246 OA
BRANCH  30  32
ATOM     32  C   UNL A   1      34.735  31.088  27.481  1.00  0.00     0.060 A 
ATOM     33  C   UNL A   1      35.111  29.763  27.699  1.00  0.00     0.016 A 
ATOM     34  C   UNL A   1      35.582  32.122  27.881  1.00  0.00     0.016 A 
ATOM     35  C   UNL A   1      36.256  29.484  28.452  1.00  0.00     0.010 A 
ATOM     36  C   UNL A   1      36.793  31.828  28.519  1.00  0.00     0.010 A 
ATOM     37  C   UNL A   1      37.123  30.509  28.868  1.00  0.00    -0.014 A 
BRANCH  37  38
ATOM     38  C   UNL A   1      38.355  30.218  29.670  1.00  0.00     0.031 A 
ATOM     39  C   UNL A   1      39.435  29.300  29.137  1.00  0.00     0.074 A 
ATOM     40  C   UNL A   1      38.499  30.734  30.909  1.00  0.00     0.049 A 
ATOM     41  N   UNL A   1      40.439  28.744  29.772  1.00  0.00    -0.248 NA
ATOM     42  C   UNL A   1      39.361  28.933  27.713  1.00  0.00     0.031 C 
ATOM     43  C   UNL A   1      37.554  31.633  31.570  1.00  0.00     0.029 A 
ATOM     44  N   UNL A   1      39.493  30.557  31.844  1.00  0.00    -0.354 N 
ATOM     45  C   UNL A   1      41.059  27.901  28.854  1.00  0.00     0.074 A 
ATOM     46  C   UNL A   1      40.321  28.023  27.614  1.00  0.00     0.031 C 
ATOM     47  C   UNL A   1      38.019  31.950  32.786  1.00  0.00     0.029 A 
ATOM     48  C   UNL A   1      39.247  31.204  33.033  1.00  0.00     0.049 A 
ATOM     49  H   UNL A   1      40.301  30.021  31.679  1.00  0.00     0.167 HD
ATOM     50  C   UNL A   1      42.149  27.110  29.020  1.00  0.00     0.034 A 
ATOM     51  C   UNL A   1      39.896  31.172  34.213  1.00  0.00     0.034 A 
ATOM     52  C   UNL A   1      42.951  27.068  30.217  1.00  0.00     0.049 A 
ATOM     53  C   UNL A   1      41.119  30.313  34.361  1.00  0.00     0.074 A 
ATOM     54  C   UNL A   1      44.111  26.348  30.451  1.00  0.00     0.029 A 
ATOM     55  N   UNL A   1      42.696  27.792  31.371  1.00  0.00    -0.354 N 
ATOM     56  N   UNL A   1      41.710  29.558  33.469  1.00  0.00    -0.248 NA
ATOM     57  C   UNL A   1      41.770  30.314  35.679  1.00  0.00     0.031 C 
ATOM     58  C   UNL A   1      44.553  26.630  31.748  1.00  0.00     0.029 A 
ATOM     59  C   UNL A   1      43.675  27.536  32.319  1.00  0.00     0.049 A 
ATOM     60  H   UNL A   1      41.931  28.398  31.500  1.00  0.00     0.167 HD
ATOM     61  C   UNL A   1      42.811  29.006  34.111  1.00  0.00     0.074 A 
ATOM     62  C   UNL A   1      42.826  29.543  35.456  1.00  0.00     0.031 C 
ATOM     63  C   UNL A   1      43.714  28.113  33.637  1.00  0.00     0.034 A 
BRANCH  50  64
ATOM     64  C   UNL A   1      42.582  26.242  27.863  1.00  0.00     0.023 A 
ATOM     65  C   UNL A   1      43.593  26.692  26.992  1.00  0.00     0.012 A 
ATOM     66  C   UNL A   1      42.055  24.944  27.695  1.00  0.00     0.148 A 
ATOM     67  C   UNL A   1      44.054  25.880  25.955  1.00  0.00     0.002 A 
ATOM     68  C   UNL A   1      42.548  24.124  26.684  1.00  0.00     0.091 A 
ATOM     69  F   UNL A   1      41.084  24.535  28.522  1.00  0.00    -0.205 F 
ATOM     70  C   UNL A   1      43.539  24.593  25.808  1.00  0.00     0.022 A 
BRANCH  68  71
ATOM     71  S   UNL A   1      42.007  22.422  26.468  1.00  0.00     0.127 S 
ATOM     72  O   UNL A   1      42.758  22.023  25.279  1.00  0.00    -0.237 OA
ATOM     73  O   UNL A   1      42.457  21.793  27.711  1.00  0.00    -0.237 OA
ATOM     74  O   UNL A   1      40.561  22.480  26.310  1.00  0.00    -0.744 OA
ENDBRANCH  68  71
ENDBRANCH  50  64
BRANCH  51  75
ATOM     75  C   UNL A   1      39.399  31.999  35.349  1.00  0.00     0.023 A 
ATOM     76  C   UNL A   1      38.530  31.420  36.293  1.00  0.00     0.012 A 
ATOM     77  C   UNL A   1      39.823  33.330  35.528  1.00  0.00     0.148 A 
ATOM     78  C   UNL A   1      38.077  32.159  37.386  1.00  0.00     0.002 A 
ATOM     79  C   UNL A   1      39.420  34.038  36.653  1.00  0.00     0.091 A 
ATOM     80  F   UNL A   1      40.630  33.872  34.606  1.00  0.00    -0.205 F 
ATOM     81  C   UNL A   1      38.534  33.461  37.575  1.00  0.00     0.022 A 
BRANCH  79  82
ATOM     82  S   UNL A   1      40.091  35.657  37.050  1.00  0.00     0.127 S 
ATOM     83  O   UNL A   1      39.449  35.943  38.330  1.00  0.00    -0.237 OA
ATOM     84  O   UNL A   1      41.527  35.383  37.129  1.00  0.00    -0.237 OA
ATOM     85  O   UNL A   1      39.710  36.515  35.936  1.00  0.00    -0.744 OA
ENDBRANCH  79  82
ENDBRANCH  51  75
BRANCH  63  86
ATOM     86  C   UNL A   1      44.807  27.672  34.576  1.00  0.00     0.023 A 
ATOM     87  C   UNL A   1      46.012  28.401  34.630  1.00  0.00     0.012 A 
ATOM     88  C   UNL A   1      44.631  26.565  35.427  1.00  0.00     0.148 A 
ATOM     89  C   UNL A   1      47.040  28.012  35.487  1.00  0.00     0.002 A 
ATOM     90  C   UNL A   1      45.645  26.207  36.311  1.00  0.00     0.091 A 
ATOM     91  F   UNL A   1      43.488  25.868  35.348  1.00  0.00    -0.205 F 
ATOM     92  C   UNL A   1      46.853  26.922  36.333  1.00  0.00     0.022 A 
BRANCH  90  93
ATOM     93  S   UNL A   1      45.453  24.867  37.492  1.00  0.00     0.127 S 
ATOM     94  O   UNL A   1      45.084  23.751  36.623  1.00  0.00    -0.237 OA
ATOM     95  O   UNL A   1      46.792  24.767  38.075  1.00  0.00    -0.237 OA
ATOM     96  O   UNL A   1      44.425  25.308  38.426  1.00  0.00    -0.744 OA
ENDBRANCH  90  93
ENDBRANCH  63  86
ENDBRANCH  37  38
ENDBRANCH  30  32
ENDBRANCH  29  30
ENDBRANCH  28  29
ENDBRANCH   1  28
TORSDOF 20
ENDMDL
MODEL 3
REMARK VINA RESULT:     -10.7      2.364      8.115
REMARK SMILES CC[C@@H]1CCc2c(sc(NC(=O)COCC(=O)OCCOC(=O)c3ccc(-c4c5nc(c(-c6cccc(S(=O)(=O)[O-])c6F)c6ccc([nH]6)c(-c6cccc(S(=O)(=O)[O-])c6F)c6nc(c(-c7cccc(S(=O)(=O)[O-])c7F)c7ccc4[nH]7)C=C6)C=C5)cc3)c2C(N)=O)C1
REMARK SMILES IDX 19 1 18 2 16 3 17 4 15 5 14 6 13 7 11 8 10 9 12 11 9 12 3 13
REMARK SMILES IDX 4 14 91 15 5 16 7 17 6 18 8 19 87 20 2 21 1 22 88 23 89 24
REMARK SMILES IDX 90 25 20 28 21 29 22 30 23 31 24 32 25 33 86 34 26 35 85 36
REMARK SMILES IDX 27 37 28 38 29 39 79 40 30 41 84 42 78 43 80 44 31 45 83 46
REMARK SMILES IDX 77 47 76 48 32 50 64 51 44 52 63 53 45 54 48 55 62 56 81 57
REMARK SMILES IDX 46 58 47 59 61 61 82 62 49 63 33 64 34 65 42 66 35 67 37 68
REMARK SMILES IDX 43 69 36 70 38 71 39 72 40 73 41 74 65 75 66 76 74 77 67 78
REMARK SMILES IDX 69 79 75 80 68 81 70 82 71 83 72 84 73 85 50 86 51 87 59 88
REMARK SMILES IDX 52 89 54 90 60 91 53 92 55 93 56 94 57 95 58 96
REMARK H PARENT 10 10 89 26 89 27 80 49 48 60
REMARK Flexibility Score: inf
ROOT
ATOM      1  C   UNL A   1      33.577  31.923  27.841  1.00  0.00     0.274 C 
ENDROOT
BRANCH   1   2
ATOM      2  O   UNL A   1      32.711  30.963  27.213  1.00  0.00    -0.460 OA
BRANCH   2   3
ATOM      3  C   UNL A   1      33.318  29.869  26.676  1.00  0.00     0.332 C 
ATOM      4  O   UNL A   1      34.042  29.091  27.286  1.00  0.00    -0.250 OA
BRANCH   3   5
ATOM      5  C   UNL A   1      32.982  29.703  25.198  1.00  0.00     0.283 C 
BRANCH   5   6
ATOM      6  O   UNL A   1      32.041  28.681  24.932  1.00  0.00    -0.360 OA
BRANCH   6   7
ATOM      7  C   UNL A   1      31.009  29.006  24.038  1.00  0.00     0.261 C 
BRANCH   7   8
ATOM      8  C   UNL A   1      30.703  28.031  22.919  1.00  0.00     0.251 C 
ATOM      9  N   UNL A   1      31.103  26.743  22.902  1.00  0.00    -0.315 N 
ATOM     10  H   UNL A   1      30.745  26.265  22.119  1.00  0.00     0.170 HD
ATOM     11  O   UNL A   1      30.071  28.427  21.932  1.00  0.00    -0.272 OA
BRANCH   9  12
ATOM     12  C   UNL A   1      31.876  25.919  23.683  1.00  0.00     0.108 A 
ATOM     13  C   UNL A   1      35.543  22.884  24.938  1.00  0.00    -0.006 C 
ATOM     14  C   UNL A   1      35.192  23.659  26.229  1.00  0.00     0.009 C 
ATOM     15  C   UNL A   1      35.140  23.696  23.680  1.00  0.00     0.050 C 
ATOM     16  C   UNL A   1      33.690  23.950  26.342  1.00  0.00     0.038 C 
ATOM     17  C   UNL A   1      33.865  24.460  23.893  1.00  0.00     0.011 A 
ATOM     18  C   UNL A   1      33.185  24.590  25.082  1.00  0.00    -0.019 A 
ATOM     19  S   UNL A   1      33.146  25.354  22.659  1.00  0.00    -0.122 S 
ATOM     20  C   UNL A   1      31.979  25.393  24.963  1.00  0.00     0.077 A 
BRANCH  13  21
ATOM     21  C   UNL A   1      34.902  21.480  24.954  1.00  0.00     0.000 C 
ATOM     22  C   UNL A   1      35.942  20.372  24.883  1.00  0.00     0.004 C 
ENDBRANCH  13  21
BRANCH  20  23
ATOM     23  C   UNL A   1      31.104  25.520  26.121  1.00  0.00     0.251 C 
ATOM     24  N   UNL A   1      31.242  26.667  26.850  1.00  0.00    -0.365 N 
ATOM     25  O   UNL A   1      30.387  24.612  26.513  1.00  0.00    -0.269 OA
ATOM     26  H   UNL A   1      31.823  27.390  26.523  1.00  0.00     0.159 HD
ATOM     27  H   UNL A   1      30.761  26.768  27.702  1.00  0.00     0.159 HD
ENDBRANCH  20  23
ENDBRANCH   9  12
ENDBRANCH   7   8
ENDBRANCH   6   7
ENDBRANCH   5   6
ENDBRANCH   3   5
ENDBRANCH   2   3
ENDBRANCH   1   2
BRANCH   1  28
ATOM     28  C   UNL A   1      33.197  33.326  27.373  1.00  0.00     0.275 C 
BRANCH  28  29
ATOM     29  O   UNL A   1      32.441  33.988  28.407  1.00  0.00    -0.458 OA
BRANCH  29  30
ATOM     30  C   UNL A   1      33.051  35.048  28.986  1.00  0.00     0.338 C 
ATOM     31  O   UNL A   1      32.709  36.218  28.904  1.00  0.00    -0.246 OA
BRANCH  30  32
ATOM     32  C   UNL A   1      34.181  34.621  29.841  1.00  0.00     0.060 A 
ATOM     33  C   UNL A   1      35.493  34.679  29.371  1.00  0.00     0.016 A 
ATOM     34  C   UNL A   1      33.902  33.949  31.031  1.00  0.00     0.016 A 
ATOM     35  C   UNL A   1      36.490  33.937  30.010  1.00  0.00     0.010 A 
ATOM     36  C   UNL A   1      34.933  33.317  31.737  1.00  0.00     0.010 A 
ATOM     37  C   UNL A   1      36.232  33.250  31.209  1.00  0.00    -0.014 A 
BRANCH  37  38
ATOM     38  C   UNL A   1      37.297  32.456  31.904  1.00  0.00     0.031 A 
ATOM     39  C   UNL A   1      37.781  32.842  33.285  1.00  0.00     0.074 A 
ATOM     40  C   UNL A   1      37.879  31.408  31.284  1.00  0.00     0.049 A 
ATOM     41  N   UNL A   1      38.844  32.432  33.936  1.00  0.00    -0.248 NA
ATOM     42  C   UNL A   1      36.987  33.838  34.022  1.00  0.00     0.031 C 
ATOM     43  C   UNL A   1      37.531  30.906  29.954  1.00  0.00     0.029 A 
ATOM     44  N   UNL A   1      38.905  30.585  31.686  1.00  0.00    -0.354 N 
ATOM     45  C   UNL A   1      38.893  33.180  35.108  1.00  0.00     0.074 A 
ATOM     46  C   UNL A   1      37.747  34.065  35.085  1.00  0.00     0.031 C 
ATOM     47  C   UNL A   1      38.305  29.853  29.660  1.00  0.00     0.029 A 
ATOM     48  C   UNL A   1      39.271  29.660  30.735  1.00  0.00     0.049 A 
ATOM     49  H   UNL A   1      39.336  30.651  32.569  1.00  0.00     0.167 HD
ATOM     50  C   UNL A   1      39.796  33.127  36.120  1.00  0.00     0.034 A 
ATOM     51  C   UNL A   1      40.293  28.784  30.694  1.00  0.00     0.034 A 
ATOM     52  C   UNL A   1      40.874  32.174  36.200  1.00  0.00     0.049 A 
ATOM     53  C   UNL A   1      41.260  28.723  31.841  1.00  0.00     0.074 A 
ATOM     54  C   UNL A   1      41.797  32.002  37.220  1.00  0.00     0.029 A 
ATOM     55  N   UNL A   1      41.162  31.215  35.241  1.00  0.00    -0.354 N 
ATOM     56  N   UNL A   1      41.263  29.408  32.956  1.00  0.00    -0.248 NA
ATOM     57  C   UNL A   1      42.360  27.755  31.725  1.00  0.00     0.031 C 
ATOM     58  C   UNL A   1      42.647  30.945  36.873  1.00  0.00     0.029 A 
ATOM     59  C   UNL A   1      42.246  30.450  35.643  1.00  0.00     0.049 A 
ATOM     60  H   UNL A   1      40.670  31.096  34.397  1.00  0.00     0.167 HD
ATOM     61  C   UNL A   1      42.351  28.945  33.684  1.00  0.00     0.074 A 
ATOM     62  C   UNL A   1      42.965  27.894  32.897  1.00  0.00     0.031 C 
ATOM     63  C   UNL A   1      42.819  29.371  34.882  1.00  0.00     0.034 A 
BRANCH  50  64
ATOM     64  C   UNL A   1      39.645  34.102  37.263  1.00  0.00     0.023 A 
ATOM     65  C   UNL A   1      39.982  35.457  37.074  1.00  0.00     0.012 A 
ATOM     66  C   UNL A   1      39.083  33.696  38.491  1.00  0.00     0.148 A 
ATOM     67  C   UNL A   1      39.791  36.387  38.097  1.00  0.00     0.002 A 
ATOM     68  C   UNL A   1      38.857  34.636  39.492  1.00  0.00     0.091 A 
ATOM     69  F   UNL A   1      38.781  32.401  38.661  1.00  0.00    -0.205 F 
ATOM     70  C   UNL A   1      39.219  35.979  39.300  1.00  0.00     0.022 A 
BRANCH  68  71
ATOM     71  S   UNL A   1      38.049  34.223  41.044  1.00  0.00     0.127 S 
ATOM     72  O   UNL A   1      37.780  35.549  41.599  1.00  0.00    -0.237 OA
ATOM     73  O   UNL A   1      36.860  33.500  40.593  1.00  0.00    -0.237 OA
ATOM     74  O   UNL A   1      39.003  33.412  41.787  1.00  0.00    -0.744 OA
ENDBRANCH  68  71
ENDBRANCH  50  64
BRANCH  51  75
ATOM     75  C   UNL A   1      40.441  27.881  29.518  1.00  0.00     0.023 A 
ATOM     76  C   UNL A   1      39.619  26.742  29.417  1.00  0.00     0.012 A 
ATOM     77  C   UNL A   1      41.347  28.170  28.479  1.00  0.00     0.148 A 
ATOM     78  C   UNL A   1      39.709  25.898  28.311  1.00  0.00     0.002 A 
ATOM     79  C   UNL A   1      41.385  27.361  27.350  1.00  0.00     0.091 A 
ATOM     80  F   UNL A   1      42.139  29.243  28.604  1.00  0.00    -0.205 F 
ATOM     81  C   UNL A   1      40.579  26.215  27.271  1.00  0.00     0.022 A 
BRANCH  79  82
ATOM     82  S   UNL A   1      42.359  27.792  25.904  1.00  0.00     0.127 S 
ATOM     83  O   UNL A   1      43.718  27.768  26.439  1.00  0.00    -0.237 OA
ATOM     84  O   UNL A   1      42.041  26.699  24.983  1.00  0.00    -0.237 OA
ATOM     85  O   UNL A   1      41.862  29.093  25.477  1.00  0.00    -0.744 OA
ENDBRANCH  79  82
ENDBRANCH  51  75
BRANCH  63  86
ATOM     86  C   UNL A   1      44.046  28.687  35.427  1.00  0.00     0.023 A 
ATOM     87  C   UNL A   1      45.320  29.080  34.973  1.00  0.00     0.012 A 
ATOM     88  C   UNL A   1      43.942  27.682  36.409  1.00  0.00     0.148 A 
ATOM     89  C   UNL A   1      46.471  28.459  35.458  1.00  0.00     0.002 A 
ATOM     90  C   UNL A   1      45.096  27.096  36.920  1.00  0.00     0.091 A 
ATOM     91  F   UNL A   1      42.721  27.303  36.813  1.00  0.00    -0.205 F 
ATOM     92  C   UNL A   1      46.359  27.475  36.437  1.00  0.00     0.022 A 
BRANCH  90  93
ATOM     93  S   UNL A   1      45.045  25.880  38.241  1.00  0.00     0.127 S 
ATOM     94  O   UNL A   1      46.460  25.755  38.588  1.00  0.00    -0.237 OA
ATOM     95  O   UNL A   1      44.227  26.548  39.253  1.00  0.00    -0.237 OA
ATOM     96  O   UNL A   1      44.430  24.693  37.661  1.00  0.00    -0.744 OA
ENDBRANCH  90  93
ENDBRANCH  63  86
ENDBRANCH  37  38
ENDBRANCH  30  32
ENDBRANCH  29  30
ENDBRANCH  28  29
ENDBRANCH   1  28
TORSDOF 20
ENDMDL
