MODEL 1
REMARK VINA RESULT:     -10.6      0.000      0.000
REMARK SMILES CCN(C(=O)c1ccccc1C(=O)OCCOC(=O)c1ccc(-c2c3nc(c(-c4cccc(S(=O)(=O)[O-])c4F)c4ccc([nH]4)c(-c4cccc(S(=O)(=O)[O-])c4F)c4nc(c(-c5cccc(S(=O)(=O)[O-])c5F)c5ccc2[nH]5)C=C4)C=C3)cc1)[C@H](CCO)c1ccccc1
REMARK SMILES IDX 14 1 12 2 13 3 11 4 6 5 7 6 8 7 10 8 9 9 4 10 5 11 3 12 2 13
REMARK SMILES IDX 1 14 83 15 87 16 88 17 92 18 89 19 91 20 90 21 84 22 85 23
REMARK SMILES IDX 86 24 15 26 16 27 17 28 18 29 19 30 20 31 21 32 82 33 22 34
REMARK SMILES IDX 81 35 23 36 24 37 25 38 75 39 26 40 80 41 74 42 76 43 27 44
REMARK SMILES IDX 79 45 73 46 72 47 28 49 60 50 40 51 59 52 41 53 44 54 58 55
REMARK SMILES IDX 77 56 42 57 43 58 57 60 78 61 45 62 29 63 30 64 38 65 31 66
REMARK SMILES IDX 33 67 39 68 32 69 34 70 35 71 36 72 37 73 61 74 62 75 70 76
REMARK SMILES IDX 63 77 65 78 71 79 64 80 66 81 67 82 68 83 69 84 46 85 47 86
REMARK SMILES IDX 55 87 48 88 50 89 56 90 49 91 51 92 52 93 53 94 54 95
REMARK H PARENT 86 25 76 48 44 59
REMARK Flexibility Score: inf
ROOT
ATOM      1  O   UNL A   1      32.291  29.875  25.108  1.00  0.00    -0.458 OA
ENDROOT
BRANCH   1   2
ATOM      2  C   UNL A   1      32.410  28.677  24.498  1.00  0.00     0.339 C 
ATOM      3  O   UNL A   1      33.456  28.098  24.247  1.00  0.00    -0.246 OA
BRANCH   2   4
ATOM      4  C   UNL A   1      31.105  28.073  24.144  1.00  0.00     0.072 A 
ATOM      5  C   UNL A   1      30.656  26.816  24.580  1.00  0.00     0.054 A 
ATOM      6  C   UNL A   1      29.358  26.401  24.206  1.00  0.00     0.015 A 
ATOM      7  C   UNL A   1      28.511  27.227  23.461  1.00  0.00     0.001 A 
ATOM      8  C   UNL A   1      30.221  28.913  23.433  1.00  0.00     0.016 A 
ATOM      9  C   UNL A   1      28.942  28.489  23.080  1.00  0.00     0.001 A 
BRANCH   5  10
ATOM     10  C   UNL A   1      31.413  25.836  25.412  1.00  0.00     0.255 C 
ATOM     11  O   UNL A   1      31.535  26.143  26.601  1.00  0.00    -0.269 OA
BRANCH  10  12
ATOM     12  N   UNL A   1      32.011  24.668  24.877  1.00  0.00    -0.332 N 
BRANCH  12  13
ATOM     13  C   UNL A   1      31.501  23.316  25.216  1.00  0.00     0.117 C 
ATOM     14  C   UNL A   1      32.184  22.517  26.312  1.00  0.00     0.027 C 
ENDBRANCH  12  13
BRANCH  12  15
ATOM     15  C   UNL A   1      33.137  24.895  23.885  1.00  0.00     0.118 C 
BRANCH  15  16
ATOM     16  C   UNL A   1      34.515  24.255  24.206  1.00  0.00    -0.025 A 
ATOM     17  C   UNL A   1      35.185  23.482  23.231  1.00  0.00     0.006 A 
ATOM     18  C   UNL A   1      35.213  24.462  25.400  1.00  0.00     0.006 A 
ATOM     19  C   UNL A   1      36.385  22.815  23.497  1.00  0.00     0.000 A 
ATOM     20  C   UNL A   1      36.430  23.817  25.667  1.00  0.00     0.000 A 
ATOM     21  C   UNL A   1      36.996  22.961  24.732  1.00  0.00     0.000 A 
ENDBRANCH  15  16
BRANCH  15  22
ATOM     22  C   UNL A   1      32.761  24.724  22.390  1.00  0.00     0.058 C 
BRANCH  22  23
ATOM     23  C   UNL A   1      32.779  25.963  21.483  1.00  0.00     0.158 C 
BRANCH  23  24
ATOM     24  O   UNL A   1      33.007  25.694  20.115  1.00  0.00    -0.396 OA
ATOM     25  H   UNL A   1      32.553  24.874  19.867  1.00  0.00     0.210 HD
ENDBRANCH  23  24
ENDBRANCH  22  23
ENDBRANCH  15  22
ENDBRANCH  12  15
ENDBRANCH  10  12
ENDBRANCH   5  10
ENDBRANCH   2   4
ENDBRANCH   1   2
BRANCH   1  26
ATOM     26  C   UNL A   1      32.004  29.838  26.527  1.00  0.00     0.275 C 
BRANCH  26  27
ATOM     27  C   UNL A   1      32.797  30.908  27.278  1.00  0.00     0.275 C 
BRANCH  27  28
ATOM     28  O   UNL A   1      34.190  30.569  27.251  1.00  0.00    -0.458 OA
BRANCH  28  29
ATOM     29  C   UNL A   1      35.013  31.540  27.697  1.00  0.00     0.338 C 
ATOM     30  O   UNL A   1      34.802  32.745  27.749  1.00  0.00    -0.246 OA
BRANCH  29  31
ATOM     31  C   UNL A   1      36.122  30.877  28.375  1.00  0.00     0.060 A 
ATOM     32  C   UNL A   1      37.384  31.444  28.205  1.00  0.00     0.016 A 
ATOM     33  C   UNL A   1      35.946  29.736  29.146  1.00  0.00     0.016 A 
ATOM     34  C   UNL A   1      38.502  30.863  28.775  1.00  0.00     0.010 A 
ATOM     35  C   UNL A   1      37.066  29.162  29.747  1.00  0.00     0.010 A 
ATOM     36  C   UNL A   1      38.350  29.712  29.548  1.00  0.00    -0.014 A 
BRANCH  36  37
ATOM     37  C   UNL A   1      39.548  29.021  30.068  1.00  0.00     0.031 A 
ATOM     38  C   UNL A   1      40.176  29.537  31.326  1.00  0.00     0.074 A 
ATOM     39  C   UNL A   1      40.056  27.958  29.417  1.00  0.00     0.049 A 
ATOM     40  N   UNL A   1      41.346  29.271  31.835  1.00  0.00    -0.248 NA
ATOM     41  C   UNL A   1      39.383  30.504  32.107  1.00  0.00     0.031 C 
ATOM     42  C   UNL A   1      39.484  27.348  28.214  1.00  0.00     0.029 A 
ATOM     43  N   UNL A   1      41.185  27.221  29.659  1.00  0.00    -0.354 N 
ATOM     44  C   UNL A   1      41.467  30.097  32.946  1.00  0.00     0.074 A 
ATOM     45  C   UNL A   1      40.245  30.862  33.047  1.00  0.00     0.031 C 
ATOM     46  C   UNL A   1      40.278  26.343  27.811  1.00  0.00     0.029 A 
ATOM     47  C   UNL A   1      41.446  26.289  28.682  1.00  0.00     0.049 A 
ATOM     48  H   UNL A   1      41.754  27.346  30.454  1.00  0.00     0.167 HD
ATOM     49  C   UNL A   1      42.511  30.198  33.800  1.00  0.00     0.034 A 
ATOM     50  C   UNL A   1      42.535  25.522  28.481  1.00  0.00     0.034 A 
ATOM     51  C   UNL A   1      43.687  29.378  33.706  1.00  0.00     0.049 A 
ATOM     52  C   UNL A   1      43.675  25.642  29.456  1.00  0.00     0.074 A 
ATOM     53  C   UNL A   1      44.809  29.380  34.511  1.00  0.00     0.029 A 
ATOM     54  N   UNL A   1      43.879  28.391  32.748  1.00  0.00    -0.354 N 
ATOM     55  N   UNL A   1      43.782  26.422  30.507  1.00  0.00    -0.248 NA
ATOM     56  C   UNL A   1      44.834  24.770  29.233  1.00  0.00     0.031 C 
ATOM     57  C   UNL A   1      45.682  28.394  34.039  1.00  0.00     0.029 A 
ATOM     58  C   UNL A   1      45.094  27.765  32.951  1.00  0.00     0.049 A 
ATOM     59  H   UNL A   1      43.243  28.170  32.030  1.00  0.00     0.167 HD
ATOM     60  C   UNL A   1      45.010  26.122  31.082  1.00  0.00     0.074 A 
ATOM     61  C   UNL A   1      45.595  25.065  30.278  1.00  0.00     0.031 C 
ATOM     62  C   UNL A   1      45.614  26.679  32.160  1.00  0.00     0.034 A 
BRANCH  49  63
ATOM     63  C   UNL A   1      42.414  31.215  34.905  1.00  0.00     0.023 A 
ATOM     64  C   UNL A   1      41.980  30.820  36.186  1.00  0.00     0.012 A 
ATOM     65  C   UNL A   1      42.780  32.558  34.685  1.00  0.00     0.148 A 
ATOM     66  C   UNL A   1      41.879  31.749  37.221  1.00  0.00     0.002 A 
ATOM     67  C   UNL A   1      42.720  33.470  35.732  1.00  0.00     0.091 A 
ATOM     68  F   UNL A   1      43.167  32.921  33.454  1.00  0.00    -0.205 F 
ATOM     69  C   UNL A   1      42.259  33.070  36.998  1.00  0.00     0.022 A 
BRANCH  67  70
ATOM     70  S   UNL A   1      43.251  35.178  35.567  1.00  0.00     0.127 S 
ATOM     71  O   UNL A   1      42.542  35.816  36.676  1.00  0.00    -0.237 OA
ATOM     72  O   UNL A   1      44.698  35.068  35.752  1.00  0.00    -0.237 OA
ATOM     73  O   UNL A   1      42.836  35.603  34.238  1.00  0.00    -0.744 OA
ENDBRANCH  67  70
ENDBRANCH  49  63
BRANCH  50  74
ATOM     74  C   UNL A   1      42.595  24.596  27.315  1.00  0.00     0.023 A 
ATOM     75  C   UNL A   1      43.237  25.005  26.131  1.00  0.00     0.012 A 
ATOM     76  C   UNL A   1      42.056  23.294  27.386  1.00  0.00     0.148 A 
ATOM     77  C   UNL A   1      43.319  24.147  25.032  1.00  0.00     0.002 A 
ATOM     78  C   UNL A   1      42.197  22.424  26.310  1.00  0.00     0.091 A 
ATOM     79  F   UNL A   1      41.426  22.926  28.510  1.00  0.00    -0.205 F 
ATOM     80  C   UNL A   1      42.813  22.853  25.126  1.00  0.00     0.022 A 
BRANCH  78  81
ATOM     81  S   UNL A   1      41.703  20.699  26.411  1.00  0.00     0.127 S 
ATOM     82  O   UNL A   1      42.507  20.094  25.351  1.00  0.00    -0.237 OA
ATOM     83  O   UNL A   1      42.108  20.341  27.771  1.00  0.00    -0.237 OA
ATOM     84  O   UNL A   1      40.261  20.698  26.199  1.00  0.00    -0.744 OA
ENDBRANCH  78  81
ENDBRANCH  50  74
BRANCH  62  85
ATOM     85  C   UNL A   1      46.957  26.129  32.552  1.00  0.00     0.023 A 
ATOM     86  C   UNL A   1      48.130  26.735  32.063  1.00  0.00     0.012 A 
ATOM     87  C   UNL A   1      47.051  25.061  33.465  1.00  0.00     0.148 A 
ATOM     88  C   UNL A   1      49.382  26.266  32.455  1.00  0.00     0.002 A 
ATOM     89  C   UNL A   1      48.301  24.631  33.887  1.00  0.00     0.091 A 
ATOM     90  F   UNL A   1      45.920  24.488  33.900  1.00  0.00    -0.205 F 
ATOM     91  C   UNL A   1      49.468  25.223  33.375  1.00  0.00     0.022 A 
BRANCH  89  92
ATOM     92  S   UNL A   1      48.503  23.360  35.141  1.00  0.00     0.127 S 
ATOM     93  O   UNL A   1      47.512  22.370  34.722  1.00  0.00    -0.237 OA
ATOM     94  O   UNL A   1      49.894  22.951  34.949  1.00  0.00    -0.237 OA
ATOM     95  O   UNL A   1      48.237  24.012  36.416  1.00  0.00    -0.744 OA
ENDBRANCH  89  92
ENDBRANCH  62  85
ENDBRANCH  36  37
ENDBRANCH  29  31
ENDBRANCH  28  29
ENDBRANCH  27  28
ENDBRANCH  26  27
ENDBRANCH   1  26
TORSDOF 22
ENDMDL
MODEL 2
REMARK VINA RESULT:     -10.6      2.343      7.755
REMARK SMILES CCN(C(=O)c1ccccc1C(=O)OCCOC(=O)c1ccc(-c2c3nc(c(-c4cccc(S(=O)(=O)[O-])c4F)c4ccc([nH]4)c(-c4cccc(S(=O)(=O)[O-])c4F)c4nc(c(-c5cccc(S(=O)(=O)[O-])c5F)c5ccc2[nH]5)C=C4)C=C3)cc1)[C@H](CCO)c1ccccc1
REMARK SMILES IDX 14 1 12 2 13 3 11 4 6 5 7 6 8 7 10 8 9 9 4 10 5 11 3 12 2 13
REMARK SMILES IDX 1 14 83 15 87 16 88 17 92 18 89 19 91 20 90 21 84 22 85 23
REMARK SMILES IDX 86 24 15 26 16 27 17 28 18 29 19 30 20 31 21 32 82 33 22 34
REMARK SMILES IDX 81 35 23 36 24 37 25 38 75 39 26 40 80 41 74 42 76 43 27 44
REMARK SMILES IDX 79 45 73 46 72 47 28 49 60 50 40 51 59 52 41 53 44 54 58 55
REMARK SMILES IDX 77 56 42 57 43 58 57 60 78 61 45 62 29 63 30 64 38 65 31 66
REMARK SMILES IDX 33 67 39 68 32 69 34 70 35 71 36 72 37 73 61 74 62 75 70 76
REMARK SMILES IDX 63 77 65 78 71 79 64 80 66 81 67 82 68 83 69 84 46 85 47 86
REMARK SMILES IDX 55 87 48 88 50 89 56 90 49 91 51 92 52 93 53 94 54 95
REMARK H PARENT 86 25 76 48 44 59
REMARK Flexibility Score: inf
ROOT
ATOM      1  O   UNL A   1      32.378  29.574  24.846  1.00  0.00    -0.458 OA
ENDROOT
BRANCH   1   2
ATOM      2  C   UNL A   1      32.352  28.399  24.184  1.00  0.00     0.339 C 
ATOM      3  O   UNL A   1      33.323  27.783  23.772  1.00  0.00    -0.246 OA
BRANCH   2   4
ATOM      4  C   UNL A   1      30.981  27.871  23.990  1.00  0.00     0.072 A 
ATOM      5  C   UNL A   1      30.497  26.672  24.535  1.00  0.00     0.054 A 
ATOM      6  C   UNL A   1      29.144  26.331  24.311  1.00  0.00     0.015 A 
ATOM      7  C   UNL A   1      28.283  27.177  23.606  1.00  0.00     0.001 A 
ATOM      8  C   UNL A   1      30.088  28.736  23.321  1.00  0.00     0.016 A 
ATOM      9  C   UNL A   1      28.755  28.387  23.117  1.00  0.00     0.001 A 
BRANCH   5  10
ATOM     10  C   UNL A   1      31.267  25.682  25.343  1.00  0.00     0.255 C 
ATOM     11  O   UNL A   1      31.479  26.013  26.513  1.00  0.00    -0.269 OA
BRANCH  10  12
ATOM     12  N   UNL A   1      31.783  24.477  24.804  1.00  0.00    -0.332 N 
BRANCH  12  13
ATOM     13  C   UNL A   1      31.131  23.172  25.072  1.00  0.00     0.117 C 
ATOM     14  C   UNL A   1      31.002  22.685  26.506  1.00  0.00     0.027 C 
ENDBRANCH  12  13
BRANCH  12  15
ATOM     15  C   UNL A   1      32.978  24.623  23.880  1.00  0.00     0.118 C 
BRANCH  15  16
ATOM     16  C   UNL A   1      34.337  24.059  24.373  1.00  0.00    -0.025 A 
ATOM     17  C   UNL A   1      35.297  23.600  23.443  1.00  0.00     0.006 A 
ATOM     18  C   UNL A   1      34.739  24.051  25.713  1.00  0.00     0.006 A 
ATOM     19  C   UNL A   1      36.500  23.005  23.838  1.00  0.00     0.000 A 
ATOM     20  C   UNL A   1      35.955  23.480  26.117  1.00  0.00     0.000 A 
ATOM     21  C   UNL A   1      36.817  22.920  25.184  1.00  0.00     0.000 A 
ENDBRANCH  15  16
BRANCH  15  22
ATOM     22  C   UNL A   1      32.721  24.277  22.390  1.00  0.00     0.058 C 
BRANCH  22  23
ATOM     23  C   UNL A   1      32.777  25.409  21.353  1.00  0.00     0.158 C 
BRANCH  23  24
ATOM     24  O   UNL A   1      33.008  24.987  20.026  1.00  0.00    -0.396 OA
ATOM     25  H   UNL A   1      32.930  24.022  19.974  1.00  0.00     0.210 HD
ENDBRANCH  23  24
ENDBRANCH  22  23
ENDBRANCH  15  22
ENDBRANCH  12  15
ENDBRANCH  10  12
ENDBRANCH   5  10
ENDBRANCH   2   4
ENDBRANCH   1   2
BRANCH   1  26
ATOM     26  C   UNL A   1      31.885  29.545  26.208  1.00  0.00     0.275 C 
BRANCH  26  27
ATOM     27  C   UNL A   1      32.120  30.884  26.908  1.00  0.00     0.275 C 
BRANCH  27  28
ATOM     28  O   UNL A   1      33.501  31.245  26.786  1.00  0.00    -0.458 OA
BRANCH  28  29
ATOM     29  C   UNL A   1      33.887  32.264  27.581  1.00  0.00     0.338 C 
ATOM     30  O   UNL A   1      33.223  33.218  27.965  1.00  0.00    -0.246 OA
BRANCH  29  31
ATOM     31  C   UNL A   1      35.183  31.895  28.143  1.00  0.00     0.060 A 
ATOM     32  C   UNL A   1      35.296  30.603  28.652  1.00  0.00     0.016 A 
ATOM     33  C   UNL A   1      36.254  32.778  28.183  1.00  0.00     0.016 A 
ATOM     34  C   UNL A   1      36.471  30.176  29.241  1.00  0.00     0.010 A 
ATOM     35  C   UNL A   1      37.451  32.343  28.750  1.00  0.00     0.010 A 
ATOM     36  C   UNL A   1      37.558  31.048  29.299  1.00  0.00    -0.014 A 
BRANCH  36  37
ATOM     37  C   UNL A   1      38.779  30.642  30.025  1.00  0.00     0.031 A 
ATOM     38  C   UNL A   1      39.698  29.654  29.374  1.00  0.00     0.074 A 
ATOM     39  C   UNL A   1      39.047  31.150  31.242  1.00  0.00     0.049 A 
ATOM     40  N   UNL A   1      40.674  28.965  29.894  1.00  0.00    -0.248 NA
ATOM     41  C   UNL A   1      39.468  29.389  27.941  1.00  0.00     0.031 C 
ATOM     42  C   UNL A   1      38.242  32.159  31.936  1.00  0.00     0.029 A 
ATOM     43  N   UNL A   1      40.057  30.866  32.124  1.00  0.00    -0.354 N 
ATOM     44  C   UNL A   1      41.122  28.126  28.881  1.00  0.00     0.074 A 
ATOM     45  C   UNL A   1      40.321  28.402  27.710  1.00  0.00     0.031 C 
ATOM     46  C   UNL A   1      38.777  32.392  33.145  1.00  0.00     0.029 A 
ATOM     47  C   UNL A   1      39.914  31.499  33.336  1.00  0.00     0.049 A 
ATOM     48  H   UNL A   1      40.810  30.267  31.911  1.00  0.00     0.167 HD
ATOM     49  C   UNL A   1      42.115  27.210  28.935  1.00  0.00     0.034 A 
ATOM     50  C   UNL A   1      40.589  31.331  34.489  1.00  0.00     0.034 A 
ATOM     51  C   UNL A   1      42.933  27.004  30.098  1.00  0.00     0.049 A 
ATOM     52  C   UNL A   1      41.702  30.317  34.517  1.00  0.00     0.074 A 
ATOM     53  C   UNL A   1      43.973  26.113  30.277  1.00  0.00     0.029 A 
ATOM     54  N   UNL A   1      42.808  27.721  31.281  1.00  0.00    -0.354 N 
ATOM     55  N   UNL A   1      42.123  29.530  33.555  1.00  0.00    -0.248 NA
ATOM     56  C   UNL A   1      42.443  30.179  35.776  1.00  0.00     0.031 C 
ATOM     57  C   UNL A   1      44.477  26.289  31.570  1.00  0.00     0.029 A 
ATOM     58  C   UNL A   1      43.762  27.305  32.189  1.00  0.00     0.049 A 
ATOM     59  H   UNL A   1      42.138  28.422  31.448  1.00  0.00     0.167 HD
ATOM     60  C   UNL A   1      43.190  28.816  34.084  1.00  0.00     0.074 A 
ATOM     61  C   UNL A   1      43.370  29.290  35.444  1.00  0.00     0.031 C 
ATOM     62  C   UNL A   1      43.941  27.842  33.514  1.00  0.00     0.034 A 
BRANCH  49  63
ATOM     63  C   UNL A   1      42.374  26.385  27.704  1.00  0.00     0.023 A 
ATOM     64  C   UNL A   1      43.070  26.947  26.615  1.00  0.00     0.012 A 
ATOM     65  C   UNL A   1      41.952  25.042  27.633  1.00  0.00     0.148 A 
ATOM     66  C   UNL A   1      43.313  26.198  25.463  1.00  0.00     0.002 A 
ATOM     67  C   UNL A   1      42.237  24.288  26.501  1.00  0.00     0.091 A 
ATOM     68  F   UNL A   1      41.269  24.531  28.668  1.00  0.00    -0.205 F 
ATOM     69  C   UNL A   1      42.907  24.867  25.410  1.00  0.00     0.022 A 
BRANCH  67  70
ATOM     70  S   UNL A   1      41.818  22.546  26.360  1.00  0.00     0.127 S 
ATOM     71  O   UNL A   1      42.416  21.999  27.577  1.00  0.00    -0.237 OA
ATOM     72  O   UNL A   1      40.355  22.583  26.362  1.00  0.00    -0.237 OA
ATOM     73  O   UNL A   1      42.414  22.088  25.113  1.00  0.00    -0.744 OA
ENDBRANCH  67  70
ENDBRANCH  49  63
BRANCH  50  74
ATOM     74  C   UNL A   1      40.224  32.126  35.695  1.00  0.00     0.023 A 
ATOM     75  C   UNL A   1      40.889  33.339  35.959  1.00  0.00     0.012 A 
ATOM     76  C   UNL A   1      39.191  31.712  36.561  1.00  0.00     0.148 A 
ATOM     77  C   UNL A   1      40.552  34.109  37.073  1.00  0.00     0.002 A 
ATOM     78  C   UNL A   1      38.819  32.514  37.634  1.00  0.00     0.091 A 
ATOM     79  F   UNL A   1      38.583  30.544  36.313  1.00  0.00    -0.205 F 
ATOM     80  C   UNL A   1      39.508  33.705  37.902  1.00  0.00     0.022 A 
BRANCH  78  81
ATOM     81  S   UNL A   1      37.390  32.135  38.656  1.00  0.00     0.127 S 
ATOM     82  O   UNL A   1      36.377  33.030  38.101  1.00  0.00    -0.237 OA
ATOM     83  O   UNL A   1      37.177  30.715  38.373  1.00  0.00    -0.237 OA
ATOM     84  O   UNL A   1      37.810  32.413  40.023  1.00  0.00    -0.744 OA
ENDBRANCH  78  81
ENDBRANCH  50  74
BRANCH  62  85
ATOM     85  C   UNL A   1      45.047  27.255  34.347  1.00  0.00     0.023 A 
ATOM     86  C   UNL A   1      44.800  26.113  35.131  1.00  0.00     0.012 A 
ATOM     87  C   UNL A   1      46.347  27.794  34.287  1.00  0.00     0.148 A 
ATOM     88  C   UNL A   1      45.827  25.531  35.871  1.00  0.00     0.002 A 
ATOM     89  C   UNL A   1      47.374  27.180  34.990  1.00  0.00     0.091 A 
ATOM     90  F   UNL A   1      46.552  28.895  33.549  1.00  0.00    -0.205 F 
ATOM     91  C   UNL A   1      47.115  26.056  35.791  1.00  0.00     0.022 A 
BRANCH  89  92
ATOM     92  S   UNL A   1      49.080  27.731  34.867  1.00  0.00     0.127 S 
ATOM     93  O   UNL A   1      49.320  27.638  33.428  1.00  0.00    -0.237 OA
ATOM     94  O   UNL A   1      49.004  29.097  35.386  1.00  0.00    -0.237 OA
ATOM     95  O   UNL A   1      49.856  26.815  35.692  1.00  0.00    -0.744 OA
ENDBRANCH  89  92
ENDBRANCH  62  85
ENDBRANCH  36  37
ENDBRANCH  29  31
ENDBRANCH  28  29
ENDBRANCH  27  28
ENDBRANCH  26  27
ENDBRANCH   1  26
TORSDOF 22
ENDMDL
MODEL 3
REMARK VINA RESULT:     -10.6      1.718      2.330
REMARK SMILES CCN(C(=O)c1ccccc1C(=O)OCCOC(=O)c1ccc(-c2c3nc(c(-c4cccc(S(=O)(=O)[O-])c4F)c4ccc([nH]4)c(-c4cccc(S(=O)(=O)[O-])c4F)c4nc(c(-c5cccc(S(=O)(=O)[O-])c5F)c5ccc2[nH]5)C=C4)C=C3)cc1)[C@H](CCO)c1ccccc1
REMARK SMILES IDX 14 1 12 2 13 3 11 4 6 5 7 6 8 7 10 8 9 9 4 10 5 11 3 12 2 13
REMARK SMILES IDX 1 14 83 15 87 16 88 17 92 18 89 19 91 20 90 21 84 22 85 23
REMARK SMILES IDX 86 24 15 26 16 27 17 28 18 29 19 30 20 31 21 32 82 33 22 34
REMARK SMILES IDX 81 35 23 36 24 37 25 38 75 39 26 40 80 41 74 42 76 43 27 44
REMARK SMILES IDX 79 45 73 46 72 47 28 49 60 50 40 51 59 52 41 53 44 54 58 55
REMARK SMILES IDX 77 56 42 57 43 58 57 60 78 61 45 62 29 63 30 64 38 65 31 66
REMARK SMILES IDX 33 67 39 68 32 69 34 70 35 71 36 72 37 73 61 74 62 75 70 76
REMARK SMILES IDX 63 77 65 78 71 79 64 80 66 81 67 82 68 83 69 84 46 85 47 86
REMARK SMILES IDX 55 87 48 88 50 89 56 90 49 91 51 92 52 93 53 94 54 95
REMARK H PARENT 86 25 76 48 44 59
REMARK Flexibility Score: inf
ROOT
ATOM      1  O   UNL A   1      32.387  29.613  24.738  1.00  0.00    -0.458 OA
ENDROOT
BRANCH   1   2
ATOM      2  C   UNL A   1      32.162  28.825  23.667  1.00  0.00     0.339 C 
ATOM      3  O   UNL A   1      32.912  28.675  22.714  1.00  0.00    -0.246 OA
BRANCH   2   4
ATOM      4  C   UNL A   1      30.871  28.103  23.736  1.00  0.00     0.072 A 
ATOM      5  C   UNL A   1      30.649  26.919  24.456  1.00  0.00     0.054 A 
ATOM      6  C   UNL A   1      29.343  26.380  24.476  1.00  0.00     0.015 A 
ATOM      7  C   UNL A   1      28.277  27.022  23.838  1.00  0.00     0.001 A 
ATOM      8  C   UNL A   1      29.775  28.763  23.138  1.00  0.00     0.016 A 
ATOM      9  C   UNL A   1      28.493  28.221  23.174  1.00  0.00     0.001 A 
BRANCH   5  10
ATOM     10  C   UNL A   1      31.662  26.136  25.222  1.00  0.00     0.255 C 
ATOM     11  O   UNL A   1      32.109  26.698  26.226  1.00  0.00    -0.269 OA
BRANCH  10  12
ATOM     12  N   UNL A   1      32.136  24.867  24.804  1.00  0.00    -0.332 N 
BRANCH  12  13
ATOM     13  C   UNL A   1      31.533  23.612  25.316  1.00  0.00     0.117 C 
ATOM     14  C   UNL A   1      31.512  23.354  26.813  1.00  0.00     0.027 C 
ENDBRANCH  12  13
BRANCH  12  15
ATOM     15  C   UNL A   1      33.228  24.883  23.750  1.00  0.00     0.118 C 
BRANCH  15  16
ATOM     16  C   UNL A   1      34.574  24.195  24.103  1.00  0.00    -0.025 A 
ATOM     17  C   UNL A   1      35.167  24.396  25.369  1.00  0.00     0.006 A 
ATOM     18  C   UNL A   1      35.227  23.284  23.265  1.00  0.00     0.006 A 
ATOM     19  C   UNL A   1      36.418  23.868  25.704  1.00  0.00     0.000 A 
ATOM     20  C   UNL A   1      36.471  22.729  23.603  1.00  0.00     0.000 A 
ATOM     21  C   UNL A   1      37.086  23.053  24.804  1.00  0.00     0.000 A 
ENDBRANCH  15  16
BRANCH  15  22
ATOM     22  C   UNL A   1      32.773  24.544  22.306  1.00  0.00     0.058 C 
BRANCH  22  23
ATOM     23  C   UNL A   1      32.371  25.697  21.374  1.00  0.00     0.158 C 
BRANCH  23  24
ATOM     24  O   UNL A   1      33.451  26.454  20.868  1.00  0.00    -0.396 OA
ATOM     25  H   UNL A   1      33.126  27.312  20.556  1.00  0.00     0.210 HD
ENDBRANCH  23  24
ENDBRANCH  22  23
ENDBRANCH  15  22
ENDBRANCH  12  15
ENDBRANCH  10  12
ENDBRANCH   5  10
ENDBRANCH   2   4
ENDBRANCH   1   2
BRANCH   1  26
ATOM     26  C   UNL A   1      31.212  30.188  25.360  1.00  0.00     0.275 C 
BRANCH  26  27
ATOM     27  C   UNL A   1      31.596  31.262  26.378  1.00  0.00     0.275 C 
BRANCH  27  28
ATOM     28  O   UNL A   1      32.945  31.043  26.809  1.00  0.00    -0.458 OA
BRANCH  28  29
ATOM     29  C   UNL A   1      33.525  32.107  27.402  1.00  0.00     0.338 C 
ATOM     30  O   UNL A   1      33.030  33.200  27.646  1.00  0.00    -0.246 OA
BRANCH  29  31
ATOM     31  C   UNL A   1      34.790  31.642  27.963  1.00  0.00     0.060 A 
ATOM     32  C   UNL A   1      34.896  30.275  28.212  1.00  0.00     0.016 A 
ATOM     33  C   UNL A   1      35.840  32.506  28.247  1.00  0.00     0.016 A 
ATOM     34  C   UNL A   1      36.041  29.747  28.780  1.00  0.00     0.010 A 
ATOM     35  C   UNL A   1      37.007  31.975  28.794  1.00  0.00     0.010 A 
ATOM     36  C   UNL A   1      37.104  30.598  29.080  1.00  0.00    -0.014 A 
BRANCH  36  37
ATOM     37  C   UNL A   1      38.285  30.064  29.790  1.00  0.00     0.031 A 
ATOM     38  C   UNL A   1      38.532  30.513  31.198  1.00  0.00     0.074 A 
ATOM     39  C   UNL A   1      39.115  29.199  29.176  1.00  0.00     0.049 A 
ATOM     40  N   UNL A   1      39.603  30.391  31.929  1.00  0.00    -0.248 NA
ATOM     41  C   UNL A   1      37.422  31.218  31.865  1.00  0.00     0.031 C 
ATOM     42  C   UNL A   1      38.929  28.660  27.826  1.00  0.00     0.029 A 
ATOM     43  N   UNL A   1      40.295  28.645  29.598  1.00  0.00    -0.354 N 
ATOM     44  C   UNL A   1      39.332  31.074  33.108  1.00  0.00     0.074 A 
ATOM     45  C   UNL A   1      37.988  31.595  33.002  1.00  0.00     0.031 C 
ATOM     46  C   UNL A   1      39.971  27.870  27.523  1.00  0.00     0.029 A 
ATOM     47  C   UNL A   1      40.926  27.907  28.623  1.00  0.00     0.049 A 
ATOM     48  H   UNL A   1      40.655  28.762  30.507  1.00  0.00     0.167 HD
ATOM     49  C   UNL A   1      40.141  31.243  34.179  1.00  0.00     0.034 A 
ATOM     50  C   UNL A   1      42.163  27.374  28.603  1.00  0.00     0.034 A 
ATOM     51  C   UNL A   1      41.450  30.660  34.276  1.00  0.00     0.049 A 
ATOM     52  C   UNL A   1      43.036  27.562  29.814  1.00  0.00     0.074 A 
ATOM     53  C   UNL A   1      42.363  30.752  35.308  1.00  0.00     0.029 A 
ATOM     54  N   UNL A   1      42.023  29.854  33.301  1.00  0.00    -0.354 N 
ATOM     55  N   UNL A   1      42.772  28.206  30.928  1.00  0.00    -0.248 NA
ATOM     56  C   UNL A   1      44.366  26.942  29.778  1.00  0.00     0.031 C 
ATOM     57  C   UNL A   1      43.491  30.002  34.957  1.00  0.00     0.029 A 
ATOM     58  C   UNL A   1      43.271  29.428  33.713  1.00  0.00     0.049 A 
ATOM     59  H   UNL A   1      41.602  29.620  32.443  1.00  0.00     0.167 HD
ATOM     60  C   UNL A   1      43.893  28.052  31.733  1.00  0.00     0.074 A 
ATOM     61  C   UNL A   1      44.826  27.227  30.989  1.00  0.00     0.031 C 
ATOM     62  C   UNL A   1      44.145  28.561  32.964  1.00  0.00     0.034 A 
BRANCH  49  63
ATOM     63  C   UNL A   1      39.624  32.075  35.321  1.00  0.00     0.023 A 
ATOM     64  C   UNL A   1      38.734  31.509  36.256  1.00  0.00     0.012 A 
ATOM     65  C   UNL A   1      40.040  33.411  35.487  1.00  0.00     0.148 A 
ATOM     66  C   UNL A   1      38.240  32.266  37.318  1.00  0.00     0.002 A 
ATOM     67  C   UNL A   1      39.579  34.147  36.573  1.00  0.00     0.091 A 
ATOM     68  F   UNL A   1      40.867  33.941  34.575  1.00  0.00    -0.205 F 
ATOM     69  C   UNL A   1      38.670  33.581  37.482  1.00  0.00     0.022 A 
BRANCH  67  70
ATOM     70  S   UNL A   1      40.125  35.825  36.914  1.00  0.00     0.127 S 
ATOM     71  O   UNL A   1      39.644  36.538  35.731  1.00  0.00    -0.237 OA
ATOM     72  O   UNL A   1      39.403  36.136  38.149  1.00  0.00    -0.237 OA
ATOM     73  O   UNL A   1      41.572  35.758  37.055  1.00  0.00    -0.744 OA
ENDBRANCH  67  70
ENDBRANCH  49  63
BRANCH  50  74
ATOM     74  C   UNL A   1      42.639  26.631  27.402  1.00  0.00     0.023 A 
ATOM     75  C   UNL A   1      43.287  27.327  26.362  1.00  0.00     0.012 A 
ATOM     76  C   UNL A   1      42.494  25.232  27.300  1.00  0.00     0.148 A 
ATOM     77  C   UNL A   1      43.755  26.649  25.235  1.00  0.00     0.002 A 
ATOM     78  C   UNL A   1      43.018  24.556  26.204  1.00  0.00     0.091 A 
ATOM     79  F   UNL A   1      41.854  24.586  28.284  1.00  0.00    -0.205 F 
ATOM     80  C   UNL A   1      43.635  25.264  25.162  1.00  0.00     0.022 A 
BRANCH  78  81
ATOM     81  S   UNL A   1      43.033  22.761  26.111  1.00  0.00     0.127 S 
ATOM     82  O   UNL A   1      43.098  22.536  24.669  1.00  0.00    -0.237 OA
ATOM     83  O   UNL A   1      44.254  22.425  26.842  1.00  0.00    -0.237 OA
ATOM     84  O   UNL A   1      41.806  22.332  26.770  1.00  0.00    -0.744 OA
ENDBRANCH  78  81
ENDBRANCH  50  74
BRANCH  62  85
ATOM     85  C   UNL A   1      45.462  28.207  33.595  1.00  0.00     0.023 A 
ATOM     86  C   UNL A   1      46.564  29.070  33.443  1.00  0.00     0.012 A 
ATOM     87  C   UNL A   1      45.582  27.057  34.399  1.00  0.00     0.148 A 
ATOM     88  C   UNL A   1      47.778  28.778  34.061  1.00  0.00     0.002 A 
ATOM     89  C   UNL A   1      46.780  26.799  35.050  1.00  0.00     0.091 A 
ATOM     90  F   UNL A   1      44.524  26.240  34.511  1.00  0.00    -0.205 F 
ATOM     91  C   UNL A   1      47.883  27.651  34.873  1.00  0.00     0.022 A 
BRANCH  89  92
ATOM     92  S   UNL A   1      46.973  25.424  36.190  1.00  0.00     0.127 S 
ATOM     93  O   UNL A   1      47.382  24.347  35.290  1.00  0.00    -0.237 OA
ATOM     94  O   UNL A   1      48.026  25.906  37.083  1.00  0.00    -0.237 OA
ATOM     95  O   UNL A   1      45.675  25.249  36.828  1.00  0.00    -0.744 OA
ENDBRANCH  89  92
ENDBRANCH  62  85
ENDBRANCH  36  37
ENDBRANCH  29  31
ENDBRANCH  28  29
ENDBRANCH  27  28
ENDBRANCH  26  27
ENDBRANCH   1  26
TORSDOF 22
ENDMDL
