MODEL 1
REMARK VINA RESULT:     -12.6      0.000      0.000
REMARK SMILES Cc1ccc(C(=O)OCCOC(=O)c2ccc(-c3c4nc(c(-c5cccc(S(=O)(=O)[O-])c5F)c5ccc([nH]5)c(-c5cccc(S(=O)(=O)[O-])c5F)c5nc(c(-c6cccc(S(=O)(=O)[O-])c6F)c6ccc3[nH]6)C=C5)C=C4)cc2)cc1CNC(=O)C[N@@H+]1CCC[C@]2(CCOC2)C1
REMARK SMILES IDX 9 1 8 2 6 3 7 4 5 5 1 6 2 7 3 8 78 9 4 10 77 11 79 12 80 13
REMARK SMILES IDX 81 14 82 16 83 17 84 18 85 19 93 20 86 22 88 23 87 24 89 25
REMARK SMILES IDX 92 26 90 27 91 28 10 29 11 30 12 31 13 32 14 33 15 34 76 35
REMARK SMILES IDX 16 36 75 37 17 38 18 39 19 40 69 41 20 42 74 43 68 44 70 45
REMARK SMILES IDX 21 46 73 47 67 48 66 49 22 51 54 52 34 53 53 54 35 55 38 56
REMARK SMILES IDX 52 57 71 58 36 59 37 60 51 62 72 63 39 64 23 65 24 66 32 67
REMARK SMILES IDX 25 68 27 69 33 70 26 71 28 72 29 73 30 74 31 75 55 76 56 77
REMARK SMILES IDX 64 78 57 79 59 80 65 81 58 82 60 83 61 84 62 85 63 86 40 87
REMARK SMILES IDX 41 88 49 89 42 90 44 91 50 92 43 93 45 94 46 95 47 96 48 97
REMARK H PARENT 80 15 84 21 70 50 38 61
REMARK Flexibility Score: inf
ROOT
ATOM      1  C   UNL A   1      34.418  32.311  28.041  1.00  0.00     0.275 C 
ENDROOT
BRANCH   1   2
ATOM      2  O   UNL A   1      33.541  31.345  27.465  1.00  0.00    -0.458 OA
BRANCH   2   3
ATOM      3  C   UNL A   1      33.958  30.065  27.337  1.00  0.00     0.338 C 
ATOM      4  O   UNL A   1      34.981  29.588  27.760  1.00  0.00    -0.246 OA
BRANCH   3   5
ATOM      5  C   UNL A   1      32.930  29.326  26.566  1.00  0.00     0.060 A 
ATOM      6  C   UNL A   1      30.221  27.164  23.991  1.00  0.00     0.044 C 
ATOM      7  C   UNL A   1      31.192  27.853  24.910  1.00  0.00    -0.046 A 
ATOM      8  C   UNL A   1      31.174  29.263  24.924  1.00  0.00     0.004 A 
ATOM      9  C   UNL A   1      32.076  27.178  25.772  1.00  0.00    -0.025 A 
ATOM     10  C   UNL A   1      32.074  29.996  25.702  1.00  0.00     0.016 A 
ATOM     11  C   UNL A   1      32.881  27.938  26.644  1.00  0.00     0.021 A 
BRANCH   9  12
ATOM     12  C   UNL A   1      32.350  25.689  25.745  1.00  0.00     0.152 C 
BRANCH  12  13
ATOM     13  N   UNL A   1      31.400  25.064  26.662  1.00  0.00    -0.347 N 
ATOM     14  C   UNL A   1      31.178  23.729  26.842  1.00  0.00     0.275 C 
ATOM     15  H   UNL A   1      30.859  25.675  27.212  1.00  0.00     0.164 HD
ATOM     16  O   UNL A   1      30.093  23.357  27.300  1.00  0.00    -0.268 OA
BRANCH  14  17
ATOM     17  C   UNL A   1      32.308  22.747  26.572  1.00  0.00     0.363 C 
BRANCH  17  18
ATOM     18  N   UNL A   1      32.346  22.266  25.184  1.00  0.00    -0.327 N 
ATOM     19  C   UNL A   1      32.174  20.818  25.037  1.00  0.00     0.262 C 
ATOM     20  C   UNL A   1      33.579  22.693  24.500  1.00  0.00     0.272 C 
ATOM     21  H   UNL A   1      31.537  22.700  24.741  1.00  0.00     0.348 HD
ATOM     22  C   UNL A   1      33.373  19.997  25.515  1.00  0.00     0.062 C 
ATOM     23  C   UNL A   1      34.884  21.968  24.911  1.00  0.00     0.045 C 
ATOM     24  C   UNL A   1      34.681  20.449  24.867  1.00  0.00     0.021 C 
ATOM     25  C   UNL A   1      35.504  22.506  26.212  1.00  0.00     0.043 C 
ATOM     26  C   UNL A   1      35.979  22.394  23.943  1.00  0.00     0.173 C 
ATOM     27  C   UNL A   1      36.377  23.678  25.762  1.00  0.00     0.161 C 
ATOM     28  O   UNL A   1      36.226  23.743  24.346  1.00  0.00    -0.381 OA
ENDBRANCH  17  18
ENDBRANCH  14  17
ENDBRANCH  12  13
ENDBRANCH   9  12
ENDBRANCH   3   5
ENDBRANCH   2   3
ENDBRANCH   1   2
BRANCH   1  29
ATOM     29  C   UNL A   1      33.892  33.709  28.433  1.00  0.00     0.275 C 
BRANCH  29  30
ATOM     30  O   UNL A   1      33.472  34.100  29.774  1.00  0.00    -0.458 OA
BRANCH  30  31
ATOM     31  C   UNL A   1      34.113  34.580  30.862  1.00  0.00     0.338 C 
ATOM     32  O   UNL A   1      33.646  35.475  31.555  1.00  0.00    -0.246 OA
BRANCH  31  33
ATOM     33  C   UNL A   1      35.412  33.995  31.186  1.00  0.00     0.060 A 
ATOM     34  C   UNL A   1      36.558  34.365  30.460  1.00  0.00     0.016 A 
ATOM     35  C   UNL A   1      35.482  33.108  32.251  1.00  0.00     0.016 A 
ATOM     36  C   UNL A   1      37.805  33.872  30.839  1.00  0.00     0.010 A 
ATOM     37  C   UNL A   1      36.719  32.734  32.717  1.00  0.00     0.010 A 
ATOM     38  C   UNL A   1      37.864  33.021  31.944  1.00  0.00    -0.014 A 
BRANCH  38  39
ATOM     39  C   UNL A   1      38.826  31.923  32.026  1.00  0.00     0.031 A 
ATOM     40  C   UNL A   1      38.716  30.642  31.317  1.00  0.00     0.074 A 
ATOM     41  C   UNL A   1      40.009  32.408  32.472  1.00  0.00     0.049 A 
ATOM     42  N   UNL A   1      39.615  29.724  31.385  1.00  0.00    -0.248 NA
ATOM     43  C   UNL A   1      37.581  30.261  30.491  1.00  0.00     0.031 C 
ATOM     44  C   UNL A   1      41.362  32.013  32.147  1.00  0.00     0.029 A 
ATOM     45  N   UNL A   1      40.178  33.445  33.402  1.00  0.00    -0.354 N 
ATOM     46  C   UNL A   1      39.354  28.798  30.394  1.00  0.00     0.074 A 
ATOM     47  C   UNL A   1      38.023  29.116  29.945  1.00  0.00     0.031 C 
ATOM     48  C   UNL A   1      42.194  32.584  33.039  1.00  0.00     0.029 A 
ATOM     49  C   UNL A   1      41.362  33.180  34.079  1.00  0.00     0.049 A 
ATOM     50  H   UNL A   1      39.576  34.211  33.546  1.00  0.00     0.167 HD
ATOM     51  C   UNL A   1      40.380  27.999  29.976  1.00  0.00     0.034 A 
ATOM     52  C   UNL A   1      41.341  32.845  35.404  1.00  0.00     0.034 A 
ATOM     53  C   UNL A   1      41.547  28.193  30.855  1.00  0.00     0.049 A 
ATOM     54  C   UNL A   1      41.871  31.441  35.620  1.00  0.00     0.074 A 
ATOM     55  C   UNL A   1      42.684  28.977  30.744  1.00  0.00     0.029 A 
ATOM     56  N   UNL A   1      41.477  27.796  32.186  1.00  0.00    -0.354 N 
ATOM     57  N   UNL A   1      42.106  30.593  34.655  1.00  0.00    -0.248 NA
ATOM     58  C   UNL A   1      42.156  30.869  36.931  1.00  0.00     0.031 C 
ATOM     59  C   UNL A   1      43.233  29.141  32.043  1.00  0.00     0.029 A 
ATOM     60  C   UNL A   1      42.445  28.444  32.944  1.00  0.00     0.049 A 
ATOM     61  H   UNL A   1      40.831  27.144  32.543  1.00  0.00     0.167 HD
ATOM     62  C   UNL A   1      42.418  29.371  35.172  1.00  0.00     0.074 A 
ATOM     63  C   UNL A   1      42.519  29.617  36.601  1.00  0.00     0.031 C 
ATOM     64  C   UNL A   1      42.494  28.251  34.390  1.00  0.00     0.034 A 
BRANCH  51  65
ATOM     65  C   UNL A   1      40.500  27.315  28.610  1.00  0.00     0.023 A 
ATOM     66  C   UNL A   1      39.517  26.332  28.332  1.00  0.00     0.012 A 
ATOM     67  C   UNL A   1      41.497  27.474  27.615  1.00  0.00     0.148 A 
ATOM     68  C   UNL A   1      39.566  25.480  27.228  1.00  0.00     0.002 A 
ATOM     69  C   UNL A   1      41.554  26.607  26.502  1.00  0.00     0.091 A 
ATOM     70  F   UNL A   1      42.387  28.465  27.729  1.00  0.00    -0.205 F 
ATOM     71  C   UNL A   1      40.600  25.601  26.324  1.00  0.00     0.022 A 
BRANCH  69  72
ATOM     72  S   UNL A   1      42.837  26.672  25.232  1.00  0.00     0.127 S 
ATOM     73  O   UNL A   1      42.475  27.889  24.502  1.00  0.00    -0.237 OA
ATOM     74  O   UNL A   1      44.074  26.793  26.006  1.00  0.00    -0.237 OA
ATOM     75  O   UNL A   1      42.729  25.425  24.493  1.00  0.00    -0.744 OA
ENDBRANCH  69  72
ENDBRANCH  51  65
BRANCH  52  76
ATOM     76  C   UNL A   1      40.210  33.476  36.178  1.00  0.00     0.023 A 
ATOM     77  C   UNL A   1      39.022  32.713  36.329  1.00  0.00     0.012 A 
ATOM     78  C   UNL A   1      40.402  34.574  37.039  1.00  0.00     0.148 A 
ATOM     79  C   UNL A   1      38.115  32.971  37.363  1.00  0.00     0.002 A 
ATOM     80  C   UNL A   1      39.488  34.825  38.069  1.00  0.00     0.091 A 
ATOM     81  F   UNL A   1      41.506  35.320  36.902  1.00  0.00    -0.205 F 
ATOM     82  C   UNL A   1      38.357  34.015  38.245  1.00  0.00     0.022 A 
BRANCH  80  83
ATOM     83  S   UNL A   1      39.826  36.101  39.295  1.00  0.00     0.127 S 
ATOM     84  O   UNL A   1      41.182  35.779  39.748  1.00  0.00    -0.237 OA
ATOM     85  O   UNL A   1      39.742  37.340  38.536  1.00  0.00    -0.237 OA
ATOM     86  O   UNL A   1      38.779  35.858  40.282  1.00  0.00    -0.744 OA
ENDBRANCH  80  83
ENDBRANCH  52  76
BRANCH  64  87
ATOM     87  C   UNL A   1      42.572  26.846  34.933  1.00  0.00     0.023 A 
ATOM     88  C   UNL A   1      41.528  26.281  35.688  1.00  0.00     0.012 A 
ATOM     89  C   UNL A   1      43.621  25.986  34.532  1.00  0.00     0.148 A 
ATOM     90  C   UNL A   1      41.549  24.939  36.077  1.00  0.00     0.002 A 
ATOM     91  C   UNL A   1      43.573  24.626  34.814  1.00  0.00     0.091 A 
ATOM     92  F   UNL A   1      44.678  26.481  33.869  1.00  0.00    -0.205 F 
ATOM     93  C   UNL A   1      42.558  24.103  35.616  1.00  0.00     0.022 A 
BRANCH  91  94
ATOM     94  S   UNL A   1      44.705  23.501  33.987  1.00  0.00     0.127 S 
ATOM     95  O   UNL A   1      46.000  23.913  34.523  1.00  0.00    -0.237 OA
ATOM     96  O   UNL A   1      44.247  22.188  34.445  1.00  0.00    -0.237 OA
ATOM     97  O   UNL A   1      44.480  23.747  32.568  1.00  0.00    -0.744 OA
ENDBRANCH  91  94
ENDBRANCH  64  87
ENDBRANCH  38  39
ENDBRANCH  31  33
ENDBRANCH  30  31
ENDBRANCH  29  30
ENDBRANCH   1  29
TORSDOF 18
ENDMDL
MODEL 2
REMARK VINA RESULT:     -12.6      3.489      4.955
REMARK SMILES Cc1ccc(C(=O)OCCOC(=O)c2ccc(-c3c4nc(c(-c5cccc(S(=O)(=O)[O-])c5F)c5ccc([nH]5)c(-c5cccc(S(=O)(=O)[O-])c5F)c5nc(c(-c6cccc(S(=O)(=O)[O-])c6F)c6ccc3[nH]6)C=C5)C=C4)cc2)cc1CNC(=O)C[N@@H+]1CCC[C@]2(CCOC2)C1
REMARK SMILES IDX 9 1 8 2 6 3 7 4 5 5 1 6 2 7 3 8 78 9 4 10 77 11 79 12 80 13
REMARK SMILES IDX 81 14 82 16 83 17 84 18 85 19 93 20 86 22 88 23 87 24 89 25
REMARK SMILES IDX 92 26 90 27 91 28 10 29 11 30 12 31 13 32 14 33 15 34 76 35
REMARK SMILES IDX 16 36 75 37 17 38 18 39 19 40 69 41 20 42 74 43 68 44 70 45
REMARK SMILES IDX 21 46 73 47 67 48 66 49 22 51 54 52 34 53 53 54 35 55 38 56
REMARK SMILES IDX 52 57 71 58 36 59 37 60 51 62 72 63 39 64 23 65 24 66 32 67
REMARK SMILES IDX 25 68 27 69 33 70 26 71 28 72 29 73 30 74 31 75 55 76 56 77
REMARK SMILES IDX 64 78 57 79 59 80 65 81 58 82 60 83 61 84 62 85 63 86 40 87
REMARK SMILES IDX 41 88 49 89 42 90 44 91 50 92 43 93 45 94 46 95 47 96 48 97
REMARK H PARENT 80 15 84 21 70 50 38 61
REMARK Flexibility Score: inf
ROOT
ATOM      1  C   UNL A   1      32.826  29.709  26.161  1.00  0.00     0.275 C 
ENDROOT
BRANCH   1   2
ATOM      2  O   UNL A   1      31.621  29.049  25.775  1.00  0.00    -0.458 OA
BRANCH   2   3
ATOM      3  C   UNL A   1      31.085  29.307  24.561  1.00  0.00     0.338 C 
ATOM      4  O   UNL A   1      30.453  30.280  24.236  1.00  0.00    -0.246 OA
BRANCH   3   5
ATOM      5  C   UNL A   1      31.404  28.164  23.671  1.00  0.00     0.060 A 
ATOM      6  C   UNL A   1      32.605  24.698  21.394  1.00  0.00     0.044 C 
ATOM      7  C   UNL A   1      32.135  25.864  22.219  1.00  0.00    -0.046 A 
ATOM      8  C   UNL A   1      32.832  27.081  22.069  1.00  0.00     0.004 A 
ATOM      9  C   UNL A   1      31.030  25.820  23.088  1.00  0.00    -0.025 A 
ATOM     10  C   UNL A   1      32.508  28.207  22.830  1.00  0.00     0.016 A 
ATOM     11  C   UNL A   1      30.640  27.004  23.746  1.00  0.00     0.021 A 
BRANCH   9  12
ATOM     12  C   UNL A   1      30.298  24.560  23.501  1.00  0.00     0.152 C 
BRANCH  12  13
ATOM     13  N   UNL A   1      30.081  24.646  24.943  1.00  0.00    -0.347 N 
ATOM     14  C   UNL A   1      30.700  23.918  25.918  1.00  0.00     0.275 C 
ATOM     15  H   UNL A   1      29.413  25.303  25.245  1.00  0.00     0.164 HD
ATOM     16  O   UNL A   1      30.138  23.777  27.008  1.00  0.00    -0.268 OA
BRANCH  14  17
ATOM     17  C   UNL A   1      32.105  23.390  25.670  1.00  0.00     0.363 C 
BRANCH  17  18
ATOM     18  N   UNL A   1      33.122  24.006  26.534  1.00  0.00    -0.327 N 
ATOM     19  C   UNL A   1      33.535  25.350  26.124  1.00  0.00     0.262 C 
ATOM     20  C   UNL A   1      34.307  23.141  26.670  1.00  0.00     0.272 C 
ATOM     21  H   UNL A   1      32.663  24.107  27.438  1.00  0.00     0.348 HD
ATOM     22  C   UNL A   1      34.380  25.381  24.849  1.00  0.00     0.062 C 
ATOM     23  C   UNL A   1      35.240  23.048  25.439  1.00  0.00     0.045 C 
ATOM     24  C   UNL A   1      35.590  24.453  24.933  1.00  0.00     0.021 C 
ATOM     25  C   UNL A   1      34.740  22.071  24.360  1.00  0.00     0.043 C 
ATOM     26  C   UNL A   1      36.496  22.298  25.861  1.00  0.00     0.173 C 
ATOM     27  C   UNL A   1      35.288  20.712  24.794  1.00  0.00     0.161 C 
ATOM     28  O   UNL A   1      36.014  20.959  25.995  1.00  0.00    -0.381 OA
ENDBRANCH  17  18
ENDBRANCH  14  17
ENDBRANCH  12  13
ENDBRANCH   9  12
ENDBRANCH   3   5
ENDBRANCH   2   3
ENDBRANCH   1   2
BRANCH   1  29
ATOM     29  C   UNL A   1      34.139  28.911  26.312  1.00  0.00     0.275 C 
BRANCH  29  30
ATOM     30  O   UNL A   1      35.099  29.078  27.398  1.00  0.00    -0.458 OA
BRANCH  30  31
ATOM     31  C   UNL A   1      35.974  30.047  27.745  1.00  0.00     0.338 C 
ATOM     32  O   UNL A   1      35.659  31.229  27.787  1.00  0.00    -0.246 OA
BRANCH  31  33
ATOM     33  C   UNL A   1      37.338  29.632  28.064  1.00  0.00     0.060 A 
ATOM     34  C   UNL A   1      38.314  29.561  27.054  1.00  0.00     0.016 A 
ATOM     35  C   UNL A   1      37.645  29.360  29.390  1.00  0.00     0.016 A 
ATOM     36  C   UNL A   1      39.632  29.256  27.386  1.00  0.00     0.010 A 
ATOM     37  C   UNL A   1      38.963  29.202  29.742  1.00  0.00     0.010 A 
ATOM     38  C   UNL A   1      39.934  29.035  28.731  1.00  0.00    -0.014 A 
BRANCH  38  39
ATOM     39  C   UNL A   1      40.949  28.070  29.150  1.00  0.00     0.031 A 
ATOM     40  C   UNL A   1      40.897  26.623  28.906  1.00  0.00     0.074 A 
ATOM     41  C   UNL A   1      42.109  28.727  29.383  1.00  0.00     0.049 A 
ATOM     42  N   UNL A   1      41.841  25.820  29.254  1.00  0.00    -0.248 NA
ATOM     43  C   UNL A   1      39.776  25.940  28.280  1.00  0.00     0.031 C 
ATOM     44  C   UNL A   1      43.478  28.307  29.175  1.00  0.00     0.029 A 
ATOM     45  N   UNL A   1      42.234  30.020  29.913  1.00  0.00    -0.354 N 
ATOM     46  C   UNL A   1      41.619  24.607  28.631  1.00  0.00     0.074 A 
ATOM     47  C   UNL A   1      40.270  24.699  28.133  1.00  0.00     0.031 C 
ATOM     48  C   UNL A   1      44.287  29.178  29.809  1.00  0.00     0.029 A 
ATOM     49  C   UNL A   1      43.434  30.048  30.612  1.00  0.00     0.049 A 
ATOM     50  H   UNL A   1      41.595  30.763  29.810  1.00  0.00     0.167 HD
ATOM     51  C   UNL A   1      42.680  23.761  28.477  1.00  0.00     0.034 A 
ATOM     52  C   UNL A   1      43.440  30.170  31.974  1.00  0.00     0.034 A 
ATOM     53  C   UNL A   1      43.842  24.287  29.216  1.00  0.00     0.049 A 
ATOM     54  C   UNL A   1      44.039  28.941  32.629  1.00  0.00     0.074 A 
ATOM     55  C   UNL A   1      44.938  25.040  28.825  1.00  0.00     0.029 A 
ATOM     56  N   UNL A   1      43.802  24.351  30.604  1.00  0.00    -0.354 N 
ATOM     57  N   UNL A   1      44.309  27.833  31.994  1.00  0.00    -0.248 NA
ATOM     58  C   UNL A   1      44.361  28.850  34.049  1.00  0.00     0.031 C 
ATOM     59  C   UNL A   1      45.488  25.649  29.984  1.00  0.00     0.029 A 
ATOM     60  C   UNL A   1      44.741  25.255  31.082  1.00  0.00     0.049 A 
ATOM     61  H   UNL A   1      43.191  23.826  31.171  1.00  0.00     0.167 HD
ATOM     62  C   UNL A   1      44.685  26.866  32.878  1.00  0.00     0.074 A 
ATOM     63  C   UNL A   1      44.784  27.576  34.143  1.00  0.00     0.031 C 
ATOM     64  C   UNL A   1      44.810  25.555  32.510  1.00  0.00     0.034 A 
BRANCH  51  65
ATOM     65  C   UNL A   1      42.824  22.669  27.412  1.00  0.00     0.023 A 
ATOM     66  C   UNL A   1      42.046  21.503  27.625  1.00  0.00     0.012 A 
ATOM     67  C   UNL A   1      43.679  22.629  26.282  1.00  0.00     0.148 A 
ATOM     68  C   UNL A   1      42.177  20.337  26.870  1.00  0.00     0.002 A 
ATOM     69  C   UNL A   1      43.821  21.448  25.522  1.00  0.00     0.091 A 
ATOM     70  F   UNL A   1      44.352  23.729  25.928  1.00  0.00    -0.205 F 
ATOM     71  C   UNL A   1      43.084  20.300  25.832  1.00  0.00     0.022 A 
BRANCH  69  72
ATOM     72  S   UNL A   1      44.952  21.271  24.125  1.00  0.00     0.127 S 
ATOM     73  O   UNL A   1      46.256  21.414  24.775  1.00  0.00    -0.237 OA
ATOM     74  O   UNL A   1      44.680  19.917  23.638  1.00  0.00    -0.237 OA
ATOM     75  O   UNL A   1      44.587  22.316  23.182  1.00  0.00    -0.744 OA
ENDBRANCH  69  72
ENDBRANCH  51  65
BRANCH  52  76
ATOM     76  C   UNL A   1      42.284  30.971  32.521  1.00  0.00     0.023 A 
ATOM     77  C   UNL A   1      42.230  32.348  32.182  1.00  0.00     0.012 A 
ATOM     78  C   UNL A   1      41.110  30.366  33.012  1.00  0.00     0.148 A 
ATOM     79  C   UNL A   1      41.030  33.067  32.231  1.00  0.00     0.002 A 
ATOM     80  C   UNL A   1      39.915  31.094  33.059  1.00  0.00     0.091 A 
ATOM     81  F   UNL A   1      41.142  29.073  33.357  1.00  0.00    -0.205 F 
ATOM     82  C   UNL A   1      39.867  32.434  32.652  1.00  0.00     0.022 A 
BRANCH  80  83
ATOM     83  S   UNL A   1      38.369  30.277  33.495  1.00  0.00     0.127 S 
ATOM     84  O   UNL A   1      38.194  30.624  34.908  1.00  0.00    -0.237 OA
ATOM     85  O   UNL A   1      37.391  30.898  32.614  1.00  0.00    -0.237 OA
ATOM     86  O   UNL A   1      38.687  28.875  33.246  1.00  0.00    -0.744 OA
ENDBRANCH  80  83
ENDBRANCH  52  76
BRANCH  64  87
ATOM     87  C   UNL A   1      44.961  24.414  33.484  1.00  0.00     0.023 A 
ATOM     88  C   UNL A   1      43.959  23.442  33.652  1.00  0.00     0.012 A 
ATOM     89  C   UNL A   1      46.203  24.181  34.120  1.00  0.00     0.148 A 
ATOM     90  C   UNL A   1      44.157  22.318  34.459  1.00  0.00     0.002 A 
ATOM     91  C   UNL A   1      46.436  23.001  34.816  1.00  0.00     0.091 A 
ATOM     92  F   UNL A   1      47.175  25.105  34.053  1.00  0.00    -0.205 F 
ATOM     93  C   UNL A   1      45.406  22.082  35.018  1.00  0.00     0.022 A 
BRANCH  91  94
ATOM     94  S   UNL A   1      48.112  22.559  35.291  1.00  0.00     0.127 S 
ATOM     95  O   UNL A   1      47.997  21.124  35.538  1.00  0.00    -0.237 OA
ATOM     96  O   UNL A   1      48.888  22.911  34.101  1.00  0.00    -0.237 OA
ATOM     97  O   UNL A   1      48.388  23.398  36.450  1.00  0.00    -0.744 OA
ENDBRANCH  91  94
ENDBRANCH  64  87
ENDBRANCH  38  39
ENDBRANCH  31  33
ENDBRANCH  30  31
ENDBRANCH  29  30
ENDBRANCH   1  29
TORSDOF 18
ENDMDL
MODEL 3
REMARK VINA RESULT:     -12.5      5.906      9.185
REMARK SMILES Cc1ccc(C(=O)OCCOC(=O)c2ccc(-c3c4nc(c(-c5cccc(S(=O)(=O)[O-])c5F)c5ccc([nH]5)c(-c5cccc(S(=O)(=O)[O-])c5F)c5nc(c(-c6cccc(S(=O)(=O)[O-])c6F)c6ccc3[nH]6)C=C5)C=C4)cc2)cc1CNC(=O)C[N@@H+]1CCC[C@]2(CCOC2)C1
REMARK SMILES IDX 9 1 8 2 6 3 7 4 5 5 1 6 2 7 3 8 78 9 4 10 77 11 79 12 80 13
REMARK SMILES IDX 81 14 82 16 83 17 84 18 85 19 93 20 86 22 88 23 87 24 89 25
REMARK SMILES IDX 92 26 90 27 91 28 10 29 11 30 12 31 13 32 14 33 15 34 76 35
REMARK SMILES IDX 16 36 75 37 17 38 18 39 19 40 69 41 20 42 74 43 68 44 70 45
REMARK SMILES IDX 21 46 73 47 67 48 66 49 22 51 54 52 34 53 53 54 35 55 38 56
REMARK SMILES IDX 52 57 71 58 36 59 37 60 51 62 72 63 39 64 23 65 24 66 32 67
REMARK SMILES IDX 25 68 27 69 33 70 26 71 28 72 29 73 30 74 31 75 55 76 56 77
REMARK SMILES IDX 64 78 57 79 59 80 65 81 58 82 60 83 61 84 62 85 63 86 40 87
REMARK SMILES IDX 41 88 49 89 42 90 44 91 50 92 43 93 45 94 46 95 47 96 48 97
REMARK H PARENT 80 15 84 21 70 50 38 61
REMARK Flexibility Score: inf
ROOT
ATOM      1  C   UNL A   1      38.150  21.464  25.356  1.00  0.00     0.275 C 
ENDROOT
BRANCH   1   2
ATOM      2  O   UNL A   1      36.851  21.158  24.851  1.00  0.00    -0.458 OA
BRANCH   2   3
ATOM      3  C   UNL A   1      36.202  22.073  24.096  1.00  0.00     0.338 C 
ATOM      4  O   UNL A   1      36.665  22.743  23.208  1.00  0.00    -0.246 OA
BRANCH   3   5
ATOM      5  C   UNL A   1      34.793  22.125  24.555  1.00  0.00     0.060 A 
ATOM      6  C   UNL A   1      30.774  22.682  26.031  1.00  0.00     0.044 C 
ATOM      7  C   UNL A   1      32.153  22.518  25.453  1.00  0.00    -0.046 A 
ATOM      8  C   UNL A   1      33.141  21.966  26.294  1.00  0.00     0.004 A 
ATOM      9  C   UNL A   1      32.496  22.841  24.127  1.00  0.00    -0.025 A 
ATOM     10  C   UNL A   1      34.464  21.823  25.870  1.00  0.00     0.016 A 
ATOM     11  C   UNL A   1      33.804  22.565  23.682  1.00  0.00     0.021 A 
BRANCH   9  12
ATOM     12  C   UNL A   1      31.614  23.606  23.163  1.00  0.00     0.152 C 
BRANCH  12  13
ATOM     13  N   UNL A   1      32.444  23.956  22.013  1.00  0.00    -0.347 N 
ATOM     14  C   UNL A   1      32.838  25.204  21.625  1.00  0.00     0.275 C 
ATOM     15  H   UNL A   1      32.753  23.207  21.455  1.00  0.00     0.164 HD
ATOM     16  O   UNL A   1      33.150  25.395  20.446  1.00  0.00    -0.268 OA
BRANCH  14  17
ATOM     17  C   UNL A   1      32.981  26.296  22.675  1.00  0.00     0.363 C 
BRANCH  17  18
ATOM     18  N   UNL A   1      32.647  27.636  22.174  1.00  0.00    -0.327 N 
ATOM     19  C   UNL A   1      33.408  28.724  22.794  1.00  0.00     0.262 C 
ATOM     20  C   UNL A   1      31.204  27.909  22.289  1.00  0.00     0.272 C 
ATOM     21  H   UNL A   1      32.917  27.617  21.191  1.00  0.00     0.348 HD
ATOM     22  C   UNL A   1      33.021  29.005  24.248  1.00  0.00     0.062 C 
ATOM     23  C   UNL A   1      30.663  28.179  23.714  1.00  0.00     0.045 C 
ATOM     24  C   UNL A   1      31.521  29.239  24.414  1.00  0.00     0.021 C 
ATOM     25  C   UNL A   1      30.412  26.899  24.530  1.00  0.00     0.043 C 
ATOM     26  C   UNL A   1      29.221  28.651  23.585  1.00  0.00     0.173 C 
ATOM     27  C   UNL A   1      28.996  26.472  24.146  1.00  0.00     0.161 C 
ATOM     28  O   UNL A   1      28.545  27.449  23.211  1.00  0.00    -0.381 OA
ENDBRANCH  17  18
ENDBRANCH  14  17
ENDBRANCH  12  13
ENDBRANCH   9  12
ENDBRANCH   3   5
ENDBRANCH   2   3
ENDBRANCH   1   2
BRANCH   1  29
ATOM     29  C   UNL A   1      38.385  22.746  26.183  1.00  0.00     0.275 C 
BRANCH  29  30
ATOM     30  O   UNL A   1      39.666  23.153  26.751  1.00  0.00    -0.458 OA
BRANCH  30  31
ATOM     31  C   UNL A   1      40.561  22.569  27.577  1.00  0.00     0.338 C 
ATOM     32  O   UNL A   1      40.470  21.396  27.916  1.00  0.00    -0.246 OA
BRANCH  31  33
ATOM     33  C   UNL A   1      41.657  23.399  28.070  1.00  0.00     0.060 A 
ATOM     34  C   UNL A   1      41.753  24.749  27.686  1.00  0.00     0.016 A 
ATOM     35  C   UNL A   1      42.561  22.830  28.955  1.00  0.00     0.016 A 
ATOM     36  C   UNL A   1      42.747  25.554  28.237  1.00  0.00     0.010 A 
ATOM     37  C   UNL A   1      43.450  23.650  29.608  1.00  0.00     0.010 A 
ATOM     38  C   UNL A   1      43.617  24.979  29.164  1.00  0.00    -0.014 A 
BRANCH  38  39
ATOM     39  C   UNL A   1      45.020  25.379  29.263  1.00  0.00     0.031 A 
ATOM     40  C   UNL A   1      46.073  25.027  28.303  1.00  0.00     0.074 A 
ATOM     41  C   UNL A   1      45.114  26.450  30.086  1.00  0.00     0.049 A 
ATOM     42  N   UNL A   1      47.286  25.445  28.409  1.00  0.00    -0.248 NA
ATOM     43  C   UNL A   1      45.874  24.157  27.155  1.00  0.00     0.031 C 
ATOM     44  C   UNL A   1      46.012  27.584  30.043  1.00  0.00     0.029 A 
ATOM     45  N   UNL A   1      44.323  26.692  31.220  1.00  0.00    -0.354 N 
ATOM     46  C   UNL A   1      47.933  25.184  27.217  1.00  0.00     0.074 A 
ATOM     47  C   UNL A   1      47.050  24.285  26.518  1.00  0.00     0.031 C 
ATOM     48  C   UNL A   1      45.917  28.241  31.216  1.00  0.00     0.029 A 
ATOM     49  C   UNL A   1      45.114  27.410  32.108  1.00  0.00     0.049 A 
ATOM     50  H   UNL A   1      43.390  26.409  31.359  1.00  0.00     0.167 HD
ATOM     51  C   UNL A   1      49.051  25.910  26.920  1.00  0.00     0.034 A 
ATOM     52  C   UNL A   1      45.518  26.847  33.286  1.00  0.00     0.034 A 
ATOM     53  C   UNL A   1      49.437  26.721  28.090  1.00  0.00     0.049 A 
ATOM     54  C   UNL A   1      47.027  26.713  33.338  1.00  0.00     0.074 A 
ATOM     55  C   UNL A   1      49.195  28.041  28.435  1.00  0.00     0.029 A 
ATOM     56  N   UNL A   1      49.876  26.091  29.248  1.00  0.00    -0.354 N 
ATOM     57  N   UNL A   1      47.813  26.906  32.314  1.00  0.00    -0.248 NA
ATOM     58  C   UNL A   1      47.771  26.332  34.534  1.00  0.00     0.031 C 
ATOM     59  C   UNL A   1      49.383  28.170  29.837  1.00  0.00     0.029 A 
ATOM     60  C   UNL A   1      49.758  26.937  30.344  1.00  0.00     0.049 A 
ATOM     61  H   UNL A   1      50.224  25.170  29.287  1.00  0.00     0.167 HD
ATOM     62  C   UNL A   1      49.091  26.556  32.632  1.00  0.00     0.074 A 
ATOM     63  C   UNL A   1      49.029  26.284  34.058  1.00  0.00     0.031 C 
ATOM     64  C   UNL A   1      50.072  26.449  31.684  1.00  0.00     0.034 A 
BRANCH  51  65
ATOM     65  C   UNL A   1      49.607  26.191  25.521  1.00  0.00     0.023 A 
ATOM     66  C   UNL A   1      51.020  26.156  25.409  1.00  0.00     0.012 A 
ATOM     67  C   UNL A   1      48.914  26.553  24.339  1.00  0.00     0.148 A 
ATOM     68  C   UNL A   1      51.715  26.560  24.268  1.00  0.00     0.002 A 
ATOM     69  C   UNL A   1      49.615  26.971  23.187  1.00  0.00     0.091 A 
ATOM     70  F   UNL A   1      47.579  26.487  24.314  1.00  0.00    -0.205 F 
ATOM     71  C   UNL A   1      51.012  26.993  23.164  1.00  0.00     0.022 A 
BRANCH  69  72
ATOM     72  S   UNL A   1      48.820  27.538  21.667  1.00  0.00     0.127 S 
ATOM     73  O   UNL A   1      49.873  28.362  21.068  1.00  0.00    -0.237 OA
ATOM     74  O   UNL A   1      48.557  26.295  20.939  1.00  0.00    -0.237 OA
ATOM     75  O   UNL A   1      47.617  28.238  22.084  1.00  0.00    -0.744 OA
ENDBRANCH  69  72
ENDBRANCH  51  65
BRANCH  52  76
ATOM     76  C   UNL A   1      44.537  25.853  33.857  1.00  0.00     0.023 A 
ATOM     77  C   UNL A   1      44.899  24.481  33.808  1.00  0.00     0.012 A 
ATOM     78  C   UNL A   1      43.502  26.230  34.736  1.00  0.00     0.148 A 
ATOM     79  C   UNL A   1      44.328  23.542  34.674  1.00  0.00     0.002 A 
ATOM     80  C   UNL A   1      42.935  25.283  35.597  1.00  0.00     0.091 A 
ATOM     81  F   UNL A   1      43.129  27.515  34.785  1.00  0.00    -0.205 F 
ATOM     82  C   UNL A   1      43.358  23.947  35.582  1.00  0.00     0.022 A 
BRANCH  80  83
ATOM     83  S   UNL A   1      41.756  25.793  36.859  1.00  0.00     0.127 S 
ATOM     84  O   UNL A   1      41.037  24.554  37.167  1.00  0.00    -0.237 OA
ATOM     85  O   UNL A   1      42.599  26.267  37.948  1.00  0.00    -0.237 OA
ATOM     86  O   UNL A   1      40.967  26.796  36.150  1.00  0.00    -0.744 OA
ENDBRANCH  80  83
ENDBRANCH  52  76
BRANCH  64  87
ATOM     87  C   UNL A   1      51.419  25.819  31.929  1.00  0.00     0.023 A 
ATOM     88  C   UNL A   1      52.570  26.592  32.163  1.00  0.00     0.012 A 
ATOM     89  C   UNL A   1      51.527  24.422  32.123  1.00  0.00     0.148 A 
ATOM     90  C   UNL A   1      53.788  26.005  32.517  1.00  0.00     0.002 A 
ATOM     91  C   UNL A   1      52.705  23.858  32.598  1.00  0.00     0.091 A 
ATOM     92  F   UNL A   1      50.483  23.623  31.850  1.00  0.00    -0.205 F 
ATOM     93  C   UNL A   1      53.850  24.640  32.763  1.00  0.00     0.022 A 
BRANCH  91  94
ATOM     94  S   UNL A   1      52.710  22.161  33.189  1.00  0.00     0.127 S 
ATOM     95  O   UNL A   1      54.116  21.954  33.528  1.00  0.00    -0.237 OA
ATOM     96  O   UNL A   1      51.809  22.217  34.340  1.00  0.00    -0.237 OA
ATOM     97  O   UNL A   1      52.192  21.390  32.065  1.00  0.00    -0.744 OA
ENDBRANCH  91  94
ENDBRANCH  64  87
ENDBRANCH  38  39
ENDBRANCH  31  33
ENDBRANCH  30  31
ENDBRANCH  29  30
ENDBRANCH   1  29
TORSDOF 18
ENDMDL
