MODEL 1
REMARK VINA RESULT:     -10.6      0.000      0.000
REMARK SMILES CN(C)S(=O)(=O)c1c[nH]c(C(=O)OCCOC(=O)c2ccc(-c3c4nc(c(-c5cccc(S(=O)(=O)[O-])c5F)c5ccc([nH]5)c(-c5cccc(S(=O)(=O)[O-])c5F)c5nc(c(-c6cccc(S(=O)(=O)[O-])c6F)c6ccc3[nH]6)C=C5)C=C4)cc2)c1
REMARK SMILES IDX 15 1 14 2 13 3 11 4 12 5 10 6 7 7 8 8 82 9 9 10 4 12 5 13
REMARK SMILES IDX 6 14 2 15 1 16 3 17 16 18 17 19 18 20 19 21 20 22 81 23
REMARK SMILES IDX 21 24 80 25 22 26 23 27 24 28 74 29 25 30 79 31 73 32 75 33
REMARK SMILES IDX 26 34 78 35 72 36 71 37 27 39 59 40 39 41 58 42 40 43 43 44
REMARK SMILES IDX 57 45 76 46 41 47 42 48 56 50 77 51 44 52 28 53 29 54 37 55
REMARK SMILES IDX 30 56 32 57 38 58 31 59 33 60 34 61 35 62 36 63 60 64 61 65
REMARK SMILES IDX 69 66 62 67 64 68 70 69 63 70 65 71 66 72 67 73 68 74 45 75
REMARK SMILES IDX 46 76 54 77 47 78 49 79 55 80 48 81 50 82 51 83 52 84 53 85
REMARK H PARENT 9 11 75 38 43 49
REMARK Flexibility Score: inf
ROOT
ATOM      1  C   UNL A   1      40.267  22.285  27.149  1.00  0.00     0.275 C 
ENDROOT
BRANCH   1   2
ATOM      2  C   UNL A   1      41.450  21.511  26.559  1.00  0.00     0.275 C 
BRANCH   2   3
ATOM      3  O   UNL A   1      41.904  22.063  25.311  1.00  0.00    -0.457 OA
BRANCH   3   4
ATOM      4  C   UNL A   1      43.264  22.115  25.178  1.00  0.00     0.354 C 
ATOM      5  O   UNL A   1      43.989  21.160  25.014  1.00  0.00    -0.244 OA
BRANCH   4   6
ATOM      6  C   UNL A   1      43.735  23.486  25.197  1.00  0.00     0.126 A 
ATOM      7  C   UNL A   1      44.095  25.727  25.246  1.00  0.00     0.100 A 
ATOM      8  C   UNL A   1      45.318  25.093  25.158  1.00  0.00     0.105 A 
ATOM      9  C   UNL A   1      43.095  24.714  25.239  1.00  0.00     0.057 A 
ATOM     10  N   UNL A   1      45.089  23.746  25.127  1.00  0.00    -0.354 N 
ATOM     11  H   UNL A   1      45.790  23.057  25.063  1.00  0.00     0.166 HD
BRANCH   7  12
ATOM     12  S   UNL A   1      43.848  27.434  25.396  1.00  0.00     0.244 S 
ATOM     13  O   UNL A   1      42.637  27.687  24.640  1.00  0.00    -0.207 OA
ATOM     14  O   UNL A   1      45.107  28.033  25.004  1.00  0.00    -0.207 OA
BRANCH  12  15
ATOM     15  N   UNL A   1      43.538  27.861  27.023  1.00  0.00    -0.204 NA
ATOM     16  C   UNL A   1      44.104  26.880  27.977  1.00  0.00     0.124 C 
ATOM     17  C   UNL A   1      43.904  29.244  27.394  1.00  0.00     0.124 C 
ENDBRANCH  12  15
ENDBRANCH   7  12
ENDBRANCH   4   6
ENDBRANCH   3   4
ENDBRANCH   2   3
ENDBRANCH   1   2
BRANCH   1  18
ATOM     18  O   UNL A   1      40.417  23.712  27.170  1.00  0.00    -0.458 OA
BRANCH  18  19
ATOM     19  C   UNL A   1      39.249  24.395  27.151  1.00  0.00     0.338 C 
ATOM     20  O   UNL A   1      38.228  24.068  26.565  1.00  0.00    -0.246 OA
BRANCH  19  21
ATOM     21  C   UNL A   1      39.356  25.698  27.819  1.00  0.00     0.060 A 
ATOM     22  C   UNL A   1      40.072  26.708  27.167  1.00  0.00     0.016 A 
ATOM     23  C   UNL A   1      38.932  25.858  29.143  1.00  0.00     0.016 A 
ATOM     24  C   UNL A   1      40.375  27.882  27.845  1.00  0.00     0.010 A 
ATOM     25  C   UNL A   1      39.271  27.019  29.833  1.00  0.00     0.010 A 
ATOM     26  C   UNL A   1      39.978  28.038  29.181  1.00  0.00    -0.014 A 
BRANCH  26  27
ATOM     27  C   UNL A   1      40.116  29.385  29.787  1.00  0.00     0.031 A 
ATOM     28  C   UNL A   1      38.913  30.279  29.423  1.00  0.00     0.074 A 
ATOM     29  C   UNL A   1      41.267  29.665  30.476  1.00  0.00     0.049 A 
ATOM     30  N   UNL A   1      38.858  31.565  29.244  1.00  0.00    -0.248 NA
ATOM     31  C   UNL A   1      37.608  29.644  29.078  1.00  0.00     0.031 C 
ATOM     32  C   UNL A   1      42.322  28.674  30.786  1.00  0.00     0.029 A 
ATOM     33  N   UNL A   1      41.797  30.808  31.055  1.00  0.00    -0.354 N 
ATOM     34  C   UNL A   1      37.494  31.894  29.039  1.00  0.00     0.074 A 
ATOM     35  C   UNL A   1      36.814  30.671  28.772  1.00  0.00     0.031 C 
ATOM     36  C   UNL A   1      43.372  29.259  31.407  1.00  0.00     0.029 A 
ATOM     37  C   UNL A   1      43.102  30.673  31.603  1.00  0.00     0.049 A 
ATOM     38  H   UNL A   1      41.301  31.659  31.084  1.00  0.00     0.167 HD
ATOM     39  C   UNL A   1      36.985  33.136  29.290  1.00  0.00     0.034 A 
ATOM     40  C   UNL A   1      43.920  31.624  32.164  1.00  0.00     0.034 A 
ATOM     41  C   UNL A   1      38.037  33.982  29.740  1.00  0.00     0.049 A 
ATOM     42  C   UNL A   1      43.089  32.818  32.336  1.00  0.00     0.074 A 
ATOM     43  C   UNL A   1      39.088  34.585  29.107  1.00  0.00     0.029 A 
ATOM     44  N   UNL A   1      38.232  33.990  31.100  1.00  0.00    -0.354 N 
ATOM     45  N   UNL A   1      42.202  32.959  33.274  1.00  0.00    -0.248 NA
ATOM     46  C   UNL A   1      43.218  33.927  31.383  1.00  0.00     0.031 C 
ATOM     47  C   UNL A   1      40.091  34.603  30.092  1.00  0.00     0.029 A 
ATOM     48  C   UNL A   1      39.565  34.181  31.322  1.00  0.00     0.049 A 
ATOM     49  H   UNL A   1      37.537  33.879  31.788  1.00  0.00     0.167 HD
ATOM     50  C   UNL A   1      41.435  33.977  32.770  1.00  0.00     0.074 A 
ATOM     51  C   UNL A   1      42.295  34.738  31.893  1.00  0.00     0.031 C 
ATOM     52  C   UNL A   1      40.107  33.754  32.589  1.00  0.00     0.034 A 
BRANCH  39  53
ATOM     53  C   UNL A   1      35.587  33.688  29.459  1.00  0.00     0.023 A 
ATOM     54  C   UNL A   1      34.912  34.017  28.244  1.00  0.00     0.012 A 
ATOM     55  C   UNL A   1      35.031  34.182  30.650  1.00  0.00     0.148 A 
ATOM     56  C   UNL A   1      33.844  34.908  28.194  1.00  0.00     0.002 A 
ATOM     57  C   UNL A   1      33.917  35.027  30.599  1.00  0.00     0.091 A 
ATOM     58  F   UNL A   1      35.619  33.913  31.817  1.00  0.00    -0.205 F 
ATOM     59  C   UNL A   1      33.355  35.427  29.377  1.00  0.00     0.022 A 
BRANCH  57  60
ATOM     60  S   UNL A   1      33.125  35.673  32.076  1.00  0.00     0.127 S 
ATOM     61  O   UNL A   1      32.061  36.500  31.514  1.00  0.00    -0.237 OA
ATOM     62  O   UNL A   1      32.660  34.446  32.729  1.00  0.00    -0.237 OA
ATOM     63  O   UNL A   1      34.173  36.371  32.809  1.00  0.00    -0.744 OA
ENDBRANCH  57  60
ENDBRANCH  39  53
BRANCH  40  64
ATOM     64  C   UNL A   1      45.363  31.772  32.618  1.00  0.00     0.023 A 
ATOM     65  C   UNL A   1      45.787  31.710  33.950  1.00  0.00     0.012 A 
ATOM     66  C   UNL A   1      46.409  31.936  31.649  1.00  0.00     0.148 A 
ATOM     67  C   UNL A   1      47.161  31.727  34.284  1.00  0.00     0.002 A 
ATOM     68  C   UNL A   1      47.758  31.827  31.964  1.00  0.00     0.091 A 
ATOM     69  F   UNL A   1      46.112  32.254  30.388  1.00  0.00    -0.205 F 
ATOM     70  C   UNL A   1      48.146  31.740  33.293  1.00  0.00     0.022 A 
BRANCH  68  71
ATOM     71  S   UNL A   1      49.020  31.661  30.680  1.00  0.00     0.127 S 
ATOM     72  O   UNL A   1      49.046  32.998  30.089  1.00  0.00    -0.237 OA
ATOM     73  O   UNL A   1      50.198  31.318  31.476  1.00  0.00    -0.237 OA
ATOM     74  O   UNL A   1      48.569  30.602  29.786  1.00  0.00    -0.744 OA
ENDBRANCH  68  71
ENDBRANCH  40  64
BRANCH  52  75
ATOM     75  C   UNL A   1      39.497  32.771  33.586  1.00  0.00     0.023 A 
ATOM     76  C   UNL A   1      38.992  31.563  33.057  1.00  0.00     0.012 A 
ATOM     77  C   UNL A   1      39.272  33.019  34.962  1.00  0.00     0.148 A 
ATOM     78  C   UNL A   1      38.274  30.656  33.842  1.00  0.00     0.002 A 
ATOM     79  C   UNL A   1      38.543  32.115  35.745  1.00  0.00     0.091 A 
ATOM     80  F   UNL A   1      39.759  34.138  35.498  1.00  0.00    -0.205 F 
ATOM     81  C   UNL A   1      38.047  30.932  35.182  1.00  0.00     0.022 A 
BRANCH  79  82
ATOM     82  S   UNL A   1      38.126  32.388  37.480  1.00  0.00     0.127 S 
ATOM     83  O   UNL A   1      37.301  33.597  37.422  1.00  0.00    -0.237 OA
ATOM     84  O   UNL A   1      37.382  31.176  37.815  1.00  0.00    -0.237 OA
ATOM     85  O   UNL A   1      39.388  32.560  38.189  1.00  0.00    -0.744 OA
ENDBRANCH  79  82
ENDBRANCH  52  75
ENDBRANCH  26  27
ENDBRANCH  19  21
ENDBRANCH  18  19
ENDBRANCH   1  18
TORSDOF 16
ENDMDL
MODEL 2
REMARK VINA RESULT:     -10.6      3.160     11.607
REMARK SMILES CN(C)S(=O)(=O)c1c[nH]c(C(=O)OCCOC(=O)c2ccc(-c3c4nc(c(-c5cccc(S(=O)(=O)[O-])c5F)c5ccc([nH]5)c(-c5cccc(S(=O)(=O)[O-])c5F)c5nc(c(-c6cccc(S(=O)(=O)[O-])c6F)c6ccc3[nH]6)C=C5)C=C4)cc2)c1
REMARK SMILES IDX 15 1 14 2 13 3 11 4 12 5 10 6 7 7 8 8 82 9 9 10 4 12 5 13
REMARK SMILES IDX 6 14 2 15 1 16 3 17 16 18 17 19 18 20 19 21 20 22 81 23
REMARK SMILES IDX 21 24 80 25 22 26 23 27 24 28 74 29 25 30 79 31 73 32 75 33
REMARK SMILES IDX 26 34 78 35 72 36 71 37 27 39 59 40 39 41 58 42 40 43 43 44
REMARK SMILES IDX 57 45 76 46 41 47 42 48 56 50 77 51 44 52 28 53 29 54 37 55
REMARK SMILES IDX 30 56 32 57 38 58 31 59 33 60 34 61 35 62 36 63 60 64 61 65
REMARK SMILES IDX 69 66 62 67 64 68 70 69 63 70 65 71 66 72 67 73 68 74 45 75
REMARK SMILES IDX 46 76 54 77 47 78 49 79 55 80 48 81 50 82 51 83 52 84 53 85
REMARK H PARENT 9 11 75 38 43 49
REMARK Flexibility Score: inf
ROOT
ATOM      1  C   UNL A   1      34.752  31.952  28.581  1.00  0.00     0.275 C 
ENDROOT
BRANCH   1   2
ATOM      2  C   UNL A   1      34.591  33.380  28.049  1.00  0.00     0.275 C 
BRANCH   2   3
ATOM      3  O   UNL A   1      34.905  34.376  29.037  1.00  0.00    -0.457 OA
BRANCH   3   4
ATOM      4  C   UNL A   1      33.935  34.556  29.985  1.00  0.00     0.354 C 
ATOM      5  O   UNL A   1      32.786  34.861  29.764  1.00  0.00    -0.244 OA
BRANCH   4   6
ATOM      6  C   UNL A   1      34.448  34.271  31.311  1.00  0.00     0.126 A 
ATOM      7  C   UNL A   1      35.602  33.867  33.225  1.00  0.00     0.100 A 
ATOM      8  C   UNL A   1      34.253  33.770  33.503  1.00  0.00     0.105 A 
ATOM      9  C   UNL A   1      35.725  34.153  31.835  1.00  0.00     0.057 A 
ATOM     10  N   UNL A   1      33.570  34.013  32.344  1.00  0.00    -0.354 N 
ATOM     11  H   UNL A   1      32.589  34.004  32.257  1.00  0.00     0.166 HD
BRANCH   7  12
ATOM     12  S   UNL A   1      36.886  33.724  34.377  1.00  0.00     0.244 S 
ATOM     13  O   UNL A   1      36.209  33.553  35.647  1.00  0.00    -0.207 OA
ATOM     14  O   UNL A   1      37.735  34.874  34.137  1.00  0.00    -0.207 OA
BRANCH  12  15
ATOM     15  N   UNL A   1      37.806  32.312  34.088  1.00  0.00    -0.204 NA
ATOM     16  C   UNL A   1      37.056  31.306  33.303  1.00  0.00     0.124 C 
ATOM     17  C   UNL A   1      39.153  32.540  33.523  1.00  0.00     0.124 C 
ENDBRANCH  12  15
ENDBRANCH   7  12
ENDBRANCH   4   6
ENDBRANCH   3   4
ENDBRANCH   2   3
ENDBRANCH   1   2
BRANCH   1  18
ATOM     18  O   UNL A   1      36.041  31.359  28.363  1.00  0.00    -0.458 OA
BRANCH  18  19
ATOM     19  C   UNL A   1      36.002  30.042  28.056  1.00  0.00     0.338 C 
ATOM     20  O   UNL A   1      35.004  29.385  27.803  1.00  0.00    -0.246 OA
BRANCH  19  21
ATOM     21  C   UNL A   1      37.318  29.402  28.189  1.00  0.00     0.060 A 
ATOM     22  C   UNL A   1      37.651  28.849  29.432  1.00  0.00     0.016 A 
ATOM     23  C   UNL A   1      38.274  29.520  27.176  1.00  0.00     0.016 A 
ATOM     24  C   UNL A   1      38.951  28.421  29.665  1.00  0.00     0.010 A 
ATOM     25  C   UNL A   1      39.586  29.126  27.425  1.00  0.00     0.010 A 
ATOM     26  C   UNL A   1      39.922  28.562  28.664  1.00  0.00    -0.014 A 
BRANCH  26  27
ATOM     27  C   UNL A   1      41.227  27.886  28.869  1.00  0.00     0.031 A 
ATOM     28  C   UNL A   1      41.144  26.398  28.473  1.00  0.00     0.074 A 
ATOM     29  C   UNL A   1      42.245  28.610  29.433  1.00  0.00     0.049 A 
ATOM     30  N   UNL A   1      41.774  25.371  28.962  1.00  0.00    -0.248 NA
ATOM     31  C   UNL A   1      40.121  25.961  27.480  1.00  0.00     0.031 C 
ATOM     32  C   UNL A   1      42.185  30.061  29.716  1.00  0.00     0.029 A 
ATOM     33  N   UNL A   1      43.521  28.303  29.880  1.00  0.00    -0.354 N 
ATOM     34  C   UNL A   1      41.420  24.252  28.166  1.00  0.00     0.074 A 
ATOM     35  C   UNL A   1      40.282  24.640  27.401  1.00  0.00     0.031 C 
ATOM     36  C   UNL A   1      43.307  30.481  30.344  1.00  0.00     0.029 A 
ATOM     37  C   UNL A   1      44.229  29.369  30.501  1.00  0.00     0.049 A 
ATOM     38  H   UNL A   1      43.911  27.405  29.775  1.00  0.00     0.167 HD
ATOM     39  C   UNL A   1      42.207  23.142  28.055  1.00  0.00     0.034 A 
ATOM     40  C   UNL A   1      45.460  29.365  31.111  1.00  0.00     0.034 A 
ATOM     41  C   UNL A   1      43.362  23.314  28.868  1.00  0.00     0.049 A 
ATOM     42  C   UNL A   1      46.065  28.071  30.787  1.00  0.00     0.074 A 
ATOM     43  C   UNL A   1      43.568  23.275  30.219  1.00  0.00     0.029 A 
ATOM     44  N   UNL A   1      44.430  23.907  28.240  1.00  0.00    -0.354 N 
ATOM     45  N   UNL A   1      46.583  27.777  29.632  1.00  0.00    -0.248 NA
ATOM     46  C   UNL A   1      46.070  27.006  31.798  1.00  0.00     0.031 C 
ATOM     47  C   UNL A   1      44.603  24.207  30.415  1.00  0.00     0.029 A 
ATOM     48  C   UNL A   1      45.102  24.638  29.177  1.00  0.00     0.049 A 
ATOM     49  H   UNL A   1      44.667  23.821  27.289  1.00  0.00     0.167 HD
ATOM     50  C   UNL A   1      46.600  26.408  29.685  1.00  0.00     0.074 A 
ATOM     51  C   UNL A   1      46.666  26.055  31.084  1.00  0.00     0.031 C 
ATOM     52  C   UNL A   1      45.941  25.718  28.718  1.00  0.00     0.034 A 
BRANCH  39  53
ATOM     53  C   UNL A   1      42.254  21.976  27.093  1.00  0.00     0.023 A 
ATOM     54  C   UNL A   1      41.278  20.959  27.323  1.00  0.00     0.012 A 
ATOM     55  C   UNL A   1      43.316  21.656  26.232  1.00  0.00     0.148 A 
ATOM     56  C   UNL A   1      41.424  19.656  26.854  1.00  0.00     0.002 A 
ATOM     57  C   UNL A   1      43.424  20.362  25.712  1.00  0.00     0.091 A 
ATOM     58  F   UNL A   1      44.263  22.563  25.982  1.00  0.00    -0.205 F 
ATOM     59  C   UNL A   1      42.511  19.354  26.059  1.00  0.00     0.022 A 
BRANCH  57  60
ATOM     60  S   UNL A   1      44.730  19.881  24.577  1.00  0.00     0.127 S 
ATOM     61  O   UNL A   1      45.931  20.161  25.358  1.00  0.00    -0.237 OA
ATOM     62  O   UNL A   1      44.452  18.456  24.383  1.00  0.00    -0.237 OA
ATOM     63  O   UNL A   1      44.528  20.691  23.382  1.00  0.00    -0.744 OA
ENDBRANCH  57  60
ENDBRANCH  39  53
BRANCH  40  64
ATOM     64  C   UNL A   1      46.310  30.274  31.983  1.00  0.00     0.023 A 
ATOM     65  C   UNL A   1      46.124  30.459  33.358  1.00  0.00     0.012 A 
ATOM     66  C   UNL A   1      47.427  30.976  31.417  1.00  0.00     0.148 A 
ATOM     67  C   UNL A   1      47.035  31.220  34.125  1.00  0.00     0.002 A 
ATOM     68  C   UNL A   1      48.389  31.617  32.187  1.00  0.00     0.091 A 
ATOM     69  F   UNL A   1      47.555  31.076  30.092  1.00  0.00    -0.205 F 
ATOM     70  C   UNL A   1      48.189  31.761  33.553  1.00  0.00     0.022 A 
BRANCH  68  71
ATOM     71  S   UNL A   1      49.963  32.158  31.480  1.00  0.00     0.127 S 
ATOM     72  O   UNL A   1      50.705  32.595  32.661  1.00  0.00    -0.237 OA
ATOM     73  O   UNL A   1      50.447  30.918  30.873  1.00  0.00    -0.237 OA
ATOM     74  O   UNL A   1      49.650  33.213  30.525  1.00  0.00    -0.744 OA
ENDBRANCH  68  71
ENDBRANCH  40  64
BRANCH  52  75
ATOM     75  C   UNL A   1      45.904  26.423  27.362  1.00  0.00     0.023 A 
ATOM     76  C   UNL A   1      44.643  26.883  26.922  1.00  0.00     0.012 A 
ATOM     77  C   UNL A   1      46.985  26.534  26.457  1.00  0.00     0.148 A 
ATOM     78  C   UNL A   1      44.454  27.402  25.638  1.00  0.00     0.002 A 
ATOM     79  C   UNL A   1      46.793  27.044  25.166  1.00  0.00     0.091 A 
ATOM     80  F   UNL A   1      48.194  26.133  26.852  1.00  0.00    -0.205 F 
ATOM     81  C   UNL A   1      45.526  27.479  24.760  1.00  0.00     0.022 A 
BRANCH  79  82
ATOM     82  S   UNL A   1      48.089  27.137  23.912  1.00  0.00     0.127 S 
ATOM     83  O   UNL A   1      47.456  27.936  22.860  1.00  0.00    -0.237 OA
ATOM     84  O   UNL A   1      49.159  27.832  24.624  1.00  0.00    -0.237 OA
ATOM     85  O   UNL A   1      48.389  25.765  23.522  1.00  0.00    -0.744 OA
ENDBRANCH  79  82
ENDBRANCH  52  75
ENDBRANCH  26  27
ENDBRANCH  19  21
ENDBRANCH  18  19
ENDBRANCH   1  18
TORSDOF 16
ENDMDL
MODEL 3
REMARK VINA RESULT:     -10.5      4.518     11.252
REMARK SMILES CN(C)S(=O)(=O)c1c[nH]c(C(=O)OCCOC(=O)c2ccc(-c3c4nc(c(-c5cccc(S(=O)(=O)[O-])c5F)c5ccc([nH]5)c(-c5cccc(S(=O)(=O)[O-])c5F)c5nc(c(-c6cccc(S(=O)(=O)[O-])c6F)c6ccc3[nH]6)C=C5)C=C4)cc2)c1
REMARK SMILES IDX 15 1 14 2 13 3 11 4 12 5 10 6 7 7 8 8 82 9 9 10 4 12 5 13
REMARK SMILES IDX 6 14 2 15 1 16 3 17 16 18 17 19 18 20 19 21 20 22 81 23
REMARK SMILES IDX 21 24 80 25 22 26 23 27 24 28 74 29 25 30 79 31 73 32 75 33
REMARK SMILES IDX 26 34 78 35 72 36 71 37 27 39 59 40 39 41 58 42 40 43 43 44
REMARK SMILES IDX 57 45 76 46 41 47 42 48 56 50 77 51 44 52 28 53 29 54 37 55
REMARK SMILES IDX 30 56 32 57 38 58 31 59 33 60 34 61 35 62 36 63 60 64 61 65
REMARK SMILES IDX 69 66 62 67 64 68 70 69 63 70 65 71 66 72 67 73 68 74 45 75
REMARK SMILES IDX 46 76 54 77 47 78 49 79 55 80 48 81 50 82 51 83 52 84 53 85
REMARK H PARENT 9 11 75 38 43 49
REMARK Flexibility Score: inf
ROOT
ATOM      1  C   UNL A   1      33.959  30.037  27.089  1.00  0.00     0.275 C 
ENDROOT
BRANCH   1   2
ATOM      2  C   UNL A   1      33.118  29.283  26.054  1.00  0.00     0.275 C 
BRANCH   2   3
ATOM      3  O   UNL A   1      32.229  28.326  26.655  1.00  0.00    -0.457 OA
BRANCH   3   4
ATOM      4  C   UNL A   1      31.698  27.421  25.778  1.00  0.00     0.354 C 
ATOM      5  O   UNL A   1      30.921  27.679  24.888  1.00  0.00    -0.244 OA
BRANCH   4   6
ATOM      6  C   UNL A   1      32.239  26.096  26.010  1.00  0.00     0.126 A 
ATOM      7  C   UNL A   1      33.399  24.151  26.182  1.00  0.00     0.100 A 
ATOM      8  C   UNL A   1      32.174  23.981  26.795  1.00  0.00     0.105 A 
ATOM      9  C   UNL A   1      33.428  25.475  25.659  1.00  0.00     0.057 A 
ATOM     10  N   UNL A   1      31.485  25.156  26.684  1.00  0.00    -0.354 N 
ATOM     11  H   UNL A   1      30.578  25.311  27.034  1.00  0.00     0.166 HD
BRANCH   7  12
ATOM     12  S   UNL A   1      34.674  22.980  26.122  1.00  0.00     0.244 S 
ATOM     13  O   UNL A   1      34.422  22.120  27.262  1.00  0.00    -0.207 OA
ATOM     14  O   UNL A   1      35.893  23.757  26.033  1.00  0.00    -0.207 OA
BRANCH  12  15
ATOM     15  N   UNL A   1      34.549  22.019  24.714  1.00  0.00    -0.204 NA
ATOM     16  C   UNL A   1      34.681  20.574  25.008  1.00  0.00     0.124 C 
ATOM     17  C   UNL A   1      33.367  22.289  23.867  1.00  0.00     0.124 C 
ENDBRANCH  12  15
ENDBRANCH   7  12
ENDBRANCH   4   6
ENDBRANCH   3   4
ENDBRANCH   2   3
ENDBRANCH   1   2
BRANCH   1  18
ATOM     18  O   UNL A   1      35.312  29.578  27.231  1.00  0.00    -0.458 OA
BRANCH  18  19
ATOM     19  C   UNL A   1      36.075  30.339  28.049  1.00  0.00     0.338 C 
ATOM     20  O   UNL A   1      35.816  31.467  28.439  1.00  0.00    -0.246 OA
BRANCH  19  21
ATOM     21  C   UNL A   1      37.372  29.715  28.338  1.00  0.00     0.060 A 
ATOM     22  C   UNL A   1      38.338  29.720  27.325  1.00  0.00     0.016 A 
ATOM     23  C   UNL A   1      37.560  28.969  29.506  1.00  0.00     0.016 A 
ATOM     24  C   UNL A   1      39.495  28.967  27.477  1.00  0.00     0.010 A 
ATOM     25  C   UNL A   1      38.703  28.185  29.640  1.00  0.00     0.010 A 
ATOM     26  C   UNL A   1      39.678  28.195  28.633  1.00  0.00    -0.014 A 
BRANCH  26  27
ATOM     27  C   UNL A   1      41.018  27.597  28.857  1.00  0.00     0.031 A 
ATOM     28  C   UNL A   1      41.038  26.115  28.433  1.00  0.00     0.074 A 
ATOM     29  C   UNL A   1      41.976  28.374  29.456  1.00  0.00     0.049 A 
ATOM     30  N   UNL A   1      41.720  25.121  28.919  1.00  0.00    -0.248 NA
ATOM     31  C   UNL A   1      40.066  25.633  27.409  1.00  0.00     0.031 C 
ATOM     32  C   UNL A   1      41.818  29.813  29.762  1.00  0.00     0.029 A 
ATOM     33  N   UNL A   1      43.258  28.139  29.927  1.00  0.00    -0.354 N 
ATOM     34  C   UNL A   1      41.455  23.997  28.096  1.00  0.00     0.074 A 
ATOM     35  C   UNL A   1      40.311  24.326  27.312  1.00  0.00     0.031 C 
ATOM     36  C   UNL A   1      42.898  30.291  30.423  1.00  0.00     0.029 A 
ATOM     37  C   UNL A   1      43.884  29.235  30.582  1.00  0.00     0.049 A 
ATOM     38  H   UNL A   1      43.707  27.269  29.816  1.00  0.00     0.167 HD
ATOM     39  C   UNL A   1      42.312  22.940  27.985  1.00  0.00     0.034 A 
ATOM     40  C   UNL A   1      45.099  29.297  31.220  1.00  0.00     0.034 A 
ATOM     41  C   UNL A   1      43.435  23.169  28.827  1.00  0.00     0.049 A 
ATOM     42  C   UNL A   1      45.791  28.050  30.888  1.00  0.00     0.074 A 
ATOM     43  C   UNL A   1      43.614  23.118  30.181  1.00  0.00     0.029 A 
ATOM     44  N   UNL A   1      44.478  23.839  28.234  1.00  0.00    -0.354 N 
ATOM     45  N   UNL A   1      46.352  27.810  29.741  1.00  0.00    -0.248 NA
ATOM     46  C   UNL A   1      45.841  26.969  31.881  1.00  0.00     0.031 C 
ATOM     47  C   UNL A   1      44.584  24.109  30.417  1.00  0.00     0.029 A 
ATOM     48  C   UNL A   1      45.082  24.593  29.199  1.00  0.00     0.049 A 
ATOM     49  H   UNL A   1      44.740  23.785  27.287  1.00  0.00     0.167 HD
ATOM     50  C   UNL A   1      46.455  26.444  29.771  1.00  0.00     0.074 A 
ATOM     51  C   UNL A   1      46.511  26.070  31.165  1.00  0.00     0.031 C 
ATOM     52  C   UNL A   1      45.861  25.732  28.777  1.00  0.00     0.034 A 
BRANCH  39  53
ATOM     53  C   UNL A   1      42.454  21.797  27.005  1.00  0.00     0.023 A 
ATOM     54  C   UNL A   1      41.611  20.672  27.258  1.00  0.00     0.012 A 
ATOM     55  C   UNL A   1      43.509  21.611  26.098  1.00  0.00     0.148 A 
ATOM     56  C   UNL A   1      41.887  19.400  26.765  1.00  0.00     0.002 A 
ATOM     57  C   UNL A   1      43.744  20.343  25.555  1.00  0.00     0.091 A 
ATOM     58  F   UNL A   1      44.334  22.624  25.824  1.00  0.00    -0.205 F 
ATOM     59  C   UNL A   1      42.968  19.233  25.922  1.00  0.00     0.022 A 
BRANCH  57  60
ATOM     60  S   UNL A   1      45.049  20.029  24.361  1.00  0.00     0.127 S 
ATOM     61  O   UNL A   1      44.908  18.594  24.127  1.00  0.00    -0.237 OA
ATOM     62  O   UNL A   1      44.636  20.870  23.235  1.00  0.00    -0.237 OA
ATOM     63  O   UNL A   1      46.281  20.465  25.005  1.00  0.00    -0.744 OA
ENDBRANCH  57  60
ENDBRANCH  39  53
BRANCH  40  64
ATOM     64  C   UNL A   1      45.871  30.241  32.127  1.00  0.00     0.023 A 
ATOM     65  C   UNL A   1      47.087  30.848  31.792  1.00  0.00     0.012 A 
ATOM     66  C   UNL A   1      45.335  30.610  33.406  1.00  0.00     0.148 A 
ATOM     67  C   UNL A   1      47.681  31.816  32.635  1.00  0.00     0.002 A 
ATOM     68  C   UNL A   1      45.849  31.647  34.173  1.00  0.00     0.091 A 
ATOM     69  F   UNL A   1      44.325  29.917  33.935  1.00  0.00    -0.205 F 
ATOM     70  C   UNL A   1      47.043  32.248  33.801  1.00  0.00     0.022 A 
BRANCH  68  71
ATOM     71  S   UNL A   1      44.938  32.330  35.578  1.00  0.00     0.127 S 
ATOM     72  O   UNL A   1      43.686  32.763  34.961  1.00  0.00    -0.237 OA
ATOM     73  O   UNL A   1      44.822  31.156  36.444  1.00  0.00    -0.237 OA
ATOM     74  O   UNL A   1      45.758  33.403  36.125  1.00  0.00    -0.744 OA
ENDBRANCH  68  71
ENDBRANCH  40  64
BRANCH  52  75
ATOM     75  C   UNL A   1      45.809  26.457  27.434  1.00  0.00     0.023 A 
ATOM     76  C   UNL A   1      44.543  26.913  27.008  1.00  0.00     0.012 A 
ATOM     77  C   UNL A   1      46.885  26.592  26.523  1.00  0.00     0.148 A 
ATOM     78  C   UNL A   1      44.341  27.451  25.734  1.00  0.00     0.002 A 
ATOM     79  C   UNL A   1      46.680  27.121  25.242  1.00  0.00     0.091 A 
ATOM     80  F   UNL A   1      48.099  26.196  26.905  1.00  0.00    -0.205 F 
ATOM     81  C   UNL A   1      45.406  27.551  24.850  1.00  0.00     0.022 A 
BRANCH  79  82
ATOM     82  S   UNL A   1      47.967  27.245  23.982  1.00  0.00     0.127 S 
ATOM     83  O   UNL A   1      48.214  25.843  23.640  1.00  0.00    -0.237 OA
ATOM     84  O   UNL A   1      47.298  28.005  22.929  1.00  0.00    -0.237 OA
ATOM     85  O   UNL A   1      49.099  27.915  24.610  1.00  0.00    -0.744 OA
ENDBRANCH  79  82
ENDBRANCH  52  75
ENDBRANCH  26  27
ENDBRANCH  19  21
ENDBRANCH  18  19
ENDBRANCH   1  18
TORSDOF 16
ENDMDL
