MODEL 1
REMARK VINA RESULT:     -11.6      0.000      0.000
REMARK SMILES O=C(OCCOC(=O)c1nn(Cc2ccc(F)cc2)c2ccccc12)c1ccc(-c2c3nc(c(-c4cccc(S(=O)(=O)[O-])c4F)c4ccc([nH]4)c(-c4cccc(S(=O)(=O)[O-])c4F)c4nc(c(-c5cccc(S(=O)(=O)[O-])c5F)c5ccc2[nH]5)C=C4)C=C3)cc1
REMARK SMILES IDX 4 1 3 2 2 3 1 4 26 5 27 6 88 7 28 8 87 9 29 10 30 11 31 12
REMARK SMILES IDX 81 13 32 14 86 15 80 16 82 17 33 18 85 19 79 20 78 21 34 23
REMARK SMILES IDX 66 24 46 25 65 26 47 27 50 28 64 29 83 30 48 31 49 32 63 34
REMARK SMILES IDX 84 35 51 36 35 37 36 38 44 39 37 40 39 41 45 42 38 43 40 44
REMARK SMILES IDX 41 45 42 46 43 47 67 48 68 49 76 50 69 51 71 52 77 53 70 54
REMARK SMILES IDX 72 55 73 56 74 57 75 58 52 59 53 60 61 61 54 62 56 63 62 64
REMARK SMILES IDX 55 65 57 66 58 67 59 68 60 69 5 70 6 71 7 72 8 73 9 74 10 75
REMARK SMILES IDX 25 76 11 77 20 78 24 79 21 80 23 81 22 82 12 83 13 84 14 85
REMARK SMILES IDX 19 86 15 87 18 88 16 89 17 90
REMARK H PARENT 82 22 50 33
REMARK Flexibility Score: inf
ROOT
ATOM      1  C   UNL A   1      33.744  31.536  28.013  1.00  0.00     0.275 C 
ENDROOT
BRANCH   1   2
ATOM      2  O   UNL A   1      35.133  31.156  27.816  1.00  0.00    -0.458 OA
BRANCH   2   3
ATOM      3  C   UNL A   1      35.628  29.882  27.813  1.00  0.00     0.338 C 
ATOM      4  O   UNL A   1      34.949  28.918  27.480  1.00  0.00    -0.246 OA
BRANCH   3   5
ATOM      5  C   UNL A   1      36.974  29.683  28.378  1.00  0.00     0.060 A 
ATOM      6  C   UNL A   1      38.054  30.079  27.591  1.00  0.00     0.016 A 
ATOM      7  C   UNL A   1      37.170  28.942  29.542  1.00  0.00     0.016 A 
ATOM      8  C   UNL A   1      39.283  29.478  27.806  1.00  0.00     0.010 A 
ATOM      9  C   UNL A   1      38.404  28.338  29.751  1.00  0.00     0.010 A 
ATOM     10  C   UNL A   1      39.425  28.510  28.811  1.00  0.00    -0.014 A 
BRANCH  10  11
ATOM     11  C   UNL A   1      40.692  27.765  28.873  1.00  0.00     0.031 A 
ATOM     12  C   UNL A   1      41.485  27.979  30.117  1.00  0.00     0.074 A 
ATOM     13  C   UNL A   1      41.079  26.851  27.957  1.00  0.00     0.049 A 
ATOM     14  N   UNL A   1      42.737  28.297  30.248  1.00  0.00    -0.248 NA
ATOM     15  C   UNL A   1      40.730  27.916  31.378  1.00  0.00     0.031 C 
ATOM     16  C   UNL A   1      40.304  26.365  26.813  1.00  0.00     0.029 A 
ATOM     17  N   UNL A   1      42.180  26.032  27.959  1.00  0.00    -0.354 N 
ATOM     18  C   UNL A   1      42.958  28.312  31.621  1.00  0.00     0.074 A 
ATOM     19  C   UNL A   1      41.671  28.217  32.266  1.00  0.00     0.031 C 
ATOM     20  C   UNL A   1      40.803  25.175  26.420  1.00  0.00     0.029 A 
ATOM     21  C   UNL A   1      41.974  24.868  27.221  1.00  0.00     0.049 A 
ATOM     22  H   UNL A   1      43.021  26.244  28.427  1.00  0.00     0.167 HD
ATOM     23  C   UNL A   1      44.175  28.159  32.203  1.00  0.00     0.034 A 
ATOM     24  C   UNL A   1      42.628  23.690  27.367  1.00  0.00     0.034 A 
ATOM     25  C   UNL A   1      45.289  28.291  31.327  1.00  0.00     0.049 A 
ATOM     26  C   UNL A   1      43.918  23.965  28.040  1.00  0.00     0.074 A 
ATOM     27  C   UNL A   1      45.952  29.312  30.688  1.00  0.00     0.029 A 
ATOM     28  N   UNL A   1      45.758  27.116  30.804  1.00  0.00    -0.354 N 
ATOM     29  N   UNL A   1      44.906  24.626  27.505  1.00  0.00    -0.248 NA
ATOM     30  C   UNL A   1      44.053  23.687  29.464  1.00  0.00     0.031 C 
ATOM     31  C   UNL A   1      46.602  28.713  29.570  1.00  0.00     0.029 A 
ATOM     32  C   UNL A   1      46.275  27.356  29.559  1.00  0.00     0.049 A 
ATOM     33  H   UNL A   1      45.729  26.240  31.250  1.00  0.00     0.167 HD
ATOM     34  C   UNL A   1      45.578  25.181  28.582  1.00  0.00     0.074 A 
ATOM     35  C   UNL A   1      45.127  24.428  29.741  1.00  0.00     0.031 C 
ATOM     36  C   UNL A   1      46.200  26.391  28.478  1.00  0.00     0.034 A 
BRANCH  23  37
ATOM     37  C   UNL A   1      44.290  27.482  33.533  1.00  0.00     0.023 A 
ATOM     38  C   UNL A   1      44.719  28.195  34.662  1.00  0.00     0.012 A 
ATOM     39  C   UNL A   1      44.139  26.081  33.647  1.00  0.00     0.148 A 
ATOM     40  C   UNL A   1      44.920  27.538  35.882  1.00  0.00     0.002 A 
ATOM     41  C   UNL A   1      44.248  25.452  34.876  1.00  0.00     0.091 A 
ATOM     42  F   UNL A   1      43.970  25.347  32.537  1.00  0.00    -0.205 F 
ATOM     43  C   UNL A   1      44.651  26.174  36.000  1.00  0.00     0.022 A 
BRANCH  41  44
ATOM     44  S   UNL A   1      43.778  23.731  35.044  1.00  0.00     0.127 S 
ATOM     45  O   UNL A   1      44.326  23.397  36.353  1.00  0.00    -0.237 OA
ATOM     46  O   UNL A   1      42.318  23.798  34.979  1.00  0.00    -0.237 OA
ATOM     47  O   UNL A   1      44.391  23.080  33.891  1.00  0.00    -0.744 OA
ENDBRANCH  41  44
ENDBRANCH  23  37
BRANCH  24  48
ATOM     48  C   UNL A   1      42.129  22.298  27.180  1.00  0.00     0.023 A 
ATOM     49  C   UNL A   1      40.752  22.038  27.357  1.00  0.00     0.012 A 
ATOM     50  C   UNL A   1      42.912  21.279  26.590  1.00  0.00     0.148 A 
ATOM     51  C   UNL A   1      40.173  20.839  26.918  1.00  0.00     0.002 A 
ATOM     52  C   UNL A   1      42.338  20.073  26.191  1.00  0.00     0.091 A 
ATOM     53  F   UNL A   1      44.202  21.511  26.317  1.00  0.00    -0.205 F 
ATOM     54  C   UNL A   1      40.965  19.857  26.333  1.00  0.00     0.022 A 
BRANCH  52  55
ATOM     55  S   UNL A   1      43.340  18.766  25.467  1.00  0.00     0.127 S 
ATOM     56  O   UNL A   1      44.582  18.858  26.237  1.00  0.00    -0.237 OA
ATOM     57  O   UNL A   1      42.538  17.578  25.735  1.00  0.00    -0.237 OA
ATOM     58  O   UNL A   1      43.489  19.138  24.063  1.00  0.00    -0.744 OA
ENDBRANCH  52  55
ENDBRANCH  24  48
BRANCH  36  59
ATOM     59  C   UNL A   1      46.543  26.894  27.101  1.00  0.00     0.023 A 
ATOM     60  C   UNL A   1      45.617  27.618  26.325  1.00  0.00     0.012 A 
ATOM     61  C   UNL A   1      47.868  26.771  26.648  1.00  0.00     0.148 A 
ATOM     62  C   UNL A   1      45.998  28.190  25.110  1.00  0.00     0.002 A 
ATOM     63  C   UNL A   1      48.257  27.383  25.461  1.00  0.00     0.091 A 
ATOM     64  F   UNL A   1      48.738  26.084  27.405  1.00  0.00    -0.205 F 
ATOM     65  C   UNL A   1      47.321  28.085  24.685  1.00  0.00     0.022 A 
BRANCH  63  66
ATOM     66  S   UNL A   1      49.969  27.404  24.922  1.00  0.00     0.127 S 
ATOM     67  O   UNL A   1      49.886  28.153  23.669  1.00  0.00    -0.237 OA
ATOM     68  O   UNL A   1      50.633  28.113  26.017  1.00  0.00    -0.237 OA
ATOM     69  O   UNL A   1      50.367  26.008  24.792  1.00  0.00    -0.744 OA
ENDBRANCH  63  66
ENDBRANCH  36  59
ENDBRANCH  10  11
ENDBRANCH   3   5
ENDBRANCH   2   3
ENDBRANCH   1   2
BRANCH   1  70
ATOM     70  C   UNL A   1      33.310  32.857  27.366  1.00  0.00     0.275 C 
BRANCH  70  71
ATOM     71  O   UNL A   1      33.988  33.976  27.933  1.00  0.00    -0.457 OA
BRANCH  71  72
ATOM     72  C   UNL A   1      33.316  34.708  28.870  1.00  0.00     0.359 C 
ATOM     73  O   UNL A   1      32.331  35.389  28.645  1.00  0.00    -0.244 OA
BRANCH  72  74
ATOM     74  C   UNL A   1      33.915  34.552  30.200  1.00  0.00     0.178 A 
ATOM     75  N   UNL A   1      34.557  33.421  30.560  1.00  0.00    -0.164 NA
ATOM     76  C   UNL A   1      33.917  35.508  31.252  1.00  0.00     0.035 A 
ATOM     77  N   UNL A   1      34.959  33.656  31.834  1.00  0.00    -0.260 N 
ATOM     78  C   UNL A   1      34.483  34.845  32.341  1.00  0.00     0.070 A 
ATOM     79  C   UNL A   1      33.494  36.843  31.407  1.00  0.00     0.013 A 
ATOM     80  C   UNL A   1      34.506  35.415  33.622  1.00  0.00     0.028 A 
ATOM     81  C   UNL A   1      33.644  37.464  32.652  1.00  0.00     0.001 A 
ATOM     82  C   UNL A   1      34.115  36.749  33.749  1.00  0.00     0.002 A 
BRANCH  77  83
ATOM     83  C   UNL A   1      35.659  32.590  32.552  1.00  0.00     0.180 C 
BRANCH  83  84
ATOM     84  C   UNL A   1      37.095  32.298  32.139  1.00  0.00    -0.026 A 
ATOM     85  C   UNL A   1      37.906  31.369  32.814  1.00  0.00     0.008 A 
ATOM     86  C   UNL A   1      37.597  32.846  30.942  1.00  0.00     0.008 A 
ATOM     87  C   UNL A   1      39.141  30.966  32.299  1.00  0.00     0.039 A 
ATOM     88  C   UNL A   1      38.836  32.446  30.426  1.00  0.00     0.039 A 
ATOM     89  C   UNL A   1      39.589  31.495  31.102  1.00  0.00     0.123 A 
ATOM     90  F   UNL A   1      40.750  31.073  30.582  1.00  0.00    -0.207 F 
ENDBRANCH  83  84
ENDBRANCH  77  83
ENDBRANCH  72  74
ENDBRANCH  71  72
ENDBRANCH  70  71
ENDBRANCH   1  70
TORSDOF 16
ENDMDL
MODEL 2
REMARK VINA RESULT:     -11.6      2.256      2.804
REMARK SMILES O=C(OCCOC(=O)c1nn(Cc2ccc(F)cc2)c2ccccc12)c1ccc(-c2c3nc(c(-c4cccc(S(=O)(=O)[O-])c4F)c4ccc([nH]4)c(-c4cccc(S(=O)(=O)[O-])c4F)c4nc(c(-c5cccc(S(=O)(=O)[O-])c5F)c5ccc2[nH]5)C=C4)C=C3)cc1
REMARK SMILES IDX 4 1 3 2 2 3 1 4 26 5 27 6 88 7 28 8 87 9 29 10 30 11 31 12
REMARK SMILES IDX 81 13 32 14 86 15 80 16 82 17 33 18 85 19 79 20 78 21 34 23
REMARK SMILES IDX 66 24 46 25 65 26 47 27 50 28 64 29 83 30 48 31 49 32 63 34
REMARK SMILES IDX 84 35 51 36 35 37 36 38 44 39 37 40 39 41 45 42 38 43 40 44
REMARK SMILES IDX 41 45 42 46 43 47 67 48 68 49 76 50 69 51 71 52 77 53 70 54
REMARK SMILES IDX 72 55 73 56 74 57 75 58 52 59 53 60 61 61 54 62 56 63 62 64
REMARK SMILES IDX 55 65 57 66 58 67 59 68 60 69 5 70 6 71 7 72 8 73 9 74 10 75
REMARK SMILES IDX 25 76 11 77 20 78 24 79 21 80 23 81 22 82 12 83 13 84 14 85
REMARK SMILES IDX 19 86 15 87 18 88 16 89 17 90
REMARK H PARENT 82 22 50 33
REMARK Flexibility Score: inf
ROOT
ATOM      1  C   UNL A   1      33.356  31.307  27.535  1.00  0.00     0.275 C 
ENDROOT
BRANCH   1   2
ATOM      2  O   UNL A   1      34.699  31.100  28.051  1.00  0.00    -0.458 OA
BRANCH   2   3
ATOM      3  C   UNL A   1      35.402  29.929  28.021  1.00  0.00     0.338 C 
ATOM      4  O   UNL A   1      34.954  28.911  27.508  1.00  0.00    -0.246 OA
BRANCH   3   5
ATOM      5  C   UNL A   1      36.670  29.888  28.771  1.00  0.00     0.060 A 
ATOM      6  C   UNL A   1      37.804  30.369  28.120  1.00  0.00     0.016 A 
ATOM      7  C   UNL A   1      36.774  29.207  29.983  1.00  0.00     0.016 A 
ATOM      8  C   UNL A   1      39.045  29.904  28.526  1.00  0.00     0.010 A 
ATOM      9  C   UNL A   1      38.020  28.740  30.383  1.00  0.00     0.010 A 
ATOM     10  C   UNL A   1      39.140  28.988  29.583  1.00  0.00    -0.014 A 
BRANCH  10  11
ATOM     11  C   UNL A   1      40.453  28.380  29.849  1.00  0.00     0.031 A 
ATOM     12  C   UNL A   1      40.873  28.392  31.279  1.00  0.00     0.074 A 
ATOM     13  C   UNL A   1      41.191  27.734  28.920  1.00  0.00     0.049 A 
ATOM     14  N   UNL A   1      41.988  28.799  31.804  1.00  0.00    -0.248 NA
ATOM     15  C   UNL A   1      39.849  27.976  32.251  1.00  0.00     0.031 C 
ATOM     16  C   UNL A   1      40.807  27.437  27.537  1.00  0.00     0.029 A 
ATOM     17  N   UNL A   1      42.371  27.051  29.069  1.00  0.00    -0.354 N 
ATOM     18  C   UNL A   1      41.859  28.532  33.163  1.00  0.00     0.074 A 
ATOM     19  C   UNL A   1      40.484  28.167  33.402  1.00  0.00     0.031 C 
ATOM     20  C   UNL A   1      41.566  26.420  27.081  1.00  0.00     0.029 A 
ATOM     21  C   UNL A   1      42.537  26.064  28.099  1.00  0.00     0.049 A 
ATOM     22  H   UNL A   1      43.028  27.238  29.780  1.00  0.00     0.167 HD
ATOM     23  C   UNL A   1      42.904  28.378  34.016  1.00  0.00     0.034 A 
ATOM     24  C   UNL A   1      43.311  24.955  28.196  1.00  0.00     0.034 A 
ATOM     25  C   UNL A   1      44.165  28.813  33.518  1.00  0.00     0.049 A 
ATOM     26  C   UNL A   1      44.336  25.203  29.235  1.00  0.00     0.074 A 
ATOM     27  C   UNL A   1      44.797  30.011  33.286  1.00  0.00     0.029 A 
ATOM     28  N   UNL A   1      44.926  27.836  32.933  1.00  0.00    -0.354 N 
ATOM     29  N   UNL A   1      45.310  26.063  29.123  1.00  0.00    -0.248 NA
ATOM     30  C   UNL A   1      44.158  24.633  30.564  1.00  0.00     0.031 C 
ATOM     31  C   UNL A   1      45.787  29.743  32.297  1.00  0.00     0.029 A 
ATOM     32  C   UNL A   1      45.689  28.396  31.944  1.00  0.00     0.049 A 
ATOM     33  H   UNL A   1      44.925  26.884  33.184  1.00  0.00     0.167 HD
ATOM     34  C   UNL A   1      45.602  26.431  30.426  1.00  0.00     0.074 A 
ATOM     35  C   UNL A   1      45.002  25.399  31.257  1.00  0.00     0.031 C 
ATOM     36  C   UNL A   1      46.034  27.691  30.724  1.00  0.00     0.034 A 
BRANCH  23  37
ATOM     37  C   UNL A   1      42.792  27.439  35.177  1.00  0.00     0.023 A 
ATOM     38  C   UNL A   1      41.716  26.546  35.271  1.00  0.00     0.012 A 
ATOM     39  C   UNL A   1      43.666  27.549  36.283  1.00  0.00     0.148 A 
ATOM     40  C   UNL A   1      41.562  25.738  36.404  1.00  0.00     0.002 A 
ATOM     41  C   UNL A   1      43.564  26.683  37.358  1.00  0.00     0.091 A 
ATOM     42  F   UNL A   1      44.550  28.559  36.322  1.00  0.00    -0.205 F 
ATOM     43  C   UNL A   1      42.504  25.780  37.432  1.00  0.00     0.022 A 
BRANCH  41  44
ATOM     44  S   UNL A   1      44.847  26.656  38.609  1.00  0.00     0.127 S 
ATOM     45  O   UNL A   1      44.666  27.952  39.252  1.00  0.00    -0.237 OA
ATOM     46  O   UNL A   1      44.467  25.500  39.422  1.00  0.00    -0.237 OA
ATOM     47  O   UNL A   1      46.080  26.466  37.851  1.00  0.00    -0.744 OA
ENDBRANCH  41  44
ENDBRANCH  23  37
BRANCH  24  48
ATOM     48  C   UNL A   1      43.096  23.596  27.624  1.00  0.00     0.023 A 
ATOM     49  C   UNL A   1      41.861  22.949  27.848  1.00  0.00     0.012 A 
ATOM     50  C   UNL A   1      43.961  23.027  26.660  1.00  0.00     0.148 A 
ATOM     51  C   UNL A   1      41.483  21.820  27.109  1.00  0.00     0.002 A 
ATOM     52  C   UNL A   1      43.597  21.881  25.956  1.00  0.00     0.091 A 
ATOM     53  F   UNL A   1      45.102  23.653  26.346  1.00  0.00    -0.205 F 
ATOM     54  C   UNL A   1      42.350  21.286  26.161  1.00  0.00     0.022 A 
BRANCH  52  55
ATOM     55  S   UNL A   1      44.711  21.143  24.751  1.00  0.00     0.127 S 
ATOM     56  O   UNL A   1      44.667  22.106  23.649  1.00  0.00    -0.237 OA
ATOM     57  O   UNL A   1      45.972  21.104  25.481  1.00  0.00    -0.237 OA
ATOM     58  O   UNL A   1      44.115  19.851  24.428  1.00  0.00    -0.744 OA
ENDBRANCH  52  55
ENDBRANCH  24  48
BRANCH  36  59
ATOM     59  C   UNL A   1      46.622  28.518  29.612  1.00  0.00     0.023 A 
ATOM     60  C   UNL A   1      47.961  28.365  29.203  1.00  0.00     0.012 A 
ATOM     61  C   UNL A   1      45.767  29.349  28.864  1.00  0.00     0.148 A 
ATOM     62  C   UNL A   1      48.445  29.045  28.084  1.00  0.00     0.002 A 
ATOM     63  C   UNL A   1      46.240  29.985  27.723  1.00  0.00     0.091 A 
ATOM     64  F   UNL A   1      44.493  29.475  29.265  1.00  0.00    -0.205 F 
ATOM     65  C   UNL A   1      47.582  29.843  27.335  1.00  0.00     0.022 A 
BRANCH  63  66
ATOM     66  S   UNL A   1      45.156  30.917  26.637  1.00  0.00     0.127 S 
ATOM     67  O   UNL A   1      44.801  32.065  27.470  1.00  0.00    -0.237 OA
ATOM     68  O   UNL A   1      46.034  31.227  25.508  1.00  0.00    -0.237 OA
ATOM     69  O   UNL A   1      44.055  30.021  26.304  1.00  0.00    -0.744 OA
ENDBRANCH  63  66
ENDBRANCH  36  59
ENDBRANCH  10  11
ENDBRANCH   3   5
ENDBRANCH   2   3
ENDBRANCH   1   2
BRANCH   1  70
ATOM     70  C   UNL A   1      32.905  32.768  27.399  1.00  0.00     0.275 C 
BRANCH  70  71
ATOM     71  O   UNL A   1      33.817  33.667  28.027  1.00  0.00    -0.457 OA
BRANCH  71  72
ATOM     72  C   UNL A   1      33.289  34.619  28.851  1.00  0.00     0.359 C 
ATOM     73  O   UNL A   1      32.459  35.446  28.516  1.00  0.00    -0.244 OA
BRANCH  72  74
ATOM     74  C   UNL A   1      33.830  34.509  30.210  1.00  0.00     0.178 A 
ATOM     75  N   UNL A   1      34.409  33.375  30.653  1.00  0.00    -0.164 NA
ATOM     76  C   UNL A   1      33.833  35.520  31.212  1.00  0.00     0.035 A 
ATOM     77  N   UNL A   1      34.772  33.660  31.928  1.00  0.00    -0.260 N 
ATOM     78  C   UNL A   1      34.328  34.892  32.355  1.00  0.00     0.070 A 
ATOM     79  C   UNL A   1      33.461  36.877  31.281  1.00  0.00     0.013 A 
ATOM     80  C   UNL A   1      34.327  35.527  33.605  1.00  0.00     0.028 A 
ATOM     81  C   UNL A   1      33.591  37.556  32.498  1.00  0.00     0.001 A 
ATOM     82  C   UNL A   1      33.990  36.881  33.647  1.00  0.00     0.002 A 
BRANCH  77  83
ATOM     83  C   UNL A   1      35.398  32.605  32.728  1.00  0.00     0.180 C 
BRANCH  83  84
ATOM     84  C   UNL A   1      36.832  32.229  32.382  1.00  0.00    -0.026 A 
ATOM     85  C   UNL A   1      37.486  32.704  31.232  1.00  0.00     0.008 A 
ATOM     86  C   UNL A   1      37.606  31.511  33.315  1.00  0.00     0.008 A 
ATOM     87  C   UNL A   1      38.858  32.517  31.039  1.00  0.00     0.039 A 
ATOM     88  C   UNL A   1      38.980  31.319  33.123  1.00  0.00     0.039 A 
ATOM     89  C   UNL A   1      39.596  31.840  31.993  1.00  0.00     0.123 A 
ATOM     90  F   UNL A   1      40.920  31.702  31.834  1.00  0.00    -0.207 F 
ENDBRANCH  83  84
ENDBRANCH  77  83
ENDBRANCH  72  74
ENDBRANCH  71  72
ENDBRANCH  70  71
ENDBRANCH   1  70
TORSDOF 16
ENDMDL
MODEL 3
REMARK VINA RESULT:     -11.6      4.976     12.118
REMARK SMILES O=C(OCCOC(=O)c1nn(Cc2ccc(F)cc2)c2ccccc12)c1ccc(-c2c3nc(c(-c4cccc(S(=O)(=O)[O-])c4F)c4ccc([nH]4)c(-c4cccc(S(=O)(=O)[O-])c4F)c4nc(c(-c5cccc(S(=O)(=O)[O-])c5F)c5ccc2[nH]5)C=C4)C=C3)cc1
REMARK SMILES IDX 4 1 3 2 2 3 1 4 26 5 27 6 88 7 28 8 87 9 29 10 30 11 31 12
REMARK SMILES IDX 81 13 32 14 86 15 80 16 82 17 33 18 85 19 79 20 78 21 34 23
REMARK SMILES IDX 66 24 46 25 65 26 47 27 50 28 64 29 83 30 48 31 49 32 63 34
REMARK SMILES IDX 84 35 51 36 35 37 36 38 44 39 37 40 39 41 45 42 38 43 40 44
REMARK SMILES IDX 41 45 42 46 43 47 67 48 68 49 76 50 69 51 71 52 77 53 70 54
REMARK SMILES IDX 72 55 73 56 74 57 75 58 52 59 53 60 61 61 54 62 56 63 62 64
REMARK SMILES IDX 55 65 57 66 58 67 59 68 60 69 5 70 6 71 7 72 8 73 9 74 10 75
REMARK SMILES IDX 25 76 11 77 20 78 24 79 21 80 23 81 22 82 12 83 13 84 14 85
REMARK SMILES IDX 19 86 15 87 18 88 16 89 17 90
REMARK H PARENT 82 22 50 33
REMARK Flexibility Score: inf
ROOT
ATOM      1  C   UNL A   1      43.732  22.350  24.767  1.00  0.00     0.275 C 
ENDROOT
BRANCH   1   2
ATOM      2  O   UNL A   1      43.175  23.685  24.620  1.00  0.00    -0.458 OA
BRANCH   2   3
ATOM      3  C   UNL A   1      43.701  24.838  25.128  1.00  0.00     0.338 C 
ATOM      4  O   UNL A   1      44.842  25.204  24.874  1.00  0.00    -0.246 OA
BRANCH   3   5
ATOM      5  C   UNL A   1      42.896  25.560  26.129  1.00  0.00     0.060 A 
ATOM      6  C   UNL A   1      41.839  26.332  25.652  1.00  0.00     0.016 A 
ATOM      7  C   UNL A   1      43.298  25.641  27.462  1.00  0.00     0.016 A 
ATOM      8  C   UNL A   1      41.396  27.393  26.424  1.00  0.00     0.010 A 
ATOM      9  C   UNL A   1      42.852  26.709  28.231  1.00  0.00     0.010 A 
ATOM     10  C   UNL A   1      41.993  27.656  27.666  1.00  0.00    -0.014 A 
BRANCH  10  11
ATOM     11  C   UNL A   1      41.621  28.901  28.357  1.00  0.00     0.031 A 
ATOM     12  C   UNL A   1      42.650  29.977  28.307  1.00  0.00     0.074 A 
ATOM     13  C   UNL A   1      40.403  29.136  28.892  1.00  0.00     0.049 A 
ATOM     14  N   UNL A   1      43.152  30.679  29.277  1.00  0.00    -0.248 NA
ATOM     15  C   UNL A   1      43.260  30.221  26.990  1.00  0.00     0.031 C 
ATOM     16  C   UNL A   1      39.223  28.272  28.813  1.00  0.00     0.029 A 
ATOM     17  N   UNL A   1      39.915  30.281  29.469  1.00  0.00    -0.354 N 
ATOM     18  C   UNL A   1      44.026  31.567  28.658  1.00  0.00     0.074 A 
ATOM     19  C   UNL A   1      44.164  31.150  27.284  1.00  0.00     0.031 C 
ATOM     20  C   UNL A   1      38.121  29.014  29.046  1.00  0.00     0.029 A 
ATOM     21  C   UNL A   1      38.526  30.368  29.375  1.00  0.00     0.049 A 
ATOM     22  H   UNL A   1      40.479  30.962  29.901  1.00  0.00     0.167 HD
ATOM     23  C   UNL A   1      44.426  32.748  29.196  1.00  0.00     0.034 A 
ATOM     24  C   UNL A   1      37.782  31.500  29.420  1.00  0.00     0.034 A 
ATOM     25  C   UNL A   1      44.153  32.908  30.584  1.00  0.00     0.049 A 
ATOM     26  C   UNL A   1      38.583  32.547  30.093  1.00  0.00     0.074 A 
ATOM     27  C   UNL A   1      44.658  32.432  31.771  1.00  0.00     0.029 A 
ATOM     28  N   UNL A   1      42.980  33.551  30.875  1.00  0.00    -0.354 N 
ATOM     29  N   UNL A   1      38.914  32.530  31.354  1.00  0.00    -0.248 NA
ATOM     30  C   UNL A   1      39.245  33.566  29.289  1.00  0.00     0.031 C 
ATOM     31  C   UNL A   1      43.601  32.555  32.720  1.00  0.00     0.029 A 
ATOM     32  C   UNL A   1      42.486  33.069  32.057  1.00  0.00     0.049 A 
ATOM     33  H   UNL A   1      42.559  34.249  30.323  1.00  0.00     0.167 HD
ATOM     34  C   UNL A   1      40.093  33.254  31.415  1.00  0.00     0.074 A 
ATOM     35  C   UNL A   1      40.142  34.007  30.172  1.00  0.00     0.031 C 
ATOM     36  C   UNL A   1      41.065  32.945  32.322  1.00  0.00     0.034 A 
BRANCH  23  37
ATOM     37  C   UNL A   1      44.716  33.917  28.307  1.00  0.00     0.023 A 
ATOM     38  C   UNL A   1      43.671  34.688  27.780  1.00  0.00     0.012 A 
ATOM     39  C   UNL A   1      46.028  34.164  27.841  1.00  0.00     0.148 A 
ATOM     40  C   UNL A   1      43.939  35.720  26.872  1.00  0.00     0.002 A 
ATOM     41  C   UNL A   1      46.298  35.243  27.017  1.00  0.00     0.091 A 
ATOM     42  F   UNL A   1      47.004  33.291  28.137  1.00  0.00    -0.205 F 
ATOM     43  C   UNL A   1      45.254  36.022  26.517  1.00  0.00     0.022 A 
BRANCH  41  44
ATOM     44  S   UNL A   1      47.996  35.700  26.670  1.00  0.00     0.127 S 
ATOM     45  O   UNL A   1      47.827  36.726  25.648  1.00  0.00    -0.237 OA
ATOM     46  O   UNL A   1      48.461  36.186  27.969  1.00  0.00    -0.237 OA
ATOM     47  O   UNL A   1      48.622  34.451  26.249  1.00  0.00    -0.744 OA
ENDBRANCH  41  44
ENDBRANCH  23  37
BRANCH  24  48
ATOM     48  C   UNL A   1      36.508  31.825  28.716  1.00  0.00     0.023 A 
ATOM     49  C   UNL A   1      35.894  30.831  27.924  1.00  0.00     0.012 A 
ATOM     50  C   UNL A   1      35.753  32.986  29.003  1.00  0.00     0.148 A 
ATOM     51  C   UNL A   1      34.571  30.965  27.481  1.00  0.00     0.002 A 
ATOM     52  C   UNL A   1      34.451  33.131  28.527  1.00  0.00     0.091 A 
ATOM     53  F   UNL A   1      36.256  33.916  29.824  1.00  0.00    -0.205 F 
ATOM     54  C   UNL A   1      33.848  32.114  27.784  1.00  0.00     0.022 A 
BRANCH  52  55
ATOM     55  S   UNL A   1      33.503  34.622  28.867  1.00  0.00     0.127 S 
ATOM     56  O   UNL A   1      32.299  34.421  28.059  1.00  0.00    -0.237 OA
ATOM     57  O   UNL A   1      33.296  34.533  30.308  1.00  0.00    -0.237 OA
ATOM     58  O   UNL A   1      34.346  35.720  28.405  1.00  0.00    -0.744 OA
ENDBRANCH  52  55
ENDBRANCH  24  48
BRANCH  36  59
ATOM     59  C   UNL A   1      40.673  32.136  33.530  1.00  0.00     0.023 A 
ATOM     60  C   UNL A   1      41.032  30.781  33.662  1.00  0.00     0.012 A 
ATOM     61  C   UNL A   1      40.072  32.795  34.617  1.00  0.00     0.148 A 
ATOM     62  C   UNL A   1      40.775  30.089  34.847  1.00  0.00     0.002 A 
ATOM     63  C   UNL A   1      39.862  32.117  35.812  1.00  0.00     0.091 A 
ATOM     64  F   UNL A   1      39.745  34.089  34.474  1.00  0.00    -0.205 F 
ATOM     65  C   UNL A   1      40.204  30.760  35.927  1.00  0.00     0.022 A 
BRANCH  63  66
ATOM     66  S   UNL A   1      39.259  32.950  37.284  1.00  0.00     0.127 S 
ATOM     67  O   UNL A   1      40.455  33.644  37.755  1.00  0.00    -0.237 OA
ATOM     68  O   UNL A   1      38.216  33.823  36.743  1.00  0.00    -0.237 OA
ATOM     69  O   UNL A   1      38.757  31.900  38.161  1.00  0.00    -0.744 OA
ENDBRANCH  63  66
ENDBRANCH  36  59
ENDBRANCH  10  11
ENDBRANCH   3   5
ENDBRANCH   2   3
ENDBRANCH   1   2
BRANCH   1  70
ATOM     70  C   UNL A   1      43.296  21.573  26.016  1.00  0.00     0.275 C 
BRANCH  70  71
ATOM     71  O   UNL A   1      42.313  20.586  25.713  1.00  0.00    -0.457 OA
BRANCH  71  72
ATOM     72  C   UNL A   1      41.325  20.383  26.633  1.00  0.00     0.359 C 
ATOM     73  O   UNL A   1      41.403  19.621  27.581  1.00  0.00    -0.244 OA
BRANCH  72  74
ATOM     74  C   UNL A   1      40.154  21.222  26.355  1.00  0.00     0.178 A 
ATOM     75  N   UNL A   1      39.188  20.829  25.499  1.00  0.00    -0.164 NA
ATOM     76  C   UNL A   1      39.868  22.499  26.911  1.00  0.00     0.035 A 
ATOM     77  N   UNL A   1      38.298  21.852  25.507  1.00  0.00    -0.260 N 
ATOM     78  C   UNL A   1      38.728  22.938  26.238  1.00  0.00     0.070 A 
ATOM     79  C   UNL A   1      40.451  23.331  27.888  1.00  0.00     0.013 A 
ATOM     80  C   UNL A   1      38.232  24.240  26.397  1.00  0.00     0.028 A 
ATOM     81  C   UNL A   1      39.874  24.578  28.150  1.00  0.00     0.001 A 
ATOM     82  C   UNL A   1      38.799  25.036  27.394  1.00  0.00     0.002 A 
BRANCH  77  83
ATOM     83  C   UNL A   1      37.129  21.766  24.631  1.00  0.00     0.180 C 
BRANCH  83  84
ATOM     84  C   UNL A   1      35.785  22.169  25.223  1.00  0.00    -0.026 A 
ATOM     85  C   UNL A   1      35.371  21.772  26.507  1.00  0.00     0.008 A 
ATOM     86  C   UNL A   1      34.980  23.105  24.545  1.00  0.00     0.008 A 
ATOM     87  C   UNL A   1      34.235  22.317  27.111  1.00  0.00     0.039 A 
ATOM     88  C   UNL A   1      33.839  23.650  25.147  1.00  0.00     0.039 A 
ATOM     89  C   UNL A   1      33.487  23.263  26.432  1.00  0.00     0.123 A 
ATOM     90  F   UNL A   1      32.425  23.822  27.029  1.00  0.00    -0.207 F 
ENDBRANCH  83  84
ENDBRANCH  77  83
ENDBRANCH  72  74
ENDBRANCH  71  72
ENDBRANCH  70  71
ENDBRANCH   1  70
TORSDOF 16
ENDMDL
