MODEL 1
REMARK VINA RESULT:     -10.7      0.000      0.000
REMARK SMILES CC[C@H](C)CN(CC)c1nc(C(=O)OCCOC(=O)c2ccc(-c3c4nc(c(-c5cccc(S(=O)(=O)[O-])c5F)c5ccc([nH]5)c(-c5cccc(S(=O)(=O)[O-])c5F)c5nc(c(-c6cccc(S(=O)(=O)[O-])c6F)c6ccc3[nH]6)C=C5)C=C4)cc2)cc2ccccc12
REMARK SMILES IDX 15 1 14 2 12 3 13 4 11 5 9 6 10 7 89 8 84 9 88 10 83 11
REMARK SMILES IDX 85 12 87 13 86 14 6 15 5 16 3 17 4 18 2 19 1 20 7 21 8 22
REMARK SMILES IDX 16 23 17 24 18 25 19 26 20 27 21 28 82 29 22 30 81 31 23 32
REMARK SMILES IDX 24 33 25 34 75 35 26 36 80 37 74 38 76 39 27 40 79 41 73 42
REMARK SMILES IDX 72 43 28 45 60 46 40 47 59 48 41 49 44 50 58 51 77 52 42 53
REMARK SMILES IDX 43 54 57 56 78 57 45 58 29 59 30 60 38 61 31 62 33 63 39 64
REMARK SMILES IDX 32 65 34 66 35 67 36 68 37 69 61 70 62 71 70 72 63 73 65 74
REMARK SMILES IDX 71 75 64 76 66 77 67 78 68 79 69 80 46 81 47 82 55 83 48 84
REMARK SMILES IDX 50 85 56 86 49 87 51 88 52 89 53 90 54 91
REMARK H PARENT 76 44 44 55
REMARK Flexibility Score: inf
ROOT
ATOM      1  C   UNL A   1      32.421  28.733  23.629  1.00  0.00     0.275 C 
ENDROOT
BRANCH   1   2
ATOM      2  O   UNL A   1      33.654  27.986  23.695  1.00  0.00    -0.457 OA
BRANCH   2   3
ATOM      3  C   UNL A   1      33.659  26.852  22.946  1.00  0.00     0.357 C 
ATOM      4  O   UNL A   1      33.825  26.793  21.741  1.00  0.00    -0.244 OA
BRANCH   3   5
ATOM      5  C   UNL A   1      33.481  25.621  23.762  1.00  0.00     0.151 A 
ATOM      6  C   UNL A   1      34.320  24.222  25.396  1.00  0.00     0.137 A 
ATOM      7  N   UNL A   1      34.553  25.118  24.409  1.00  0.00    -0.223 NA
ATOM      8  C   UNL A   1      32.995  23.891  25.818  1.00  0.00     0.024 A 
ATOM      9  C   UNL A   1      31.932  24.282  24.989  1.00  0.00    -0.012 A 
ATOM     10  C   UNL A   1      32.648  23.194  27.000  1.00  0.00     0.012 A 
ATOM     11  C   UNL A   1      32.188  25.171  23.960  1.00  0.00     0.045 A 
ATOM     12  C   UNL A   1      30.626  23.819  25.216  1.00  0.00     0.009 A 
ATOM     13  C   UNL A   1      31.343  22.756  27.243  1.00  0.00     0.001 A 
ATOM     14  C   UNL A   1      30.339  23.032  26.326  1.00  0.00     0.001 A 
BRANCH   6  15
ATOM     15  N   UNL A   1      35.428  23.540  25.929  1.00  0.00    -0.356 N 
BRANCH  15  16
ATOM     16  C   UNL A   1      35.181  22.114  26.279  1.00  0.00     0.121 C 
BRANCH  16  17
ATOM     17  C   UNL A   1      35.161  21.174  25.050  1.00  0.00     0.005 C 
ATOM     18  C   UNL A   1      36.423  20.299  24.997  1.00  0.00     0.009 C 
BRANCH  17  19
ATOM     19  C   UNL A   1      33.900  20.291  24.969  1.00  0.00     0.002 C 
ATOM     20  C   UNL A   1      32.911  20.833  23.937  1.00  0.00     0.004 C 
ENDBRANCH  17  19
ENDBRANCH  16  17
ENDBRANCH  15  16
BRANCH  15  21
ATOM     21  C   UNL A   1      36.723  23.850  25.303  1.00  0.00     0.114 C 
ATOM     22  C   UNL A   1      37.878  24.070  26.276  1.00  0.00     0.027 C 
ENDBRANCH  15  21
ENDBRANCH   6  15
ENDBRANCH   3   5
ENDBRANCH   2   3
ENDBRANCH   1   2
BRANCH   1  23
ATOM     23  C   UNL A   1      32.147  29.494  24.927  1.00  0.00     0.275 C 
BRANCH  23  24
ATOM     24  O   UNL A   1      33.376  29.794  25.615  1.00  0.00    -0.458 OA
BRANCH  24  25
ATOM     25  C   UNL A   1      33.293  30.748  26.568  1.00  0.00     0.338 C 
ATOM     26  O   UNL A   1      32.421  31.599  26.686  1.00  0.00    -0.246 OA
BRANCH  25  27
ATOM     27  C   UNL A   1      34.396  30.623  27.535  1.00  0.00     0.060 A 
ATOM     28  C   UNL A   1      35.321  31.653  27.650  1.00  0.00     0.016 A 
ATOM     29  C   UNL A   1      34.628  29.413  28.186  1.00  0.00     0.016 A 
ATOM     30  C   UNL A   1      36.554  31.422  28.257  1.00  0.00     0.010 A 
ATOM     31  C   UNL A   1      35.799  29.245  28.939  1.00  0.00     0.010 A 
ATOM     32  C   UNL A   1      36.808  30.224  28.938  1.00  0.00    -0.014 A 
BRANCH  32  33
ATOM     33  C   UNL A   1      38.113  30.000  29.637  1.00  0.00     0.031 A 
ATOM     34  C   UNL A   1      39.181  29.123  29.018  1.00  0.00     0.074 A 
ATOM     35  C   UNL A   1      38.350  30.562  30.842  1.00  0.00     0.049 A 
ATOM     36  N   UNL A   1      40.272  28.644  29.560  1.00  0.00    -0.248 NA
ATOM     37  C   UNL A   1      38.985  28.713  27.618  1.00  0.00     0.031 C 
ATOM     38  C   UNL A   1      37.426  31.436  31.569  1.00  0.00     0.029 A 
ATOM     39  N   UNL A   1      39.440  30.478  31.679  1.00  0.00    -0.354 N 
ATOM     40  C   UNL A   1      40.837  27.801  28.607  1.00  0.00     0.074 A 
ATOM     41  C   UNL A   1      39.979  27.851  27.442  1.00  0.00     0.031 C 
ATOM     42  C   UNL A   1      37.998  31.842  32.710  1.00  0.00     0.029 A 
ATOM     43  C   UNL A   1      39.283  31.173  32.858  1.00  0.00     0.049 A 
ATOM     44  H   UNL A   1      40.254  29.971  31.455  1.00  0.00     0.167 HD
ATOM     45  C   UNL A   1      41.968  27.058  28.689  1.00  0.00     0.034 A 
ATOM     46  C   UNL A   1      40.048  31.229  33.966  1.00  0.00     0.034 A 
ATOM     47  C   UNL A   1      42.874  27.089  29.808  1.00  0.00     0.049 A 
ATOM     48  C   UNL A   1      41.317  30.429  34.017  1.00  0.00     0.074 A 
ATOM     49  C   UNL A   1      44.069  26.409  29.963  1.00  0.00     0.029 A 
ATOM     50  N   UNL A   1      42.698  27.853  30.950  1.00  0.00    -0.354 N 
ATOM     51  N   UNL A   1      41.840  29.658  33.096  1.00  0.00    -0.248 NA
ATOM     52  C   UNL A   1      42.103  30.507  35.257  1.00  0.00     0.031 C 
ATOM     53  C   UNL A   1      44.615  26.758  31.203  1.00  0.00     0.029 A 
ATOM     54  C   UNL A   1      43.766  27.667  31.812  1.00  0.00     0.049 A 
ATOM     55  H   UNL A   1      41.927  28.440  31.124  1.00  0.00     0.167 HD
ATOM     56  C   UNL A   1      43.026  29.175  33.634  1.00  0.00     0.074 A 
ATOM     57  C   UNL A   1      43.157  29.762  34.952  1.00  0.00     0.031 C 
ATOM     58  C   UNL A   1      43.914  28.306  33.095  1.00  0.00     0.034 A 
BRANCH  45  59
ATOM     59  C   UNL A   1      42.316  26.162  27.528  1.00  0.00     0.023 A 
ATOM     60  C   UNL A   1      43.086  26.661  26.459  1.00  0.00     0.012 A 
ATOM     61  C   UNL A   1      41.944  24.801  27.534  1.00  0.00     0.148 A 
ATOM     62  C   UNL A   1      43.456  25.829  25.402  1.00  0.00     0.002 A 
ATOM     63  C   UNL A   1      42.351  23.968  26.497  1.00  0.00     0.091 A 
ATOM     64  F   UNL A   1      41.195  24.346  28.549  1.00  0.00    -0.205 F 
ATOM     65  C   UNL A   1      43.099  24.482  25.426  1.00  0.00     0.022 A 
BRANCH  63  66
ATOM     66  S   UNL A   1      42.010  22.204  26.484  1.00  0.00     0.127 S 
ATOM     67  O   UNL A   1      42.517  21.796  27.794  1.00  0.00    -0.237 OA
ATOM     68  O   UNL A   1      40.552  22.169  26.357  1.00  0.00    -0.237 OA
ATOM     69  O   UNL A   1      42.729  21.667  25.338  1.00  0.00    -0.744 OA
ENDBRANCH  63  66
ENDBRANCH  45  59
BRANCH  46  70
ATOM     70  C   UNL A   1      39.629  32.088  35.111  1.00  0.00     0.023 A 
ATOM     71  C   UNL A   1      39.876  33.473  35.065  1.00  0.00     0.012 A 
ATOM     72  C   UNL A   1      38.926  31.554  36.209  1.00  0.00     0.148 A 
ATOM     73  C   UNL A   1      39.443  34.307  36.095  1.00  0.00     0.002 A 
ATOM     74  C   UNL A   1      38.438  32.399  37.198  1.00  0.00     0.091 A 
ATOM     75  F   UNL A   1      38.722  30.230  36.252  1.00  0.00    -0.205 F 
ATOM     76  C   UNL A   1      38.710  33.775  37.153  1.00  0.00     0.022 A 
BRANCH  74  77
ATOM     77  S   UNL A   1      37.347  31.809  38.498  1.00  0.00     0.127 S 
ATOM     78  O   UNL A   1      38.175  31.984  39.689  1.00  0.00    -0.237 OA
ATOM     79  O   UNL A   1      36.216  32.731  38.393  1.00  0.00    -0.237 OA
ATOM     80  O   UNL A   1      37.028  30.434  38.138  1.00  0.00    -0.744 OA
ENDBRANCH  74  77
ENDBRANCH  46  70
BRANCH  58  81
ATOM     81  C   UNL A   1      45.131  27.961  33.907  1.00  0.00     0.023 A 
ATOM     82  C   UNL A   1      46.323  28.687  33.721  1.00  0.00     0.012 A 
ATOM     83  C   UNL A   1      45.070  26.971  34.907  1.00  0.00     0.148 A 
ATOM     84  C   UNL A   1      47.445  28.415  34.501  1.00  0.00     0.002 A 
ATOM     85  C   UNL A   1      46.178  26.734  35.709  1.00  0.00     0.091 A 
ATOM     86  F   UNL A   1      43.931  26.277  35.051  1.00  0.00    -0.205 F 
ATOM     87  C   UNL A   1      47.370  27.448  35.502  1.00  0.00     0.022 A 
BRANCH  85  88
ATOM     88  S   UNL A   1      46.142  25.570  37.077  1.00  0.00     0.127 S 
ATOM     89  O   UNL A   1      45.040  26.090  37.882  1.00  0.00    -0.237 OA
ATOM     90  O   UNL A   1      45.860  24.303  36.401  1.00  0.00    -0.237 OA
ATOM     91  O   UNL A   1      47.459  25.642  37.697  1.00  0.00    -0.744 OA
ENDBRANCH  85  88
ENDBRANCH  58  81
ENDBRANCH  32  33
ENDBRANCH  25  27
ENDBRANCH  24  25
ENDBRANCH  23  24
ENDBRANCH   1  23
TORSDOF 19
ENDMDL
MODEL 2
REMARK VINA RESULT:     -10.3      5.395      8.243
REMARK SMILES CC[C@H](C)CN(CC)c1nc(C(=O)OCCOC(=O)c2ccc(-c3c4nc(c(-c5cccc(S(=O)(=O)[O-])c5F)c5ccc([nH]5)c(-c5cccc(S(=O)(=O)[O-])c5F)c5nc(c(-c6cccc(S(=O)(=O)[O-])c6F)c6ccc3[nH]6)C=C5)C=C4)cc2)cc2ccccc12
REMARK SMILES IDX 15 1 14 2 12 3 13 4 11 5 9 6 10 7 89 8 84 9 88 10 83 11
REMARK SMILES IDX 85 12 87 13 86 14 6 15 5 16 3 17 4 18 2 19 1 20 7 21 8 22
REMARK SMILES IDX 16 23 17 24 18 25 19 26 20 27 21 28 82 29 22 30 81 31 23 32
REMARK SMILES IDX 24 33 25 34 75 35 26 36 80 37 74 38 76 39 27 40 79 41 73 42
REMARK SMILES IDX 72 43 28 45 60 46 40 47 59 48 41 49 44 50 58 51 77 52 42 53
REMARK SMILES IDX 43 54 57 56 78 57 45 58 29 59 30 60 38 61 31 62 33 63 39 64
REMARK SMILES IDX 32 65 34 66 35 67 36 68 37 69 61 70 62 71 70 72 63 73 65 74
REMARK SMILES IDX 71 75 64 76 66 77 67 78 68 79 69 80 46 81 47 82 55 83 48 84
REMARK SMILES IDX 50 85 56 86 49 87 51 88 52 89 53 90 54 91
REMARK H PARENT 76 44 44 55
REMARK Flexibility Score: inf
ROOT
ATOM      1  C   UNL A   1      38.769  21.681  25.762  1.00  0.00     0.275 C 
ENDROOT
BRANCH   1   2
ATOM      2  O   UNL A   1      37.382  21.812  26.140  1.00  0.00    -0.457 OA
BRANCH   2   3
ATOM      3  C   UNL A   1      36.672  22.672  25.363  1.00  0.00     0.357 C 
ATOM      4  O   UNL A   1      37.070  23.738  24.931  1.00  0.00    -0.244 OA
BRANCH   3   5
ATOM      5  C   UNL A   1      35.316  22.161  25.028  1.00  0.00     0.151 A 
ATOM      6  C   UNL A   1      33.364  22.440  23.826  1.00  0.00     0.137 A 
ATOM      7  N   UNL A   1      34.447  22.995  24.420  1.00  0.00    -0.223 NA
ATOM      8  C   UNL A   1      33.190  21.024  23.745  1.00  0.00     0.024 A 
ATOM      9  C   UNL A   1      34.006  20.222  24.557  1.00  0.00    -0.012 A 
ATOM     10  C   UNL A   1      32.259  20.346  22.922  1.00  0.00     0.012 A 
ATOM     11  C   UNL A   1      35.089  20.805  25.190  1.00  0.00     0.045 A 
ATOM     12  C   UNL A   1      33.762  18.846  24.698  1.00  0.00     0.009 A 
ATOM     13  C   UNL A   1      32.033  18.971  23.040  1.00  0.00     0.001 A 
ATOM     14  C   UNL A   1      32.757  18.228  23.962  1.00  0.00     0.001 A 
BRANCH   6  15
ATOM     15  N   UNL A   1      32.353  23.309  23.377  1.00  0.00    -0.356 N 
BRANCH  15  16
ATOM     16  C   UNL A   1      31.206  23.476  24.312  1.00  0.00     0.121 C 
BRANCH  16  17
ATOM     17  C   UNL A   1      31.604  24.112  25.666  1.00  0.00     0.005 C 
ATOM     18  C   UNL A   1      30.899  25.462  25.875  1.00  0.00     0.009 C 
BRANCH  17  19
ATOM     19  C   UNL A   1      31.356  23.191  26.876  1.00  0.00     0.002 C 
ATOM     20  C   UNL A   1      29.884  22.794  26.977  1.00  0.00     0.004 C 
ENDBRANCH  17  19
ENDBRANCH  16  17
ENDBRANCH  15  16
BRANCH  15  21
ATOM     21  C   UNL A   1      32.820  24.520  22.684  1.00  0.00     0.114 C 
ATOM     22  C   UNL A   1      31.720  25.483  22.248  1.00  0.00     0.027 C 
ENDBRANCH  15  21
ENDBRANCH   6  15
ENDBRANCH   3   5
ENDBRANCH   2   3
ENDBRANCH   1   2
BRANCH   1  23
ATOM     23  C   UNL A   1      39.136  20.231  25.445  1.00  0.00     0.275 C 
BRANCH  23  24
ATOM     24  O   UNL A   1      39.976  19.677  26.475  1.00  0.00    -0.458 OA
BRANCH  24  25
ATOM     25  C   UNL A   1      41.297  19.638  26.193  1.00  0.00     0.338 C 
ATOM     26  O   UNL A   1      41.931  18.686  25.757  1.00  0.00    -0.246 OA
BRANCH  25  27
ATOM     27  C   UNL A   1      41.924  20.949  26.429  1.00  0.00     0.060 A 
ATOM     28  C   UNL A   1      41.920  21.484  27.711  1.00  0.00     0.016 A 
ATOM     29  C   UNL A   1      42.343  21.734  25.357  1.00  0.00     0.016 A 
ATOM     30  C   UNL A   1      42.155  22.844  27.903  1.00  0.00     0.010 A 
ATOM     31  C   UNL A   1      42.742  23.058  25.582  1.00  0.00     0.010 A 
ATOM     32  C   UNL A   1      42.598  23.654  26.848  1.00  0.00    -0.014 A 
BRANCH  32  33
ATOM     33  C   UNL A   1      42.904  25.103  27.068  1.00  0.00     0.031 A 
ATOM     34  C   UNL A   1      44.200  25.703  26.567  1.00  0.00     0.074 A 
ATOM     35  C   UNL A   1      42.034  25.893  27.733  1.00  0.00     0.049 A 
ATOM     36  N   UNL A   1      44.732  26.868  26.843  1.00  0.00    -0.248 NA
ATOM     37  C   UNL A   1      45.016  24.881  25.658  1.00  0.00     0.031 C 
ATOM     38  C   UNL A   1      40.741  25.467  28.274  1.00  0.00     0.029 A 
ATOM     39  N   UNL A   1      42.107  27.223  28.081  1.00  0.00    -0.354 N 
ATOM     40  C   UNL A   1      45.981  26.876  26.228  1.00  0.00     0.074 A 
ATOM     41  C   UNL A   1      46.120  25.609  25.544  1.00  0.00     0.031 C 
ATOM     42  C   UNL A   1      40.126  26.514  28.838  1.00  0.00     0.029 A 
ATOM     43  C   UNL A   1      41.021  27.662  28.805  1.00  0.00     0.049 A 
ATOM     44  H   UNL A   1      42.862  27.805  27.833  1.00  0.00     0.167 HD
ATOM     45  C   UNL A   1      46.923  27.851  26.227  1.00  0.00     0.034 A 
ATOM     46  C   UNL A   1      40.782  28.833  29.428  1.00  0.00     0.034 A 
ATOM     47  C   UNL A   1      46.742  29.150  26.821  1.00  0.00     0.049 A 
ATOM     48  C   UNL A   1      41.825  29.911  29.378  1.00  0.00     0.074 A 
ATOM     49  C   UNL A   1      47.619  30.220  26.830  1.00  0.00     0.029 A 
ATOM     50  N   UNL A   1      45.602  29.563  27.491  1.00  0.00    -0.354 N 
ATOM     51  N   UNL A   1      42.986  29.905  28.772  1.00  0.00    -0.248 NA
ATOM     52  C   UNL A   1      41.524  31.161  30.093  1.00  0.00     0.031 C 
ATOM     53  C   UNL A   1      47.012  31.281  27.510  1.00  0.00     0.029 A 
ATOM     54  C   UNL A   1      45.749  30.875  27.912  1.00  0.00     0.049 A 
ATOM     55  H   UNL A   1      44.805  29.007  27.647  1.00  0.00     0.167 HD
ATOM     56  C   UNL A   1      43.547  31.151  29.014  1.00  0.00     0.074 A 
ATOM     57  C   UNL A   1      42.587  31.899  29.800  1.00  0.00     0.031 C 
ATOM     58  C   UNL A   1      44.759  31.626  28.639  1.00  0.00     0.034 A 
BRANCH  45  59
ATOM     59  C   UNL A   1      48.235  27.570  25.539  1.00  0.00     0.023 A 
ATOM     60  C   UNL A   1      49.338  27.110  26.286  1.00  0.00     0.012 A 
ATOM     61  C   UNL A   1      48.351  27.689  24.139  1.00  0.00     0.148 A 
ATOM     62  C   UNL A   1      50.543  26.801  25.655  1.00  0.00     0.002 A 
ATOM     63  C   UNL A   1      49.543  27.340  23.512  1.00  0.00     0.091 A 
ATOM     64  F   UNL A   1      47.299  28.147  23.445  1.00  0.00    -0.205 F 
ATOM     65  C   UNL A   1      50.643  26.905  24.269  1.00  0.00     0.022 A 
BRANCH  63  66
ATOM     66  S   UNL A   1      49.738  27.362  21.726  1.00  0.00     0.127 S 
ATOM     67  O   UNL A   1      49.688  28.796  21.442  1.00  0.00    -0.237 OA
ATOM     68  O   UNL A   1      51.056  26.752  21.547  1.00  0.00    -0.237 OA
ATOM     69  O   UNL A   1      48.632  26.577  21.194  1.00  0.00    -0.744 OA
ENDBRANCH  63  66
ENDBRANCH  45  59
BRANCH  46  70
ATOM     70  C   UNL A   1      39.490  29.039  30.144  1.00  0.00     0.023 A 
ATOM     71  C   UNL A   1      39.300  28.456  31.411  1.00  0.00     0.012 A 
ATOM     72  C   UNL A   1      38.479  29.863  29.611  1.00  0.00     0.148 A 
ATOM     73  C   UNL A   1      38.124  28.679  32.128  1.00  0.00     0.002 A 
ATOM     74  C   UNL A   1      37.340  30.136  30.359  1.00  0.00     0.091 A 
ATOM     75  F   UNL A   1      38.663  30.389  28.392  1.00  0.00    -0.205 F 
ATOM     76  C   UNL A   1      37.152  29.532  31.611  1.00  0.00     0.022 A 
BRANCH  74  77
ATOM     77  S   UNL A   1      36.127  31.353  29.832  1.00  0.00     0.127 S 
ATOM     78  O   UNL A   1      35.330  31.527  31.043  1.00  0.00    -0.237 OA
ATOM     79  O   UNL A   1      36.971  32.495  29.479  1.00  0.00    -0.237 OA
ATOM     80  O   UNL A   1      35.443  30.748  28.697  1.00  0.00    -0.744 OA
ENDBRANCH  74  77
ENDBRANCH  46  70
BRANCH  58  81
ATOM     81  C   UNL A   1      45.108  33.034  29.037  1.00  0.00     0.023 A 
ATOM     82  C   UNL A   1      45.702  33.279  30.290  1.00  0.00     0.012 A 
ATOM     83  C   UNL A   1      44.918  34.101  28.138  1.00  0.00     0.148 A 
ATOM     84  C   UNL A   1      46.079  34.570  30.653  1.00  0.00     0.002 A 
ATOM     85  C   UNL A   1      45.335  35.379  28.490  1.00  0.00     0.091 A 
ATOM     86  F   UNL A   1      44.330  33.848  26.959  1.00  0.00    -0.205 F 
ATOM     87  C   UNL A   1      45.906  35.617  29.750  1.00  0.00     0.022 A 
BRANCH  85  88
ATOM     88  S   UNL A   1      45.231  36.768  27.356  1.00  0.00     0.127 S 
ATOM     89  O   UNL A   1      43.798  36.817  27.074  1.00  0.00    -0.237 OA
ATOM     90  O   UNL A   1      45.730  37.875  28.173  1.00  0.00    -0.237 OA
ATOM     91  O   UNL A   1      46.080  36.424  26.223  1.00  0.00    -0.744 OA
ENDBRANCH  85  88
ENDBRANCH  58  81
ENDBRANCH  32  33
ENDBRANCH  25  27
ENDBRANCH  24  25
ENDBRANCH  23  24
ENDBRANCH   1  23
TORSDOF 19
ENDMDL
MODEL 3
REMARK VINA RESULT:     -10.2      1.569      2.554
REMARK SMILES CC[C@H](C)CN(CC)c1nc(C(=O)OCCOC(=O)c2ccc(-c3c4nc(c(-c5cccc(S(=O)(=O)[O-])c5F)c5ccc([nH]5)c(-c5cccc(S(=O)(=O)[O-])c5F)c5nc(c(-c6cccc(S(=O)(=O)[O-])c6F)c6ccc3[nH]6)C=C5)C=C4)cc2)cc2ccccc12
REMARK SMILES IDX 15 1 14 2 12 3 13 4 11 5 9 6 10 7 89 8 84 9 88 10 83 11
REMARK SMILES IDX 85 12 87 13 86 14 6 15 5 16 3 17 4 18 2 19 1 20 7 21 8 22
REMARK SMILES IDX 16 23 17 24 18 25 19 26 20 27 21 28 82 29 22 30 81 31 23 32
REMARK SMILES IDX 24 33 25 34 75 35 26 36 80 37 74 38 76 39 27 40 79 41 73 42
REMARK SMILES IDX 72 43 28 45 60 46 40 47 59 48 41 49 44 50 58 51 77 52 42 53
REMARK SMILES IDX 43 54 57 56 78 57 45 58 29 59 30 60 38 61 31 62 33 63 39 64
REMARK SMILES IDX 32 65 34 66 35 67 36 68 37 69 61 70 62 71 70 72 63 73 65 74
REMARK SMILES IDX 71 75 64 76 66 77 67 78 68 79 69 80 46 81 47 82 55 83 48 84
REMARK SMILES IDX 50 85 56 86 49 87 51 88 52 89 53 90 54 91
REMARK H PARENT 76 44 44 55
REMARK Flexibility Score: inf
ROOT
ATOM      1  C   UNL A   1      31.691  28.326  24.549  1.00  0.00     0.275 C 
ENDROOT
BRANCH   1   2
ATOM      2  O   UNL A   1      32.767  27.369  24.465  1.00  0.00    -0.457 OA
BRANCH   2   3
ATOM      3  C   UNL A   1      32.449  26.230  23.795  1.00  0.00     0.357 C 
ATOM      4  O   UNL A   1      31.732  26.157  22.813  1.00  0.00    -0.244 OA
BRANCH   3   5
ATOM      5  C   UNL A   1      33.113  25.024  24.357  1.00  0.00     0.151 A 
ATOM      6  C   UNL A   1      33.345  22.727  24.326  1.00  0.00     0.137 A 
ATOM      7  N   UNL A   1      32.569  23.815  24.108  1.00  0.00    -0.223 NA
ATOM      8  C   UNL A   1      34.718  22.843  24.705  1.00  0.00     0.024 A 
ATOM      9  C   UNL A   1      35.168  24.098  25.141  1.00  0.00    -0.012 A 
ATOM     10  C   UNL A   1      35.675  21.800  24.690  1.00  0.00     0.012 A 
ATOM     11  C   UNL A   1      34.353  25.198  24.946  1.00  0.00     0.045 A 
ATOM     12  C   UNL A   1      36.435  24.251  25.727  1.00  0.00     0.009 A 
ATOM     13  C   UNL A   1      36.948  21.957  25.247  1.00  0.00     0.001 A 
ATOM     14  C   UNL A   1      37.312  23.174  25.806  1.00  0.00     0.001 A 
BRANCH   6  15
ATOM     15  N   UNL A   1      32.724  21.466  24.272  1.00  0.00    -0.356 N 
BRANCH  15  16
ATOM     16  C   UNL A   1      33.578  20.366  23.744  1.00  0.00     0.121 C 
BRANCH  16  17
ATOM     17  C   UNL A   1      32.971  18.958  23.962  1.00  0.00     0.005 C 
ATOM     18  C   UNL A   1      32.213  18.480  22.714  1.00  0.00     0.009 C 
BRANCH  17  19
ATOM     19  C   UNL A   1      34.006  17.900  24.392  1.00  0.00     0.002 C 
ATOM     20  C   UNL A   1      33.415  16.492  24.332  1.00  0.00     0.004 C 
ENDBRANCH  17  19
ENDBRANCH  16  17
ENDBRANCH  15  16
BRANCH  15  21
ATOM     21  C   UNL A   1      31.858  21.137  25.415  1.00  0.00     0.114 C 
ATOM     22  C   UNL A   1      31.337  22.337  26.201  1.00  0.00     0.027 C 
ENDBRANCH  15  21
ENDBRANCH   6  15
ENDBRANCH   3   5
ENDBRANCH   2   3
ENDBRANCH   1   2
BRANCH   1  23
ATOM     23  C   UNL A   1      31.791  29.184  25.811  1.00  0.00     0.275 C 
BRANCH  23  24
ATOM     24  O   UNL A   1      32.857  30.146  25.694  1.00  0.00    -0.458 OA
BRANCH  24  25
ATOM     25  C   UNL A   1      33.102  30.883  26.800  1.00  0.00     0.338 C 
ATOM     26  O   UNL A   1      32.311  31.601  27.398  1.00  0.00    -0.246 OA
BRANCH  25  27
ATOM     27  C   UNL A   1      34.483  30.683  27.270  1.00  0.00     0.060 A 
ATOM     28  C   UNL A   1      34.954  29.392  27.467  1.00  0.00     0.016 A 
ATOM     29  C   UNL A   1      35.245  31.768  27.698  1.00  0.00     0.016 A 
ATOM     30  C   UNL A   1      36.088  29.172  28.246  1.00  0.00     0.010 A 
ATOM     31  C   UNL A   1      36.473  31.543  28.335  1.00  0.00     0.010 A 
ATOM     32  C   UNL A   1      36.887  30.242  28.673  1.00  0.00    -0.014 A 
BRANCH  32  33
ATOM     33  C   UNL A   1      38.136  30.002  29.463  1.00  0.00     0.031 A 
ATOM     34  C   UNL A   1      39.249  29.141  28.907  1.00  0.00     0.074 A 
ATOM     35  C   UNL A   1      38.280  30.536  30.696  1.00  0.00     0.049 A 
ATOM     36  N   UNL A   1      40.298  28.649  29.518  1.00  0.00    -0.248 NA
ATOM     37  C   UNL A   1      39.162  28.763  27.486  1.00  0.00     0.031 C 
ATOM     38  C   UNL A   1      37.301  31.392  31.371  1.00  0.00     0.029 A 
ATOM     39  N   UNL A   1      39.303  30.433  31.611  1.00  0.00    -0.354 N 
ATOM     40  C   UNL A   1      40.935  27.830  28.591  1.00  0.00     0.074 A 
ATOM     41  C   UNL A   1      40.168  27.907  27.366  1.00  0.00     0.031 C 
ATOM     42  C   UNL A   1      37.784  31.771  32.560  1.00  0.00     0.029 A 
ATOM     43  C   UNL A   1      39.055  31.099  32.790  1.00  0.00     0.049 A 
ATOM     44  H   UNL A   1      40.133  29.932  31.437  1.00  0.00     0.167 HD
ATOM     45  C   UNL A   1      42.058  27.086  28.741  1.00  0.00     0.034 A 
ATOM     46  C   UNL A   1      39.735  31.129  33.954  1.00  0.00     0.034 A 
ATOM     47  C   UNL A   1      42.877  27.090  29.925  1.00  0.00     0.049 A 
ATOM     48  C   UNL A   1      40.997  30.329  34.082  1.00  0.00     0.074 A 
ATOM     49  C   UNL A   1      44.059  26.408  30.155  1.00  0.00     0.029 A 
ATOM     50  N   UNL A   1      42.613  27.827  31.069  1.00  0.00    -0.354 N 
ATOM     51  N   UNL A   1      41.591  29.581  33.186  1.00  0.00    -0.248 NA
ATOM     52  C   UNL A   1      41.687  30.378  35.380  1.00  0.00     0.031 C 
ATOM     53  C   UNL A   1      44.508  26.728  31.441  1.00  0.00     0.029 A 
ATOM     54  C   UNL A   1      43.613  27.622  32.005  1.00  0.00     0.049 A 
ATOM     55  H   UNL A   1      41.830  28.409  31.198  1.00  0.00     0.167 HD
ATOM     56  C   UNL A   1      42.733  29.086  33.801  1.00  0.00     0.074 A 
ATOM     57  C   UNL A   1      42.763  29.641  35.139  1.00  0.00     0.031 C 
ATOM     58  C   UNL A   1      43.662  28.230  33.310  1.00  0.00     0.034 A 
BRANCH  45  59
ATOM     59  C   UNL A   1      42.496  26.217  27.589  1.00  0.00     0.023 A 
ATOM     60  C   UNL A   1      43.402  26.718  26.634  1.00  0.00     0.012 A 
ATOM     61  C   UNL A   1      42.067  24.877  27.497  1.00  0.00     0.148 A 
ATOM     62  C   UNL A   1      43.852  25.909  25.590  1.00  0.00     0.002 A 
ATOM     63  C   UNL A   1      42.552  24.064  26.477  1.00  0.00     0.091 A 
ATOM     64  F   UNL A   1      41.189  24.421  28.402  1.00  0.00    -0.205 F 
ATOM     65  C   UNL A   1      43.437  24.581  25.517  1.00  0.00     0.022 A 
BRANCH  63  66
ATOM     66  S   UNL A   1      42.138  22.320  26.352  1.00  0.00     0.127 S 
ATOM     67  O   UNL A   1      40.689  22.374  26.164  1.00  0.00    -0.237 OA
ATOM     68  O   UNL A   1      42.891  21.904  25.168  1.00  0.00    -0.237 OA
ATOM     69  O   UNL A   1      42.587  21.714  27.597  1.00  0.00    -0.744 OA
ENDBRANCH  63  66
ENDBRANCH  45  59
BRANCH  46  70
ATOM     70  C   UNL A   1      39.227  31.961  35.084  1.00  0.00     0.023 A 
ATOM     71  C   UNL A   1      38.338  31.393  36.015  1.00  0.00     0.012 A 
ATOM     72  C   UNL A   1      39.673  33.283  35.279  1.00  0.00     0.148 A 
ATOM     73  C   UNL A   1      37.893  32.130  37.113  1.00  0.00     0.002 A 
ATOM     74  C   UNL A   1      39.280  33.987  36.411  1.00  0.00     0.091 A 
ATOM     75  F   UNL A   1      40.498  33.818  34.369  1.00  0.00    -0.205 F 
ATOM     76  C   UNL A   1      38.376  33.420  37.322  1.00  0.00     0.022 A 
BRANCH  74  77
ATOM     77  S   UNL A   1      39.991  35.584  36.830  1.00  0.00     0.127 S 
ATOM     78  O   UNL A   1      41.419  35.282  36.849  1.00  0.00    -0.237 OA
ATOM     79  O   UNL A   1      39.553  36.419  35.710  1.00  0.00    -0.237 OA
ATOM     80  O   UNL A   1      39.395  35.946  38.109  1.00  0.00    -0.744 OA
ENDBRANCH  74  77
ENDBRANCH  46  70
BRANCH  58  81
ATOM     81  C   UNL A   1      44.815  27.867  34.204  1.00  0.00     0.023 A 
ATOM     82  C   UNL A   1      45.927  28.726  34.293  1.00  0.00     0.012 A 
ATOM     83  C   UNL A   1      44.761  26.713  35.011  1.00  0.00     0.148 A 
ATOM     84  C   UNL A   1      46.980  28.431  35.156  1.00  0.00     0.002 A 
ATOM     85  C   UNL A   1      45.796  26.448  35.899  1.00  0.00     0.091 A 
ATOM     86  F   UNL A   1      43.703  25.898  34.892  1.00  0.00    -0.205 F 
ATOM     87  C   UNL A   1      46.910  27.300  35.967  1.00  0.00     0.022 A 
BRANCH  85  88
ATOM     88  S   UNL A   1      45.747  25.062  37.041  1.00  0.00     0.127 S 
ATOM     89  O   UNL A   1      45.749  23.922  36.127  1.00  0.00    -0.237 OA
ATOM     90  O   UNL A   1      46.987  25.239  37.798  1.00  0.00    -0.237 OA
ATOM     91  O   UNL A   1      44.532  25.234  37.827  1.00  0.00    -0.744 OA
ENDBRANCH  85  88
ENDBRANCH  58  81
ENDBRANCH  32  33
ENDBRANCH  25  27
ENDBRANCH  24  25
ENDBRANCH  23  24
ENDBRANCH   1  23
TORSDOF 19
ENDMDL
