MODEL 1
REMARK VINA RESULT:     -13.0      0.000      0.000
REMARK SMILES Cc1c(NCc2ccccn2)cccc1C(=O)N1CCOC[C@@H]1CC(=O)OCCOC(=O)c1ccc(-c2c3nc(c(-c4cccc(S(=O)(=O)[O-])c4F)c4ccc([nH]4)c(-c4cccc(S(=O)(=O)[O-])c4F)c4nc(c(-c5cccc(S(=O)(=O)[O-])c5F)c5ccc2[nH]5)C=C4)C=C3)cc1
REMARK SMILES IDX 27 1 25 2 26 3 24 4 23 5 18 6 19 7 20 8 22 9 21 10 16 11
REMARK SMILES IDX 17 12 15 13 1 14 2 15 3 16 12 17 14 18 13 19 4 20 5 22 6 23
REMARK SMILES IDX 7 24 11 25 8 26 10 27 9 28 28 29 29 30 30 31 31 32 32 33
REMARK SMILES IDX 33 34 34 35 95 36 35 37 94 38 36 39 37 40 38 41 88 42 39 43
REMARK SMILES IDX 93 44 87 45 89 46 40 47 92 48 86 49 85 50 41 52 73 53 53 54
REMARK SMILES IDX 72 55 54 56 57 57 71 58 90 59 55 60 56 61 70 63 91 64 58 65
REMARK SMILES IDX 42 66 43 67 51 68 44 69 46 70 52 71 45 72 47 73 48 74 49 75
REMARK SMILES IDX 50 76 74 77 75 78 83 79 76 80 78 81 84 82 77 83 79 84 80 85
REMARK SMILES IDX 81 86 82 87 59 88 60 89 68 90 61 91 63 92 69 93 62 94 64 95
REMARK SMILES IDX 65 96 66 97 67 98
REMARK H PARENT 4 21 89 51 57 62
REMARK Flexibility Score: inf
ROOT
ATOM      1  O   UNL A   1      33.618  28.894  27.514  1.00  0.00    -0.462 OA
ENDROOT
BRANCH   1   2
ATOM      2  C   UNL A   1      32.491  28.182  27.230  1.00  0.00     0.308 C 
ATOM      3  O   UNL A   1      31.583  27.994  28.029  1.00  0.00    -0.252 OA
BRANCH   2   4
ATOM      4  C   UNL A   1      32.465  27.646  25.824  1.00  0.00     0.150 C 
BRANCH   4   5
ATOM      5  C   UNL A   1      31.142  27.848  25.098  1.00  0.00     0.122 C 
ATOM      6  N   UNL A   1      30.543  26.624  24.523  1.00  0.00    -0.330 N 
ATOM      7  C   UNL A   1      29.264  26.897  23.877  1.00  0.00     0.148 C 
ATOM      8  C   UNL A   1      29.419  28.003  22.827  1.00  0.00     0.181 C 
ATOM      9  C   UNL A   1      31.248  28.943  24.004  1.00  0.00     0.185 C 
ATOM     10  O   UNL A   1      29.959  29.197  23.406  1.00  0.00    -0.377 OA
BRANCH   6  11
ATOM     11  C   UNL A   1      30.657  25.406  25.188  1.00  0.00     0.254 C 
ATOM     12  O   UNL A   1      30.113  25.227  26.272  1.00  0.00    -0.269 OA
BRANCH  11  13
ATOM     13  C   UNL A   1      31.560  24.349  24.571  1.00  0.00     0.045 A 
ATOM     14  C   UNL A   1      30.740  22.417  26.031  1.00  0.00     0.047 C 
ATOM     15  C   UNL A   1      31.603  22.967  24.921  1.00  0.00    -0.015 A 
ATOM     16  C   UNL A   1      32.419  22.065  24.163  1.00  0.00     0.038 A 
ATOM     17  C   UNL A   1      33.132  22.563  23.065  1.00  0.00     0.026 A 
ATOM     18  C   UNL A   1      32.313  24.795  23.469  1.00  0.00     0.014 A 
ATOM     19  C   UNL A   1      33.072  23.907  22.712  1.00  0.00     0.003 A 
BRANCH  16  20
ATOM     20  N   UNL A   1      32.440  20.702  24.457  1.00  0.00    -0.379 N 
ATOM     21  H   UNL A   1      32.656  20.430  25.378  1.00  0.00     0.160 HD
BRANCH  20  22
ATOM     22  C   UNL A   1      32.164  19.655  23.482  1.00  0.00     0.169 C 
BRANCH  22  23
ATOM     23  C   UNL A   1      32.670  18.302  23.954  1.00  0.00     0.059 A 
ATOM     24  C   UNL A   1      33.599  17.569  23.211  1.00  0.00     0.026 A 
ATOM     25  N   UNL A   1      32.161  17.830  25.123  1.00  0.00    -0.259 NA
ATOM     26  C   UNL A   1      34.032  16.335  23.675  1.00  0.00     0.004 A 
ATOM     27  C   UNL A   1      32.586  16.617  25.539  1.00  0.00     0.111 A 
ATOM     28  C   UNL A   1      33.511  15.842  24.859  1.00  0.00     0.020 A 
ENDBRANCH  22  23
ENDBRANCH  20  22
ENDBRANCH  16  20
ENDBRANCH  11  13
ENDBRANCH   6  11
ENDBRANCH   4   5
ENDBRANCH   2   4
ENDBRANCH   1   2
BRANCH   1  29
ATOM     29  C   UNL A   1      33.776  30.084  26.738  1.00  0.00     0.274 C 
BRANCH  29  30
ATOM     30  C   UNL A   1      34.311  31.273  27.533  1.00  0.00     0.275 C 
BRANCH  30  31
ATOM     31  O   UNL A   1      35.696  31.327  27.979  1.00  0.00    -0.458 OA
BRANCH  31  32
ATOM     32  C   UNL A   1      36.263  30.767  29.081  1.00  0.00     0.338 C 
ATOM     33  O   UNL A   1      35.899  31.084  30.207  1.00  0.00    -0.246 OA
BRANCH  32  34
ATOM     34  C   UNL A   1      37.340  29.788  28.852  1.00  0.00     0.060 A 
ATOM     35  C   UNL A   1      38.030  29.728  27.629  1.00  0.00     0.016 A 
ATOM     36  C   UNL A   1      37.778  29.063  29.941  1.00  0.00     0.016 A 
ATOM     37  C   UNL A   1      39.238  29.022  27.537  1.00  0.00     0.010 A 
ATOM     38  C   UNL A   1      39.077  28.637  29.925  1.00  0.00     0.010 A 
ATOM     39  C   UNL A   1      39.782  28.513  28.709  1.00  0.00    -0.014 A 
BRANCH  39  40
ATOM     40  C   UNL A   1      40.840  27.511  28.806  1.00  0.00     0.031 A 
ATOM     41  C   UNL A   1      40.691  26.075  28.549  1.00  0.00     0.074 A 
ATOM     42  C   UNL A   1      42.038  28.135  28.947  1.00  0.00     0.049 A 
ATOM     43  N   UNL A   1      41.587  25.233  28.928  1.00  0.00    -0.248 NA
ATOM     44  C   UNL A   1      39.572  25.429  27.873  1.00  0.00     0.031 C 
ATOM     45  C   UNL A   1      43.400  27.755  28.658  1.00  0.00     0.029 A 
ATOM     46  N   UNL A   1      42.171  29.440  29.446  1.00  0.00    -0.354 N 
ATOM     47  C   UNL A   1      41.337  24.031  28.297  1.00  0.00     0.074 A 
ATOM     48  C   UNL A   1      40.016  24.169  27.739  1.00  0.00     0.031 C 
ATOM     49  C   UNL A   1      44.223  28.681  29.203  1.00  0.00     0.029 A 
ATOM     50  C   UNL A   1      43.416  29.593  30.014  1.00  0.00     0.049 A 
ATOM     51  H   UNL A   1      41.481  30.139  29.397  1.00  0.00     0.167 HD
ATOM     52  C   UNL A   1      42.366  23.142  28.185  1.00  0.00     0.034 A 
ATOM     53  C   UNL A   1      43.460  29.843  31.358  1.00  0.00     0.034 A 
ATOM     54  C   UNL A   1      43.567  23.703  28.842  1.00  0.00     0.049 A 
ATOM     55  C   UNL A   1      43.947  28.583  32.064  1.00  0.00     0.074 A 
ATOM     56  C   UNL A   1      44.667  24.401  28.367  1.00  0.00     0.029 A 
ATOM     57  N   UNL A   1      43.541  23.933  30.211  1.00  0.00    -0.354 N 
ATOM     58  N   UNL A   1      44.310  27.481  31.461  1.00  0.00    -0.248 NA
ATOM     59  C   UNL A   1      43.918  28.439  33.514  1.00  0.00     0.031 C 
ATOM     60  C   UNL A   1      45.269  25.087  29.468  1.00  0.00     0.029 A 
ATOM     61  C   UNL A   1      44.560  24.788  30.618  1.00  0.00     0.049 A 
ATOM     62  H   UNL A   1      42.879  23.536  30.822  1.00  0.00     0.167 HD
ATOM     63  C   UNL A   1      44.386  26.462  32.367  1.00  0.00     0.074 A 
ATOM     64  C   UNL A   1      44.097  27.116  33.637  1.00  0.00     0.031 C 
ATOM     65  C   UNL A   1      44.630  25.155  32.033  1.00  0.00     0.034 A 
BRANCH  52  66
ATOM     66  C   UNL A   1      42.420  21.938  27.249  1.00  0.00     0.023 A 
ATOM     67  C   UNL A   1      41.300  21.072  27.282  1.00  0.00     0.012 A 
ATOM     68  C   UNL A   1      43.464  21.560  26.366  1.00  0.00     0.148 A 
ATOM     69  C   UNL A   1      41.237  19.874  26.564  1.00  0.00     0.002 A 
ATOM     70  C   UNL A   1      43.413  20.343  25.663  1.00  0.00     0.091 A 
ATOM     71  F   UNL A   1      44.488  22.395  26.156  1.00  0.00    -0.205 F 
ATOM     72  C   UNL A   1      42.303  19.496  25.770  1.00  0.00     0.022 A 
BRANCH  70  73
ATOM     73  S   UNL A   1      44.754  19.723  24.622  1.00  0.00     0.127 S 
ATOM     74  O   UNL A   1      44.508  20.420  23.357  1.00  0.00    -0.237 OA
ATOM     75  O   UNL A   1      45.945  20.177  25.337  1.00  0.00    -0.237 OA
ATOM     76  O   UNL A   1      44.577  18.278  24.551  1.00  0.00    -0.744 OA
ENDBRANCH  70  73
ENDBRANCH  52  66
BRANCH  53  77
ATOM     77  C   UNL A   1      42.285  30.705  31.845  1.00  0.00     0.023 A 
ATOM     78  C   UNL A   1      41.167  30.044  32.430  1.00  0.00     0.012 A 
ATOM     79  C   UNL A   1      42.428  32.077  32.128  1.00  0.00     0.148 A 
ATOM     80  C   UNL A   1      40.330  30.689  33.356  1.00  0.00     0.002 A 
ATOM     81  C   UNL A   1      41.597  32.712  33.055  1.00  0.00     0.091 A 
ATOM     82  F   UNL A   1      43.422  32.772  31.568  1.00  0.00    -0.205 F 
ATOM     83  C   UNL A   1      40.562  32.019  33.691  1.00  0.00     0.022 A 
BRANCH  81  84
ATOM     84  S   UNL A   1      42.005  34.388  33.573  1.00  0.00     0.127 S 
ATOM     85  O   UNL A   1      40.948  34.712  34.530  1.00  0.00    -0.237 OA
ATOM     86  O   UNL A   1      43.323  34.245  34.178  1.00  0.00    -0.237 OA
ATOM     87  O   UNL A   1      41.937  35.118  32.311  1.00  0.00    -0.744 OA
ENDBRANCH  81  84
ENDBRANCH  53  77
BRANCH  65  88
ATOM     88  C   UNL A   1      44.934  24.092  33.076  1.00  0.00     0.023 A 
ATOM     89  C   UNL A   1      43.915  23.261  33.580  1.00  0.00     0.012 A 
ATOM     90  C   UNL A   1      46.203  23.961  33.693  1.00  0.00     0.148 A 
ATOM     91  C   UNL A   1      44.166  22.237  34.492  1.00  0.00     0.002 A 
ATOM     92  C   UNL A   1      46.443  22.982  34.648  1.00  0.00     0.091 A 
ATOM     93  F   UNL A   1      47.185  24.821  33.410  1.00  0.00    -0.205 F 
ATOM     94  C   UNL A   1      45.438  22.086  35.016  1.00  0.00     0.022 A 
BRANCH  92  95
ATOM     95  S   UNL A   1      48.006  22.859  35.525  1.00  0.00     0.127 S 
ATOM     96  O   UNL A   1      48.079  24.173  36.167  1.00  0.00    -0.237 OA
ATOM     97  O   UNL A   1      47.747  21.746  36.439  1.00  0.00    -0.237 OA
ATOM     98  O   UNL A   1      49.028  22.608  34.521  1.00  0.00    -0.744 OA
ENDBRANCH  92  95
ENDBRANCH  65  88
ENDBRANCH  39  40
ENDBRANCH  32  34
ENDBRANCH  31  32
ENDBRANCH  30  31
ENDBRANCH  29  30
ENDBRANCH   1  29
TORSDOF 20
ENDMDL
MODEL 2
REMARK VINA RESULT:     -12.5      4.520     10.889
REMARK SMILES Cc1c(NCc2ccccn2)cccc1C(=O)N1CCOC[C@@H]1CC(=O)OCCOC(=O)c1ccc(-c2c3nc(c(-c4cccc(S(=O)(=O)[O-])c4F)c4ccc([nH]4)c(-c4cccc(S(=O)(=O)[O-])c4F)c4nc(c(-c5cccc(S(=O)(=O)[O-])c5F)c5ccc2[nH]5)C=C4)C=C3)cc1
REMARK SMILES IDX 27 1 25 2 26 3 24 4 23 5 18 6 19 7 20 8 22 9 21 10 16 11
REMARK SMILES IDX 17 12 15 13 1 14 2 15 3 16 12 17 14 18 13 19 4 20 5 22 6 23
REMARK SMILES IDX 7 24 11 25 8 26 10 27 9 28 28 29 29 30 30 31 31 32 32 33
REMARK SMILES IDX 33 34 34 35 95 36 35 37 94 38 36 39 37 40 38 41 88 42 39 43
REMARK SMILES IDX 93 44 87 45 89 46 40 47 92 48 86 49 85 50 41 52 73 53 53 54
REMARK SMILES IDX 72 55 54 56 57 57 71 58 90 59 55 60 56 61 70 63 91 64 58 65
REMARK SMILES IDX 42 66 43 67 51 68 44 69 46 70 52 71 45 72 47 73 48 74 49 75
REMARK SMILES IDX 50 76 74 77 75 78 83 79 76 80 78 81 84 82 77 83 79 84 80 85
REMARK SMILES IDX 81 86 82 87 59 88 60 89 68 90 61 91 63 92 69 93 62 94 64 95
REMARK SMILES IDX 65 96 66 97 67 98
REMARK H PARENT 4 21 89 51 57 62
REMARK Flexibility Score: inf
ROOT
ATOM      1  O   UNL A   1      37.236  22.445  24.427  1.00  0.00    -0.462 OA
ENDROOT
BRANCH   1   2
ATOM      2  C   UNL A   1      36.422  21.514  25.000  1.00  0.00     0.308 C 
ATOM      3  O   UNL A   1      36.796  20.402  25.346  1.00  0.00    -0.252 OA
BRANCH   2   4
ATOM      4  C   UNL A   1      35.004  21.989  25.172  1.00  0.00     0.150 C 
BRANCH   4   5
ATOM      5  C   UNL A   1      34.080  21.644  24.013  1.00  0.00     0.122 C 
ATOM      6  N   UNL A   1      33.421  22.798  23.364  1.00  0.00    -0.330 N 
ATOM      7  C   UNL A   1      32.583  22.385  22.245  1.00  0.00     0.148 C 
ATOM      8  C   UNL A   1      31.567  21.331  22.696  1.00  0.00     0.181 C 
ATOM      9  C   UNL A   1      33.013  20.594  24.422  1.00  0.00     0.185 C 
ATOM     10  O   UNL A   1      32.219  20.198  23.283  1.00  0.00    -0.377 OA
BRANCH   6  11
ATOM     11  C   UNL A   1      34.099  24.005  23.222  1.00  0.00     0.254 C 
ATOM     12  O   UNL A   1      35.184  24.056  22.652  1.00  0.00    -0.269 OA
BRANCH  11  13
ATOM     13  C   UNL A   1      33.496  25.234  23.886  1.00  0.00     0.045 A 
ATOM     14  C   UNL A   1      32.376  26.150  21.778  1.00  0.00     0.047 C 
ATOM     15  C   UNL A   1      32.683  26.221  23.254  1.00  0.00    -0.015 A 
ATOM     16  C   UNL A   1      32.082  27.257  24.041  1.00  0.00     0.038 A 
ATOM     17  C   UNL A   1      32.280  27.253  25.427  1.00  0.00     0.026 A 
ATOM     18  C   UNL A   1      33.676  25.291  25.280  1.00  0.00     0.014 A 
ATOM     19  C   UNL A   1      33.056  26.277  26.044  1.00  0.00     0.003 A 
BRANCH  16  20
ATOM     20  N   UNL A   1      31.244  28.205  23.453  1.00  0.00    -0.379 N 
ATOM     21  H   UNL A   1      31.048  28.117  22.492  1.00  0.00     0.160 HD
BRANCH  20  22
ATOM     22  C   UNL A   1      30.642  29.318  24.174  1.00  0.00     0.169 C 
BRANCH  22  23
ATOM     23  C   UNL A   1      29.675  30.098  23.297  1.00  0.00     0.059 A 
ATOM     24  C   UNL A   1      28.969  31.199  23.788  1.00  0.00     0.026 A 
ATOM     25  N   UNL A   1      29.516  29.660  22.021  1.00  0.00    -0.259 NA
ATOM     26  C   UNL A   1      28.093  31.881  22.956  1.00  0.00     0.004 A 
ATOM     27  C   UNL A   1      28.641  30.331  21.241  1.00  0.00     0.111 A 
ATOM     28  C   UNL A   1      27.916  31.436  21.657  1.00  0.00     0.020 A 
ENDBRANCH  22  23
ENDBRANCH  20  22
ENDBRANCH  16  20
ENDBRANCH  11  13
ENDBRANCH   6  11
ENDBRANCH   4   5
ENDBRANCH   2   4
ENDBRANCH   1   2
BRANCH   1  29
ATOM     29  C   UNL A   1      37.239  23.713  25.087  1.00  0.00     0.274 C 
BRANCH  29  30
ATOM     30  C   UNL A   1      37.934  23.699  26.447  1.00  0.00     0.275 C 
BRANCH  30  31
ATOM     31  O   UNL A   1      39.362  23.441  26.568  1.00  0.00    -0.458 OA
BRANCH  31  32
ATOM     32  C   UNL A   1      40.367  24.311  26.859  1.00  0.00     0.338 C 
ATOM     33  O   UNL A   1      41.534  24.028  26.617  1.00  0.00    -0.246 OA
BRANCH  32  34
ATOM     34  C   UNL A   1      39.983  25.584  27.493  1.00  0.00     0.060 A 
ATOM     35  C   UNL A   1      39.350  25.619  28.748  1.00  0.00     0.016 A 
ATOM     36  C   UNL A   1      40.440  26.745  26.904  1.00  0.00     0.016 A 
ATOM     37  C   UNL A   1      39.280  26.821  29.466  1.00  0.00     0.010 A 
ATOM     38  C   UNL A   1      40.630  27.826  27.722  1.00  0.00     0.010 A 
ATOM     39  C   UNL A   1      39.967  27.918  28.964  1.00  0.00    -0.014 A 
BRANCH  39  40
ATOM     40  C   UNL A   1      39.789  29.309  29.370  1.00  0.00     0.031 A 
ATOM     41  C   UNL A   1      38.718  30.206  28.920  1.00  0.00     0.074 A 
ATOM     42  C   UNL A   1      40.625  29.586  30.402  1.00  0.00     0.049 A 
ATOM     43  N   UNL A   1      38.795  31.477  29.098  1.00  0.00    -0.248 NA
ATOM     44  C   UNL A   1      37.489  29.812  28.241  1.00  0.00     0.031 C 
ATOM     45  C   UNL A   1      40.608  30.563  31.466  1.00  0.00     0.029 A 
ATOM     46  N   UNL A   1      41.797  28.859  30.660  1.00  0.00    -0.354 N 
ATOM     47  C   UNL A   1      37.547  32.017  28.863  1.00  0.00     0.074 A 
ATOM     48  C   UNL A   1      36.797  30.963  28.229  1.00  0.00     0.031 C 
ATOM     49  C   UNL A   1      41.808  30.532  32.089  1.00  0.00     0.029 A 
ATOM     50  C   UNL A   1      42.699  29.655  31.328  1.00  0.00     0.049 A 
ATOM     51  H   UNL A   1      41.951  27.922  30.402  1.00  0.00     0.167 HD
ATOM     52  C   UNL A   1      37.266  33.238  29.403  1.00  0.00     0.034 A 
ATOM     53  C   UNL A   1      43.873  29.941  30.687  1.00  0.00     0.034 A 
ATOM     54  C   UNL A   1      38.457  33.736  30.126  1.00  0.00     0.049 A 
ATOM     55  C   UNL A   1      43.828  31.395  30.232  1.00  0.00     0.074 A 
ATOM     56  C   UNL A   1      38.841  33.697  31.457  1.00  0.00     0.029 A 
ATOM     57  N   UNL A   1      39.616  34.004  29.411  1.00  0.00    -0.354 N 
ATOM     58  N   UNL A   1      42.848  32.225  30.476  1.00  0.00    -0.248 NA
ATOM     59  C   UNL A   1      44.832  31.966  29.343  1.00  0.00     0.031 C 
ATOM     60  C   UNL A   1      40.255  33.902  31.520  1.00  0.00     0.029 A 
ATOM     61  C   UNL A   1      40.732  34.094  30.236  1.00  0.00     0.049 A 
ATOM     62  H   UNL A   1      39.645  34.118  28.433  1.00  0.00     0.167 HD
ATOM     63  C   UNL A   1      42.967  33.328  29.679  1.00  0.00     0.074 A 
ATOM     64  C   UNL A   1      44.216  33.095  28.964  1.00  0.00     0.031 C 
ATOM     65  C   UNL A   1      42.035  34.331  29.613  1.00  0.00     0.034 A 
BRANCH  52  66
ATOM     66  C   UNL A   1      35.880  33.855  29.569  1.00  0.00     0.023 A 
ATOM     67  C   UNL A   1      35.162  34.102  28.374  1.00  0.00     0.012 A 
ATOM     68  C   UNL A   1      35.227  34.237  30.769  1.00  0.00     0.148 A 
ATOM     69  C   UNL A   1      33.924  34.753  28.344  1.00  0.00     0.002 A 
ATOM     70  C   UNL A   1      33.996  34.916  30.739  1.00  0.00     0.091 A 
ATOM     71  F   UNL A   1      35.762  33.903  31.949  1.00  0.00    -0.205 F 
ATOM     72  C   UNL A   1      33.349  35.181  29.526  1.00  0.00     0.022 A 
BRANCH  70  73
ATOM     73  S   UNL A   1      33.161  35.553  32.209  1.00  0.00     0.127 S 
ATOM     74  O   UNL A   1      32.091  36.368  31.626  1.00  0.00    -0.237 OA
ATOM     75  O   UNL A   1      32.697  34.332  32.865  1.00  0.00    -0.237 OA
ATOM     76  O   UNL A   1      34.160  36.319  32.943  1.00  0.00    -0.744 OA
ENDBRANCH  70  73
ENDBRANCH  52  66
BRANCH  53  77
ATOM     77  C   UNL A   1      44.376  28.780  29.815  1.00  0.00     0.023 A 
ATOM     78  C   UNL A   1      44.347  27.468  30.366  1.00  0.00     0.012 A 
ATOM     79  C   UNL A   1      44.457  28.876  28.412  1.00  0.00     0.148 A 
ATOM     80  C   UNL A   1      44.258  26.327  29.550  1.00  0.00     0.002 A 
ATOM     81  C   UNL A   1      44.360  27.739  27.606  1.00  0.00     0.091 A 
ATOM     82  F   UNL A   1      44.543  30.076  27.831  1.00  0.00    -0.205 F 
ATOM     83  C   UNL A   1      44.236  26.464  28.166  1.00  0.00     0.022 A 
BRANCH  81  84
ATOM     84  S   UNL A   1      44.193  27.955  25.825  1.00  0.00     0.127 S 
ATOM     85  O   UNL A   1      43.995  26.592  25.337  1.00  0.00    -0.237 OA
ATOM     86  O   UNL A   1      43.016  28.804  25.696  1.00  0.00    -0.237 OA
ATOM     87  O   UNL A   1      45.477  28.555  25.474  1.00  0.00    -0.744 OA
ENDBRANCH  81  84
ENDBRANCH  53  77
BRANCH  65  88
ATOM     88  C   UNL A   1      42.303  35.644  28.896  1.00  0.00     0.023 A 
ATOM     89  C   UNL A   1      42.029  35.787  27.522  1.00  0.00     0.012 A 
ATOM     90  C   UNL A   1      42.955  36.740  29.516  1.00  0.00     0.148 A 
ATOM     91  C   UNL A   1      42.206  36.992  26.844  1.00  0.00     0.002 A 
ATOM     92  C   UNL A   1      43.190  37.922  28.826  1.00  0.00     0.091 A 
ATOM     93  F   UNL A   1      43.413  36.635  30.765  1.00  0.00    -0.205 F 
ATOM     94  C   UNL A   1      42.773  38.070  27.503  1.00  0.00     0.022 A 
BRANCH  92  95
ATOM     95  S   UNL A   1      44.108  39.287  29.549  1.00  0.00     0.127 S 
ATOM     96  O   UNL A   1      43.696  40.397  28.688  1.00  0.00    -0.237 OA
ATOM     97  O   UNL A   1      43.560  39.330  30.904  1.00  0.00    -0.237 OA
ATOM     98  O   UNL A   1      45.516  38.933  29.464  1.00  0.00    -0.744 OA
ENDBRANCH  92  95
ENDBRANCH  65  88
ENDBRANCH  39  40
ENDBRANCH  32  34
ENDBRANCH  31  32
ENDBRANCH  30  31
ENDBRANCH  29  30
ENDBRANCH   1  29
TORSDOF 20
ENDMDL
MODEL 3
REMARK VINA RESULT:     -12.0      3.972     10.886
REMARK SMILES Cc1c(NCc2ccccn2)cccc1C(=O)N1CCOC[C@@H]1CC(=O)OCCOC(=O)c1ccc(-c2c3nc(c(-c4cccc(S(=O)(=O)[O-])c4F)c4ccc([nH]4)c(-c4cccc(S(=O)(=O)[O-])c4F)c4nc(c(-c5cccc(S(=O)(=O)[O-])c5F)c5ccc2[nH]5)C=C4)C=C3)cc1
REMARK SMILES IDX 27 1 25 2 26 3 24 4 23 5 18 6 19 7 20 8 22 9 21 10 16 11
REMARK SMILES IDX 17 12 15 13 1 14 2 15 3 16 12 17 14 18 13 19 4 20 5 22 6 23
REMARK SMILES IDX 7 24 11 25 8 26 10 27 9 28 28 29 29 30 30 31 31 32 32 33
REMARK SMILES IDX 33 34 34 35 95 36 35 37 94 38 36 39 37 40 38 41 88 42 39 43
REMARK SMILES IDX 93 44 87 45 89 46 40 47 92 48 86 49 85 50 41 52 73 53 53 54
REMARK SMILES IDX 72 55 54 56 57 57 71 58 90 59 55 60 56 61 70 63 91 64 58 65
REMARK SMILES IDX 42 66 43 67 51 68 44 69 46 70 52 71 45 72 47 73 48 74 49 75
REMARK SMILES IDX 50 76 74 77 75 78 83 79 76 80 78 81 84 82 77 83 79 84 80 85
REMARK SMILES IDX 81 86 82 87 59 88 60 89 68 90 61 91 63 92 69 93 62 94 64 95
REMARK SMILES IDX 65 96 66 97 67 98
REMARK H PARENT 4 21 89 51 57 62
REMARK Flexibility Score: inf
ROOT
ATOM      1  O   UNL A   1      37.578  21.693  24.669  1.00  0.00    -0.462 OA
ENDROOT
BRANCH   1   2
ATOM      2  C   UNL A   1      36.264  21.801  25.015  1.00  0.00     0.308 C 
ATOM      3  O   UNL A   1      35.813  21.454  26.098  1.00  0.00    -0.252 OA
BRANCH   2   4
ATOM      4  C   UNL A   1      35.410  22.397  23.929  1.00  0.00     0.150 C 
BRANCH   4   5
ATOM      5  C   UNL A   1      33.916  22.169  24.107  1.00  0.00     0.122 C 
ATOM      6  N   UNL A   1      33.259  23.032  25.113  1.00  0.00    -0.330 N 
ATOM      7  C   UNL A   1      31.827  22.774  25.197  1.00  0.00     0.148 C 
ATOM      8  C   UNL A   1      31.563  21.289  25.465  1.00  0.00     0.181 C 
ATOM      9  C   UNL A   1      33.593  20.680  24.405  1.00  0.00     0.185 C 
ATOM     10  O   UNL A   1      32.167  20.465  24.460  1.00  0.00    -0.377 OA
BRANCH   6  11
ATOM     11  C   UNL A   1      33.665  24.354  25.277  1.00  0.00     0.254 C 
ATOM     12  O   UNL A   1      34.451  24.666  26.165  1.00  0.00    -0.269 OA
BRANCH  11  13
ATOM     13  C   UNL A   1      33.021  25.404  24.384  1.00  0.00     0.045 A 
ATOM     14  C   UNL A   1      31.350  26.243  26.127  1.00  0.00     0.047 C 
ATOM     15  C   UNL A   1      31.974  26.300  24.754  1.00  0.00    -0.015 A 
ATOM     16  C   UNL A   1      31.556  27.321  23.841  1.00  0.00     0.038 A 
ATOM     17  C   UNL A   1      32.216  27.439  22.612  1.00  0.00     0.026 A 
ATOM     18  C   UNL A   1      33.635  25.557  23.127  1.00  0.00     0.014 A 
ATOM     19  C   UNL A   1      33.252  26.577  22.261  1.00  0.00     0.003 A 
BRANCH  16  20
ATOM     20  N   UNL A   1      30.568  28.239  24.200  1.00  0.00    -0.379 N 
ATOM     21  H   UNL A   1      29.695  27.889  24.491  1.00  0.00     0.160 HD
BRANCH  20  22
ATOM     22  C   UNL A   1      30.749  29.684  24.168  1.00  0.00     0.169 C 
BRANCH  22  23
ATOM     23  C   UNL A   1      31.610  30.166  25.323  1.00  0.00     0.059 A 
ATOM     24  C   UNL A   1      31.255  31.283  26.083  1.00  0.00     0.026 A 
ATOM     25  N   UNL A   1      32.752  29.472  25.569  1.00  0.00    -0.259 NA
ATOM     26  C   UNL A   1      32.072  31.694  27.127  1.00  0.00     0.004 A 
ATOM     27  C   UNL A   1      33.538  29.907  26.578  1.00  0.00     0.111 A 
ATOM     28  C   UNL A   1      33.243  30.999  27.378  1.00  0.00     0.020 A 
ENDBRANCH  22  23
ENDBRANCH  20  22
ENDBRANCH  16  20
ENDBRANCH  11  13
ENDBRANCH   6  11
ENDBRANCH   4   5
ENDBRANCH   2   4
ENDBRANCH   1   2
BRANCH   1  29
ATOM     29  C   UNL A   1      38.481  21.687  25.777  1.00  0.00     0.274 C 
BRANCH  29  30
ATOM     30  C   UNL A   1      38.639  23.048  26.452  1.00  0.00     0.275 C 
BRANCH  30  31
ATOM     31  O   UNL A   1      39.864  23.413  27.151  1.00  0.00    -0.458 OA
BRANCH  31  32
ATOM     32  C   UNL A   1      40.668  24.493  26.959  1.00  0.00     0.338 C 
ATOM     33  O   UNL A   1      41.723  24.393  26.344  1.00  0.00    -0.246 OA
BRANCH  32  34
ATOM     34  C   UNL A   1      40.219  25.769  27.543  1.00  0.00     0.060 A 
ATOM     35  C   UNL A   1      39.434  25.809  28.709  1.00  0.00     0.016 A 
ATOM     36  C   UNL A   1      40.756  26.927  27.019  1.00  0.00     0.016 A 
ATOM     37  C   UNL A   1      39.286  27.010  29.415  1.00  0.00     0.010 A 
ATOM     38  C   UNL A   1      40.852  28.005  27.856  1.00  0.00     0.010 A 
ATOM     39  C   UNL A   1      40.039  28.102  29.005  1.00  0.00    -0.014 A 
BRANCH  39  40
ATOM     40  C   UNL A   1      39.824  29.494  29.389  1.00  0.00     0.031 A 
ATOM     41  C   UNL A   1      38.741  30.360  28.910  1.00  0.00     0.074 A 
ATOM     42  C   UNL A   1      40.637  29.804  30.430  1.00  0.00     0.049 A 
ATOM     43  N   UNL A   1      38.786  31.636  29.071  1.00  0.00    -0.248 NA
ATOM     44  C   UNL A   1      37.532  29.930  28.217  1.00  0.00     0.031 C 
ATOM     45  C   UNL A   1      40.581  30.795  31.479  1.00  0.00     0.029 A 
ATOM     46  N   UNL A   1      41.820  29.107  30.716  1.00  0.00    -0.354 N 
ATOM     47  C   UNL A   1      37.530  32.144  28.809  1.00  0.00     0.074 A 
ATOM     48  C   UNL A   1      36.814  31.064  28.178  1.00  0.00     0.031 C 
ATOM     49  C   UNL A   1      41.772  30.800  32.121  1.00  0.00     0.029 A 
ATOM     50  C   UNL A   1      42.694  29.932  31.387  1.00  0.00     0.049 A 
ATOM     51  H   UNL A   1      41.999  28.170  30.474  1.00  0.00     0.167 HD
ATOM     52  C   UNL A   1      37.214  33.365  29.328  1.00  0.00     0.034 A 
ATOM     53  C   UNL A   1      43.872  30.236  30.760  1.00  0.00     0.034 A 
ATOM     54  C   UNL A   1      38.382  33.900  30.062  1.00  0.00     0.049 A 
ATOM     55  C   UNL A   1      43.802  31.682  30.284  1.00  0.00     0.074 A 
ATOM     56  C   UNL A   1      38.745  33.888  31.399  1.00  0.00     0.029 A 
ATOM     57  N   UNL A   1      39.546  34.184  29.361  1.00  0.00    -0.354 N 
ATOM     58  N   UNL A   1      42.799  32.493  30.501  1.00  0.00    -0.248 NA
ATOM     59  C   UNL A   1      44.806  32.263  29.403  1.00  0.00     0.031 C 
ATOM     60  C   UNL A   1      40.153  34.125  31.482  1.00  0.00     0.029 A 
ATOM     61  C   UNL A   1      40.646  34.310  30.202  1.00  0.00     0.049 A 
ATOM     62  H   UNL A   1      39.587  34.285  28.383  1.00  0.00     0.167 HD
ATOM     63  C   UNL A   1      42.907  33.587  29.691  1.00  0.00     0.074 A 
ATOM     64  C   UNL A   1      44.171  33.373  28.998  1.00  0.00     0.031 C 
ATOM     65  C   UNL A   1      41.953  34.568  29.596  1.00  0.00     0.034 A 
BRANCH  52  66
ATOM     66  C   UNL A   1      35.812  33.953  29.463  1.00  0.00     0.023 A 
ATOM     67  C   UNL A   1      35.088  34.120  28.257  1.00  0.00     0.012 A 
ATOM     68  C   UNL A   1      35.149  34.378  30.642  1.00  0.00     0.148 A 
ATOM     69  C   UNL A   1      33.834  34.736  28.196  1.00  0.00     0.002 A 
ATOM     70  C   UNL A   1      33.900  35.022  30.580  1.00  0.00     0.091 A 
ATOM     71  F   UNL A   1      35.692  34.119  31.837  1.00  0.00    -0.205 F 
ATOM     72  C   UNL A   1      33.247  35.208  29.355  1.00  0.00     0.022 A 
BRANCH  70  73
ATOM     73  S   UNL A   1      33.048  35.712  32.016  1.00  0.00     0.127 S 
ATOM     74  O   UNL A   1      32.694  34.507  32.771  1.00  0.00    -0.237 OA
ATOM     75  O   UNL A   1      34.088  36.528  32.639  1.00  0.00    -0.237 OA
ATOM     76  O   UNL A   1      31.903  36.446  31.493  1.00  0.00    -0.744 OA
ENDBRANCH  70  73
ENDBRANCH  52  66
BRANCH  53  77
ATOM     77  C   UNL A   1      44.414  29.074  29.913  1.00  0.00     0.023 A 
ATOM     78  C   UNL A   1      44.247  29.141  28.500  1.00  0.00     0.012 A 
ATOM     79  C   UNL A   1      45.403  28.194  30.393  1.00  0.00     0.148 A 
ATOM     80  C   UNL A   1      45.119  28.474  27.622  1.00  0.00     0.002 A 
ATOM     81  C   UNL A   1      46.271  27.539  29.515  1.00  0.00     0.091 A 
ATOM     82  F   UNL A   1      45.575  28.040  31.709  1.00  0.00    -0.205 F 
ATOM     83  C   UNL A   1      46.152  27.693  28.131  1.00  0.00     0.022 A 
BRANCH  81  84
ATOM     84  S   UNL A   1      47.680  26.650  30.200  1.00  0.00     0.127 S 
ATOM     85  O   UNL A   1      48.139  25.832  29.079  1.00  0.00    -0.237 OA
ATOM     86  O   UNL A   1      48.606  27.714  30.569  1.00  0.00    -0.237 OA
ATOM     87  O   UNL A   1      47.064  25.907  31.294  1.00  0.00    -0.744 OA
ENDBRANCH  81  84
ENDBRANCH  53  77
BRANCH  65  88
ATOM     88  C   UNL A   1      42.203  35.877  28.865  1.00  0.00     0.023 A 
ATOM     89  C   UNL A   1      41.813  36.041  27.522  1.00  0.00     0.012 A 
ATOM     90  C   UNL A   1      42.947  36.943  29.429  1.00  0.00     0.148 A 
ATOM     91  C   UNL A   1      41.971  37.246  26.838  1.00  0.00     0.002 A 
ATOM     92  C   UNL A   1      43.162  38.123  28.728  1.00  0.00     0.091 A 
ATOM     93  F   UNL A   1      43.512  36.811  30.632  1.00  0.00    -0.205 F 
ATOM     94  C   UNL A   1      42.634  38.296  27.449  1.00  0.00     0.022 A 
BRANCH  92  95
ATOM     95  S   UNL A   1      44.190  39.448  29.372  1.00  0.00     0.127 S 
ATOM     96  O   UNL A   1      44.296  40.323  28.204  1.00  0.00    -0.237 OA
ATOM     97  O   UNL A   1      43.357  39.971  30.454  1.00  0.00    -0.237 OA
ATOM     98  O   UNL A   1      45.440  38.836  29.798  1.00  0.00    -0.744 OA
ENDBRANCH  92  95
ENDBRANCH  65  88
ENDBRANCH  39  40
ENDBRANCH  32  34
ENDBRANCH  31  32
ENDBRANCH  30  31
ENDBRANCH  29  30
ENDBRANCH   1  29
TORSDOF 20
ENDMDL
