MODEL 1
REMARK VINA RESULT:     -12.2      0.000      0.000
REMARK SMILES O=C(OCCOC(=O)c1ccc(-c2ccn(C(F)F)c(=O)c2)cc1O)c1ccc(-c2c3nc(c(-c4cccc(S(=O)(=O)[O-])c4F)c4ccc([nH]4)c(-c4cccc(S(=O)(=O)[O-])c4F)c4nc(c(-c5cccc(S(=O)(=O)[O-])c5F)c5ccc2[nH]5)C=C4)C=C3)cc1
REMARK SMILES IDX 4 1 3 2 2 3 1 4 26 5 27 6 88 7 28 8 87 9 29 10 30 11 31 12
REMARK SMILES IDX 81 13 32 14 86 15 80 16 82 17 33 18 85 19 79 20 78 21 34 23
REMARK SMILES IDX 66 24 46 25 65 26 47 27 50 28 64 29 83 30 48 31 49 32 63 34
REMARK SMILES IDX 84 35 51 36 35 37 36 38 44 39 37 40 39 41 45 42 38 43 40 44
REMARK SMILES IDX 41 45 42 46 43 47 67 48 68 49 76 50 69 51 71 52 77 53 70 54
REMARK SMILES IDX 72 55 73 56 74 57 75 58 52 59 53 60 61 61 54 62 56 63 62 64
REMARK SMILES IDX 55 65 57 66 58 67 59 68 60 69 5 70 6 71 7 72 8 73 9 74 10 75
REMARK SMILES IDX 24 76 11 77 23 78 12 79 25 80 13 82 14 83 22 84 15 85 20 86
REMARK SMILES IDX 16 87 21 88 17 89 18 90 19 91
REMARK H PARENT 82 22 50 33 25 81
REMARK Flexibility Score: inf
ROOT
ATOM      1  C   UNL A   1      36.745  20.575  25.167  1.00  0.00     0.275 C 
ENDROOT
BRANCH   1   2
ATOM      2  O   UNL A   1      37.520  21.502  25.949  1.00  0.00    -0.458 OA
BRANCH   2   3
ATOM      3  C   UNL A   1      38.864  21.608  26.082  1.00  0.00     0.338 C 
ATOM      4  O   UNL A   1      39.559  20.616  25.860  1.00  0.00    -0.246 OA
BRANCH   3   5
ATOM      5  C   UNL A   1      39.540  22.819  26.640  1.00  0.00     0.060 A 
ATOM      6  C   UNL A   1      39.103  24.055  26.136  1.00  0.00     0.016 A 
ATOM      7  C   UNL A   1      40.532  22.831  27.623  1.00  0.00     0.016 A 
ATOM      8  C   UNL A   1      39.730  25.247  26.506  1.00  0.00     0.010 A 
ATOM      9  C   UNL A   1      41.161  24.024  27.999  1.00  0.00     0.010 A 
ATOM     10  C   UNL A   1      40.790  25.240  27.419  1.00  0.00    -0.014 A 
BRANCH  10  11
ATOM     11  C   UNL A   1      41.383  26.516  27.880  1.00  0.00     0.031 A 
ATOM     12  C   UNL A   1      42.832  26.847  27.685  1.00  0.00     0.074 A 
ATOM     13  C   UNL A   1      40.580  27.386  28.519  1.00  0.00     0.049 A 
ATOM     14  N   UNL A   1      43.418  28.013  27.762  1.00  0.00    -0.248 NA
ATOM     15  C   UNL A   1      43.746  25.745  27.352  1.00  0.00     0.031 C 
ATOM     16  C   UNL A   1      39.177  27.134  28.851  1.00  0.00     0.029 A 
ATOM     17  N   UNL A   1      40.827  28.637  29.014  1.00  0.00    -0.354 N 
ATOM     18  C   UNL A   1      44.748  27.799  27.432  1.00  0.00     0.074 A 
ATOM     19  C   UNL A   1      44.900  26.383  27.188  1.00  0.00     0.031 C 
ATOM     20  C   UNL A   1      38.683  28.202  29.492  1.00  0.00     0.029 A 
ATOM     21  C   UNL A   1      39.736  29.206  29.622  1.00  0.00     0.049 A 
ATOM     22  H   UNL A   1      41.701  29.084  28.943  1.00  0.00     0.167 HD
ATOM     23  C   UNL A   1      45.743  28.710  27.335  1.00  0.00     0.034 A 
ATOM     24  C   UNL A   1      39.591  30.406  30.213  1.00  0.00     0.034 A 
ATOM     25  C   UNL A   1      45.608  30.087  27.721  1.00  0.00     0.049 A 
ATOM     26  C   UNL A   1      40.743  31.364  30.206  1.00  0.00     0.074 A 
ATOM     27  C   UNL A   1      46.542  31.102  27.626  1.00  0.00     0.029 A 
ATOM     28  N   UNL A   1      44.498  30.617  28.362  1.00  0.00    -0.354 N 
ATOM     29  N   UNL A   1      41.916  31.225  29.636  1.00  0.00    -0.248 NA
ATOM     30  C   UNL A   1      40.556  32.643  30.902  1.00  0.00     0.031 C 
ATOM     31  C   UNL A   1      46.022  32.230  28.270  1.00  0.00     0.029 A 
ATOM     32  C   UNL A   1      44.753  31.923  28.738  1.00  0.00     0.049 A 
ATOM     33  H   UNL A   1      43.655  30.136  28.524  1.00  0.00     0.167 HD
ATOM     34  C   UNL A   1      42.603  32.406  29.884  1.00  0.00     0.074 A 
ATOM     35  C   UNL A   1      41.715  33.249  30.659  1.00  0.00     0.031 C 
ATOM     36  C   UNL A   1      43.856  32.753  29.504  1.00  0.00     0.034 A 
BRANCH  23  37
ATOM     37  C   UNL A   1      47.062  28.272  26.766  1.00  0.00     0.023 A 
ATOM     38  C   UNL A   1      48.122  28.001  27.655  1.00  0.00     0.012 A 
ATOM     39  C   UNL A   1      47.221  28.008  25.393  1.00  0.00     0.148 A 
ATOM     40  C   UNL A   1      49.323  27.469  27.187  1.00  0.00     0.002 A 
ATOM     41  C   UNL A   1      48.417  27.464  24.935  1.00  0.00     0.091 A 
ATOM     42  F   UNL A   1      46.201  28.285  24.570  1.00  0.00    -0.205 F 
ATOM     43  C   UNL A   1      49.467  27.194  25.830  1.00  0.00     0.022 A 
BRANCH  41  44
ATOM     44  S   UNL A   1      48.703  27.048  23.211  1.00  0.00     0.127 S 
ATOM     45  O   UNL A   1      48.088  25.724  23.128  1.00  0.00    -0.237 OA
ATOM     46  O   UNL A   1      47.971  28.107  22.517  1.00  0.00    -0.237 OA
ATOM     47  O   UNL A   1      50.147  27.071  23.027  1.00  0.00    -0.744 OA
ENDBRANCH  41  44
ENDBRANCH  23  37
BRANCH  24  48
ATOM     48  C   UNL A   1      38.263  30.751  30.780  1.00  0.00     0.023 A 
ATOM     49  C   UNL A   1      38.041  30.581  32.159  1.00  0.00     0.012 A 
ATOM     50  C   UNL A   1      37.296  31.413  29.996  1.00  0.00     0.148 A 
ATOM     51  C   UNL A   1      36.881  31.080  32.751  1.00  0.00     0.002 A 
ATOM     52  C   UNL A   1      36.164  31.944  30.600  1.00  0.00     0.091 A 
ATOM     53  F   UNL A   1      37.540  31.561  28.686  1.00  0.00    -0.205 F 
ATOM     54  C   UNL A   1      35.952  31.774  31.979  1.00  0.00     0.022 A 
BRANCH  52  55
ATOM     55  S   UNL A   1      34.983  32.967  29.714  1.00  0.00     0.127 S 
ATOM     56  O   UNL A   1      34.025  33.297  30.766  1.00  0.00    -0.237 OA
ATOM     57  O   UNL A   1      35.822  34.081  29.271  1.00  0.00    -0.237 OA
ATOM     58  O   UNL A   1      34.466  32.135  28.636  1.00  0.00    -0.744 OA
ENDBRANCH  52  55
ENDBRANCH  24  48
BRANCH  36  59
ATOM     59  C   UNL A   1      44.386  34.089  29.939  1.00  0.00     0.023 A 
ATOM     60  C   UNL A   1      45.232  34.156  31.062  1.00  0.00     0.012 A 
ATOM     61  C   UNL A   1      44.189  35.232  29.142  1.00  0.00     0.148 A 
ATOM     62  C   UNL A   1      45.880  35.347  31.384  1.00  0.00     0.002 A 
ATOM     63  C   UNL A   1      44.867  36.404  29.446  1.00  0.00     0.091 A 
ATOM     64  F   UNL A   1      43.378  35.135  28.078  1.00  0.00    -0.205 F 
ATOM     65  C   UNL A   1      45.710  36.465  30.570  1.00  0.00     0.022 A 
BRANCH  63  66
ATOM     66  S   UNL A   1      44.791  37.867  28.406  1.00  0.00     0.127 S 
ATOM     67  O   UNL A   1      43.833  38.699  29.132  1.00  0.00    -0.237 OA
ATOM     68  O   UNL A   1      46.172  38.344  28.447  1.00  0.00    -0.237 OA
ATOM     69  O   UNL A   1      44.343  37.411  27.097  1.00  0.00    -0.744 OA
ENDBRANCH  63  66
ENDBRANCH  36  59
ENDBRANCH  10  11
ENDBRANCH   3   5
ENDBRANCH   2   3
ENDBRANCH   1   2
BRANCH   1  70
ATOM     70  C   UNL A   1      35.398  21.109  24.685  1.00  0.00     0.275 C 
BRANCH  70  71
ATOM     71  O   UNL A   1      35.269  22.528  24.830  1.00  0.00    -0.458 OA
BRANCH  71  72
ATOM     72  C   UNL A   1      35.419  23.250  23.690  1.00  0.00     0.342 C 
ATOM     73  O   UNL A   1      36.141  22.976  22.742  1.00  0.00    -0.246 OA
BRANCH  72  74
ATOM     74  C   UNL A   1      34.449  24.361  23.661  1.00  0.00     0.101 A 
ATOM     75  C   UNL A   1      34.368  25.178  24.797  1.00  0.00     0.020 A 
ATOM     76  C   UNL A   1      33.622  24.617  22.567  1.00  0.00     0.130 A 
ATOM     77  C   UNL A   1      33.516  26.286  24.807  1.00  0.00     0.010 A 
ATOM     78  C   UNL A   1      32.759  25.719  22.582  1.00  0.00     0.055 A 
ATOM     79  C   UNL A   1      32.716  26.577  23.692  1.00  0.00    -0.014 A 
BRANCH  76  80
ATOM     80  O   UNL A   1      33.632  23.779  21.487  1.00  0.00    -0.507 OA
ATOM     81  H   UNL A   1      34.220  23.938  20.775  1.00  0.00     0.293 HD
ENDBRANCH  76  80
BRANCH  79  82
ATOM     82  C   UNL A   1      31.801  27.740  23.693  1.00  0.00    -0.011 A 
ATOM     83  C   UNL A   1      31.855  28.762  24.724  1.00  0.00     0.027 A 
ATOM     84  C   UNL A   1      30.887  27.864  22.714  1.00  0.00     0.080 A 
ATOM     85  C   UNL A   1      31.013  29.802  24.703  1.00  0.00     0.095 A 
ATOM     86  C   UNL A   1      29.981  29.047  22.644  1.00  0.00     0.255 A 
ATOM     87  N   UNL A   1      30.084  29.947  23.691  1.00  0.00    -0.258 N 
ATOM     88  O   UNL A   1      29.251  29.164  21.665  1.00  0.00    -0.269 OA
BRANCH  87  89
ATOM     89  C   UNL A   1      29.220  31.101  23.653  1.00  0.00     0.451 C 
ATOM     90  F   UNL A   1      27.926  30.726  23.828  1.00  0.00    -0.185 F 
ATOM     91  F   UNL A   1      29.529  31.995  24.619  1.00  0.00    -0.185 F 
ENDBRANCH  87  89
ENDBRANCH  79  82
ENDBRANCH  72  74
ENDBRANCH  71  72
ENDBRANCH  70  71
ENDBRANCH   1  70
TORSDOF 17
ENDMDL
MODEL 2
REMARK VINA RESULT:     -12.1      5.588     10.802
REMARK SMILES O=C(OCCOC(=O)c1ccc(-c2ccn(C(F)F)c(=O)c2)cc1O)c1ccc(-c2c3nc(c(-c4cccc(S(=O)(=O)[O-])c4F)c4ccc([nH]4)c(-c4cccc(S(=O)(=O)[O-])c4F)c4nc(c(-c5cccc(S(=O)(=O)[O-])c5F)c5ccc2[nH]5)C=C4)C=C3)cc1
REMARK SMILES IDX 4 1 3 2 2 3 1 4 26 5 27 6 88 7 28 8 87 9 29 10 30 11 31 12
REMARK SMILES IDX 81 13 32 14 86 15 80 16 82 17 33 18 85 19 79 20 78 21 34 23
REMARK SMILES IDX 66 24 46 25 65 26 47 27 50 28 64 29 83 30 48 31 49 32 63 34
REMARK SMILES IDX 84 35 51 36 35 37 36 38 44 39 37 40 39 41 45 42 38 43 40 44
REMARK SMILES IDX 41 45 42 46 43 47 67 48 68 49 76 50 69 51 71 52 77 53 70 54
REMARK SMILES IDX 72 55 73 56 74 57 75 58 52 59 53 60 61 61 54 62 56 63 62 64
REMARK SMILES IDX 55 65 57 66 58 67 59 68 60 69 5 70 6 71 7 72 8 73 9 74 10 75
REMARK SMILES IDX 24 76 11 77 23 78 12 79 25 80 13 82 14 83 22 84 15 85 20 86
REMARK SMILES IDX 16 87 21 88 17 89 18 90 19 91
REMARK H PARENT 82 22 50 33 25 81
REMARK Flexibility Score: inf
ROOT
ATOM      1  C   UNL A   1      31.625  31.960  26.869  1.00  0.00     0.275 C 
ENDROOT
BRANCH   1   2
ATOM      2  O   UNL A   1      32.533  33.075  26.920  1.00  0.00    -0.458 OA
BRANCH   2   3
ATOM      3  C   UNL A   1      33.171  33.621  27.983  1.00  0.00     0.338 C 
ATOM      4  O   UNL A   1      32.743  34.677  28.450  1.00  0.00    -0.246 OA
BRANCH   3   5
ATOM      5  C   UNL A   1      34.464  33.096  28.522  1.00  0.00     0.060 A 
ATOM      6  C   UNL A   1      34.361  32.084  29.490  1.00  0.00     0.016 A 
ATOM      7  C   UNL A   1      35.743  33.498  28.132  1.00  0.00     0.016 A 
ATOM      8  C   UNL A   1      35.496  31.589  30.139  1.00  0.00     0.010 A 
ATOM      9  C   UNL A   1      36.883  33.003  28.778  1.00  0.00     0.010 A 
ATOM     10  C   UNL A   1      36.769  32.069  29.810  1.00  0.00    -0.014 A 
BRANCH  10  11
ATOM     11  C   UNL A   1      37.972  31.469  30.432  1.00  0.00     0.031 A 
ATOM     12  C   UNL A   1      38.429  31.831  31.812  1.00  0.00     0.074 A 
ATOM     13  C   UNL A   1      38.681  30.589  29.703  1.00  0.00     0.049 A 
ATOM     14  N   UNL A   1      39.265  31.190  32.586  1.00  0.00    -0.248 NA
ATOM     15  C   UNL A   1      37.881  33.054  32.416  1.00  0.00     0.031 C 
ATOM     16  C   UNL A   1      38.388  30.230  28.315  1.00  0.00     0.029 A 
ATOM     17  N   UNL A   1      39.792  29.855  30.016  1.00  0.00    -0.354 N 
ATOM     18  C   UNL A   1      39.300  31.893  33.782  1.00  0.00     0.074 A 
ATOM     19  C   UNL A   1      38.430  33.036  33.626  1.00  0.00     0.031 C 
ATOM     20  C   UNL A   1      39.295  29.338  27.895  1.00  0.00     0.029 A 
ATOM     21  C   UNL A   1      40.235  29.070  28.981  1.00  0.00     0.049 A 
ATOM     22  H   UNL A   1      40.232  29.887  30.896  1.00  0.00     0.167 HD
ATOM     23  C   UNL A   1      39.992  31.599  34.906  1.00  0.00     0.034 A 
ATOM     24  C   UNL A   1      41.277  28.222  28.910  1.00  0.00     0.034 A 
ATOM     25  C   UNL A   1      40.963  30.542  34.995  1.00  0.00     0.049 A 
ATOM     26  C   UNL A   1      42.113  27.994  30.132  1.00  0.00     0.074 A 
ATOM     27  C   UNL A   1      41.691  30.134  36.097  1.00  0.00     0.029 A 
ATOM     28  N   UNL A   1      41.406  29.792  33.917  1.00  0.00    -0.354 N 
ATOM     29  N   UNL A   1      41.945  28.481  31.338  1.00  0.00    -0.248 NA
ATOM     30  C   UNL A   1      43.267  27.095  29.997  1.00  0.00     0.031 C 
ATOM     31  C   UNL A   1      42.623  29.182  35.672  1.00  0.00     0.029 A 
ATOM     32  C   UNL A   1      42.452  28.978  34.311  1.00  0.00     0.049 A 
ATOM     33  H   UNL A   1      41.033  29.831  33.007  1.00  0.00     0.167 HD
ATOM     34  C   UNL A   1      42.958  27.933  32.115  1.00  0.00     0.074 A 
ATOM     35  C   UNL A   1      43.737  27.078  31.241  1.00  0.00     0.031 C 
ATOM     36  C   UNL A   1      43.214  28.127  33.431  1.00  0.00     0.034 A 
BRANCH  23  37
ATOM     37  C   UNL A   1      39.718  32.398  36.147  1.00  0.00     0.023 A 
ATOM     38  C   UNL A   1      40.416  33.609  36.335  1.00  0.00     0.012 A 
ATOM     39  C   UNL A   1      38.701  32.035  37.048  1.00  0.00     0.148 A 
ATOM     40  C   UNL A   1      40.104  34.450  37.403  1.00  0.00     0.002 A 
ATOM     41  C   UNL A   1      38.385  32.884  38.103  1.00  0.00     0.091 A 
ATOM     42  F   UNL A   1      38.062  30.875  36.851  1.00  0.00    -0.205 F 
ATOM     43  C   UNL A   1      39.085  34.091  38.281  1.00  0.00     0.022 A 
BRANCH  41  44
ATOM     44  S   UNL A   1      37.075  32.534  39.280  1.00  0.00     0.127 S 
ATOM     45  O   UNL A   1      35.885  32.720  38.451  1.00  0.00    -0.237 OA
ATOM     46  O   UNL A   1      37.356  31.147  39.645  1.00  0.00    -0.237 OA
ATOM     47  O   UNL A   1      37.233  33.501  40.358  1.00  0.00    -0.744 OA
ENDBRANCH  41  44
ENDBRANCH  23  37
BRANCH  24  48
ATOM     48  C   UNL A   1      41.499  27.492  27.636  1.00  0.00     0.023 A 
ATOM     49  C   UNL A   1      41.959  28.200  26.512  1.00  0.00     0.012 A 
ATOM     50  C   UNL A   1      41.434  26.084  27.592  1.00  0.00     0.148 A 
ATOM     51  C   UNL A   1      42.367  27.515  25.366  1.00  0.00     0.002 A 
ATOM     52  C   UNL A   1      41.881  25.407  26.465  1.00  0.00     0.091 A 
ATOM     53  F   UNL A   1      40.994  25.438  28.683  1.00  0.00    -0.205 F 
ATOM     54  C   UNL A   1      42.344  26.123  25.348  1.00  0.00     0.022 A 
BRANCH  52  55
ATOM     55  S   UNL A   1      42.016  23.617  26.401  1.00  0.00     0.127 S 
ATOM     56  O   UNL A   1      42.847  23.338  27.569  1.00  0.00    -0.237 OA
ATOM     57  O   UNL A   1      40.618  23.204  26.524  1.00  0.00    -0.237 OA
ATOM     58  O   UNL A   1      42.624  23.310  25.113  1.00  0.00    -0.744 OA
ENDBRANCH  52  55
ENDBRANCH  24  48
BRANCH  36  59
ATOM     59  C   UNL A   1      44.407  27.440  34.030  1.00  0.00     0.023 A 
ATOM     60  C   UNL A   1      45.657  28.088  33.999  1.00  0.00     0.012 A 
ATOM     61  C   UNL A   1      44.254  26.249  34.766  1.00  0.00     0.148 A 
ATOM     62  C   UNL A   1      46.740  27.560  34.699  1.00  0.00     0.002 A 
ATOM     63  C   UNL A   1      45.327  25.751  35.493  1.00  0.00     0.091 A 
ATOM     64  F   UNL A   1      43.051  25.657  34.777  1.00  0.00    -0.205 F 
ATOM     65  C   UNL A   1      46.572  26.403  35.457  1.00  0.00     0.022 A 
BRANCH  63  66
ATOM     66  S   UNL A   1      45.187  24.324  36.573  1.00  0.00     0.127 S 
ATOM     67  O   UNL A   1      44.712  23.295  35.649  1.00  0.00    -0.237 OA
ATOM     68  O   UNL A   1      46.565  24.148  37.029  1.00  0.00    -0.237 OA
ATOM     69  O   UNL A   1      44.242  24.696  37.618  1.00  0.00    -0.744 OA
ENDBRANCH  63  66
ENDBRANCH  36  59
ENDBRANCH  10  11
ENDBRANCH   3   5
ENDBRANCH   2   3
ENDBRANCH   1   2
BRANCH   1  70
ATOM     70  C   UNL A   1      32.294  30.587  26.813  1.00  0.00     0.275 C 
BRANCH  70  71
ATOM     71  O   UNL A   1      32.544  30.136  25.477  1.00  0.00    -0.458 OA
BRANCH  71  72
ATOM     72  C   UNL A   1      31.688  29.192  25.008  1.00  0.00     0.342 C 
ATOM     73  O   UNL A   1      30.594  29.387  24.499  1.00  0.00    -0.246 OA
BRANCH  72  74
ATOM     74  C   UNL A   1      32.332  27.864  25.037  1.00  0.00     0.101 A 
ATOM     75  C   UNL A   1      33.276  27.582  24.042  1.00  0.00     0.020 A 
ATOM     76  C   UNL A   1      32.033  26.899  25.999  1.00  0.00     0.130 A 
ATOM     77  C   UNL A   1      33.968  26.367  24.054  1.00  0.00     0.010 A 
ATOM     78  C   UNL A   1      32.717  25.678  26.003  1.00  0.00     0.055 A 
ATOM     79  C   UNL A   1      33.707  25.410  25.045  1.00  0.00    -0.014 A 
BRANCH  76  80
ATOM     80  O   UNL A   1      31.055  27.130  26.925  1.00  0.00    -0.507 OA
ATOM     81  H   UNL A   1      30.555  26.416  27.268  1.00  0.00     0.293 HD
ENDBRANCH  76  80
BRANCH  79  82
ATOM     82  C   UNL A   1      34.424  24.116  25.063  1.00  0.00    -0.011 A 
ATOM     83  C   UNL A   1      33.847  22.907  24.504  1.00  0.00     0.027 A 
ATOM     84  C   UNL A   1      35.650  24.046  25.615  1.00  0.00     0.080 A 
ATOM     85  C   UNL A   1      34.516  21.748  24.538  1.00  0.00     0.095 A 
ATOM     86  C   UNL A   1      36.432  22.776  25.607  1.00  0.00     0.255 A 
ATOM     87  N   UNL A   1      35.782  21.671  25.085  1.00  0.00    -0.258 N 
ATOM     88  O   UNL A   1      37.588  22.802  26.017  1.00  0.00    -0.269 OA
BRANCH  87  89
ATOM     89  C   UNL A   1      36.511  20.428  25.065  1.00  0.00     0.451 C 
ATOM     90  F   UNL A   1      35.683  19.401  24.739  1.00  0.00    -0.185 F 
ATOM     91  F   UNL A   1      37.522  20.449  24.168  1.00  0.00    -0.185 F 
ENDBRANCH  87  89
ENDBRANCH  79  82
ENDBRANCH  72  74
ENDBRANCH  71  72
ENDBRANCH  70  71
ENDBRANCH   1  70
TORSDOF 17
ENDMDL
MODEL 3
REMARK VINA RESULT:     -12.1      5.695     10.325
REMARK SMILES O=C(OCCOC(=O)c1ccc(-c2ccn(C(F)F)c(=O)c2)cc1O)c1ccc(-c2c3nc(c(-c4cccc(S(=O)(=O)[O-])c4F)c4ccc([nH]4)c(-c4cccc(S(=O)(=O)[O-])c4F)c4nc(c(-c5cccc(S(=O)(=O)[O-])c5F)c5ccc2[nH]5)C=C4)C=C3)cc1
REMARK SMILES IDX 4 1 3 2 2 3 1 4 26 5 27 6 88 7 28 8 87 9 29 10 30 11 31 12
REMARK SMILES IDX 81 13 32 14 86 15 80 16 82 17 33 18 85 19 79 20 78 21 34 23
REMARK SMILES IDX 66 24 46 25 65 26 47 27 50 28 64 29 83 30 48 31 49 32 63 34
REMARK SMILES IDX 84 35 51 36 35 37 36 38 44 39 37 40 39 41 45 42 38 43 40 44
REMARK SMILES IDX 41 45 42 46 43 47 67 48 68 49 76 50 69 51 71 52 77 53 70 54
REMARK SMILES IDX 72 55 73 56 74 57 75 58 52 59 53 60 61 61 54 62 56 63 62 64
REMARK SMILES IDX 55 65 57 66 58 67 59 68 60 69 5 70 6 71 7 72 8 73 9 74 10 75
REMARK SMILES IDX 24 76 11 77 23 78 12 79 25 80 13 82 14 83 22 84 15 85 20 86
REMARK SMILES IDX 16 87 21 88 17 89 18 90 19 91
REMARK H PARENT 82 22 50 33 25 81
REMARK Flexibility Score: inf
ROOT
ATOM      1  C   UNL A   1      31.679  29.134  25.574  1.00  0.00     0.275 C 
ENDROOT
BRANCH   1   2
ATOM      2  O   UNL A   1      32.577  30.255  25.667  1.00  0.00    -0.458 OA
BRANCH   2   3
ATOM      3  C   UNL A   1      32.927  30.995  26.747  1.00  0.00     0.338 C 
ATOM      4  O   UNL A   1      32.183  31.910  27.100  1.00  0.00    -0.246 OA
BRANCH   3   5
ATOM      5  C   UNL A   1      34.246  30.865  27.437  1.00  0.00     0.060 A 
ATOM      6  C   UNL A   1      34.635  29.560  27.780  1.00  0.00     0.016 A 
ATOM      7  C   UNL A   1      35.124  31.908  27.740  1.00  0.00     0.016 A 
ATOM      8  C   UNL A   1      35.798  29.325  28.519  1.00  0.00     0.010 A 
ATOM      9  C   UNL A   1      36.293  31.676  28.478  1.00  0.00     0.010 A 
ATOM     10  C   UNL A   1      36.623  30.388  28.904  1.00  0.00    -0.014 A 
BRANCH  10  11
ATOM     11  C   UNL A   1      37.903  30.120  29.600  1.00  0.00     0.031 A 
ATOM     12  C   UNL A   1      38.238  30.728  30.928  1.00  0.00     0.074 A 
ATOM     13  C   UNL A   1      38.794  29.320  28.988  1.00  0.00     0.049 A 
ATOM     14  N   UNL A   1      39.162  30.366  31.779  1.00  0.00    -0.248 NA
ATOM     15  C   UNL A   1      37.440  31.880  31.375  1.00  0.00     0.031 C 
ATOM     16  C   UNL A   1      38.620  28.747  27.653  1.00  0.00     0.029 A 
ATOM     17  N   UNL A   1      40.019  28.867  29.394  1.00  0.00    -0.354 N 
ATOM     18  C   UNL A   1      39.021  31.199  32.880  1.00  0.00     0.074 A 
ATOM     19  C   UNL A   1      37.946  32.117  32.580  1.00  0.00     0.031 C 
ATOM     20  C   UNL A   1      39.698  28.012  27.350  1.00  0.00     0.029 A 
ATOM     21  C   UNL A   1      40.640  28.070  28.465  1.00  0.00     0.049 A 
ATOM     22  H   UNL A   1      40.418  29.092  30.266  1.00  0.00     0.167 HD
ATOM     23  C   UNL A   1      39.725  31.185  34.035  1.00  0.00     0.034 A 
ATOM     24  C   UNL A   1      41.831  27.447  28.504  1.00  0.00     0.034 A 
ATOM     25  C   UNL A   1      40.883  30.364  34.257  1.00  0.00     0.049 A 
ATOM     26  C   UNL A   1      42.660  27.539  29.748  1.00  0.00     0.074 A 
ATOM     27  C   UNL A   1      41.645  30.245  35.405  1.00  0.00     0.029 A 
ATOM     28  N   UNL A   1      41.498  29.595  33.281  1.00  0.00    -0.354 N 
ATOM     29  N   UNL A   1      42.363  28.122  30.885  1.00  0.00    -0.248 NA
ATOM     30  C   UNL A   1      43.973  26.881  29.730  1.00  0.00     0.031 C 
ATOM     31  C   UNL A   1      42.760  29.457  35.103  1.00  0.00     0.029 A 
ATOM     32  C   UNL A   1      42.674  29.061  33.777  1.00  0.00     0.049 A 
ATOM     33  H   UNL A   1      41.151  29.450  32.372  1.00  0.00     0.167 HD
ATOM     34  C   UNL A   1      43.441  27.886  31.728  1.00  0.00     0.074 A 
ATOM     35  C   UNL A   1      44.400  27.107  30.969  1.00  0.00     0.031 C 
ATOM     36  C   UNL A   1      43.615  28.282  33.012  1.00  0.00     0.034 A 
BRANCH  23  37
ATOM     37  C   UNL A   1      39.260  32.056  35.167  1.00  0.00     0.023 A 
ATOM     38  C   UNL A   1      38.397  31.499  36.133  1.00  0.00     0.012 A 
ATOM     39  C   UNL A   1      39.763  33.356  35.350  1.00  0.00     0.148 A 
ATOM     40  C   UNL A   1      38.042  32.225  37.270  1.00  0.00     0.002 A 
ATOM     41  C   UNL A   1      39.416  34.070  36.493  1.00  0.00     0.091 A 
ATOM     42  F   UNL A   1      40.572  33.863  34.411  1.00  0.00    -0.205 F 
ATOM     43  C   UNL A   1      38.557  33.506  37.453  1.00  0.00     0.022 A 
BRANCH  41  44
ATOM     44  S   UNL A   1      40.039  35.717  36.843  1.00  0.00     0.127 S 
ATOM     45  O   UNL A   1      39.358  36.023  38.100  1.00  0.00    -0.237 OA
ATOM     46  O   UNL A   1      41.477  35.478  36.968  1.00  0.00    -0.237 OA
ATOM     47  O   UNL A   1      39.646  36.545  35.711  1.00  0.00    -0.744 OA
ENDBRANCH  41  44
ENDBRANCH  23  37
BRANCH  24  48
ATOM     48  C   UNL A   1      42.232  26.630  27.330  1.00  0.00     0.023 A 
ATOM     49  C   UNL A   1      43.109  27.181  26.379  1.00  0.00     0.012 A 
ATOM     50  C   UNL A   1      41.896  25.263  27.256  1.00  0.00     0.148 A 
ATOM     51  C   UNL A   1      43.659  26.377  25.380  1.00  0.00     0.002 A 
ATOM     52  C   UNL A   1      42.480  24.460  26.285  1.00  0.00     0.091 A 
ATOM     53  F   UNL A   1      41.059  24.767  28.180  1.00  0.00    -0.205 F 
ATOM     54  C   UNL A   1      43.359  25.018  25.341  1.00  0.00     0.022 A 
BRANCH  52  55
ATOM     55  S   UNL A   1      42.260  22.678  26.241  1.00  0.00     0.127 S 
ATOM     56  O   UNL A   1      40.804  22.557  26.220  1.00  0.00    -0.237 OA
ATOM     57  O   UNL A   1      42.928  22.322  24.988  1.00  0.00    -0.237 OA
ATOM     58  O   UNL A   1      42.913  22.167  27.439  1.00  0.00    -0.744 OA
ENDBRANCH  52  55
ENDBRANCH  24  48
BRANCH  36  59
ATOM     59  C   UNL A   1      44.903  27.926  33.696  1.00  0.00     0.023 A 
ATOM     60  C   UNL A   1      45.939  28.878  33.744  1.00  0.00     0.012 A 
ATOM     61  C   UNL A   1      45.017  26.730  34.431  1.00  0.00     0.148 A 
ATOM     62  C   UNL A   1      47.073  28.645  34.520  1.00  0.00     0.002 A 
ATOM     63  C   UNL A   1      46.131  26.523  35.233  1.00  0.00     0.091 A 
ATOM     64  F   UNL A   1      44.012  25.844  34.366  1.00  0.00    -0.205 F 
ATOM     65  C   UNL A   1      47.162  27.478  35.275  1.00  0.00     0.022 A 
BRANCH  63  66
ATOM     66  S   UNL A   1      46.296  25.099  36.315  1.00  0.00     0.127 S 
ATOM     67  O   UNL A   1      47.748  24.964  36.411  1.00  0.00    -0.237 OA
ATOM     68  O   UNL A   1      45.642  25.565  37.537  1.00  0.00    -0.237 OA
ATOM     69  O   UNL A   1      45.618  23.998  35.643  1.00  0.00    -0.744 OA
ENDBRANCH  63  66
ENDBRANCH  36  59
ENDBRANCH  10  11
ENDBRANCH   3   5
ENDBRANCH   2   3
ENDBRANCH   1   2
BRANCH   1  70
ATOM     70  C   UNL A   1      31.391  28.656  24.152  1.00  0.00     0.275 C 
BRANCH  70  71
ATOM     71  O   UNL A   1      31.000  27.280  24.089  1.00  0.00    -0.458 OA
BRANCH  71  72
ATOM     72  C   UNL A   1      31.109  26.695  22.868  1.00  0.00     0.342 C 
ATOM     73  O   UNL A   1      31.012  27.248  21.783  1.00  0.00    -0.246 OA
BRANCH  72  74
ATOM     74  C   UNL A   1      31.535  25.290  23.015  1.00  0.00     0.101 A 
ATOM     75  C   UNL A   1      30.801  24.480  23.891  1.00  0.00     0.020 A 
ATOM     76  C   UNL A   1      32.626  24.754  22.330  1.00  0.00     0.130 A 
ATOM     77  C   UNL A   1      31.114  23.124  24.023  1.00  0.00     0.010 A 
ATOM     78  C   UNL A   1      32.947  23.399  22.473  1.00  0.00     0.055 A 
ATOM     79  C   UNL A   1      32.180  22.567  23.302  1.00  0.00    -0.014 A 
BRANCH  76  80
ATOM     80  O   UNL A   1      33.400  25.554  21.537  1.00  0.00    -0.507 OA
ATOM     81  H   UNL A   1      34.266  25.786  21.808  1.00  0.00     0.293 HD
ENDBRANCH  76  80
BRANCH  79  82
ATOM     82  C   UNL A   1      32.529  21.136  23.441  1.00  0.00    -0.011 A 
ATOM     83  C   UNL A   1      33.295  20.635  24.568  1.00  0.00     0.027 A 
ATOM     84  C   UNL A   1      32.130  20.263  22.498  1.00  0.00     0.080 A 
ATOM     85  C   UNL A   1      33.601  19.336  24.667  1.00  0.00     0.095 A 
ATOM     86  C   UNL A   1      32.412  18.803  22.624  1.00  0.00     0.255 A 
ATOM     87  N   UNL A   1      33.179  18.430  23.714  1.00  0.00    -0.258 N 
ATOM     88  O   UNL A   1      31.922  18.042  21.795  1.00  0.00    -0.269 OA
BRANCH  87  89
ATOM     89  C   UNL A   1      33.471  17.025  23.862  1.00  0.00     0.451 C 
ATOM     90  F   UNL A   1      34.379  16.632  22.932  1.00  0.00    -0.185 F 
ATOM     91  F   UNL A   1      33.974  16.741  25.084  1.00  0.00    -0.185 F 
ENDBRANCH  87  89
ENDBRANCH  79  82
ENDBRANCH  72  74
ENDBRANCH  71  72
ENDBRANCH  70  71
ENDBRANCH   1  70
TORSDOF 17
ENDMDL
