MODEL 1
REMARK VINA RESULT:     -12.3      0.000      0.000
REMARK SMILES O=C(OCCOC(=O)[C@@H]1CS[C@H](Cc2cccc(F)c2)C(=O)N1)c1ccc(-c2c3nc(c(-c4cccc(S(=O)(=O)[O-])c4F)c4ccc([nH]4)c(-c4cccc(S(=O)(=O)[O-])c4F)c4nc(c(-c5cccc(S(=O)(=O)[O-])c5F)c5ccc2[nH]5)C=C4)C=C3)cc1
REMARK SMILES IDX 4 1 3 2 2 3 1 4 24 5 25 6 86 7 26 8 85 9 27 10 28 11 29 12
REMARK SMILES IDX 79 13 30 14 84 15 78 16 80 17 31 18 83 19 77 20 76 21 32 23
REMARK SMILES IDX 64 24 44 25 63 26 45 27 48 28 62 29 81 30 46 31 47 32 61 34
REMARK SMILES IDX 82 35 49 36 33 37 34 38 42 39 35 40 37 41 43 42 36 43 38 44
REMARK SMILES IDX 39 45 40 46 41 47 65 48 66 49 74 50 67 51 69 52 75 53 68 54
REMARK SMILES IDX 70 55 71 56 72 57 73 58 50 59 51 60 59 61 52 62 54 63 60 64
REMARK SMILES IDX 53 65 55 66 56 67 57 68 58 69 5 70 6 71 7 72 8 73 9 74 10 75
REMARK SMILES IDX 23 76 11 77 21 78 12 80 22 81 13 82 14 83 15 84 20 85 16 86
REMARK SMILES IDX 18 87 17 88 19 89
REMARK H PARENT 80 22 48 33 23 79
REMARK Flexibility Score: inf
ROOT
ATOM      1  C   UNL A   1      36.686  20.272  25.082  1.00  0.00     0.275 C 
ENDROOT
BRANCH   1   2
ATOM      2  O   UNL A   1      38.077  20.649  24.925  1.00  0.00    -0.458 OA
BRANCH   2   3
ATOM      3  C   UNL A   1      39.127  20.736  25.778  1.00  0.00     0.338 C 
ATOM      4  O   UNL A   1      39.711  19.692  26.069  1.00  0.00    -0.246 OA
BRANCH   3   5
ATOM      5  C   UNL A   1      39.590  21.982  26.478  1.00  0.00     0.060 A 
ATOM      6  C   UNL A   1      40.609  22.059  27.420  1.00  0.00     0.016 A 
ATOM      7  C   UNL A   1      38.936  23.196  26.147  1.00  0.00     0.016 A 
ATOM      8  C   UNL A   1      41.061  23.314  27.881  1.00  0.00     0.010 A 
ATOM      9  C   UNL A   1      39.384  24.452  26.618  1.00  0.00     0.010 A 
ATOM     10  C   UNL A   1      40.511  24.533  27.435  1.00  0.00    -0.014 A 
BRANCH  10  11
ATOM     11  C   UNL A   1      41.124  25.824  27.903  1.00  0.00     0.031 A 
ATOM     12  C   UNL A   1      42.472  26.184  27.348  1.00  0.00     0.074 A 
ATOM     13  C   UNL A   1      40.498  26.716  28.711  1.00  0.00     0.049 A 
ATOM     14  N   UNL A   1      43.127  27.312  27.418  1.00  0.00    -0.248 NA
ATOM     15  C   UNL A   1      43.175  25.115  26.619  1.00  0.00     0.031 C 
ATOM     16  C   UNL A   1      39.213  26.509  29.369  1.00  0.00     0.029 A 
ATOM     17  N   UNL A   1      40.830  28.008  29.085  1.00  0.00    -0.354 N 
ATOM     18  C   UNL A   1      44.336  27.075  26.779  1.00  0.00     0.074 A 
ATOM     19  C   UNL A   1      44.294  25.724  26.266  1.00  0.00     0.031 C 
ATOM     20  C   UNL A   1      38.806  27.655  29.946  1.00  0.00     0.029 A 
ATOM     21  C   UNL A   1      39.835  28.679  29.784  1.00  0.00     0.049 A 
ATOM     22  H   UNL A   1      41.701  28.417  28.873  1.00  0.00     0.167 HD
ATOM     23  C   UNL A   1      45.418  27.878  26.681  1.00  0.00     0.034 A 
ATOM     24  C   UNL A   1      39.767  29.959  30.230  1.00  0.00     0.034 A 
ATOM     25  C   UNL A   1      45.523  29.177  27.273  1.00  0.00     0.049 A 
ATOM     26  C   UNL A   1      40.992  30.840  30.063  1.00  0.00     0.074 A 
ATOM     27  C   UNL A   1      46.633  30.000  27.341  1.00  0.00     0.029 A 
ATOM     28  N   UNL A   1      44.495  29.829  27.930  1.00  0.00    -0.354 N 
ATOM     29  N   UNL A   1      42.078  30.630  29.362  1.00  0.00    -0.248 NA
ATOM     30  C   UNL A   1      40.984  32.140  30.764  1.00  0.00     0.031 C 
ATOM     31  C   UNL A   1      46.285  31.138  28.073  1.00  0.00     0.029 A 
ATOM     32  C   UNL A   1      44.944  31.045  28.412  1.00  0.00     0.049 A 
ATOM     33  H   UNL A   1      43.581  29.481  28.040  1.00  0.00     0.167 HD
ATOM     34  C   UNL A   1      42.866  31.766  29.530  1.00  0.00     0.074 A 
ATOM     35  C   UNL A   1      42.100  32.701  30.322  1.00  0.00     0.031 C 
ATOM     36  C   UNL A   1      44.137  31.995  29.125  1.00  0.00     0.034 A 
BRANCH  23  37
ATOM     37  C   UNL A   1      46.618  27.294  25.997  1.00  0.00     0.023 A 
ATOM     38  C   UNL A   1      47.467  26.411  26.689  1.00  0.00     0.012 A 
ATOM     39  C   UNL A   1      46.917  27.665  24.674  1.00  0.00     0.148 A 
ATOM     40  C   UNL A   1      48.626  25.933  26.080  1.00  0.00     0.002 A 
ATOM     41  C   UNL A   1      48.046  27.149  24.059  1.00  0.00     0.091 A 
ATOM     42  F   UNL A   1      46.108  28.538  24.056  1.00  0.00    -0.205 F 
ATOM     43  C   UNL A   1      48.911  26.297  24.766  1.00  0.00     0.022 A 
BRANCH  41  44
ATOM     44  S   UNL A   1      48.463  27.508  22.352  1.00  0.00     0.127 S 
ATOM     45  O   UNL A   1      49.588  28.430  22.510  1.00  0.00    -0.237 OA
ATOM     46  O   UNL A   1      48.824  26.185  21.845  1.00  0.00    -0.237 OA
ATOM     47  O   UNL A   1      47.268  28.088  21.755  1.00  0.00    -0.744 OA
ENDBRANCH  41  44
ENDBRANCH  23  37
BRANCH  24  48
ATOM     48  C   UNL A   1      38.526  30.574  30.840  1.00  0.00     0.023 A 
ATOM     49  C   UNL A   1      38.360  30.510  32.247  1.00  0.00     0.012 A 
ATOM     50  C   UNL A   1      37.490  31.161  30.092  1.00  0.00     0.148 A 
ATOM     51  C   UNL A   1      37.186  30.941  32.874  1.00  0.00     0.002 A 
ATOM     52  C   UNL A   1      36.383  31.717  30.737  1.00  0.00     0.091 A 
ATOM     53  F   UNL A   1      37.582  31.155  28.755  1.00  0.00    -0.205 F 
ATOM     54  C   UNL A   1      36.209  31.577  32.121  1.00  0.00     0.022 A 
BRANCH  52  55
ATOM     55  S   UNL A   1      35.184  32.747  29.881  1.00  0.00     0.127 S 
ATOM     56  O   UNL A   1      34.579  31.799  28.949  1.00  0.00    -0.237 OA
ATOM     57  O   UNL A   1      34.320  33.169  30.984  1.00  0.00    -0.237 OA
ATOM     58  O   UNL A   1      35.957  33.824  29.275  1.00  0.00    -0.744 OA
ENDBRANCH  52  55
ENDBRANCH  24  48
BRANCH  36  59
ATOM     59  C   UNL A   1      44.786  33.302  29.503  1.00  0.00     0.023 A 
ATOM     60  C   UNL A   1      45.612  33.371  30.644  1.00  0.00     0.012 A 
ATOM     61  C   UNL A   1      44.684  34.422  28.655  1.00  0.00     0.148 A 
ATOM     62  C   UNL A   1      46.305  34.542  30.948  1.00  0.00     0.002 A 
ATOM     63  C   UNL A   1      45.424  35.563  28.932  1.00  0.00     0.091 A 
ATOM     64  F   UNL A   1      43.880  34.341  27.585  1.00  0.00    -0.205 F 
ATOM     65  C   UNL A   1      46.224  35.631  30.085  1.00  0.00     0.022 A 
BRANCH  63  66
ATOM     66  S   UNL A   1      45.479  36.970  27.816  1.00  0.00     0.127 S 
ATOM     67  O   UNL A   1      46.456  37.835  28.475  1.00  0.00    -0.237 OA
ATOM     68  O   UNL A   1      45.946  36.357  26.572  1.00  0.00    -0.237 OA
ATOM     69  O   UNL A   1      44.120  37.494  27.761  1.00  0.00    -0.744 OA
ENDBRANCH  63  66
ENDBRANCH  36  59
ENDBRANCH  10  11
ENDBRANCH   3   5
ENDBRANCH   2   3
ENDBRANCH   1   2
BRANCH   1  70
ATOM     70  C   UNL A   1      35.819  21.392  25.642  1.00  0.00     0.274 C 
BRANCH  70  71
ATOM     71  O   UNL A   1      34.521  21.316  25.063  1.00  0.00    -0.461 OA
BRANCH  71  72
ATOM     72  C   UNL A   1      33.428  21.393  25.872  1.00  0.00     0.329 C 
ATOM     73  O   UNL A   1      33.453  21.356  27.097  1.00  0.00    -0.250 OA
BRANCH  72  74
ATOM     74  C   UNL A   1      32.148  21.523  25.020  1.00  0.00     0.202 C 
ATOM     75  C   UNL A   1      32.342  22.505  23.875  1.00  0.00     0.107 C 
ATOM     76  N   UNL A   1      31.026  21.861  25.895  1.00  0.00    -0.341 N 
ATOM     77  S   UNL A   1      32.487  24.212  24.516  1.00  0.00    -0.145 SA
ATOM     78  C   UNL A   1      30.800  23.121  26.382  1.00  0.00     0.234 C 
ATOM     79  H   UNL A   1      30.399  21.144  26.146  1.00  0.00     0.164 HD
ATOM     80  C   UNL A   1      30.868  24.248  25.393  1.00  0.00     0.140 C 
ATOM     81  O   UNL A   1      30.507  23.288  27.564  1.00  0.00    -0.274 OA
BRANCH  80  82
ATOM     82  C   UNL A   1      30.561  25.561  26.135  1.00  0.00     0.060 C 
BRANCH  82  83
ATOM     83  C   UNL A   1      30.768  26.716  25.202  1.00  0.00    -0.043 A 
ATOM     84  C   UNL A   1      31.632  27.743  25.591  1.00  0.00     0.004 A 
ATOM     85  C   UNL A   1      29.938  26.883  24.091  1.00  0.00     0.043 A 
ATOM     86  C   UNL A   1      31.547  28.976  24.963  1.00  0.00     0.003 A 
ATOM     87  C   UNL A   1      29.907  28.109  23.445  1.00  0.00     0.123 A 
ATOM     88  C   UNL A   1      30.685  29.168  23.890  1.00  0.00     0.039 A 
ATOM     89  F   UNL A   1      29.060  28.296  22.426  1.00  0.00    -0.207 F 
ENDBRANCH  82  83
ENDBRANCH  80  82
ENDBRANCH  72  74
ENDBRANCH  71  72
ENDBRANCH  70  71
ENDBRANCH   1  70
TORSDOF 16
ENDMDL
MODEL 2
REMARK VINA RESULT:     -12.3      1.360      1.690
REMARK SMILES O=C(OCCOC(=O)[C@@H]1CS[C@H](Cc2cccc(F)c2)C(=O)N1)c1ccc(-c2c3nc(c(-c4cccc(S(=O)(=O)[O-])c4F)c4ccc([nH]4)c(-c4cccc(S(=O)(=O)[O-])c4F)c4nc(c(-c5cccc(S(=O)(=O)[O-])c5F)c5ccc2[nH]5)C=C4)C=C3)cc1
REMARK SMILES IDX 4 1 3 2 2 3 1 4 24 5 25 6 86 7 26 8 85 9 27 10 28 11 29 12
REMARK SMILES IDX 79 13 30 14 84 15 78 16 80 17 31 18 83 19 77 20 76 21 32 23
REMARK SMILES IDX 64 24 44 25 63 26 45 27 48 28 62 29 81 30 46 31 47 32 61 34
REMARK SMILES IDX 82 35 49 36 33 37 34 38 42 39 35 40 37 41 43 42 36 43 38 44
REMARK SMILES IDX 39 45 40 46 41 47 65 48 66 49 74 50 67 51 69 52 75 53 68 54
REMARK SMILES IDX 70 55 71 56 72 57 73 58 50 59 51 60 59 61 52 62 54 63 60 64
REMARK SMILES IDX 53 65 55 66 56 67 57 68 58 69 5 70 6 71 7 72 8 73 9 74 10 75
REMARK SMILES IDX 23 76 11 77 21 78 12 80 22 81 13 82 14 83 15 84 20 85 16 86
REMARK SMILES IDX 18 87 17 88 19 89
REMARK H PARENT 80 22 48 33 23 79
REMARK Flexibility Score: inf
ROOT
ATOM      1  C   UNL A   1      36.874  20.329  24.993  1.00  0.00     0.275 C 
ENDROOT
BRANCH   1   2
ATOM      2  O   UNL A   1      38.238  20.814  24.921  1.00  0.00    -0.458 OA
BRANCH   2   3
ATOM      3  C   UNL A   1      39.242  20.926  25.825  1.00  0.00     0.338 C 
ATOM      4  O   UNL A   1      39.812  19.891  26.172  1.00  0.00    -0.246 OA
BRANCH   3   5
ATOM      5  C   UNL A   1      39.667  22.190  26.516  1.00  0.00     0.060 A 
ATOM      6  C   UNL A   1      40.664  22.300  27.477  1.00  0.00     0.016 A 
ATOM      7  C   UNL A   1      38.995  23.386  26.156  1.00  0.00     0.016 A 
ATOM      8  C   UNL A   1      41.083  23.570  27.929  1.00  0.00     0.010 A 
ATOM      9  C   UNL A   1      39.409  24.657  26.618  1.00  0.00     0.010 A 
ATOM     10  C   UNL A   1      40.518  24.771  27.456  1.00  0.00    -0.014 A 
BRANCH  10  11
ATOM     11  C   UNL A   1      41.096  26.081  27.918  1.00  0.00     0.031 A 
ATOM     12  C   UNL A   1      42.427  26.480  27.350  1.00  0.00     0.074 A 
ATOM     13  C   UNL A   1      40.450  26.954  28.730  1.00  0.00     0.049 A 
ATOM     14  N   UNL A   1      43.049  27.627  27.413  1.00  0.00    -0.248 NA
ATOM     15  C   UNL A   1      43.156  25.433  26.616  1.00  0.00     0.031 C 
ATOM     16  C   UNL A   1      39.178  26.710  29.400  1.00  0.00     0.029 A 
ATOM     17  N   UNL A   1      40.747  28.256  29.100  1.00  0.00    -0.354 N 
ATOM     18  C   UNL A   1      44.259  27.426  26.764  1.00  0.00     0.074 A 
ATOM     19  C   UNL A   1      44.253  26.074  26.252  1.00  0.00     0.031 C 
ATOM     20  C   UNL A   1      38.742  27.844  29.979  1.00  0.00     0.029 A 
ATOM     21  C   UNL A   1      39.739  28.897  29.807  1.00  0.00     0.049 A 
ATOM     22  H   UNL A   1      41.603  28.691  28.880  1.00  0.00     0.167 HD
ATOM     23  C   UNL A   1      45.316  28.262  26.656  1.00  0.00     0.034 A 
ATOM     24  C   UNL A   1      39.635  30.176  30.253  1.00  0.00     0.034 A 
ATOM     25  C   UNL A   1      45.387  29.564  27.247  1.00  0.00     0.049 A 
ATOM     26  C   UNL A   1      40.832  31.093  30.075  1.00  0.00     0.074 A 
ATOM     27  C   UNL A   1      46.472  30.420  27.304  1.00  0.00     0.029 A 
ATOM     28  N   UNL A   1      44.345  30.185  27.912  1.00  0.00    -0.354 N 
ATOM     29  N   UNL A   1      41.918  30.915  29.364  1.00  0.00    -0.248 NA
ATOM     30  C   UNL A   1      40.791  32.392  30.775  1.00  0.00     0.031 C 
ATOM     31  C   UNL A   1      46.096  31.548  28.038  1.00  0.00     0.029 A 
ATOM     32  C   UNL A   1      44.762  31.414  28.389  1.00  0.00     0.049 A 
ATOM     33  H   UNL A   1      43.443  29.810  28.030  1.00  0.00     0.167 HD
ATOM     34  C   UNL A   1      42.673  32.074  29.524  1.00  0.00     0.074 A 
ATOM     35  C   UNL A   1      41.886  32.986  30.323  1.00  0.00     0.031 C 
ATOM     36  C   UNL A   1      43.933  32.341  29.108  1.00  0.00     0.034 A 
BRANCH  23  37
ATOM     37  C   UNL A   1      46.526  27.713  25.962  1.00  0.00     0.023 A 
ATOM     38  C   UNL A   1      46.658  27.837  24.566  1.00  0.00     0.012 A 
ATOM     39  C   UNL A   1      47.510  27.035  26.704  1.00  0.00     0.148 A 
ATOM     40  C   UNL A   1      47.742  27.255  23.912  1.00  0.00     0.002 A 
ATOM     41  C   UNL A   1      48.609  26.500  26.052  1.00  0.00     0.091 A 
ATOM     42  F   UNL A   1      47.335  26.902  28.027  1.00  0.00    -0.205 F 
ATOM     43  C   UNL A   1      48.718  26.595  24.654  1.00  0.00     0.022 A 
BRANCH  41  44
ATOM     44  S   UNL A   1      49.947  25.688  26.926  1.00  0.00     0.127 S 
ATOM     45  O   UNL A   1      50.932  25.511  25.859  1.00  0.00    -0.237 OA
ATOM     46  O   UNL A   1      50.305  26.689  27.929  1.00  0.00    -0.237 OA
ATOM     47  O   UNL A   1      49.391  24.453  27.463  1.00  0.00    -0.744 OA
ENDBRANCH  41  44
ENDBRANCH  23  37
BRANCH  24  48
ATOM     48  C   UNL A   1      38.382  30.753  30.874  1.00  0.00     0.023 A 
ATOM     49  C   UNL A   1      38.217  30.661  32.279  1.00  0.00     0.012 A 
ATOM     50  C   UNL A   1      37.334  31.332  30.136  1.00  0.00     0.148 A 
ATOM     51  C   UNL A   1      37.035  31.056  32.913  1.00  0.00     0.002 A 
ATOM     52  C   UNL A   1      36.215  31.853  30.790  1.00  0.00     0.091 A 
ATOM     53  F   UNL A   1      37.426  31.351  28.799  1.00  0.00    -0.205 F 
ATOM     54  C   UNL A   1      36.045  31.685  32.171  1.00  0.00     0.022 A 
BRANCH  52  55
ATOM     55  S   UNL A   1      34.996  32.873  29.952  1.00  0.00     0.127 S 
ATOM     56  O   UNL A   1      34.089  33.220  31.042  1.00  0.00    -0.237 OA
ATOM     57  O   UNL A   1      35.824  33.976  29.462  1.00  0.00    -0.237 OA
ATOM     58  O   UNL A   1      34.434  32.030  28.905  1.00  0.00    -0.744 OA
ENDBRANCH  52  55
ENDBRANCH  24  48
BRANCH  36  59
ATOM     59  C   UNL A   1      44.546  33.667  29.480  1.00  0.00     0.023 A 
ATOM     60  C   UNL A   1      45.288  33.787  30.673  1.00  0.00     0.012 A 
ATOM     61  C   UNL A   1      44.498  34.752  28.584  1.00  0.00     0.148 A 
ATOM     62  C   UNL A   1      45.951  34.974  30.979  1.00  0.00     0.002 A 
ATOM     63  C   UNL A   1      45.209  35.910  28.867  1.00  0.00     0.091 A 
ATOM     64  F   UNL A   1      43.772  34.623  27.463  1.00  0.00    -0.205 F 
ATOM     65  C   UNL A   1      45.925  36.029  30.070  1.00  0.00     0.022 A 
BRANCH  63  66
ATOM     66  S   UNL A   1      45.334  37.273  27.703  1.00  0.00     0.127 S 
ATOM     67  O   UNL A   1      46.143  38.231  28.454  1.00  0.00    -0.237 OA
ATOM     68  O   UNL A   1      46.022  36.648  26.572  1.00  0.00    -0.237 OA
ATOM     69  O   UNL A   1      43.967  37.692  27.426  1.00  0.00    -0.744 OA
ENDBRANCH  63  66
ENDBRANCH  36  59
ENDBRANCH  10  11
ENDBRANCH   3   5
ENDBRANCH   2   3
ENDBRANCH   1   2
BRANCH   1  70
ATOM     70  C   UNL A   1      35.835  21.410  24.730  1.00  0.00     0.274 C 
BRANCH  70  71
ATOM     71  O   UNL A   1      34.546  20.813  24.640  1.00  0.00    -0.461 OA
BRANCH  71  72
ATOM     72  C   UNL A   1      33.601  21.132  25.568  1.00  0.00     0.329 C 
ATOM     73  O   UNL A   1      33.788  21.184  26.777  1.00  0.00    -0.250 OA
BRANCH  72  74
ATOM     74  C   UNL A   1      32.251  21.407  24.873  1.00  0.00     0.202 C 
ATOM     75  C   UNL A   1      32.408  22.403  23.733  1.00  0.00     0.107 C 
ATOM     76  N   UNL A   1      31.274  21.822  25.878  1.00  0.00    -0.341 N 
ATOM     77  S   UNL A   1      32.789  24.067  24.387  1.00  0.00    -0.145 SA
ATOM     78  C   UNL A   1      31.228  23.082  26.414  1.00  0.00     0.234 C 
ATOM     79  H   UNL A   1      30.613  21.160  26.187  1.00  0.00     0.164 HD
ATOM     80  C   UNL A   1      31.292  24.228  25.447  1.00  0.00     0.140 C 
ATOM     81  O   UNL A   1      31.088  23.239  27.625  1.00  0.00    -0.274 OA
BRANCH  80  82
ATOM     82  C   UNL A   1      31.199  25.540  26.246  1.00  0.00     0.060 C 
BRANCH  82  83
ATOM     83  C   UNL A   1      30.637  26.616  25.365  1.00  0.00    -0.043 A 
ATOM     84  C   UNL A   1      29.514  26.322  24.586  1.00  0.00     0.004 A 
ATOM     85  C   UNL A   1      31.356  27.792  25.142  1.00  0.00     0.043 A 
ATOM     86  C   UNL A   1      29.215  27.128  23.497  1.00  0.00     0.003 A 
ATOM     87  C   UNL A   1      31.006  28.610  24.079  1.00  0.00     0.123 A 
ATOM     88  C   UNL A   1      29.957  28.272  23.236  1.00  0.00     0.039 A 
ATOM     89  F   UNL A   1      31.737  29.701  23.818  1.00  0.00    -0.207 F 
ENDBRANCH  82  83
ENDBRANCH  80  82
ENDBRANCH  72  74
ENDBRANCH  71  72
ENDBRANCH  70  71
ENDBRANCH   1  70
TORSDOF 16
ENDMDL
MODEL 3
REMARK VINA RESULT:     -12.2      5.416     10.565
REMARK SMILES O=C(OCCOC(=O)[C@@H]1CS[C@H](Cc2cccc(F)c2)C(=O)N1)c1ccc(-c2c3nc(c(-c4cccc(S(=O)(=O)[O-])c4F)c4ccc([nH]4)c(-c4cccc(S(=O)(=O)[O-])c4F)c4nc(c(-c5cccc(S(=O)(=O)[O-])c5F)c5ccc2[nH]5)C=C4)C=C3)cc1
REMARK SMILES IDX 4 1 3 2 2 3 1 4 24 5 25 6 86 7 26 8 85 9 27 10 28 11 29 12
REMARK SMILES IDX 79 13 30 14 84 15 78 16 80 17 31 18 83 19 77 20 76 21 32 23
REMARK SMILES IDX 64 24 44 25 63 26 45 27 48 28 62 29 81 30 46 31 47 32 61 34
REMARK SMILES IDX 82 35 49 36 33 37 34 38 42 39 35 40 37 41 43 42 36 43 38 44
REMARK SMILES IDX 39 45 40 46 41 47 65 48 66 49 74 50 67 51 69 52 75 53 68 54
REMARK SMILES IDX 70 55 71 56 72 57 73 58 50 59 51 60 59 61 52 62 54 63 60 64
REMARK SMILES IDX 53 65 55 66 56 67 57 68 58 69 5 70 6 71 7 72 8 73 9 74 10 75
REMARK SMILES IDX 23 76 11 77 21 78 12 80 22 81 13 82 14 83 15 84 20 85 16 86
REMARK SMILES IDX 18 87 17 88 19 89
REMARK H PARENT 80 22 48 33 23 79
REMARK Flexibility Score: inf
ROOT
ATOM      1  C   UNL A   1      31.388  31.020  25.728  1.00  0.00     0.275 C 
ENDROOT
BRANCH   1   2
ATOM      2  O   UNL A   1      31.882  31.451  27.021  1.00  0.00    -0.458 OA
BRANCH   2   3
ATOM      3  C   UNL A   1      32.883  32.276  27.416  1.00  0.00     0.338 C 
ATOM      4  O   UNL A   1      32.665  33.487  27.388  1.00  0.00    -0.246 OA
BRANCH   3   5
ATOM      5  C   UNL A   1      34.273  31.852  27.799  1.00  0.00     0.060 A 
ATOM      6  C   UNL A   1      35.355  32.698  28.006  1.00  0.00     0.016 A 
ATOM      7  C   UNL A   1      34.506  30.464  27.970  1.00  0.00     0.016 A 
ATOM      8  C   UNL A   1      36.567  32.192  28.525  1.00  0.00     0.010 A 
ATOM      9  C   UNL A   1      35.724  29.958  28.480  1.00  0.00     0.010 A 
ATOM     10  C   UNL A   1      36.750  30.830  28.841  1.00  0.00    -0.014 A 
BRANCH  10  11
ATOM     11  C   UNL A   1      38.039  30.399  29.485  1.00  0.00     0.031 A 
ATOM     12  C   UNL A   1      38.233  30.747  30.932  1.00  0.00     0.074 A 
ATOM     13  C   UNL A   1      38.980  29.639  28.870  1.00  0.00     0.049 A 
ATOM     14  N   UNL A   1      39.138  30.328  31.775  1.00  0.00    -0.248 NA
ATOM     15  C   UNL A   1      37.272  31.707  31.499  1.00  0.00     0.031 C 
ATOM     16  C   UNL A   1      38.972  29.249  27.465  1.00  0.00     0.029 A 
ATOM     17  N   UNL A   1      40.115  29.009  29.357  1.00  0.00    -0.354 N 
ATOM     18  C   UNL A   1      38.881  31.006  32.958  1.00  0.00     0.074 A 
ATOM     19  C   UNL A   1      37.694  31.805  32.747  1.00  0.00     0.031 C 
ATOM     20  C   UNL A   1      39.952  28.357  27.233  1.00  0.00     0.029 A 
ATOM     21  C   UNL A   1      40.734  28.159  28.451  1.00  0.00     0.049 A 
ATOM     22  H   UNL A   1      40.453  29.153  30.270  1.00  0.00     0.167 HD
ATOM     23  C   UNL A   1      39.599  31.023  34.103  1.00  0.00     0.034 A 
ATOM     24  C   UNL A   1      41.796  27.324  28.593  1.00  0.00     0.034 A 
ATOM     25  C   UNL A   1      40.834  30.325  34.299  1.00  0.00     0.049 A 
ATOM     26  C   UNL A   1      42.550  27.346  29.911  1.00  0.00     0.074 A 
ATOM     27  C   UNL A   1      41.697  30.399  35.377  1.00  0.00     0.029 A 
ATOM     28  N   UNL A   1      41.401  29.455  33.385  1.00  0.00    -0.354 N 
ATOM     29  N   UNL A   1      42.224  27.911  31.046  1.00  0.00    -0.248 NA
ATOM     30  C   UNL A   1      43.833  26.618  29.960  1.00  0.00     0.031 C 
ATOM     31  C   UNL A   1      42.808  29.598  35.099  1.00  0.00     0.029 A 
ATOM     32  C   UNL A   1      42.607  28.987  33.872  1.00  0.00     0.049 A 
ATOM     33  H   UNL A   1      41.007  29.207  32.518  1.00  0.00     0.167 HD
ATOM     34  C   UNL A   1      43.248  27.597  31.936  1.00  0.00     0.074 A 
ATOM     35  C   UNL A   1      44.160  26.719  31.240  1.00  0.00     0.031 C 
ATOM     36  C   UNL A   1      43.456  28.046  33.196  1.00  0.00     0.034 A 
BRANCH  23  37
ATOM     37  C   UNL A   1      39.102  31.935  35.184  1.00  0.00     0.023 A 
ATOM     38  C   UNL A   1      39.352  33.318  35.113  1.00  0.00     0.012 A 
ATOM     39  C   UNL A   1      38.423  31.399  36.293  1.00  0.00     0.148 A 
ATOM     40  C   UNL A   1      38.962  34.154  36.158  1.00  0.00     0.002 A 
ATOM     41  C   UNL A   1      37.997  32.243  37.306  1.00  0.00     0.091 A 
ATOM     42  F   UNL A   1      38.235  30.073  36.348  1.00  0.00    -0.205 F 
ATOM     43  C   UNL A   1      38.280  33.618  37.248  1.00  0.00     0.022 A 
BRANCH  41  44
ATOM     44  S   UNL A   1      37.059  31.658  38.717  1.00  0.00     0.127 S 
ATOM     45  O   UNL A   1      38.075  31.663  39.769  1.00  0.00    -0.237 OA
ATOM     46  O   UNL A   1      36.036  32.694  38.851  1.00  0.00    -0.237 OA
ATOM     47  O   UNL A   1      36.554  30.342  38.352  1.00  0.00    -0.744 OA
ENDBRANCH  41  44
ENDBRANCH  23  37
BRANCH  24  48
ATOM     48  C   UNL A   1      42.242  26.341  27.533  1.00  0.00     0.023 A 
ATOM     49  C   UNL A   1      43.170  26.775  26.553  1.00  0.00     0.012 A 
ATOM     50  C   UNL A   1      41.751  25.027  27.422  1.00  0.00     0.148 A 
ATOM     51  C   UNL A   1      43.534  25.968  25.470  1.00  0.00     0.002 A 
ATOM     52  C   UNL A   1      42.226  24.179  26.420  1.00  0.00     0.091 A 
ATOM     53  F   UNL A   1      40.807  24.621  28.283  1.00  0.00    -0.205 F 
ATOM     54  C   UNL A   1      43.088  24.655  25.421  1.00  0.00     0.022 A 
BRANCH  52  55
ATOM     55  S   UNL A   1      41.882  22.415  26.405  1.00  0.00     0.127 S 
ATOM     56  O   UNL A   1      40.436  22.390  26.200  1.00  0.00    -0.237 OA
ATOM     57  O   UNL A   1      42.677  21.972  25.259  1.00  0.00    -0.237 OA
ATOM     58  O   UNL A   1      42.348  21.916  27.692  1.00  0.00    -0.744 OA
ENDBRANCH  52  55
ENDBRANCH  24  48
BRANCH  36  59
ATOM     59  C   UNL A   1      44.697  27.594  33.922  1.00  0.00     0.023 A 
ATOM     60  C   UNL A   1      45.869  28.377  33.865  1.00  0.00     0.012 A 
ATOM     61  C   UNL A   1      44.661  26.467  34.766  1.00  0.00     0.148 A 
ATOM     62  C   UNL A   1      46.990  28.032  34.616  1.00  0.00     0.002 A 
ATOM     63  C   UNL A   1      45.761  26.163  35.556  1.00  0.00     0.091 A 
ATOM     64  F   UNL A   1      43.543  25.725  34.792  1.00  0.00    -0.205 F 
ATOM     65  C   UNL A   1      46.931  26.936  35.473  1.00  0.00     0.022 A 
BRANCH  63  66
ATOM     66  S   UNL A   1      45.736  24.846  36.777  1.00  0.00     0.127 S 
ATOM     67  O   UNL A   1      44.796  25.373  37.764  1.00  0.00    -0.237 OA
ATOM     68  O   UNL A   1      45.232  23.714  35.997  1.00  0.00    -0.237 OA
ATOM     69  O   UNL A   1      47.109  24.700  37.239  1.00  0.00    -0.744 OA
ENDBRANCH  63  66
ENDBRANCH  36  59
ENDBRANCH  10  11
ENDBRANCH   3   5
ENDBRANCH   2   3
ENDBRANCH   1   2
BRANCH   1  70
ATOM     70  C   UNL A   1      31.740  29.576  25.400  1.00  0.00     0.274 C 
BRANCH  70  71
ATOM     71  O   UNL A   1      30.936  29.132  24.312  1.00  0.00    -0.461 OA
BRANCH  71  72
ATOM     72  C   UNL A   1      31.539  28.553  23.235  1.00  0.00     0.329 C 
ATOM     73  O   UNL A   1      32.535  28.984  22.668  1.00  0.00    -0.250 OA
BRANCH  72  74
ATOM     74  C   UNL A   1      30.774  27.277  22.825  1.00  0.00     0.202 C 
ATOM     75  C   UNL A   1      30.642  26.311  23.993  1.00  0.00     0.107 C 
ATOM     76  N   UNL A   1      31.421  26.690  21.653  1.00  0.00    -0.341 N 
ATOM     77  S   UNL A   1      32.271  25.598  24.419  1.00  0.00    -0.145 SA
ATOM     78  C   UNL A   1      32.573  25.951  21.716  1.00  0.00     0.234 C 
ATOM     79  H   UNL A   1      31.007  26.833  20.771  1.00  0.00     0.164 HD
ATOM     80  C   UNL A   1      32.627  24.875  22.763  1.00  0.00     0.140 C 
ATOM     81  O   UNL A   1      33.481  26.143  20.911  1.00  0.00    -0.274 OA
BRANCH  80  82
ATOM     82  C   UNL A   1      33.982  24.155  22.645  1.00  0.00     0.060 C 
BRANCH  82  83
ATOM     83  C   UNL A   1      33.867  22.787  23.248  1.00  0.00    -0.043 A 
ATOM     84  C   UNL A   1      32.654  22.102  23.124  1.00  0.00     0.004 A 
ATOM     85  C   UNL A   1      34.853  22.313  24.116  1.00  0.00     0.043 A 
ATOM     86  C   UNL A   1      32.383  21.044  23.979  1.00  0.00     0.003 A 
ATOM     87  C   UNL A   1      34.578  21.222  24.924  1.00  0.00     0.123 A 
ATOM     88  C   UNL A   1      33.339  20.600  24.883  1.00  0.00     0.039 A 
ATOM     89  F   UNL A   1      35.494  20.809  25.809  1.00  0.00    -0.207 F 
ENDBRANCH  82  83
ENDBRANCH  80  82
ENDBRANCH  72  74
ENDBRANCH  71  72
ENDBRANCH  70  71
ENDBRANCH   1  70
TORSDOF 16
ENDMDL
