MODEL 1
REMARK VINA RESULT:     -11.6      0.000      0.000
REMARK SMILES O=C(C[C@@H]1C[N@@H+](CCSc2ccccc2F)CCO1)OCCOC(=O)c1ccc(-c2c3nc(c(-c4cccc(S(=O)(=O)[O-])c4F)c4ccc([nH]4)c(-c4cccc(S(=O)(=O)[O-])c4F)c4nc(c(-c5cccc(S(=O)(=O)[O-])c5F)c5ccc2[nH]5)C=C4)C=C3)cc1
REMARK SMILES IDX 21 1 20 2 2 3 1 4 3 5 4 6 5 7 19 8 6 9 18 10 17 11 7 13 8 14
REMARK SMILES IDX 9 15 10 16 11 17 15 18 12 19 14 20 16 21 13 22 22 23 23 24
REMARK SMILES IDX 24 25 25 26 26 27 27 28 88 29 28 30 87 31 29 32 30 33 31 34
REMARK SMILES IDX 81 35 32 36 86 37 80 38 82 39 33 40 85 41 79 42 78 43 34 45
REMARK SMILES IDX 66 46 46 47 65 48 47 49 50 50 64 51 83 52 48 53 49 54 63 56
REMARK SMILES IDX 84 57 51 58 35 59 36 60 44 61 37 62 39 63 45 64 38 65 40 66
REMARK SMILES IDX 41 67 42 68 43 69 67 70 68 71 76 72 69 73 71 74 77 75 70 76
REMARK SMILES IDX 72 77 73 78 74 79 75 80 52 81 53 82 61 83 54 84 56 85 62 86
REMARK SMILES IDX 55 87 57 88 58 89 59 90 60 91
REMARK H PARENT 6 12 82 44 50 55
REMARK Flexibility Score: inf
ROOT
ATOM      1  C   UNL A   1      31.657  29.327  24.359  1.00  0.00     0.274 C 
ENDROOT
BRANCH   1   2
ATOM      2  O   UNL A   1      30.333  28.880  23.993  1.00  0.00    -0.462 OA
BRANCH   2   3
ATOM      3  C   UNL A   1      30.034  27.817  23.203  1.00  0.00     0.308 C 
ATOM      4  O   UNL A   1      30.313  27.854  22.004  1.00  0.00    -0.252 OA
BRANCH   3   5
ATOM      5  C   UNL A   1      29.377  26.585  23.814  1.00  0.00     0.160 C 
BRANCH   5   6
ATOM      6  C   UNL A   1      30.352  25.515  24.270  1.00  0.00     0.184 C 
ATOM      7  C   UNL A   1      30.186  25.173  25.812  1.00  0.00     0.295 C 
ATOM      8  O   UNL A   1      31.602  26.038  23.825  1.00  0.00    -0.366 OA
ATOM      9  N   UNL A   1      31.411  25.125  26.629  1.00  0.00    -0.330 N 
ATOM     10  C   UNL A   1      32.674  25.685  24.646  1.00  0.00     0.222 C 
ATOM     11  C   UNL A   1      32.308  26.102  26.067  1.00  0.00     0.291 C 
ATOM     12  H   UNL A   1      31.111  25.321  27.584  1.00  0.00     0.348 HD
BRANCH   9  13
ATOM     13  C   UNL A   1      32.094  23.826  26.843  1.00  0.00     0.273 C 
BRANCH  13  14
ATOM     14  C   UNL A   1      31.664  22.466  26.087  1.00  0.00     0.136 C 
BRANCH  14  15
ATOM     15  S   UNL A   1      32.180  21.967  24.292  1.00  0.00    -0.117 SA
BRANCH  15  16
ATOM     16  C   UNL A   1      32.374  20.146  24.135  1.00  0.00     0.043 A 
ATOM     17  C   UNL A   1      32.859  19.378  25.205  1.00  0.00     0.018 A 
ATOM     18  C   UNL A   1      32.303  19.474  22.887  1.00  0.00     0.136 A 
ATOM     19  C   UNL A   1      33.199  18.014  25.036  1.00  0.00     0.001 A 
ATOM     20  C   UNL A   1      32.529  18.101  22.743  1.00  0.00     0.040 A 
ATOM     21  F   UNL A   1      32.027  20.132  21.752  1.00  0.00    -0.206 F 
ATOM     22  C   UNL A   1      33.004  17.367  23.817  1.00  0.00     0.003 A 
ENDBRANCH  15  16
ENDBRANCH  14  15
ENDBRANCH  13  14
ENDBRANCH   9  13
ENDBRANCH   5   6
ENDBRANCH   3   5
ENDBRANCH   2   3
ENDBRANCH   1   2
BRANCH   1  23
ATOM     23  C   UNL A   1      31.603  30.192  25.621  1.00  0.00     0.275 C 
BRANCH  23  24
ATOM     24  O   UNL A   1      32.929  30.334  26.155  1.00  0.00    -0.458 OA
BRANCH  24  25
ATOM     25  C   UNL A   1      33.159  31.426  26.941  1.00  0.00     0.338 C 
ATOM     26  O   UNL A   1      32.396  32.335  27.156  1.00  0.00    -0.246 OA
BRANCH  25  27
ATOM     27  C   UNL A   1      34.407  31.151  27.713  1.00  0.00     0.060 A 
ATOM     28  C   UNL A   1      34.728  29.815  28.004  1.00  0.00     0.016 A 
ATOM     29  C   UNL A   1      35.346  32.163  27.955  1.00  0.00     0.016 A 
ATOM     30  C   UNL A   1      35.998  29.490  28.503  1.00  0.00     0.010 A 
ATOM     31  C   UNL A   1      36.604  31.841  28.467  1.00  0.00     0.010 A 
ATOM     32  C   UNL A   1      36.934  30.507  28.756  1.00  0.00    -0.014 A 
BRANCH  32  33
ATOM     33  C   UNL A   1      38.105  30.256  29.630  1.00  0.00     0.031 A 
ATOM     34  C   UNL A   1      39.116  29.278  29.094  1.00  0.00     0.074 A 
ATOM     35  C   UNL A   1      38.247  30.776  30.865  1.00  0.00     0.049 A 
ATOM     36  N   UNL A   1      40.163  28.763  29.678  1.00  0.00    -0.248 NA
ATOM     37  C   UNL A   1      38.903  28.809  27.711  1.00  0.00     0.031 C 
ATOM     38  C   UNL A   1      37.355  31.745  31.500  1.00  0.00     0.029 A 
ATOM     39  N   UNL A   1      39.204  30.528  31.823  1.00  0.00    -0.354 N 
ATOM     40  C   UNL A   1      40.724  27.909  28.739  1.00  0.00     0.074 A 
ATOM     41  C   UNL A   1      39.901  27.958  27.554  1.00  0.00     0.031 C 
ATOM     42  C   UNL A   1      37.794  31.991  32.750  1.00  0.00     0.029 A 
ATOM     43  C   UNL A   1      38.982  31.177  33.018  1.00  0.00     0.049 A 
ATOM     44  H   UNL A   1      39.977  29.939  31.668  1.00  0.00     0.167 HD
ATOM     45  C   UNL A   1      41.838  27.154  28.840  1.00  0.00     0.034 A 
ATOM     46  C   UNL A   1      39.654  31.104  34.187  1.00  0.00     0.034 A 
ATOM     47  C   UNL A   1      42.651  27.077  30.014  1.00  0.00     0.049 A 
ATOM     48  C   UNL A   1      40.862  30.195  34.292  1.00  0.00     0.074 A 
ATOM     49  C   UNL A   1      43.787  26.316  30.216  1.00  0.00     0.029 A 
ATOM     50  N   UNL A   1      42.414  27.777  31.183  1.00  0.00    -0.354 N 
ATOM     51  N   UNL A   1      41.433  29.464  33.366  1.00  0.00    -0.248 NA
ATOM     52  C   UNL A   1      41.532  30.120  35.602  1.00  0.00     0.031 C 
ATOM     53  C   UNL A   1      44.233  26.549  31.519  1.00  0.00     0.029 A 
ATOM     54  C   UNL A   1      43.388  27.472  32.114  1.00  0.00     0.049 A 
ATOM     55  H   UNL A   1      41.664  28.398  31.330  1.00  0.00     0.167 HD
ATOM     56  C   UNL A   1      42.551  28.886  33.964  1.00  0.00     0.074 A 
ATOM     57  C   UNL A   1      42.587  29.364  35.329  1.00  0.00     0.031 C 
ATOM     58  C   UNL A   1      43.457  28.024  33.441  1.00  0.00     0.034 A 
BRANCH  45  59
ATOM     59  C   UNL A   1      42.255  26.378  27.626  1.00  0.00     0.023 A 
ATOM     60  C   UNL A   1      43.042  27.013  26.646  1.00  0.00     0.012 A 
ATOM     61  C   UNL A   1      41.921  25.020  27.488  1.00  0.00     0.148 A 
ATOM     62  C   UNL A   1      43.490  26.303  25.535  1.00  0.00     0.002 A 
ATOM     63  C   UNL A   1      42.407  24.308  26.400  1.00  0.00     0.091 A 
ATOM     64  F   UNL A   1      41.142  24.455  28.420  1.00  0.00    -0.205 F 
ATOM     65  C   UNL A   1      43.184  24.950  25.419  1.00  0.00     0.022 A 
BRANCH  63  66
ATOM     66  S   UNL A   1      42.132  22.548  26.192  1.00  0.00     0.127 S 
ATOM     67  O   UNL A   1      42.843  22.283  24.940  1.00  0.00    -0.237 OA
ATOM     68  O   UNL A   1      42.771  21.999  27.386  1.00  0.00    -0.237 OA
ATOM     69  O   UNL A   1      40.689  22.368  26.127  1.00  0.00    -0.744 OA
ENDBRANCH  63  66
ENDBRANCH  45  59
BRANCH  46  70
ATOM     70  C   UNL A   1      39.253  31.935  35.365  1.00  0.00     0.023 A 
ATOM     71  C   UNL A   1      38.330  31.411  36.292  1.00  0.00     0.012 A 
ATOM     72  C   UNL A   1      39.732  33.246  35.552  1.00  0.00     0.148 A 
ATOM     73  C   UNL A   1      37.857  32.187  37.353  1.00  0.00     0.002 A 
ATOM     74  C   UNL A   1      39.300  33.995  36.644  1.00  0.00     0.091 A 
ATOM     75  F   UNL A   1      40.588  33.746  34.649  1.00  0.00    -0.205 F 
ATOM     76  C   UNL A   1      38.347  33.475  37.532  1.00  0.00     0.022 A 
BRANCH  74  77
ATOM     77  S   UNL A   1      39.974  35.617  37.027  1.00  0.00     0.127 S 
ATOM     78  O   UNL A   1      39.279  35.945  38.269  1.00  0.00    -0.237 OA
ATOM     79  O   UNL A   1      41.400  35.324  37.177  1.00  0.00    -0.237 OA
ATOM     80  O   UNL A   1      39.653  36.452  35.878  1.00  0.00    -0.744 OA
ENDBRANCH  74  77
ENDBRANCH  46  70
BRANCH  58  81
ATOM     81  C   UNL A   1      44.605  27.569  34.304  1.00  0.00     0.023 A 
ATOM     82  C   UNL A   1      45.739  28.390  34.453  1.00  0.00     0.012 A 
ATOM     83  C   UNL A   1      44.499  26.389  35.070  1.00  0.00     0.148 A 
ATOM     84  C   UNL A   1      46.760  28.033  35.333  1.00  0.00     0.002 A 
ATOM     85  C   UNL A   1      45.497  26.067  35.983  1.00  0.00     0.091 A 
ATOM     86  F   UNL A   1      43.417  25.614  34.905  1.00  0.00    -0.205 F 
ATOM     87  C   UNL A   1      46.633  26.882  36.108  1.00  0.00     0.022 A 
BRANCH  85  88
ATOM     88  S   UNL A   1      45.360  24.666  37.100  1.00  0.00     0.127 S 
ATOM     89  O   UNL A   1      44.086  24.938  37.763  1.00  0.00    -0.237 OA
ATOM     90  O   UNL A   1      45.337  23.530  36.177  1.00  0.00    -0.237 OA
ATOM     91  O   UNL A   1      46.538  24.722  37.956  1.00  0.00    -0.744 OA
ENDBRANCH  85  88
ENDBRANCH  58  81
ENDBRANCH  32  33
ENDBRANCH  25  27
ENDBRANCH  24  25
ENDBRANCH  23  24
ENDBRANCH   1  23
TORSDOF 19
ENDMDL
MODEL 2
REMARK VINA RESULT:     -11.3      1.665      2.023
REMARK SMILES O=C(C[C@@H]1C[N@@H+](CCSc2ccccc2F)CCO1)OCCOC(=O)c1ccc(-c2c3nc(c(-c4cccc(S(=O)(=O)[O-])c4F)c4ccc([nH]4)c(-c4cccc(S(=O)(=O)[O-])c4F)c4nc(c(-c5cccc(S(=O)(=O)[O-])c5F)c5ccc2[nH]5)C=C4)C=C3)cc1
REMARK SMILES IDX 21 1 20 2 2 3 1 4 3 5 4 6 5 7 19 8 6 9 18 10 17 11 7 13 8 14
REMARK SMILES IDX 9 15 10 16 11 17 15 18 12 19 14 20 16 21 13 22 22 23 23 24
REMARK SMILES IDX 24 25 25 26 26 27 27 28 88 29 28 30 87 31 29 32 30 33 31 34
REMARK SMILES IDX 81 35 32 36 86 37 80 38 82 39 33 40 85 41 79 42 78 43 34 45
REMARK SMILES IDX 66 46 46 47 65 48 47 49 50 50 64 51 83 52 48 53 49 54 63 56
REMARK SMILES IDX 84 57 51 58 35 59 36 60 44 61 37 62 39 63 45 64 38 65 40 66
REMARK SMILES IDX 41 67 42 68 43 69 67 70 68 71 76 72 69 73 71 74 77 75 70 76
REMARK SMILES IDX 72 77 73 78 74 79 75 80 52 81 53 82 61 83 54 84 56 85 62 86
REMARK SMILES IDX 55 87 57 88 58 89 59 90 60 91
REMARK H PARENT 6 12 82 44 50 55
REMARK Flexibility Score: inf
ROOT
ATOM      1  C   UNL A   1      31.705  29.325  24.543  1.00  0.00     0.274 C 
ENDROOT
BRANCH   1   2
ATOM      2  O   UNL A   1      30.411  28.696  24.405  1.00  0.00    -0.462 OA
BRANCH   2   3
ATOM      3  C   UNL A   1      30.019  27.880  23.392  1.00  0.00     0.308 C 
ATOM      4  O   UNL A   1      30.244  28.208  22.227  1.00  0.00    -0.252 OA
BRANCH   3   5
ATOM      5  C   UNL A   1      29.327  26.561  23.714  1.00  0.00     0.160 C 
BRANCH   5   6
ATOM      6  C   UNL A   1      30.266  25.444  24.130  1.00  0.00     0.184 C 
ATOM      7  C   UNL A   1      30.331  25.274  25.708  1.00  0.00     0.295 C 
ATOM      8  O   UNL A   1      31.464  25.785  23.437  1.00  0.00    -0.366 OA
ATOM      9  N   UNL A   1      31.667  25.177  26.322  1.00  0.00    -0.330 N 
ATOM     10  C   UNL A   1      32.623  25.403  24.114  1.00  0.00     0.222 C 
ATOM     11  C   UNL A   1      32.540  25.994  25.518  1.00  0.00     0.291 C 
ATOM     12  H   UNL A   1      31.550  25.496  27.283  1.00  0.00     0.348 HD
BRANCH   9  13
ATOM     13  C   UNL A   1      32.259  23.841  26.572  1.00  0.00     0.273 C 
BRANCH  13  14
ATOM     14  C   UNL A   1      31.690  22.483  25.909  1.00  0.00     0.136 C 
BRANCH  14  15
ATOM     15  S   UNL A   1      32.567  21.453  24.529  1.00  0.00    -0.117 SA
BRANCH  15  16
ATOM     16  C   UNL A   1      34.370  21.811  24.472  1.00  0.00     0.043 A 
ATOM     17  C   UNL A   1      35.189  21.552  25.582  1.00  0.00     0.018 A 
ATOM     18  C   UNL A   1      34.964  22.587  23.444  1.00  0.00     0.136 A 
ATOM     19  C   UNL A   1      36.532  22.002  25.624  1.00  0.00     0.001 A 
ATOM     20  C   UNL A   1      36.319  22.934  23.433  1.00  0.00     0.040 A 
ATOM     21  F   UNL A   1      34.244  23.055  22.414  1.00  0.00    -0.206 F 
ATOM     22  C   UNL A   1      37.106  22.664  24.540  1.00  0.00     0.003 A 
ENDBRANCH  15  16
ENDBRANCH  14  15
ENDBRANCH  13  14
ENDBRANCH   9  13
ENDBRANCH   5   6
ENDBRANCH   3   5
ENDBRANCH   2   3
ENDBRANCH   1   2
BRANCH   1  23
ATOM     23  C   UNL A   1      31.684  30.353  25.678  1.00  0.00     0.275 C 
BRANCH  23  24
ATOM     24  O   UNL A   1      32.986  30.417  26.282  1.00  0.00    -0.458 OA
BRANCH  24  25
ATOM     25  C   UNL A   1      33.263  31.531  27.020  1.00  0.00     0.338 C 
ATOM     26  O   UNL A   1      32.530  32.469  27.217  1.00  0.00    -0.246 OA
BRANCH  25  27
ATOM     27  C   UNL A   1      34.521  31.252  27.773  1.00  0.00     0.060 A 
ATOM     28  C   UNL A   1      34.820  29.917  28.098  1.00  0.00     0.016 A 
ATOM     29  C   UNL A   1      35.488  32.249  27.964  1.00  0.00     0.016 A 
ATOM     30  C   UNL A   1      36.092  29.579  28.579  1.00  0.00     0.010 A 
ATOM     31  C   UNL A   1      36.750  31.913  28.458  1.00  0.00     0.010 A 
ATOM     32  C   UNL A   1      37.056  30.581  28.781  1.00  0.00    -0.014 A 
BRANCH  32  33
ATOM     33  C   UNL A   1      38.241  30.330  29.637  1.00  0.00     0.031 A 
ATOM     34  C   UNL A   1      39.242  29.350  29.086  1.00  0.00     0.074 A 
ATOM     35  C   UNL A   1      38.403  30.851  30.868  1.00  0.00     0.049 A 
ATOM     36  N   UNL A   1      40.297  28.835  29.655  1.00  0.00    -0.248 NA
ATOM     37  C   UNL A   1      39.007  28.880  27.707  1.00  0.00     0.031 C 
ATOM     38  C   UNL A   1      37.521  31.821  31.516  1.00  0.00     0.029 A 
ATOM     39  N   UNL A   1      39.373  30.603  31.812  1.00  0.00    -0.354 N 
ATOM     40  C   UNL A   1      40.843  27.979  28.707  1.00  0.00     0.074 A 
ATOM     41  C   UNL A   1      40.002  28.028  27.535  1.00  0.00     0.031 C 
ATOM     42  C   UNL A   1      37.980  32.068  32.759  1.00  0.00     0.029 A 
ATOM     43  C   UNL A   1      39.171  31.253  33.009  1.00  0.00     0.049 A 
ATOM     44  H   UNL A   1      40.144  30.013  31.646  1.00  0.00     0.167 HD
ATOM     45  C   UNL A   1      41.958  27.223  28.792  1.00  0.00     0.034 A 
ATOM     46  C   UNL A   1      39.862  31.181  34.168  1.00  0.00     0.034 A 
ATOM     47  C   UNL A   1      42.789  27.146  29.953  1.00  0.00     0.049 A 
ATOM     48  C   UNL A   1      41.070  30.270  34.255  1.00  0.00     0.074 A 
ATOM     49  C   UNL A   1      43.927  26.385  30.139  1.00  0.00     0.029 A 
ATOM     50  N   UNL A   1      42.571  27.847  31.125  1.00  0.00    -0.354 N 
ATOM     51  N   UNL A   1      41.626  29.538  33.321  1.00  0.00    -0.248 NA
ATOM     52  C   UNL A   1      41.760  30.196  35.554  1.00  0.00     0.031 C 
ATOM     53  C   UNL A   1      44.393  26.618  31.434  1.00  0.00     0.029 A 
ATOM     54  C   UNL A   1      43.559  27.543  32.041  1.00  0.00     0.049 A 
ATOM     55  H   UNL A   1      41.823  28.470  31.283  1.00  0.00     0.167 HD
ATOM     56  C   UNL A   1      42.752  28.960  33.903  1.00  0.00     0.074 A 
ATOM     57  C   UNL A   1      42.810  29.439  35.267  1.00  0.00     0.031 C 
ATOM     58  C   UNL A   1      43.649  28.096  33.366  1.00  0.00     0.034 A 
BRANCH  45  59
ATOM     59  C   UNL A   1      42.355  26.446  27.573  1.00  0.00     0.023 A 
ATOM     60  C   UNL A   1      43.128  27.078  26.580  1.00  0.00     0.012 A 
ATOM     61  C   UNL A   1      42.017  25.087  27.441  1.00  0.00     0.148 A 
ATOM     62  C   UNL A   1      43.558  26.367  25.463  1.00  0.00     0.002 A 
ATOM     63  C   UNL A   1      42.485  24.374  26.346  1.00  0.00     0.091 A 
ATOM     64  F   UNL A   1      41.251  24.524  28.385  1.00  0.00    -0.205 F 
ATOM     65  C   UNL A   1      43.248  25.013  25.353  1.00  0.00     0.022 A 
BRANCH  63  66
ATOM     66  S   UNL A   1      42.204  22.614  26.144  1.00  0.00     0.127 S 
ATOM     67  O   UNL A   1      40.742  22.544  26.152  1.00  0.00    -0.237 OA
ATOM     68  O   UNL A   1      42.822  22.356  24.845  1.00  0.00    -0.237 OA
ATOM     69  O   UNL A   1      42.855  21.968  27.275  1.00  0.00    -0.744 OA
ENDBRANCH  63  66
ENDBRANCH  45  59
BRANCH  46  70
ATOM     70  C   UNL A   1      39.480  32.014  35.351  1.00  0.00     0.023 A 
ATOM     71  C   UNL A   1      39.990  33.323  35.463  1.00  0.00     0.012 A 
ATOM     72  C   UNL A   1      38.664  31.513  36.385  1.00  0.00     0.148 A 
ATOM     73  C   UNL A   1      39.736  34.099  36.596  1.00  0.00     0.002 A 
ATOM     74  C   UNL A   1      38.368  32.313  37.485  1.00  0.00     0.091 A 
ATOM     75  F   UNL A   1      38.207  30.257  36.283  1.00  0.00    -0.205 F 
ATOM     76  C   UNL A   1      38.920  33.597  37.603  1.00  0.00     0.022 A 
BRANCH  74  77
ATOM     77  S   UNL A   1      37.221  31.798  38.770  1.00  0.00     0.127 S 
ATOM     78  O   UNL A   1      37.984  32.074  39.983  1.00  0.00    -0.237 OA
ATOM     79  O   UNL A   1      36.085  32.691  38.538  1.00  0.00    -0.237 OA
ATOM     80  O   UNL A   1      36.941  30.394  38.500  1.00  0.00    -0.744 OA
ENDBRANCH  74  77
ENDBRANCH  46  70
BRANCH  58  81
ATOM     81  C   UNL A   1      44.810  27.641  34.212  1.00  0.00     0.023 A 
ATOM     82  C   UNL A   1      45.983  28.417  34.269  1.00  0.00     0.012 A 
ATOM     83  C   UNL A   1      44.684  26.514  35.051  1.00  0.00     0.148 A 
ATOM     84  C   UNL A   1      47.022  28.066  35.130  1.00  0.00     0.002 A 
ATOM     85  C   UNL A   1      45.702  26.200  35.943  1.00  0.00     0.091 A 
ATOM     86  F   UNL A   1      43.564  25.780  34.973  1.00  0.00    -0.205 F 
ATOM     87  C   UNL A   1      46.877  26.969  35.977  1.00  0.00     0.022 A 
BRANCH  85  88
ATOM     88  S   UNL A   1      45.550  24.875  37.147  1.00  0.00     0.127 S 
ATOM     89  O   UNL A   1      44.369  25.292  37.901  1.00  0.00    -0.237 OA
ATOM     90  O   UNL A   1      45.347  23.701  36.297  1.00  0.00    -0.237 OA
ATOM     91  O   UNL A   1      46.802  24.868  37.894  1.00  0.00    -0.744 OA
ENDBRANCH  85  88
ENDBRANCH  58  81
ENDBRANCH  32  33
ENDBRANCH  25  27
ENDBRANCH  24  25
ENDBRANCH  23  24
ENDBRANCH   1  23
TORSDOF 19
ENDMDL
MODEL 3
REMARK VINA RESULT:     -11.1      3.448      8.983
REMARK SMILES O=C(C[C@@H]1C[N@@H+](CCSc2ccccc2F)CCO1)OCCOC(=O)c1ccc(-c2c3nc(c(-c4cccc(S(=O)(=O)[O-])c4F)c4ccc([nH]4)c(-c4cccc(S(=O)(=O)[O-])c4F)c4nc(c(-c5cccc(S(=O)(=O)[O-])c5F)c5ccc2[nH]5)C=C4)C=C3)cc1
REMARK SMILES IDX 21 1 20 2 2 3 1 4 3 5 4 6 5 7 19 8 6 9 18 10 17 11 7 13 8 14
REMARK SMILES IDX 9 15 10 16 11 17 15 18 12 19 14 20 16 21 13 22 22 23 23 24
REMARK SMILES IDX 24 25 25 26 26 27 27 28 88 29 28 30 87 31 29 32 30 33 31 34
REMARK SMILES IDX 81 35 32 36 86 37 80 38 82 39 33 40 85 41 79 42 78 43 34 45
REMARK SMILES IDX 66 46 46 47 65 48 47 49 50 50 64 51 83 52 48 53 49 54 63 56
REMARK SMILES IDX 84 57 51 58 35 59 36 60 44 61 37 62 39 63 45 64 38 65 40 66
REMARK SMILES IDX 41 67 42 68 43 69 67 70 68 71 76 72 69 73 71 74 77 75 70 76
REMARK SMILES IDX 72 77 73 78 74 79 75 80 52 81 53 82 61 83 54 84 56 85 62 86
REMARK SMILES IDX 55 87 57 88 58 89 59 90 60 91
REMARK H PARENT 6 12 82 44 50 55
REMARK Flexibility Score: inf
ROOT
ATOM      1  C   UNL A   1      33.382  36.140  28.767  1.00  0.00     0.274 C 
ENDROOT
BRANCH   1   2
ATOM      2  O   UNL A   1      33.568  34.744  29.092  1.00  0.00    -0.462 OA
BRANCH   2   3
ATOM      3  C   UNL A   1      34.276  33.839  28.369  1.00  0.00     0.308 C 
ATOM      4  O   UNL A   1      35.058  34.231  27.502  1.00  0.00    -0.252 OA
BRANCH   3   5
ATOM      5  C   UNL A   1      34.109  32.351  28.655  1.00  0.00     0.160 C 
BRANCH   5   6
ATOM      6  C   UNL A   1      34.278  31.456  27.442  1.00  0.00     0.184 C 
ATOM      7  C   UNL A   1      32.889  30.888  26.919  1.00  0.00     0.295 C 
ATOM      8  O   UNL A   1      35.262  30.526  27.888  1.00  0.00    -0.366 OA
ATOM      9  N   UNL A   1      32.812  29.443  26.641  1.00  0.00    -0.330 N 
ATOM     10  C   UNL A   1      35.122  29.257  27.325  1.00  0.00     0.222 C 
ATOM     11  C   UNL A   1      33.690  28.803  27.588  1.00  0.00     0.291 C 
ATOM     12  H   UNL A   1      31.827  29.198  26.740  1.00  0.00     0.348 HD
BRANCH   9  13
ATOM     13  C   UNL A   1      33.055  28.952  25.263  1.00  0.00     0.273 C 
BRANCH  13  14
ATOM     14  C   UNL A   1      31.888  28.363  24.315  1.00  0.00     0.136 C 
BRANCH  14  15
ATOM     15  S   UNL A   1      31.630  26.498  23.878  1.00  0.00    -0.117 SA
BRANCH  15  16
ATOM     16  C   UNL A   1      33.176  25.534  24.126  1.00  0.00     0.043 A 
ATOM     17  C   UNL A   1      33.736  24.791  23.075  1.00  0.00     0.018 A 
ATOM     18  C   UNL A   1      33.720  25.278  25.411  1.00  0.00     0.136 A 
ATOM     19  C   UNL A   1      34.808  23.892  23.301  1.00  0.00     0.001 A 
ATOM     20  C   UNL A   1      34.850  24.479  25.619  1.00  0.00     0.040 A 
ATOM     21  F   UNL A   1      33.163  25.783  26.521  1.00  0.00    -0.206 F 
ATOM     22  C   UNL A   1      35.385  23.759  24.563  1.00  0.00     0.003 A 
ENDBRANCH  15  16
ENDBRANCH  14  15
ENDBRANCH  13  14
ENDBRANCH   9  13
ENDBRANCH   5   6
ENDBRANCH   3   5
ENDBRANCH   2   3
ENDBRANCH   1   2
BRANCH   1  23
ATOM     23  C   UNL A   1      33.060  36.947  30.027  1.00  0.00     0.275 C 
BRANCH  23  24
ATOM     24  O   UNL A   1      32.230  36.158  30.895  1.00  0.00    -0.458 OA
BRANCH  24  25
ATOM     25  C   UNL A   1      32.478  36.255  32.233  1.00  0.00     0.338 C 
ATOM     26  O   UNL A   1      31.778  36.782  33.062  1.00  0.00    -0.246 OA
BRANCH  25  27
ATOM     27  C   UNL A   1      33.623  35.344  32.531  1.00  0.00     0.060 A 
ATOM     28  C   UNL A   1      33.338  34.035  32.959  1.00  0.00     0.016 A 
ATOM     29  C   UNL A   1      34.936  35.696  32.190  1.00  0.00     0.016 A 
ATOM     30  C   UNL A   1      34.359  33.076  33.011  1.00  0.00     0.010 A 
ATOM     31  C   UNL A   1      35.955  34.744  32.258  1.00  0.00     0.010 A 
ATOM     32  C   UNL A   1      35.677  33.434  32.681  1.00  0.00    -0.014 A 
BRANCH  32  33
ATOM     33  C   UNL A   1      36.818  32.581  33.094  1.00  0.00     0.031 A 
ATOM     34  C   UNL A   1      37.489  32.977  34.382  1.00  0.00     0.074 A 
ATOM     35  C   UNL A   1      37.309  31.571  32.352  1.00  0.00     0.049 A 
ATOM     36  N   UNL A   1      38.580  32.511  34.926  1.00  0.00    -0.248 NA
ATOM     37  C   UNL A   1      36.843  34.058  35.151  1.00  0.00     0.031 C 
ATOM     38  C   UNL A   1      36.749  31.073  31.096  1.00  0.00     0.029 A 
ATOM     39  N   UNL A   1      38.428  30.793  32.547  1.00  0.00    -0.354 N 
ATOM     40  C   UNL A   1      38.751  33.246  36.092  1.00  0.00     0.074 A 
ATOM     41  C   UNL A   1      37.668  34.197  36.174  1.00  0.00     0.031 C 
ATOM     42  C   UNL A   1      37.540  30.089  30.623  1.00  0.00     0.029 A 
ATOM     43  C   UNL A   1      38.679  29.905  31.525  1.00  0.00     0.049 A 
ATOM     44  H   UNL A   1      38.998  30.866  33.347  1.00  0.00     0.167 HD
ATOM     45  C   UNL A   1      39.716  33.136  37.028  1.00  0.00     0.034 A 
ATOM     46  C   UNL A   1      39.715  29.058  31.341  1.00  0.00     0.034 A 
ATOM     47  C   UNL A   1      40.808  32.215  36.950  1.00  0.00     0.049 A 
ATOM     48  C   UNL A   1      40.822  29.005  32.376  1.00  0.00     0.074 A 
ATOM     49  C   UNL A   1      41.851  32.051  37.841  1.00  0.00     0.029 A 
ATOM     50  N   UNL A   1      41.003  31.310  35.922  1.00  0.00    -0.354 N 
ATOM     51  N   UNL A   1      40.921  29.641  33.518  1.00  0.00    -0.248 NA
ATOM     52  C   UNL A   1      41.950  28.098  32.104  1.00  0.00     0.031 C 
ATOM     53  C   UNL A   1      42.687  31.049  37.344  1.00  0.00     0.029 A 
ATOM     54  C   UNL A   1      42.149  30.576  36.158  1.00  0.00     0.049 A 
ATOM     55  H   UNL A   1      40.414  31.206  35.139  1.00  0.00     0.167 HD
ATOM     56  C   UNL A   1      42.088  29.175  34.119  1.00  0.00     0.074 A 
ATOM     57  C   UNL A   1      42.655  28.191  33.223  1.00  0.00     0.031 C 
ATOM     58  C   UNL A   1      42.653  29.539  35.297  1.00  0.00     0.034 A 
BRANCH  45  59
ATOM     59  C   UNL A   1      39.607  34.018  38.235  1.00  0.00     0.023 A 
ATOM     60  C   UNL A   1      40.189  35.300  38.201  1.00  0.00     0.012 A 
ATOM     61  C   UNL A   1      38.886  33.605  39.369  1.00  0.00     0.148 A 
ATOM     62  C   UNL A   1      40.059  36.162  39.285  1.00  0.00     0.002 A 
ATOM     63  C   UNL A   1      38.723  34.486  40.429  1.00  0.00     0.091 A 
ATOM     64  F   UNL A   1      38.373  32.367  39.385  1.00  0.00    -0.205 F 
ATOM     65  C   UNL A   1      39.315  35.761  40.392  1.00  0.00     0.022 A 
BRANCH  63  66
ATOM     66  S   UNL A   1      37.727  34.096  41.869  1.00  0.00     0.127 S 
ATOM     67  O   UNL A   1      38.522  33.043  42.502  1.00  0.00    -0.237 OA
ATOM     68  O   UNL A   1      37.719  35.371  42.585  1.00  0.00    -0.237 OA
ATOM     69  O   UNL A   1      36.432  33.666  41.362  1.00  0.00    -0.744 OA
ENDBRANCH  63  66
ENDBRANCH  45  59
BRANCH  46  70
ATOM     70  C   UNL A   1      39.770  28.145  30.157  1.00  0.00     0.023 A 
ATOM     71  C   UNL A   1      39.034  26.942  30.183  1.00  0.00     0.012 A 
ATOM     72  C   UNL A   1      40.573  28.425  29.035  1.00  0.00     0.148 A 
ATOM     73  C   UNL A   1      39.132  26.018  29.141  1.00  0.00     0.002 A 
ATOM     74  C   UNL A   1      40.621  27.525  27.972  1.00  0.00     0.091 A 
ATOM     75  F   UNL A   1      41.291  29.557  29.031  1.00  0.00    -0.205 F 
ATOM     76  C   UNL A   1      39.918  26.312  28.033  1.00  0.00     0.022 A 
BRANCH  74  77
ATOM     77  S   UNL A   1      41.507  27.879  26.449  1.00  0.00     0.127 S 
ATOM     78  O   UNL A   1      40.895  29.136  26.030  1.00  0.00    -0.237 OA
ATOM     79  O   UNL A   1      42.888  27.991  26.921  1.00  0.00    -0.237 OA
ATOM     80  O   UNL A   1      41.264  26.733  25.583  1.00  0.00    -0.744 OA
ENDBRANCH  74  77
ENDBRANCH  46  70
BRANCH  58  81
ATOM     81  C   UNL A   1      43.917  28.848  35.737  1.00  0.00     0.023 A 
ATOM     82  C   UNL A   1      45.169  29.376  35.370  1.00  0.00     0.012 A 
ATOM     83  C   UNL A   1      43.860  27.753  36.625  1.00  0.00     0.148 A 
ATOM     84  C   UNL A   1      46.347  28.811  35.859  1.00  0.00     0.002 A 
ATOM     85  C   UNL A   1      45.036  27.229  37.149  1.00  0.00     0.091 A 
ATOM     86  F   UNL A   1      42.659  27.258  36.953  1.00  0.00    -0.205 F 
ATOM     87  C   UNL A   1      46.280  27.749  36.760  1.00  0.00     0.022 A 
BRANCH  85  88
ATOM     88  S   UNL A   1      45.037  25.938  38.399  1.00  0.00     0.127 S 
ATOM     89  O   UNL A   1      46.467  25.772  38.653  1.00  0.00    -0.237 OA
ATOM     90  O   UNL A   1      44.292  26.561  39.494  1.00  0.00    -0.237 OA
ATOM     91  O   UNL A   1      44.370  24.794  37.793  1.00  0.00    -0.744 OA
ENDBRANCH  85  88
ENDBRANCH  58  81
ENDBRANCH  32  33
ENDBRANCH  25  27
ENDBRANCH  24  25
ENDBRANCH  23  24
ENDBRANCH   1  23
TORSDOF 19
ENDMDL
