MODEL 1
REMARK VINA RESULT:     -11.9      0.000      0.000
REMARK SMILES O=C(OCCOC(=O)[C@@]1([C@@H]2CCO[C@@]3(CCOC3)C2)CCOC1)c1ccc(-c2c3nc(c(-c4cccc(S(=O)(=O)[O-])c4F)c4ccc([nH]4)c(-c4cccc(S(=O)(=O)[O-])c4F)c4nc(c(-c5cccc(S(=O)(=O)[O-])c5F)c5ccc2[nH]5)C=C4)C=C3)cc1
REMARK SMILES IDX 4 1 3 2 2 3 1 4 24 5 25 6 86 7 26 8 85 9 27 10 28 11 29 12
REMARK SMILES IDX 79 13 30 14 84 15 78 16 80 17 31 18 83 19 77 20 76 21 32 23
REMARK SMILES IDX 64 24 44 25 63 26 45 27 48 28 62 29 81 30 46 31 47 32 61 34
REMARK SMILES IDX 82 35 49 36 33 37 34 38 42 39 35 40 37 41 43 42 36 43 38 44
REMARK SMILES IDX 39 45 40 46 41 47 65 48 66 49 74 50 67 51 69 52 75 53 68 54
REMARK SMILES IDX 70 55 71 56 72 57 73 58 50 59 51 60 59 61 52 62 54 63 60 64
REMARK SMILES IDX 53 65 55 66 56 67 57 68 58 69 5 70 6 71 7 72 8 73 9 74 20 75
REMARK SMILES IDX 23 76 21 77 22 78 10 79 11 80 19 81 12 82 14 83 13 84 15 85
REMARK SMILES IDX 18 86 16 87 17 88
REMARK H PARENT 80 22 48 33
REMARK Flexibility Score: inf
ROOT
ATOM      1  C   UNL A   1      33.172  32.320  27.610  1.00  0.00     0.275 C 
ENDROOT
BRANCH   1   2
ATOM      2  O   UNL A   1      34.390  31.767  28.087  1.00  0.00    -0.458 OA
BRANCH   2   3
ATOM      3  C   UNL A   1      34.644  30.511  27.653  1.00  0.00     0.338 C 
ATOM      4  O   UNL A   1      33.855  29.752  27.146  1.00  0.00    -0.246 OA
BRANCH   3   5
ATOM      5  C   UNL A   1      35.977  30.196  28.225  1.00  0.00     0.060 A 
ATOM      6  C   UNL A   1      36.106  29.678  29.509  1.00  0.00     0.016 A 
ATOM      7  C   UNL A   1      37.088  30.223  27.397  1.00  0.00     0.016 A 
ATOM      8  C   UNL A   1      37.329  29.172  29.932  1.00  0.00     0.010 A 
ATOM      9  C   UNL A   1      38.307  29.714  27.796  1.00  0.00     0.010 A 
ATOM     10  C   UNL A   1      38.426  29.187  29.070  1.00  0.00    -0.014 A 
BRANCH  10  11
ATOM     11  C   UNL A   1      39.736  28.693  29.483  1.00  0.00     0.031 A 
ATOM     12  C   UNL A   1      40.478  29.470  30.520  1.00  0.00     0.074 A 
ATOM     13  C   UNL A   1      40.266  27.625  28.865  1.00  0.00     0.049 A 
ATOM     14  N   UNL A   1      41.500  29.089  31.228  1.00  0.00    -0.248 NA
ATOM     15  C   UNL A   1      40.026  30.847  30.805  1.00  0.00     0.031 C 
ATOM     16  C   UNL A   1      39.688  26.926  27.712  1.00  0.00     0.029 A 
ATOM     17  N   UNL A   1      41.439  26.968  29.100  1.00  0.00    -0.354 N 
ATOM     18  C   UNL A   1      41.765  30.147  32.084  1.00  0.00     0.074 A 
ATOM     19  C   UNL A   1      40.891  31.233  31.726  1.00  0.00     0.031 C 
ATOM     20  C   UNL A   1      40.534  25.957  27.320  1.00  0.00     0.029 A 
ATOM     21  C   UNL A   1      41.680  25.940  28.222  1.00  0.00     0.049 A 
ATOM     22  H   UNL A   1      42.054  27.208  29.830  1.00  0.00     0.167 HD
ATOM     23  C   UNL A   1      42.615  30.163  33.131  1.00  0.00     0.034 A 
ATOM     24  C   UNL A   1      42.699  25.064  28.197  1.00  0.00     0.034 A 
ATOM     25  C   UNL A   1      43.498  29.069  33.408  1.00  0.00     0.049 A 
ATOM     26  C   UNL A   1      43.648  25.081  29.368  1.00  0.00     0.074 A 
ATOM     27  C   UNL A   1      44.341  28.883  34.484  1.00  0.00     0.029 A 
ATOM     28  N   UNL A   1      43.675  27.987  32.556  1.00  0.00    -0.354 N 
ATOM     29  N   UNL A   1      43.705  25.929  30.369  1.00  0.00    -0.248 NA
ATOM     30  C   UNL A   1      44.594  23.966  29.468  1.00  0.00     0.031 C 
ATOM     31  C   UNL A   1      45.065  27.707  34.255  1.00  0.00     0.029 A 
ATOM     32  C   UNL A   1      44.635  27.137  33.064  1.00  0.00     0.049 A 
ATOM     33  H   UNL A   1      43.187  27.847  31.713  1.00  0.00     0.167 HD
ATOM     34  C   UNL A   1      44.646  25.418  31.253  1.00  0.00     0.074 A 
ATOM     35  C   UNL A   1      45.130  24.183  30.663  1.00  0.00     0.031 C 
ATOM     36  C   UNL A   1      45.065  25.907  32.447  1.00  0.00     0.034 A 
BRANCH  23  37
ATOM     37  C   UNL A   1      42.559  31.354  34.045  1.00  0.00     0.023 A 
ATOM     38  C   UNL A   1      43.287  32.519  33.709  1.00  0.00     0.012 A 
ATOM     39  C   UNL A   1      41.793  31.337  35.221  1.00  0.00     0.148 A 
ATOM     40  C   UNL A   1      43.289  33.629  34.551  1.00  0.00     0.002 A 
ATOM     41  C   UNL A   1      41.760  32.465  36.032  1.00  0.00     0.091 A 
ATOM     42  F   UNL A   1      41.130  30.215  35.535  1.00  0.00    -0.205 F 
ATOM     43  C   UNL A   1      42.516  33.604  35.707  1.00  0.00     0.022 A 
BRANCH  41  44
ATOM     44  S   UNL A   1      40.743  32.567  37.508  1.00  0.00     0.127 S 
ATOM     45  O   UNL A   1      41.531  31.790  38.464  1.00  0.00    -0.237 OA
ATOM     46  O   UNL A   1      40.725  34.008  37.761  1.00  0.00    -0.237 OA
ATOM     47  O   UNL A   1      39.455  31.990  37.154  1.00  0.00    -0.744 OA
ENDBRANCH  41  44
ENDBRANCH  23  37
BRANCH  24  48
ATOM     48  C   UNL A   1      42.760  24.017  27.142  1.00  0.00     0.023 A 
ATOM     49  C   UNL A   1      43.552  24.230  25.996  1.00  0.00     0.012 A 
ATOM     50  C   UNL A   1      42.076  22.793  27.286  1.00  0.00     0.148 A 
ATOM     51  C   UNL A   1      43.630  23.262  24.994  1.00  0.00     0.002 A 
ATOM     52  C   UNL A   1      42.187  21.818  26.301  1.00  0.00     0.091 A 
ATOM     53  F   UNL A   1      41.340  22.607  28.390  1.00  0.00    -0.205 F 
ATOM     54  C   UNL A   1      42.953  22.056  25.147  1.00  0.00     0.022 A 
BRANCH  52  55
ATOM     55  S   UNL A   1      41.430  20.195  26.445  1.00  0.00     0.127 S 
ATOM     56  O   UNL A   1      40.013  20.513  26.298  1.00  0.00    -0.237 OA
ATOM     57  O   UNL A   1      42.023  19.487  25.309  1.00  0.00    -0.237 OA
ATOM     58  O   UNL A   1      41.831  19.687  27.748  1.00  0.00    -0.744 OA
ENDBRANCH  52  55
ENDBRANCH  24  48
BRANCH  36  59
ATOM     59  C   UNL A   1      46.069  25.089  33.209  1.00  0.00     0.023 A 
ATOM     60  C   UNL A   1      47.438  25.405  33.136  1.00  0.00     0.012 A 
ATOM     61  C   UNL A   1      45.634  24.057  34.063  1.00  0.00     0.148 A 
ATOM     62  C   UNL A   1      48.367  24.678  33.876  1.00  0.00     0.002 A 
ATOM     63  C   UNL A   1      46.558  23.380  34.843  1.00  0.00     0.091 A 
ATOM     64  F   UNL A   1      44.326  23.766  34.101  1.00  0.00    -0.205 F 
ATOM     65  C   UNL A   1      47.927  23.677  34.740  1.00  0.00     0.022 A 
BRANCH  63  66
ATOM     66  S   UNL A   1      46.071  22.159  36.065  1.00  0.00     0.127 S 
ATOM     67  O   UNL A   1      47.366  21.738  36.596  1.00  0.00    -0.237 OA
ATOM     68  O   UNL A   1      45.260  22.953  36.988  1.00  0.00    -0.237 OA
ATOM     69  O   UNL A   1      45.334  21.132  35.340  1.00  0.00    -0.744 OA
ENDBRANCH  63  66
ENDBRANCH  36  59
ENDBRANCH  10  11
ENDBRANCH   3   5
ENDBRANCH   2   3
ENDBRANCH   1   2
BRANCH   1  70
ATOM     70  C   UNL A   1      33.001  33.842  27.884  1.00  0.00     0.274 C 
BRANCH  70  71
ATOM     71  O   UNL A   1      32.683  34.240  29.247  1.00  0.00    -0.462 OA
BRANCH  71  72
ATOM     72  C   UNL A   1      32.833  35.569  29.610  1.00  0.00     0.314 C 
ATOM     73  O   UNL A   1      32.576  36.507  28.870  1.00  0.00    -0.252 OA
BRANCH  72  74
ATOM     74  C   UNL A   1      33.365  35.721  31.075  1.00  0.00     0.096 C 
ATOM     75  C   UNL A   1      33.775  37.202  31.131  1.00  0.00     0.050 C 
ATOM     76  C   UNL A   1      32.246  35.884  32.131  1.00  0.00     0.179 C 
ATOM     77  C   UNL A   1      33.703  37.667  32.552  1.00  0.00     0.161 C 
ATOM     78  O   UNL A   1      32.715  36.817  33.135  1.00  0.00    -0.380 OA
BRANCH  74  79
ATOM     79  C   UNL A   1      34.185  34.366  31.442  1.00  0.00     0.014 C 
ATOM     80  C   UNL A   1      34.612  33.915  32.866  1.00  0.00     0.033 C 
ATOM     81  C   UNL A   1      35.285  33.913  30.460  1.00  0.00     0.043 C 
ATOM     82  C   UNL A   1      35.373  32.540  32.833  1.00  0.00     0.161 C 
ATOM     83  C   UNL A   1      36.667  33.549  31.075  1.00  0.00     0.094 C 
ATOM     84  O   UNL A   1      36.391  32.363  31.833  1.00  0.00    -0.372 OA
ATOM     85  C   UNL A   1      37.712  33.252  29.995  1.00  0.00     0.066 C 
ATOM     86  C   UNL A   1      37.425  34.522  32.000  1.00  0.00     0.195 C 
ATOM     87  C   UNL A   1      38.742  34.361  30.094  1.00  0.00     0.163 C 
ATOM     88  O   UNL A   1      38.662  34.917  31.400  1.00  0.00    -0.378 OA
ENDBRANCH  74  79
ENDBRANCH  72  74
ENDBRANCH  71  72
ENDBRANCH  70  71
ENDBRANCH   1  70
TORSDOF 15
ENDMDL
MODEL 2
REMARK VINA RESULT:     -11.4      3.041      5.829
REMARK SMILES O=C(OCCOC(=O)[C@@]1([C@@H]2CCO[C@@]3(CCOC3)C2)CCOC1)c1ccc(-c2c3nc(c(-c4cccc(S(=O)(=O)[O-])c4F)c4ccc([nH]4)c(-c4cccc(S(=O)(=O)[O-])c4F)c4nc(c(-c5cccc(S(=O)(=O)[O-])c5F)c5ccc2[nH]5)C=C4)C=C3)cc1
REMARK SMILES IDX 4 1 3 2 2 3 1 4 24 5 25 6 86 7 26 8 85 9 27 10 28 11 29 12
REMARK SMILES IDX 79 13 30 14 84 15 78 16 80 17 31 18 83 19 77 20 76 21 32 23
REMARK SMILES IDX 64 24 44 25 63 26 45 27 48 28 62 29 81 30 46 31 47 32 61 34
REMARK SMILES IDX 82 35 49 36 33 37 34 38 42 39 35 40 37 41 43 42 36 43 38 44
REMARK SMILES IDX 39 45 40 46 41 47 65 48 66 49 74 50 67 51 69 52 75 53 68 54
REMARK SMILES IDX 70 55 71 56 72 57 73 58 50 59 51 60 59 61 52 62 54 63 60 64
REMARK SMILES IDX 53 65 55 66 56 67 57 68 58 69 5 70 6 71 7 72 8 73 9 74 20 75
REMARK SMILES IDX 23 76 21 77 22 78 10 79 11 80 19 81 12 82 14 83 13 84 15 85
REMARK SMILES IDX 18 86 16 87 17 88
REMARK H PARENT 80 22 48 33
REMARK Flexibility Score: inf
ROOT
ATOM      1  C   UNL A   1      33.748  28.986  26.029  1.00  0.00     0.275 C 
ENDROOT
BRANCH   1   2
ATOM      2  O   UNL A   1      34.063  29.162  27.402  1.00  0.00    -0.458 OA
BRANCH   2   3
ATOM      3  C   UNL A   1      34.552  30.384  27.714  1.00  0.00     0.338 C 
ATOM      4  O   UNL A   1      34.094  31.449  27.378  1.00  0.00    -0.246 OA
BRANCH   3   5
ATOM      5  C   UNL A   1      35.903  30.101  28.262  1.00  0.00     0.060 A 
ATOM      6  C   UNL A   1      36.066  29.557  29.531  1.00  0.00     0.016 A 
ATOM      7  C   UNL A   1      37.000  30.187  27.421  1.00  0.00     0.016 A 
ATOM      8  C   UNL A   1      37.312  29.085  29.925  1.00  0.00     0.010 A 
ATOM      9  C   UNL A   1      38.242  29.712  27.791  1.00  0.00     0.010 A 
ATOM     10  C   UNL A   1      38.396  29.159  29.050  1.00  0.00    -0.014 A 
BRANCH  10  11
ATOM     11  C   UNL A   1      39.727  28.700  29.435  1.00  0.00     0.031 A 
ATOM     12  C   UNL A   1      40.481  29.513  30.436  1.00  0.00     0.074 A 
ATOM     13  C   UNL A   1      40.263  27.632  28.822  1.00  0.00     0.049 A 
ATOM     14  N   UNL A   1      41.532  29.167  31.121  1.00  0.00    -0.248 NA
ATOM     15  C   UNL A   1      40.008  30.885  30.708  1.00  0.00     0.031 C 
ATOM     16  C   UNL A   1      39.668  26.899  27.699  1.00  0.00     0.029 A 
ATOM     17  N   UNL A   1      41.456  27.005  29.035  1.00  0.00    -0.354 N 
ATOM     18  C   UNL A   1      41.797  30.246  31.949  1.00  0.00     0.074 A 
ATOM     19  C   UNL A   1      40.890  31.307  31.597  1.00  0.00     0.031 C 
ATOM     20  C   UNL A   1      40.524  25.941  27.301  1.00  0.00     0.029 A 
ATOM     21  C   UNL A   1      41.695  25.966  28.170  1.00  0.00     0.049 A 
ATOM     22  H   UNL A   1      42.086  27.272  29.742  1.00  0.00     0.167 HD
ATOM     23  C   UNL A   1      42.676  30.300  32.971  1.00  0.00     0.034 A 
ATOM     24  C   UNL A   1      42.732  25.111  28.132  1.00  0.00     0.034 A 
ATOM     25  C   UNL A   1      43.591  29.231  33.243  1.00  0.00     0.049 A 
ATOM     26  C   UNL A   1      43.712  25.171  29.274  1.00  0.00     0.074 A 
ATOM     27  C   UNL A   1      44.467  29.083  34.297  1.00  0.00     0.029 A 
ATOM     28  N   UNL A   1      43.767  28.137  32.406  1.00  0.00    -0.354 N 
ATOM     29  N   UNL A   1      43.779  26.039  30.258  1.00  0.00    -0.248 NA
ATOM     30  C   UNL A   1      44.686  24.078  29.368  1.00  0.00     0.031 C 
ATOM     31  C   UNL A   1      45.210  27.919  34.069  1.00  0.00     0.029 A 
ATOM     32  C   UNL A   1      44.759  27.317  32.902  1.00  0.00     0.049 A 
ATOM     33  H   UNL A   1      43.258  27.970  31.580  1.00  0.00     0.167 HD
ATOM     34  C   UNL A   1      44.756  25.565  31.123  1.00  0.00     0.074 A 
ATOM     35  C   UNL A   1      45.250  24.330  30.542  1.00  0.00     0.031 C 
ATOM     36  C   UNL A   1      45.198  26.085  32.295  1.00  0.00     0.034 A 
BRANCH  23  37
ATOM     37  C   UNL A   1      42.620  31.507  33.864  1.00  0.00     0.023 A 
ATOM     38  C   UNL A   1      43.571  32.540  33.692  1.00  0.00     0.012 A 
ATOM     39  C   UNL A   1      41.639  31.634  34.860  1.00  0.00     0.148 A 
ATOM     40  C   UNL A   1      43.572  33.656  34.526  1.00  0.00     0.002 A 
ATOM     41  C   UNL A   1      41.616  32.772  35.656  1.00  0.00     0.091 A 
ATOM     42  F   UNL A   1      40.763  30.633  35.024  1.00  0.00    -0.205 F 
ATOM     43  C   UNL A   1      42.588  33.776  35.501  1.00  0.00     0.022 A 
BRANCH  41  44
ATOM     44  S   UNL A   1      40.351  33.062  36.897  1.00  0.00     0.127 S 
ATOM     45  O   UNL A   1      39.128  32.959  36.101  1.00  0.00    -0.237 OA
ATOM     46  O   UNL A   1      40.574  31.949  37.819  1.00  0.00    -0.237 OA
ATOM     47  O   UNL A   1      40.620  34.381  37.450  1.00  0.00    -0.744 OA
ENDBRANCH  41  44
ENDBRANCH  23  37
BRANCH  24  48
ATOM     48  C   UNL A   1      42.786  24.046  27.095  1.00  0.00     0.023 A 
ATOM     49  C   UNL A   1      43.524  24.261  25.914  1.00  0.00     0.012 A 
ATOM     50  C   UNL A   1      42.149  22.804  27.289  1.00  0.00     0.148 A 
ATOM     51  C   UNL A   1      43.595  23.277  24.928  1.00  0.00     0.002 A 
ATOM     52  C   UNL A   1      42.253  21.813  26.318  1.00  0.00     0.091 A 
ATOM     53  F   UNL A   1      41.463  22.616  28.425  1.00  0.00    -0.205 F 
ATOM     54  C   UNL A   1      42.964  22.053  25.131  1.00  0.00     0.022 A 
BRANCH  52  55
ATOM     55  S   UNL A   1      41.556  20.170  26.523  1.00  0.00     0.127 S 
ATOM     56  O   UNL A   1      40.124  20.442  26.451  1.00  0.00    -0.237 OA
ATOM     57  O   UNL A   1      42.108  19.466  25.364  1.00  0.00    -0.237 OA
ATOM     58  O   UNL A   1      42.044  19.692  27.808  1.00  0.00    -0.744 OA
ENDBRANCH  52  55
ENDBRANCH  24  48
BRANCH  36  59
ATOM     59  C   UNL A   1      46.241  25.303  33.043  1.00  0.00     0.023 A 
ATOM     60  C   UNL A   1      47.606  25.589  32.855  1.00  0.00     0.012 A 
ATOM     61  C   UNL A   1      45.851  24.342  33.995  1.00  0.00     0.148 A 
ATOM     62  C   UNL A   1      48.574  24.898  33.581  1.00  0.00     0.002 A 
ATOM     63  C   UNL A   1      46.818  23.703  34.757  1.00  0.00     0.091 A 
ATOM     64  F   UNL A   1      44.545  24.078  34.142  1.00  0.00    -0.205 F 
ATOM     65  C   UNL A   1      48.180  23.967  34.540  1.00  0.00     0.022 A 
BRANCH  63  66
ATOM     66  S   UNL A   1      46.399  22.579  36.092  1.00  0.00     0.127 S 
ATOM     67  O   UNL A   1      47.722  22.193  36.580  1.00  0.00    -0.237 OA
ATOM     68  O   UNL A   1      45.642  23.444  36.996  1.00  0.00    -0.237 OA
ATOM     69  O   UNL A   1      45.622  21.505  35.487  1.00  0.00    -0.744 OA
ENDBRANCH  63  66
ENDBRANCH  36  59
ENDBRANCH  10  11
ENDBRANCH   3   5
ENDBRANCH   2   3
ENDBRANCH   1   2
BRANCH   1  70
ATOM     70  C   UNL A   1      32.241  28.726  25.738  1.00  0.00     0.274 C 
BRANCH  70  71
ATOM     71  O   UNL A   1      31.883  28.347  24.380  1.00  0.00    -0.462 OA
BRANCH  71  72
ATOM     72  C   UNL A   1      31.239  27.139  24.168  1.00  0.00     0.314 C 
ATOM     73  O   UNL A   1      30.093  26.910  24.524  1.00  0.00    -0.252 OA
BRANCH  72  74
ATOM     74  C   UNL A   1      32.152  26.110  23.421  1.00  0.00     0.096 C 
ATOM     75  C   UNL A   1      31.571  26.116  21.997  1.00  0.00     0.050 C 
ATOM     76  C   UNL A   1      33.516  26.692  22.979  1.00  0.00     0.179 C 
ATOM     77  C   UNL A   1      32.648  25.713  21.038  1.00  0.00     0.161 C 
ATOM     78  O   UNL A   1      33.851  26.111  21.695  1.00  0.00    -0.380 OA
BRANCH  74  79
ATOM     79  C   UNL A   1      32.458  24.887  24.450  1.00  0.00     0.014 C 
ATOM     80  C   UNL A   1      32.759  25.025  25.967  1.00  0.00     0.033 C 
ATOM     81  C   UNL A   1      33.283  23.699  23.917  1.00  0.00     0.043 C 
ATOM     82  C   UNL A   1      32.985  23.623  26.642  1.00  0.00     0.161 C 
ATOM     83  C   UNL A   1      34.474  23.222  24.797  1.00  0.00     0.094 C 
ATOM     84  O   UNL A   1      33.830  22.682  25.960  1.00  0.00    -0.372 OA
ATOM     85  C   UNL A   1      35.299  22.135  24.101  1.00  0.00     0.066 C 
ATOM     86  C   UNL A   1      35.565  24.195  25.284  1.00  0.00     0.195 C 
ATOM     87  C   UNL A   1      36.657  22.753  23.827  1.00  0.00     0.163 C 
ATOM     88  O   UNL A   1      36.835  23.835  24.731  1.00  0.00    -0.378 OA
ENDBRANCH  74  79
ENDBRANCH  72  74
ENDBRANCH  71  72
ENDBRANCH  70  71
ENDBRANCH   1  70
TORSDOF 15
ENDMDL
MODEL 3
REMARK VINA RESULT:     -11.3      3.326      6.233
REMARK SMILES O=C(OCCOC(=O)[C@@]1([C@@H]2CCO[C@@]3(CCOC3)C2)CCOC1)c1ccc(-c2c3nc(c(-c4cccc(S(=O)(=O)[O-])c4F)c4ccc([nH]4)c(-c4cccc(S(=O)(=O)[O-])c4F)c4nc(c(-c5cccc(S(=O)(=O)[O-])c5F)c5ccc2[nH]5)C=C4)C=C3)cc1
REMARK SMILES IDX 4 1 3 2 2 3 1 4 24 5 25 6 86 7 26 8 85 9 27 10 28 11 29 12
REMARK SMILES IDX 79 13 30 14 84 15 78 16 80 17 31 18 83 19 77 20 76 21 32 23
REMARK SMILES IDX 64 24 44 25 63 26 45 27 48 28 62 29 81 30 46 31 47 32 61 34
REMARK SMILES IDX 82 35 49 36 33 37 34 38 42 39 35 40 37 41 43 42 36 43 38 44
REMARK SMILES IDX 39 45 40 46 41 47 65 48 66 49 74 50 67 51 69 52 75 53 68 54
REMARK SMILES IDX 70 55 71 56 72 57 73 58 50 59 51 60 59 61 52 62 54 63 60 64
REMARK SMILES IDX 53 65 55 66 56 67 57 68 58 69 5 70 6 71 7 72 8 73 9 74 20 75
REMARK SMILES IDX 23 76 21 77 22 78 10 79 11 80 19 81 12 82 14 83 13 84 15 85
REMARK SMILES IDX 18 86 16 87 17 88
REMARK H PARENT 80 22 48 33
REMARK Flexibility Score: inf
ROOT
ATOM      1  C   UNL A   1      32.090  30.067  26.848  1.00  0.00     0.275 C 
ENDROOT
BRANCH   1   2
ATOM      2  O   UNL A   1      33.457  30.437  26.749  1.00  0.00    -0.458 OA
BRANCH   2   3
ATOM      3  C   UNL A   1      33.845  31.391  27.626  1.00  0.00     0.338 C 
ATOM      4  O   UNL A   1      33.272  32.426  27.863  1.00  0.00    -0.246 OA
BRANCH   3   5
ATOM      5  C   UNL A   1      35.245  31.024  27.960  1.00  0.00     0.060 A 
ATOM      6  C   UNL A   1      36.246  31.986  28.023  1.00  0.00     0.016 A 
ATOM      7  C   UNL A   1      35.512  29.744  28.417  1.00  0.00     0.016 A 
ATOM      8  C   UNL A   1      37.484  31.662  28.564  1.00  0.00     0.010 A 
ATOM      9  C   UNL A   1      36.732  29.408  28.969  1.00  0.00     0.010 A 
ATOM     10  C   UNL A   1      37.721  30.372  29.041  1.00  0.00    -0.014 A 
BRANCH  10  11
ATOM     11  C   UNL A   1      39.015  29.981  29.591  1.00  0.00     0.031 A 
ATOM     12  C   UNL A   1      39.515  30.721  30.788  1.00  0.00     0.074 A 
ATOM     13  C   UNL A   1      39.748  29.048  28.962  1.00  0.00     0.049 A 
ATOM     14  N   UNL A   1      40.475  30.379  31.597  1.00  0.00    -0.248 NA
ATOM     15  C   UNL A   1      38.866  32.003  31.127  1.00  0.00     0.031 C 
ATOM     16  C   UNL A   1      39.415  28.416  27.681  1.00  0.00     0.029 A 
ATOM     17  N   UNL A   1      40.950  28.500  29.301  1.00  0.00    -0.354 N 
ATOM     18  C   UNL A   1      40.495  31.364  32.573  1.00  0.00     0.074 A 
ATOM     19  C   UNL A   1      39.550  32.381  32.193  1.00  0.00     0.031 C 
ATOM     20  C   UNL A   1      40.416  27.590  27.328  1.00  0.00     0.029 A 
ATOM     21  C   UNL A   1      41.428  27.602  28.378  1.00  0.00     0.049 A 
ATOM     22  H   UNL A   1      41.431  28.727  30.130  1.00  0.00     0.167 HD
ATOM     23  C   UNL A   1      41.192  31.361  33.727  1.00  0.00     0.034 A 
ATOM     24  C   UNL A   1      42.540  26.849  28.420  1.00  0.00     0.034 A 
ATOM     25  C   UNL A   1      42.158  30.346  34.029  1.00  0.00     0.049 A 
ATOM     26  C   UNL A   1      43.318  26.845  29.711  1.00  0.00     0.074 A 
ATOM     27  C   UNL A   1      42.869  30.139  35.192  1.00  0.00     0.029 A 
ATOM     28  N   UNL A   1      42.575  29.385  33.117  1.00  0.00    -0.354 N 
ATOM     29  N   UNL A   1      43.140  27.585  30.782  1.00  0.00    -0.248 NA
ATOM     30  C   UNL A   1      44.372  25.834  29.844  1.00  0.00     0.031 C 
ATOM     31  C   UNL A   1      43.754  29.080  34.965  1.00  0.00     0.029 A 
ATOM     32  C   UNL A   1      43.555  28.595  33.679  1.00  0.00     0.049 A 
ATOM     33  H   UNL A   1      42.222  29.283  32.204  1.00  0.00     0.167 HD
ATOM     34  C   UNL A   1      44.012  27.088  31.741  1.00  0.00     0.074 A 
ATOM     35  C   UNL A   1      44.716  25.982  31.118  1.00  0.00     0.031 C 
ATOM     36  C   UNL A   1      44.209  27.490  33.021  1.00  0.00     0.034 A 
BRANCH  23  37
ATOM     37  C   UNL A   1      40.873  32.436  34.727  1.00  0.00     0.023 A 
ATOM     38  C   UNL A   1      41.637  33.626  34.731  1.00  0.00     0.012 A 
ATOM     39  C   UNL A   1      39.827  32.287  35.652  1.00  0.00     0.148 A 
ATOM     40  C   UNL A   1      41.393  34.629  35.667  1.00  0.00     0.002 A 
ATOM     41  C   UNL A   1      39.558  33.311  36.551  1.00  0.00     0.091 A 
ATOM     42  F   UNL A   1      39.132  31.141  35.649  1.00  0.00    -0.205 F 
ATOM     43  C   UNL A   1      40.347  34.474  36.570  1.00  0.00     0.022 A 
BRANCH  41  44
ATOM     44  S   UNL A   1      38.190  33.247  37.712  1.00  0.00     0.127 S 
ATOM     45  O   UNL A   1      38.534  32.070  38.509  1.00  0.00    -0.237 OA
ATOM     46  O   UNL A   1      38.332  34.522  38.415  1.00  0.00    -0.237 OA
ATOM     47  O   UNL A   1      36.983  33.120  36.909  1.00  0.00    -0.744 OA
ENDBRANCH  41  44
ENDBRANCH  23  37
BRANCH  24  48
ATOM     48  C   UNL A   1      42.866  25.932  27.295  1.00  0.00     0.023 A 
ATOM     49  C   UNL A   1      43.717  26.372  26.262  1.00  0.00     0.012 A 
ATOM     50  C   UNL A   1      42.375  24.611  27.264  1.00  0.00     0.148 A 
ATOM     51  C   UNL A   1      44.041  25.530  25.198  1.00  0.00     0.002 A 
ATOM     52  C   UNL A   1      42.731  23.765  26.219  1.00  0.00     0.091 A 
ATOM     53  F   UNL A   1      41.578  24.209  28.263  1.00  0.00    -0.205 F 
ATOM     54  C   UNL A   1      43.554  24.227  25.178  1.00  0.00     0.022 A 
BRANCH  52  55
ATOM     55  S   UNL A   1      42.233  22.040  26.146  1.00  0.00     0.127 S 
ATOM     56  O   UNL A   1      43.096  21.525  25.087  1.00  0.00    -0.237 OA
ATOM     57  O   UNL A   1      42.567  21.576  27.494  1.00  0.00    -0.237 OA
ATOM     58  O   UNL A   1      40.808  22.054  25.848  1.00  0.00    -0.744 OA
ENDBRANCH  52  55
ENDBRANCH  24  48
BRANCH  36  59
ATOM     59  C   UNL A   1      45.197  26.710  33.842  1.00  0.00     0.023 A 
ATOM     60  C   UNL A   1      46.562  27.048  33.812  1.00  0.00     0.012 A 
ATOM     61  C   UNL A   1      44.746  25.693  34.706  1.00  0.00     0.148 A 
ATOM     62  C   UNL A   1      47.474  26.357  34.607  1.00  0.00     0.002 A 
ATOM     63  C   UNL A   1      45.650  25.053  35.539  1.00  0.00     0.091 A 
ATOM     64  F   UNL A   1      43.442  25.381  34.702  1.00  0.00    -0.205 F 
ATOM     65  C   UNL A   1      47.018  25.371  35.479  1.00  0.00     0.022 A 
BRANCH  63  66
ATOM     66  S   UNL A   1      45.137  23.855  36.773  1.00  0.00     0.127 S 
ATOM     67  O   UNL A   1      44.559  22.801  35.941  1.00  0.00    -0.237 OA
ATOM     68  O   UNL A   1      46.408  23.505  37.408  1.00  0.00    -0.237 OA
ATOM     69  O   UNL A   1      44.195  24.548  37.642  1.00  0.00    -0.744 OA
ENDBRANCH  63  66
ENDBRANCH  36  59
ENDBRANCH  10  11
ENDBRANCH   3   5
ENDBRANCH   2   3
ENDBRANCH   1   2
BRANCH   1  70
ATOM     70  C   UNL A   1      31.847  28.618  27.361  1.00  0.00     0.274 C 
BRANCH  70  71
ATOM     71  O   UNL A   1      32.647  27.559  26.766  1.00  0.00    -0.462 OA
BRANCH  71  72
ATOM     72  C   UNL A   1      32.017  26.405  26.331  1.00  0.00     0.314 C 
ATOM     73  O   UNL A   1      31.010  25.946  26.850  1.00  0.00    -0.252 OA
BRANCH  72  74
ATOM     74  C   UNL A   1      32.746  25.764  25.103  1.00  0.00     0.096 C 
ATOM     75  C   UNL A   1      31.594  25.531  24.111  1.00  0.00     0.050 C 
ATOM     76  C   UNL A   1      33.459  26.793  24.194  1.00  0.00     0.179 C 
ATOM     77  C   UNL A   1      32.150  25.529  22.721  1.00  0.00     0.161 C 
ATOM     78  O   UNL A   1      33.314  26.350  22.822  1.00  0.00    -0.380 OA
BRANCH  74  79
ATOM     79  C   UNL A   1      33.885  24.755  25.680  1.00  0.00     0.014 C 
ATOM     80  C   UNL A   1      35.268  24.475  25.032  1.00  0.00     0.033 C 
ATOM     81  C   UNL A   1      33.406  23.448  26.342  1.00  0.00     0.043 C 
ATOM     82  C   UNL A   1      36.110  23.457  25.885  1.00  0.00     0.161 C 
ATOM     83  C   UNL A   1      34.102  22.134  25.883  1.00  0.00     0.094 C 
ATOM     84  O   UNL A   1      35.442  22.282  26.373  1.00  0.00    -0.372 OA
ATOM     85  C   UNL A   1      33.449  20.895  26.503  1.00  0.00     0.066 C 
ATOM     86  C   UNL A   1      34.195  21.741  24.396  1.00  0.00     0.195 C 
ATOM     87  C   UNL A   1      32.814  20.137  25.353  1.00  0.00     0.163 C 
ATOM     88  O   UNL A   1      33.472  20.530  24.155  1.00  0.00    -0.378 OA
ENDBRANCH  74  79
ENDBRANCH  72  74
ENDBRANCH  71  72
ENDBRANCH  70  71
ENDBRANCH   1  70
TORSDOF 15
ENDMDL
