MODEL 1
REMARK VINA RESULT:     -10.8      0.000      0.000
REMARK SMILES COc1cc(/C=C/C(=O)OCCOC(=O)c2ccc(-c3c4nc(c(-c5cccc(S(=O)(=O)[O-])c5F)c5ccc([nH]5)c(-c5cccc(S(=O)(=O)[O-])c5F)c5nc(c(-c6cccc(S(=O)(=O)[O-])c6F)c6ccc3[nH]6)C=C5)C=C4)cc2)cc(OC)c1O
REMARK SMILES IDX 12 1 11 2 10 3 8 4 9 5 7 6 6 7 5 8 3 9 4 10 83 11 80 12
REMARK SMILES IDX 79 13 2 14 1 15 84 16 81 18 82 19 13 20 14 21 15 22 16 23
REMARK SMILES IDX 17 24 78 25 18 26 77 27 19 28 20 29 21 30 71 31 22 32 76 33
REMARK SMILES IDX 70 34 72 35 23 36 75 37 69 38 68 39 24 41 56 42 36 43 55 44
REMARK SMILES IDX 37 45 40 46 54 47 73 48 38 49 39 50 53 52 74 53 41 54 25 55
REMARK SMILES IDX 26 56 34 57 27 58 29 59 35 60 28 61 30 62 31 63 32 64 33 65
REMARK SMILES IDX 57 66 58 67 66 68 59 69 61 70 67 71 60 72 62 73 63 74 64 75
REMARK SMILES IDX 65 76 42 77 43 78 51 79 44 80 46 81 52 82 45 83 47 84 48 85
REMARK SMILES IDX 49 86 50 87
REMARK H PARENT 84 17 72 40 40 51
REMARK Flexibility Score: inf
ROOT
ATOM      1  C   UNL A   1      31.652  30.104  25.388  1.00  0.00     0.275 C 
ENDROOT
BRANCH   1   2
ATOM      2  C   UNL A   1      31.890  28.998  24.356  1.00  0.00     0.275 C 
BRANCH   2   3
ATOM      3  O   UNL A   1      32.984  29.321  23.476  1.00  0.00    -0.459 OA
BRANCH   3   4
ATOM      4  C   UNL A   1      33.646  28.260  22.954  1.00  0.00     0.330 C 
ATOM      5  O   UNL A   1      34.035  28.150  21.800  1.00  0.00    -0.247 OA
BRANCH   4   6
ATOM      6  C   UNL A   1      33.922  27.206  23.949  1.00  0.00     0.094 C 
ATOM      7  C   UNL A   1      33.591  25.910  23.841  1.00  0.00     0.016 C 
BRANCH   7   8
ATOM      8  C   UNL A   1      33.826  24.940  24.922  1.00  0.00    -0.018 A 
ATOM      9  C   UNL A   1      33.003  23.527  26.744  1.00  0.00     0.165 A 
ATOM     10  C   UNL A   1      32.791  24.499  25.755  1.00  0.00     0.058 A 
ATOM     11  C   UNL A   1      34.280  22.966  26.886  1.00  0.00     0.200 A 
ATOM     12  C   UNL A   1      35.339  23.403  26.072  1.00  0.00     0.165 A 
ATOM     13  C   UNL A   1      35.093  24.376  25.088  1.00  0.00     0.058 A 
BRANCH   9  14
ATOM     14  O   UNL A   1      31.855  23.218  27.421  1.00  0.00    -0.493 OA
ATOM     15  C   UNL A   1      30.595  23.333  26.778  1.00  0.00     0.278 C 
ENDBRANCH   9  14
BRANCH  11  16
ATOM     16  O   UNL A   1      34.484  21.928  27.753  1.00  0.00    -0.502 OA
ATOM     17  H   UNL A   1      35.014  21.198  27.495  1.00  0.00     0.293 HD
ENDBRANCH  11  16
BRANCH  12  18
ATOM     18  O   UNL A   1      36.637  22.960  26.053  1.00  0.00    -0.493 OA
ATOM     19  C   UNL A   1      36.925  21.736  25.393  1.00  0.00     0.278 C 
ENDBRANCH  12  18
ENDBRANCH   7   8
ENDBRANCH   4   6
ENDBRANCH   3   4
ENDBRANCH   2   3
ENDBRANCH   1   2
BRANCH   1  20
ATOM     20  O   UNL A   1      32.524  29.981  26.526  1.00  0.00    -0.458 OA
BRANCH  20  21
ATOM     21  C   UNL A   1      33.046  31.139  26.986  1.00  0.00     0.338 C 
ATOM     22  O   UNL A   1      32.505  32.239  26.997  1.00  0.00    -0.246 OA
BRANCH  21  23
ATOM     23  C   UNL A   1      34.364  30.889  27.586  1.00  0.00     0.060 A 
ATOM     24  C   UNL A   1      34.709  29.572  27.910  1.00  0.00     0.016 A 
ATOM     25  C   UNL A   1      35.224  31.946  27.890  1.00  0.00     0.016 A 
ATOM     26  C   UNL A   1      35.919  29.308  28.553  1.00  0.00     0.010 A 
ATOM     27  C   UNL A   1      36.434  31.678  28.534  1.00  0.00     0.010 A 
ATOM     28  C   UNL A   1      36.783  30.361  28.883  1.00  0.00    -0.014 A 
BRANCH  28  29
ATOM     29  C   UNL A   1      38.034  30.112  29.637  1.00  0.00     0.031 A 
ATOM     30  C   UNL A   1      39.060  29.168  29.076  1.00  0.00     0.074 A 
ATOM     31  C   UNL A   1      38.217  30.679  30.843  1.00  0.00     0.049 A 
ATOM     32  N   UNL A   1      40.148  28.704  29.632  1.00  0.00    -0.248 NA
ATOM     33  C   UNL A   1      38.824  28.676  27.709  1.00  0.00     0.031 C 
ATOM     34  C   UNL A   1      37.294  31.614  31.484  1.00  0.00     0.029 A 
ATOM     35  N   UNL A   1      39.227  30.519  31.760  1.00  0.00    -0.354 N 
ATOM     36  C   UNL A   1      40.706  27.835  28.704  1.00  0.00     0.074 A 
ATOM     37  C   UNL A   1      39.838  27.837  27.545  1.00  0.00     0.031 C 
ATOM     38  C   UNL A   1      37.761  31.920  32.706  1.00  0.00     0.029 A 
ATOM     39  C   UNL A   1      38.995  31.174  32.947  1.00  0.00     0.049 A 
ATOM     40  H   UNL A   1      40.036  29.987  31.585  1.00  0.00     0.167 HD
ATOM     41  C   UNL A   1      41.844  27.108  28.806  1.00  0.00     0.034 A 
ATOM     42  C   UNL A   1      39.680  31.149  34.107  1.00  0.00     0.034 A 
ATOM     43  C   UNL A   1      42.716  27.134  29.948  1.00  0.00     0.049 A 
ATOM     44  C   UNL A   1      40.934  30.320  34.199  1.00  0.00     0.074 A 
ATOM     45  C   UNL A   1      43.914  26.464  30.132  1.00  0.00     0.029 A 
ATOM     46  N   UNL A   1      42.485  27.865  31.103  1.00  0.00    -0.354 N 
ATOM     47  N   UNL A   1      41.503  29.580  33.278  1.00  0.00    -0.248 NA
ATOM     48  C   UNL A   1      41.657  30.342  35.480  1.00  0.00     0.031 C 
ATOM     49  C   UNL A   1      44.398  26.779  31.405  1.00  0.00     0.029 A 
ATOM     50  C   UNL A   1      43.514  27.660  32.005  1.00  0.00     0.049 A 
ATOM     51  H   UNL A   1      41.704  28.443  31.259  1.00  0.00     0.167 HD
ATOM     52  C   UNL A   1      42.669  29.084  33.852  1.00  0.00     0.074 A 
ATOM     53  C   UNL A   1      42.729  29.614  35.199  1.00  0.00     0.031 C 
ATOM     54  C   UNL A   1      43.597  28.255  33.315  1.00  0.00     0.034 A 
BRANCH  41  55
ATOM     55  C   UNL A   1      42.231  26.243  27.637  1.00  0.00     0.023 A 
ATOM     56  C   UNL A   1      43.046  26.776  26.617  1.00  0.00     0.012 A 
ATOM     57  C   UNL A   1      41.843  24.890  27.575  1.00  0.00     0.148 A 
ATOM     58  C   UNL A   1      43.446  25.985  25.542  1.00  0.00     0.002 A 
ATOM     59  C   UNL A   1      42.277  24.097  26.520  1.00  0.00     0.091 A 
ATOM     60  F   UNL A   1      41.049  24.408  28.542  1.00  0.00    -0.205 F 
ATOM     61  C   UNL A   1      43.072  24.644  25.498  1.00  0.00     0.022 A 
BRANCH  59  62
ATOM     62  S   UNL A   1      41.906  22.341  26.416  1.00  0.00     0.127 S 
ATOM     63  O   UNL A   1      42.443  21.852  27.684  1.00  0.00    -0.237 OA
ATOM     64  O   UNL A   1      40.445  22.337  26.331  1.00  0.00    -0.237 OA
ATOM     65  O   UNL A   1      42.583  21.862  25.219  1.00  0.00    -0.744 OA
ENDBRANCH  59  62
ENDBRANCH  41  55
BRANCH  42  66
ATOM     66  C   UNL A   1      39.213  31.964  35.264  1.00  0.00     0.023 A 
ATOM     67  C   UNL A   1      38.305  31.401  36.182  1.00  0.00     0.012 A 
ATOM     68  C   UNL A   1      39.683  33.275  35.478  1.00  0.00     0.148 A 
ATOM     69  C   UNL A   1      37.857  32.137  37.280  1.00  0.00     0.002 A 
ATOM     70  C   UNL A   1      39.272  33.983  36.602  1.00  0.00     0.091 A 
ATOM     71  F   UNL A   1      40.531  33.801  34.582  1.00  0.00    -0.205 F 
ATOM     72  C   UNL A   1      38.348  33.421  37.496  1.00  0.00     0.022 A 
BRANCH  70  73
ATOM     73  S   UNL A   1      39.947  35.593  37.024  1.00  0.00     0.127 S 
ATOM     74  O   UNL A   1      39.229  35.905  38.257  1.00  0.00    -0.237 OA
ATOM     75  O   UNL A   1      41.368  35.292  37.198  1.00  0.00    -0.237 OA
ATOM     76  O   UNL A   1      39.654  36.452  35.884  1.00  0.00    -0.744 OA
ENDBRANCH  70  73
ENDBRANCH  42  66
BRANCH  54  77
ATOM     77  C   UNL A   1      44.798  27.902  34.152  1.00  0.00     0.023 A 
ATOM     78  C   UNL A   1      45.921  28.751  34.157  1.00  0.00     0.012 A 
ATOM     79  C   UNL A   1      44.761  26.792  35.020  1.00  0.00     0.148 A 
ATOM     80  C   UNL A   1      46.998  28.491  35.004  1.00  0.00     0.002 A 
ATOM     81  C   UNL A   1      45.818  26.565  35.892  1.00  0.00     0.091 A 
ATOM     82  F   UNL A   1      43.688  25.990  34.984  1.00  0.00    -0.205 F 
ATOM     83  C   UNL A   1      46.941  27.408  35.880  1.00  0.00     0.022 A 
BRANCH  81  84
ATOM     84  S   UNL A   1      45.790  25.254  37.121  1.00  0.00     0.127 S 
ATOM     85  O   UNL A   1      45.792  24.058  36.280  1.00  0.00    -0.237 OA
ATOM     86  O   UNL A   1      47.035  25.488  37.852  1.00  0.00    -0.237 OA
ATOM     87  O   UNL A   1      44.580  25.463  37.905  1.00  0.00    -0.744 OA
ENDBRANCH  81  84
ENDBRANCH  54  77
ENDBRANCH  28  29
ENDBRANCH  21  23
ENDBRANCH  20  21
ENDBRANCH   1  20
TORSDOF 18
ENDMDL
MODEL 2
REMARK VINA RESULT:     -10.5      5.146     10.288
REMARK SMILES COc1cc(/C=C/C(=O)OCCOC(=O)c2ccc(-c3c4nc(c(-c5cccc(S(=O)(=O)[O-])c5F)c5ccc([nH]5)c(-c5cccc(S(=O)(=O)[O-])c5F)c5nc(c(-c6cccc(S(=O)(=O)[O-])c6F)c6ccc3[nH]6)C=C5)C=C4)cc2)cc(OC)c1O
REMARK SMILES IDX 12 1 11 2 10 3 8 4 9 5 7 6 6 7 5 8 3 9 4 10 83 11 80 12
REMARK SMILES IDX 79 13 2 14 1 15 84 16 81 18 82 19 13 20 14 21 15 22 16 23
REMARK SMILES IDX 17 24 78 25 18 26 77 27 19 28 20 29 21 30 71 31 22 32 76 33
REMARK SMILES IDX 70 34 72 35 23 36 75 37 69 38 68 39 24 41 56 42 36 43 55 44
REMARK SMILES IDX 37 45 40 46 54 47 73 48 38 49 39 50 53 52 74 53 41 54 25 55
REMARK SMILES IDX 26 56 34 57 27 58 29 59 35 60 28 61 30 62 31 63 32 64 33 65
REMARK SMILES IDX 57 66 58 67 66 68 59 69 61 70 67 71 60 72 62 73 63 74 64 75
REMARK SMILES IDX 65 76 42 77 43 78 51 79 44 80 46 81 52 82 45 83 47 84 48 85
REMARK SMILES IDX 49 86 50 87
REMARK H PARENT 84 17 72 40 40 51
REMARK Flexibility Score: inf
ROOT
ATOM      1  C   UNL A   1      36.939  20.450  25.384  1.00  0.00     0.275 C 
ENDROOT
BRANCH   1   2
ATOM      2  C   UNL A   1      35.653  21.020  24.778  1.00  0.00     0.275 C 
BRANCH   2   3
ATOM      3  O   UNL A   1      34.531  20.853  25.665  1.00  0.00    -0.459 OA
BRANCH   3   4
ATOM      4  C   UNL A   1      34.173  21.954  26.368  1.00  0.00     0.330 C 
ATOM      5  O   UNL A   1      34.095  22.039  27.585  1.00  0.00    -0.247 OA
BRANCH   4   6
ATOM      6  C   UNL A   1      33.917  23.128  25.510  1.00  0.00     0.094 C 
ATOM      7  C   UNL A   1      34.080  24.413  25.861  1.00  0.00     0.016 C 
BRANCH   7   8
ATOM      8  C   UNL A   1      33.716  25.528  24.971  1.00  0.00    -0.018 A 
ATOM      9  C   UNL A   1      33.439  26.471  22.729  1.00  0.00     0.165 A 
ATOM     10  C   UNL A   1      33.845  25.433  23.580  1.00  0.00     0.058 A 
ATOM     11  C   UNL A   1      32.868  27.625  23.285  1.00  0.00     0.200 A 
ATOM     12  C   UNL A   1      32.743  27.750  24.680  1.00  0.00     0.165 A 
ATOM     13  C   UNL A   1      33.155  26.690  25.504  1.00  0.00     0.058 A 
BRANCH   9  14
ATOM     14  O   UNL A   1      33.622  26.161  21.410  1.00  0.00    -0.493 OA
ATOM     15  C   UNL A   1      32.587  25.523  20.677  1.00  0.00     0.278 C 
ENDBRANCH   9  14
BRANCH  11  16
ATOM     16  O   UNL A   1      32.347  28.596  22.474  1.00  0.00    -0.502 OA
ATOM     17  H   UNL A   1      32.178  28.411  21.571  1.00  0.00     0.293 HD
ENDBRANCH  11  16
BRANCH  12  18
ATOM     18  O   UNL A   1      32.196  28.785  25.395  1.00  0.00    -0.493 OA
ATOM     19  C   UNL A   1      33.066  29.763  25.945  1.00  0.00     0.278 C 
ENDBRANCH  12  18
ENDBRANCH   7   8
ENDBRANCH   4   6
ENDBRANCH   3   4
ENDBRANCH   2   3
ENDBRANCH   1   2
BRANCH   1  20
ATOM     20  O   UNL A   1      38.027  21.389  25.331  1.00  0.00    -0.458 OA
BRANCH  20  21
ATOM     21  C   UNL A   1      39.082  21.102  26.126  1.00  0.00     0.338 C 
ATOM     22  O   UNL A   1      39.555  19.995  26.353  1.00  0.00    -0.246 OA
BRANCH  21  23
ATOM     23  C   UNL A   1      39.677  22.347  26.632  1.00  0.00     0.060 A 
ATOM     24  C   UNL A   1      39.227  23.563  26.108  1.00  0.00     0.016 A 
ATOM     25  C   UNL A   1      40.717  22.315  27.564  1.00  0.00     0.016 A 
ATOM     26  C   UNL A   1      39.825  24.758  26.508  1.00  0.00     0.010 A 
ATOM     27  C   UNL A   1      41.314  23.513  27.962  1.00  0.00     0.010 A 
ATOM     28  C   UNL A   1      40.883  24.740  27.426  1.00  0.00    -0.014 A 
BRANCH  28  29
ATOM     29  C   UNL A   1      41.586  25.989  27.803  1.00  0.00     0.031 A 
ATOM     30  C   UNL A   1      40.843  27.057  28.556  1.00  0.00     0.074 A 
ATOM     31  C   UNL A   1      42.859  26.188  27.418  1.00  0.00     0.049 A 
ATOM     32  N   UNL A   1      41.222  28.271  28.857  1.00  0.00    -0.248 NA
ATOM     33  C   UNL A   1      39.491  26.713  29.024  1.00  0.00     0.031 C 
ATOM     34  C   UNL A   1      43.680  25.221  26.689  1.00  0.00     0.029 A 
ATOM     35  N   UNL A   1      43.672  27.287  27.553  1.00  0.00    -0.354 N 
ATOM     36  C   UNL A   1      40.144  28.852  29.513  1.00  0.00     0.074 A 
ATOM     37  C   UNL A   1      39.095  27.856  29.568  1.00  0.00     0.031 C 
ATOM     38  C   UNL A   1      44.870  25.780  26.412  1.00  0.00     0.029 A 
ATOM     39  C   UNL A   1      44.880  27.155  26.908  1.00  0.00     0.049 A 
ATOM     40  H   UNL A   1      43.415  28.089  28.062  1.00  0.00     0.167 HD
ATOM     41  C   UNL A   1      40.043  30.100  30.028  1.00  0.00     0.034 A 
ATOM     42  C   UNL A   1      45.866  28.052  26.711  1.00  0.00     0.034 A 
ATOM     43  C   UNL A   1      41.100  31.073  29.995  1.00  0.00     0.049 A 
ATOM     44  C   UNL A   1      45.721  29.438  27.281  1.00  0.00     0.074 A 
ATOM     45  C   UNL A   1      41.109  32.352  30.525  1.00  0.00     0.029 A 
ATOM     46  N   UNL A   1      42.334  30.879  29.395  1.00  0.00    -0.354 N 
ATOM     47  N   UNL A   1      44.736  29.941  27.984  1.00  0.00    -0.248 NA
ATOM     48  C   UNL A   1      46.834  30.373  27.056  1.00  0.00     0.031 C 
ATOM     49  C   UNL A   1      42.345  32.936  30.232  1.00  0.00     0.029 A 
ATOM     50  C   UNL A   1      43.112  32.015  29.538  1.00  0.00     0.049 A 
ATOM     51  H   UNL A   1      42.615  30.057  28.934  1.00  0.00     0.167 HD
ATOM     52  C   UNL A   1      45.127  31.233  28.321  1.00  0.00     0.074 A 
ATOM     53  C   UNL A   1      46.443  31.433  27.750  1.00  0.00     0.031 C 
ATOM     54  C   UNL A   1      44.450  32.171  29.028  1.00  0.00     0.034 A 
BRANCH  41  55
ATOM     55  C   UNL A   1      38.751  30.477  30.704  1.00  0.00     0.023 A 
ATOM     56  C   UNL A   1      38.577  30.199  32.074  1.00  0.00     0.012 A 
ATOM     57  C   UNL A   1      37.738  31.159  30.002  1.00  0.00     0.148 A 
ATOM     58  C   UNL A   1      37.404  30.569  32.731  1.00  0.00     0.002 A 
ATOM     59  C   UNL A   1      36.588  31.559  30.671  1.00  0.00     0.091 A 
ATOM     60  F   UNL A   1      37.913  31.394  28.694  1.00  0.00    -0.205 F 
ATOM     61  C   UNL A   1      36.415  31.258  32.033  1.00  0.00     0.022 A 
BRANCH  59  62
ATOM     62  S   UNL A   1      35.291  32.515  29.875  1.00  0.00     0.127 S 
ATOM     63  O   UNL A   1      34.343  32.696  30.973  1.00  0.00    -0.237 OA
ATOM     64  O   UNL A   1      36.000  33.731  29.476  1.00  0.00    -0.237 OA
ATOM     65  O   UNL A   1      34.819  31.698  28.765  1.00  0.00    -0.744 OA
ENDBRANCH  59  62
ENDBRANCH  41  55
BRANCH  42  66
ATOM     66  C   UNL A   1      47.094  27.653  25.967  1.00  0.00     0.023 A 
ATOM     67  C   UNL A   1      48.124  26.977  26.649  1.00  0.00     0.012 A 
ATOM     68  C   UNL A   1      47.235  27.908  24.588  1.00  0.00     0.148 A 
ATOM     69  C   UNL A   1      49.282  26.583  25.977  1.00  0.00     0.002 A 
ATOM     70  C   UNL A   1      48.369  27.467  23.915  1.00  0.00     0.091 A 
ATOM     71  F   UNL A   1      46.252  28.570  23.961  1.00  0.00    -0.205 F 
ATOM     72  C   UNL A   1      49.400  26.817  24.610  1.00  0.00     0.022 A 
BRANCH  70  73
ATOM     73  S   UNL A   1      48.547  27.616  22.133  1.00  0.00     0.127 S 
ATOM     74  O   UNL A   1      48.683  26.219  21.728  1.00  0.00    -0.237 OA
ATOM     75  O   UNL A   1      47.284  28.248  21.752  1.00  0.00    -0.237 OA
ATOM     76  O   UNL A   1      49.721  28.454  21.927  1.00  0.00    -0.744 OA
ENDBRANCH  70  73
ENDBRANCH  42  66
BRANCH  54  77
ATOM     77  C   UNL A   1      45.130  33.490  29.284  1.00  0.00     0.023 A 
ATOM     78  C   UNL A   1      45.915  33.661  30.440  1.00  0.00     0.012 A 
ATOM     79  C   UNL A   1      45.085  34.515  28.317  1.00  0.00     0.148 A 
ATOM     80  C   UNL A   1      46.631  34.840  30.639  1.00  0.00     0.002 A 
ATOM     81  C   UNL A   1      45.838  35.668  28.500  1.00  0.00     0.091 A 
ATOM     82  F   UNL A   1      44.318  34.335  27.232  1.00  0.00    -0.205 F 
ATOM     83  C   UNL A   1      46.605  35.837  29.665  1.00  0.00     0.022 A 
BRANCH  81  84
ATOM     84  S   UNL A   1      45.940  36.961  27.257  1.00  0.00     0.127 S 
ATOM     85  O   UNL A   1      44.567  37.462  27.234  1.00  0.00    -0.237 OA
ATOM     86  O   UNL A   1      46.915  37.880  27.845  1.00  0.00    -0.237 OA
ATOM     87  O   UNL A   1      46.386  36.308  26.033  1.00  0.00    -0.744 OA
ENDBRANCH  81  84
ENDBRANCH  54  77
ENDBRANCH  28  29
ENDBRANCH  21  23
ENDBRANCH  20  21
ENDBRANCH   1  20
TORSDOF 18
ENDMDL
MODEL 3
REMARK VINA RESULT:     -10.5      3.694      6.475
REMARK SMILES COc1cc(/C=C/C(=O)OCCOC(=O)c2ccc(-c3c4nc(c(-c5cccc(S(=O)(=O)[O-])c5F)c5ccc([nH]5)c(-c5cccc(S(=O)(=O)[O-])c5F)c5nc(c(-c6cccc(S(=O)(=O)[O-])c6F)c6ccc3[nH]6)C=C5)C=C4)cc2)cc(OC)c1O
REMARK SMILES IDX 12 1 11 2 10 3 8 4 9 5 7 6 6 7 5 8 3 9 4 10 83 11 80 12
REMARK SMILES IDX 79 13 2 14 1 15 84 16 81 18 82 19 13 20 14 21 15 22 16 23
REMARK SMILES IDX 17 24 78 25 18 26 77 27 19 28 20 29 21 30 71 31 22 32 76 33
REMARK SMILES IDX 70 34 72 35 23 36 75 37 69 38 68 39 24 41 56 42 36 43 55 44
REMARK SMILES IDX 37 45 40 46 54 47 73 48 38 49 39 50 53 52 74 53 41 54 25 55
REMARK SMILES IDX 26 56 34 57 27 58 29 59 35 60 28 61 30 62 31 63 32 64 33 65
REMARK SMILES IDX 57 66 58 67 66 68 59 69 61 70 67 71 60 72 62 73 63 74 64 75
REMARK SMILES IDX 65 76 42 77 43 78 51 79 44 80 46 81 52 82 45 83 47 84 48 85
REMARK SMILES IDX 49 86 50 87
REMARK H PARENT 84 17 72 40 40 51
REMARK Flexibility Score: inf
ROOT
ATOM      1  C   UNL A   1      32.859  36.020  29.888  1.00  0.00     0.275 C 
ENDROOT
BRANCH   1   2
ATOM      2  C   UNL A   1      33.340  36.446  31.278  1.00  0.00     0.275 C 
BRANCH   2   3
ATOM      3  O   UNL A   1      34.467  35.662  31.712  1.00  0.00    -0.459 OA
BRANCH   3   4
ATOM      4  C   UNL A   1      34.730  35.705  33.041  1.00  0.00     0.330 C 
ATOM      5  O   UNL A   1      34.364  36.572  33.820  1.00  0.00    -0.247 OA
BRANCH   4   6
ATOM      6  C   UNL A   1      35.493  34.534  33.515  1.00  0.00     0.094 C 
ATOM      7  C   UNL A   1      35.814  34.263  34.790  1.00  0.00     0.016 C 
BRANCH   7   8
ATOM      8  C   UNL A   1      36.655  33.117  35.168  1.00  0.00    -0.018 A 
ATOM      9  C   UNL A   1      37.981  31.148  34.570  1.00  0.00     0.165 A 
ATOM     10  C   UNL A   1      37.128  32.204  34.218  1.00  0.00     0.058 A 
ATOM     11  C   UNL A   1      38.391  31.018  35.905  1.00  0.00     0.200 A 
ATOM     12  C   UNL A   1      37.918  31.912  36.880  1.00  0.00     0.165 A 
ATOM     13  C   UNL A   1      37.067  32.962  36.494  1.00  0.00     0.058 A 
BRANCH   9  14
ATOM     14  O   UNL A   1      38.349  30.397  33.487  1.00  0.00    -0.493 OA
ATOM     15  C   UNL A   1      37.430  29.484  32.907  1.00  0.00     0.278 C 
ENDBRANCH   9  14
BRANCH  11  16
ATOM     16  O   UNL A   1      39.322  30.078  36.251  1.00  0.00    -0.502 OA
ATOM     17  H   UNL A   1      39.224  29.591  37.046  1.00  0.00     0.293 HD
ENDBRANCH  11  16
BRANCH  12  18
ATOM     18  O   UNL A   1      38.223  31.953  38.216  1.00  0.00    -0.493 OA
ATOM     19  C   UNL A   1      37.199  32.308  39.134  1.00  0.00     0.278 C 
ENDBRANCH  12  18
ENDBRANCH   7   8
ENDBRANCH   4   6
ENDBRANCH   3   4
ENDBRANCH   2   3
ENDBRANCH   1   2
BRANCH   1  20
ATOM     20  O   UNL A   1      32.790  34.590  29.752  1.00  0.00    -0.458 OA
BRANCH  20  21
ATOM     21  C   UNL A   1      33.412  34.078  28.666  1.00  0.00     0.338 C 
ATOM     22  O   UNL A   1      33.029  34.133  27.503  1.00  0.00    -0.246 OA
BRANCH  21  23
ATOM     23  C   UNL A   1      34.707  33.506  29.057  1.00  0.00     0.060 A 
ATOM     24  C   UNL A   1      34.769  32.724  30.216  1.00  0.00     0.016 A 
ATOM     25  C   UNL A   1      35.865  33.792  28.330  1.00  0.00     0.016 A 
ATOM     26  C   UNL A   1      35.996  32.231  30.660  1.00  0.00     0.010 A 
ATOM     27  C   UNL A   1      37.092  33.298  28.777  1.00  0.00     0.010 A 
ATOM     28  C   UNL A   1      37.168  32.528  29.951  1.00  0.00    -0.014 A 
BRANCH  28  29
ATOM     29  C   UNL A   1      38.492  32.083  30.448  1.00  0.00     0.031 A 
ATOM     30  C   UNL A   1      39.053  30.769  29.983  1.00  0.00     0.074 A 
ATOM     31  C   UNL A   1      39.153  32.823  31.356  1.00  0.00     0.049 A 
ATOM     32  N   UNL A   1      40.116  30.132  30.397  1.00  0.00    -0.248 NA
ATOM     33  C   UNL A   1      38.313  30.078  28.914  1.00  0.00     0.031 C 
ATOM     34  C   UNL A   1      38.708  34.116  31.876  1.00  0.00     0.029 A 
ATOM     35  N   UNL A   1      40.322  32.572  32.032  1.00  0.00    -0.354 N 
ATOM     36  C   UNL A   1      40.153  28.947  29.673  1.00  0.00     0.074 A 
ATOM     37  C   UNL A   1      39.006  28.955  28.790  1.00  0.00     0.031 C 
ATOM     38  C   UNL A   1      39.575  34.531  32.814  1.00  0.00     0.029 A 
ATOM     39  C   UNL A   1      40.613  33.517  32.989  1.00  0.00     0.049 A 
ATOM     40  H   UNL A   1      40.895  31.793  31.850  1.00  0.00     0.167 HD
ATOM     41  C   UNL A   1      41.066  27.949  29.734  1.00  0.00     0.034 A 
ATOM     42  C   UNL A   1      41.586  33.545  33.920  1.00  0.00     0.034 A 
ATOM     43  C   UNL A   1      42.218  27.962  30.593  1.00  0.00     0.049 A 
ATOM     44  C   UNL A   1      42.579  32.414  33.977  1.00  0.00     0.074 A 
ATOM     45  C   UNL A   1      43.223  27.017  30.699  1.00  0.00     0.029 A 
ATOM     46  N   UNL A   1      42.518  28.970  31.496  1.00  0.00    -0.354 N 
ATOM     47  N   UNL A   1      42.658  31.347  33.218  1.00  0.00    -0.248 NA
ATOM     48  C   UNL A   1      43.634  32.501  34.998  1.00  0.00     0.031 C 
ATOM     49  C   UNL A   1      44.124  27.446  31.679  1.00  0.00     0.029 A 
ATOM     50  C   UNL A   1      43.691  28.668  32.167  1.00  0.00     0.049 A 
ATOM     51  H   UNL A   1      41.978  29.779  31.641  1.00  0.00     0.167 HD
ATOM     52  C   UNL A   1      43.791  30.660  33.641  1.00  0.00     0.074 A 
ATOM     53  C   UNL A   1      44.372  31.435  34.719  1.00  0.00     0.031 C 
ATOM     54  C   UNL A   1      44.296  29.487  33.186  1.00  0.00     0.034 A 
BRANCH  41  55
ATOM     55  C   UNL A   1      40.873  26.766  28.822  1.00  0.00     0.023 A 
ATOM     56  C   UNL A   1      39.701  25.991  28.928  1.00  0.00     0.012 A 
ATOM     57  C   UNL A   1      41.819  26.458  27.825  1.00  0.00     0.148 A 
ATOM     58  C   UNL A   1      39.484  24.912  28.073  1.00  0.00     0.002 A 
ATOM     59  C   UNL A   1      41.578  25.405  26.950  1.00  0.00     0.091 A 
ATOM     60  F   UNL A   1      42.938  27.193  27.755  1.00  0.00    -0.205 F 
ATOM     61  C   UNL A   1      40.415  24.625  27.078  1.00  0.00     0.022 A 
BRANCH  59  62
ATOM     62  S   UNL A   1      42.685  25.005  25.592  1.00  0.00     0.127 S 
ATOM     63  O   UNL A   1      42.354  26.050  24.626  1.00  0.00    -0.237 OA
ATOM     64  O   UNL A   1      44.003  25.146  26.214  1.00  0.00    -0.237 OA
ATOM     65  O   UNL A   1      42.348  23.646  25.191  1.00  0.00    -0.744 OA
ENDBRANCH  59  62
ENDBRANCH  41  55
BRANCH  42  66
ATOM     66  C   UNL A   1      41.689  34.703  34.853  1.00  0.00     0.023 A 
ATOM     67  C   UNL A   1      42.403  35.849  34.453  1.00  0.00     0.012 A 
ATOM     68  C   UNL A   1      41.060  34.689  36.114  1.00  0.00     0.148 A 
ATOM     69  C   UNL A   1      42.508  36.952  35.301  1.00  0.00     0.002 A 
ATOM     70  C   UNL A   1      41.126  35.812  36.932  1.00  0.00     0.091 A 
ATOM     71  F   UNL A   1      40.402  33.582  36.484  1.00  0.00    -0.205 F 
ATOM     72  C   UNL A   1      41.861  36.938  36.534  1.00  0.00     0.022 A 
BRANCH  70  73
ATOM     73  S   UNL A   1      40.221  35.928  38.480  1.00  0.00     0.127 S 
ATOM     74  O   UNL A   1      41.141  35.283  39.413  1.00  0.00    -0.237 OA
ATOM     75  O   UNL A   1      40.087  37.375  38.647  1.00  0.00    -0.237 OA
ATOM     76  O   UNL A   1      38.960  35.234  38.249  1.00  0.00    -0.744 OA
ENDBRANCH  70  73
ENDBRANCH  42  66
BRANCH  54  77
ATOM     77  C   UNL A   1      45.573  28.981  33.802  1.00  0.00     0.023 A 
ATOM     78  C   UNL A   1      46.814  29.428  33.309  1.00  0.00     0.012 A 
ATOM     79  C   UNL A   1      45.536  28.156  34.944  1.00  0.00     0.148 A 
ATOM     80  C   UNL A   1      48.001  29.047  33.934  1.00  0.00     0.002 A 
ATOM     81  C   UNL A   1      46.719  27.818  35.588  1.00  0.00     0.091 A 
ATOM     82  F   UNL A   1      44.343  27.730  35.384  1.00  0.00    -0.205 F 
ATOM     83  C   UNL A   1      47.953  28.255  35.080  1.00  0.00     0.022 A 
BRANCH  81  84
ATOM     84  S   UNL A   1      46.749  26.883  37.123  1.00  0.00     0.127 S 
ATOM     85  O   UNL A   1      48.184  26.799  37.392  1.00  0.00    -0.237 OA
ATOM     86  O   UNL A   1      46.008  27.756  38.032  1.00  0.00    -0.237 OA
ATOM     87  O   UNL A   1      46.094  25.614  36.834  1.00  0.00    -0.744 OA
ENDBRANCH  81  84
ENDBRANCH  54  77
ENDBRANCH  28  29
ENDBRANCH  21  23
ENDBRANCH  20  21
ENDBRANCH   1  20
TORSDOF 18
ENDMDL
