MODEL 1
REMARK VINA RESULT:     -12.8      0.000      0.000
REMARK SMILES O=C(OCCOC(=O)[C@@H]1[C@H](C(=O)Nc2cccc(Cl)c2F)[C@@H]2C=C[C@H]1C2)c1ccc(-c2c3nc(c(-c4cccc(S(=O)(=O)[O-])c4F)c4ccc([nH]4)c(-c4cccc(S(=O)(=O)[O-])c4F)c4nc(c(-c5cccc(S(=O)(=O)[O-])c5F)c5ccc2[nH]5)C=C4)C=C3)cc1
REMARK SMILES IDX 4 1 3 2 2 3 1 4 27 5 28 6 89 7 29 8 88 9 30 10 31 11 32 12
REMARK SMILES IDX 82 13 33 14 87 15 81 16 83 17 34 18 86 19 80 20 79 21 35 23
REMARK SMILES IDX 67 24 47 25 66 26 48 27 51 28 65 29 84 30 49 31 50 32 64 34
REMARK SMILES IDX 85 35 52 36 36 37 37 38 45 39 38 40 40 41 46 42 39 43 41 44
REMARK SMILES IDX 42 45 43 46 44 47 68 48 69 49 77 50 70 51 72 52 78 53 71 54
REMARK SMILES IDX 73 55 74 56 75 57 76 58 53 59 54 60 62 61 55 62 57 63 63 64
REMARK SMILES IDX 56 65 58 66 59 67 60 68 61 69 5 70 6 71 7 72 8 73 9 74 10 75
REMARK SMILES IDX 25 76 22 77 24 78 26 79 23 80 11 81 12 82 13 83 14 85 15 86
REMARK SMILES IDX 20 87 16 88 18 89 21 90 17 91 19 92
REMARK H PARENT 83 22 51 33 13 84
REMARK Flexibility Score: inf
ROOT
ATOM      1  C   UNL A   1      32.443  30.012  25.891  1.00  0.00     0.275 C 
ENDROOT
BRANCH   1   2
ATOM      2  O   UNL A   1      32.261  30.977  26.952  1.00  0.00    -0.458 OA
BRANCH   2   3
ATOM      3  C   UNL A   1      33.178  31.893  27.360  1.00  0.00     0.338 C 
ATOM      4  O   UNL A   1      32.867  33.079  27.424  1.00  0.00    -0.246 OA
BRANCH   3   5
ATOM      5  C   UNL A   1      34.511  31.448  27.898  1.00  0.00     0.060 A 
ATOM      6  C   UNL A   1      34.809  30.149  28.296  1.00  0.00     0.016 A 
ATOM      7  C   UNL A   1      35.538  32.412  28.002  1.00  0.00     0.016 A 
ATOM      8  C   UNL A   1      36.104  29.802  28.698  1.00  0.00     0.010 A 
ATOM      9  C   UNL A   1      36.844  32.065  28.410  1.00  0.00     0.010 A 
ATOM     10  C   UNL A   1      37.143  30.742  28.739  1.00  0.00    -0.014 A 
BRANCH  10  11
ATOM     11  C   UNL A   1      38.406  30.302  29.394  1.00  0.00     0.031 A 
ATOM     12  C   UNL A   1      38.546  30.648  30.833  1.00  0.00     0.074 A 
ATOM     13  C   UNL A   1      39.320  29.496  28.817  1.00  0.00     0.049 A 
ATOM     14  N   UNL A   1      39.433  30.235  31.689  1.00  0.00    -0.248 NA
ATOM     15  C   UNL A   1      37.571  31.614  31.364  1.00  0.00     0.031 C 
ATOM     16  C   UNL A   1      39.376  29.209  27.403  1.00  0.00     0.029 A 
ATOM     17  N   UNL A   1      40.350  28.737  29.323  1.00  0.00    -0.354 N 
ATOM     18  C   UNL A   1      39.175  30.951  32.844  1.00  0.00     0.074 A 
ATOM     19  C   UNL A   1      38.013  31.777  32.596  1.00  0.00     0.031 C 
ATOM     20  C   UNL A   1      40.220  28.195  27.162  1.00  0.00     0.029 A 
ATOM     21  C   UNL A   1      40.918  27.878  28.396  1.00  0.00     0.049 A 
ATOM     22  H   UNL A   1      40.655  28.799  30.258  1.00  0.00     0.167 HD
ATOM     23  C   UNL A   1      39.885  30.959  33.988  1.00  0.00     0.034 A 
ATOM     24  C   UNL A   1      41.924  26.984  28.513  1.00  0.00     0.034 A 
ATOM     25  C   UNL A   1      41.081  30.195  34.186  1.00  0.00     0.049 A 
ATOM     26  C   UNL A   1      42.670  26.983  29.817  1.00  0.00     0.074 A 
ATOM     27  C   UNL A   1      41.912  30.174  35.288  1.00  0.00     0.029 A 
ATOM     28  N   UNL A   1      41.638  29.343  33.241  1.00  0.00    -0.354 N 
ATOM     29  N   UNL A   1      42.395  27.643  30.916  1.00  0.00    -0.248 NA
ATOM     30  C   UNL A   1      43.892  26.169  29.891  1.00  0.00     0.031 C 
ATOM     31  C   UNL A   1      42.991  29.333  34.997  1.00  0.00     0.029 A 
ATOM     32  C   UNL A   1      42.799  28.782  33.738  1.00  0.00     0.049 A 
ATOM     33  H   UNL A   1      41.261  29.166  32.349  1.00  0.00     0.167 HD
ATOM     34  C   UNL A   1      43.407  27.331  31.810  1.00  0.00     0.074 A 
ATOM     35  C   UNL A   1      44.278  26.384  31.140  1.00  0.00     0.031 C 
ATOM     36  C   UNL A   1      43.614  27.808  33.059  1.00  0.00     0.034 A 
BRANCH  23  37
ATOM     37  C   UNL A   1      39.417  31.922  35.035  1.00  0.00     0.023 A 
ATOM     38  C   UNL A   1      39.830  33.270  34.998  1.00  0.00     0.012 A 
ATOM     39  C   UNL A   1      38.655  31.452  36.119  1.00  0.00     0.148 A 
ATOM     40  C   UNL A   1      39.534  34.123  36.059  1.00  0.00     0.002 A 
ATOM     41  C   UNL A   1      38.319  32.322  37.143  1.00  0.00     0.091 A 
ATOM     42  F   UNL A   1      38.320  30.155  36.151  1.00  0.00    -0.205 F 
ATOM     43  C   UNL A   1      38.775  33.651  37.126  1.00  0.00     0.022 A 
BRANCH  41  44
ATOM     44  S   UNL A   1      37.293  31.827  38.527  1.00  0.00     0.127 S 
ATOM     45  O   UNL A   1      38.165  32.121  39.663  1.00  0.00    -0.237 OA
ATOM     46  O   UNL A   1      36.146  32.724  38.387  1.00  0.00    -0.237 OA
ATOM     47  O   UNL A   1      36.993  30.416  38.326  1.00  0.00    -0.744 OA
ENDBRANCH  41  44
ENDBRANCH  23  37
BRANCH  24  48
ATOM     48  C   UNL A   1      42.348  26.078  27.393  1.00  0.00     0.023 A 
ATOM     49  C   UNL A   1      43.162  26.581  26.353  1.00  0.00     0.012 A 
ATOM     50  C   UNL A   1      41.926  24.736  27.316  1.00  0.00     0.148 A 
ATOM     51  C   UNL A   1      43.517  25.782  25.260  1.00  0.00     0.002 A 
ATOM     52  C   UNL A   1      42.352  23.923  26.270  1.00  0.00     0.091 A 
ATOM     53  F   UNL A   1      41.098  24.273  28.263  1.00  0.00    -0.205 F 
ATOM     54  C   UNL A   1      43.126  24.448  25.227  1.00  0.00     0.022 A 
BRANCH  52  55
ATOM     55  S   UNL A   1      42.027  22.155  26.243  1.00  0.00     0.127 S 
ATOM     56  O   UNL A   1      42.917  21.702  25.178  1.00  0.00    -0.237 OA
ATOM     57  O   UNL A   1      42.425  21.757  27.594  1.00  0.00    -0.237 OA
ATOM     58  O   UNL A   1      40.600  22.029  25.981  1.00  0.00    -0.744 OA
ENDBRANCH  52  55
ENDBRANCH  24  48
BRANCH  36  59
ATOM     59  C   UNL A   1      44.777  27.239  33.819  1.00  0.00     0.023 A 
ATOM     60  C   UNL A   1      46.048  27.839  33.751  1.00  0.00     0.012 A 
ATOM     61  C   UNL A   1      44.569  26.130  34.659  1.00  0.00     0.148 A 
ATOM     62  C   UNL A   1      47.109  27.317  34.489  1.00  0.00     0.002 A 
ATOM     63  C   UNL A   1      45.613  25.655  35.435  1.00  0.00     0.091 A 
ATOM     64  F   UNL A   1      43.354  25.562  34.678  1.00  0.00    -0.205 F 
ATOM     65  C   UNL A   1      46.888  26.236  35.342  1.00  0.00     0.022 A 
BRANCH  63  66
ATOM     66  S   UNL A   1      45.378  24.341  36.634  1.00  0.00     0.127 S 
ATOM     67  O   UNL A   1      44.352  24.914  37.504  1.00  0.00    -0.237 OA
ATOM     68  O   UNL A   1      44.919  23.235  35.793  1.00  0.00    -0.237 OA
ATOM     69  O   UNL A   1      46.677  24.127  37.256  1.00  0.00    -0.744 OA
ENDBRANCH  63  66
ENDBRANCH  36  59
ENDBRANCH  10  11
ENDBRANCH   3   5
ENDBRANCH   2   3
ENDBRANCH   1   2
BRANCH   1  70
ATOM     70  C   UNL A   1      32.027  28.582  26.207  1.00  0.00     0.274 C 
BRANCH  70  71
ATOM     71  O   UNL A   1      32.956  27.624  25.679  1.00  0.00    -0.462 OA
BRANCH  71  72
ATOM     72  C   UNL A   1      32.676  26.363  26.081  1.00  0.00     0.310 C 
ATOM     73  O   UNL A   1      31.807  26.078  26.891  1.00  0.00    -0.252 OA
BRANCH  72  74
ATOM     74  C   UNL A   1      33.468  25.296  25.389  1.00  0.00     0.119 C 
ATOM     75  C   UNL A   1      32.636  24.364  24.476  1.00  0.00     0.100 C 
ATOM     76  C   UNL A   1      34.381  24.296  26.092  1.00  0.00     0.027 C 
ATOM     77  C   UNL A   1      33.463  23.048  24.472  1.00  0.00     0.025 C 
ATOM     78  C   UNL A   1      33.602  23.174  26.722  1.00  0.00    -0.027 C 
ATOM     79  C   UNL A   1      34.877  23.521  24.852  1.00  0.00     0.017 C 
ATOM     80  C   UNL A   1      33.164  22.361  25.749  1.00  0.00    -0.027 C 
BRANCH  75  81
ATOM     81  C   UNL A   1      31.107  24.297  24.716  1.00  0.00     0.229 C 
ATOM     82  O   UNL A   1      30.722  23.369  25.456  1.00  0.00    -0.274 OA
ATOM     83  N   UNL A   1      30.069  25.075  24.291  1.00  0.00    -0.323 N 
ATOM     84  H   UNL A   1      29.214  24.690  24.586  1.00  0.00     0.170 HD
BRANCH  83  85
ATOM     85  C   UNL A   1      29.845  26.263  23.557  1.00  0.00     0.078 A 
ATOM     86  C   UNL A   1      30.961  26.905  22.999  1.00  0.00     0.029 A 
ATOM     87  C   UNL A   1      28.657  27.002  23.622  1.00  0.00     0.165 A 
ATOM     88  C   UNL A   1      30.863  28.182  22.419  1.00  0.00     0.004 A 
ATOM     89  C   UNL A   1      28.561  28.294  23.075  1.00  0.00     0.078 A 
ATOM     90  F   UNL A   1      27.606  26.519  24.290  1.00  0.00    -0.203 F 
ATOM     91  C   UNL A   1      29.657  28.876  22.449  1.00  0.00     0.024 A 
ATOM     92  Cl  UNL A   1      27.121  29.229  23.265  1.00  0.00    -0.081 Cl
ENDBRANCH  83  85
ENDBRANCH  75  81
ENDBRANCH  72  74
ENDBRANCH  71  72
ENDBRANCH  70  71
ENDBRANCH   1  70
TORSDOF 16
ENDMDL
MODEL 2
REMARK VINA RESULT:     -12.7      1.693      2.991
REMARK SMILES O=C(OCCOC(=O)[C@@H]1[C@H](C(=O)Nc2cccc(Cl)c2F)[C@@H]2C=C[C@H]1C2)c1ccc(-c2c3nc(c(-c4cccc(S(=O)(=O)[O-])c4F)c4ccc([nH]4)c(-c4cccc(S(=O)(=O)[O-])c4F)c4nc(c(-c5cccc(S(=O)(=O)[O-])c5F)c5ccc2[nH]5)C=C4)C=C3)cc1
REMARK SMILES IDX 4 1 3 2 2 3 1 4 27 5 28 6 89 7 29 8 88 9 30 10 31 11 32 12
REMARK SMILES IDX 82 13 33 14 87 15 81 16 83 17 34 18 86 19 80 20 79 21 35 23
REMARK SMILES IDX 67 24 47 25 66 26 48 27 51 28 65 29 84 30 49 31 50 32 64 34
REMARK SMILES IDX 85 35 52 36 36 37 37 38 45 39 38 40 40 41 46 42 39 43 41 44
REMARK SMILES IDX 42 45 43 46 44 47 68 48 69 49 77 50 70 51 72 52 78 53 71 54
REMARK SMILES IDX 73 55 74 56 75 57 76 58 53 59 54 60 62 61 55 62 57 63 63 64
REMARK SMILES IDX 56 65 58 66 59 67 60 68 61 69 5 70 6 71 7 72 8 73 9 74 10 75
REMARK SMILES IDX 25 76 22 77 24 78 26 79 23 80 11 81 12 82 13 83 14 85 15 86
REMARK SMILES IDX 20 87 16 88 18 89 21 90 17 91 19 92
REMARK H PARENT 83 22 51 33 13 84
REMARK Flexibility Score: inf
ROOT
ATOM      1  C   UNL A   1      31.703  29.776  27.222  1.00  0.00     0.275 C 
ENDROOT
BRANCH   1   2
ATOM      2  O   UNL A   1      32.798  30.522  26.643  1.00  0.00    -0.458 OA
BRANCH   2   3
ATOM      3  C   UNL A   1      33.572  31.430  27.293  1.00  0.00     0.338 C 
ATOM      4  O   UNL A   1      33.113  32.535  27.569  1.00  0.00    -0.246 OA
BRANCH   3   5
ATOM      5  C   UNL A   1      34.922  31.036  27.828  1.00  0.00     0.060 A 
ATOM      6  C   UNL A   1      35.303  29.732  28.127  1.00  0.00     0.016 A 
ATOM      7  C   UNL A   1      35.876  32.056  28.035  1.00  0.00     0.016 A 
ATOM      8  C   UNL A   1      36.611  29.443  28.535  1.00  0.00     0.010 A 
ATOM      9  C   UNL A   1      37.194  31.769  28.448  1.00  0.00     0.010 A 
ATOM     10  C   UNL A   1      37.580  30.447  28.678  1.00  0.00    -0.014 A 
BRANCH  10  11
ATOM     11  C   UNL A   1      38.857  30.042  29.328  1.00  0.00     0.031 A 
ATOM     12  C   UNL A   1      39.016  30.441  30.751  1.00  0.00     0.074 A 
ATOM     13  C   UNL A   1      39.770  29.225  28.765  1.00  0.00     0.049 A 
ATOM     14  N   UNL A   1      39.921  30.069  31.607  1.00  0.00    -0.248 NA
ATOM     15  C   UNL A   1      38.040  31.417  31.262  1.00  0.00     0.031 C 
ATOM     16  C   UNL A   1      39.807  28.888  27.362  1.00  0.00     0.029 A 
ATOM     17  N   UNL A   1      40.815  28.495  29.282  1.00  0.00    -0.354 N 
ATOM     18  C   UNL A   1      39.673  30.823  32.739  1.00  0.00     0.074 A 
ATOM     19  C   UNL A   1      38.500  31.629  32.481  1.00  0.00     0.031 C 
ATOM     20  C   UNL A   1      40.658  27.873  27.144  1.00  0.00     0.029 A 
ATOM     21  C   UNL A   1      41.378  27.608  28.378  1.00  0.00     0.049 A 
ATOM     22  H   UNL A   1      41.135  28.593  30.209  1.00  0.00     0.167 HD
ATOM     23  C   UNL A   1      40.401  30.879  33.871  1.00  0.00     0.034 A 
ATOM     24  C   UNL A   1      42.395  26.728  28.511  1.00  0.00     0.034 A 
ATOM     25  C   UNL A   1      41.608  30.135  34.077  1.00  0.00     0.049 A 
ATOM     26  C   UNL A   1      43.161  26.782  29.802  1.00  0.00     0.074 A 
ATOM     27  C   UNL A   1      42.457  30.162  35.165  1.00  0.00     0.029 A 
ATOM     28  N   UNL A   1      42.159  29.254  33.155  1.00  0.00    -0.354 N 
ATOM     29  N   UNL A   1      42.896  27.478  30.881  1.00  0.00    -0.248 NA
ATOM     30  C   UNL A   1      44.391  25.983  29.886  1.00  0.00     0.031 C 
ATOM     31  C   UNL A   1      43.539  29.321  34.888  1.00  0.00     0.029 A 
ATOM     32  C   UNL A   1      43.333  28.723  33.653  1.00  0.00     0.049 A 
ATOM     33  H   UNL A   1      41.769  29.041  32.276  1.00  0.00     0.167 HD
ATOM     34  C   UNL A   1      43.925  27.208  31.769  1.00  0.00     0.074 A 
ATOM     35  C   UNL A   1      44.795  26.246  31.120  1.00  0.00     0.031 C 
ATOM     36  C   UNL A   1      44.147  27.732  32.997  1.00  0.00     0.034 A 
BRANCH  23  37
ATOM     37  C   UNL A   1      39.940  31.875  34.890  1.00  0.00     0.023 A 
ATOM     38  C   UNL A   1      40.466  33.184  34.895  1.00  0.00     0.012 A 
ATOM     39  C   UNL A   1      39.064  31.467  35.911  1.00  0.00     0.148 A 
ATOM     40  C   UNL A   1      40.166  34.056  35.939  1.00  0.00     0.002 A 
ATOM     41  C   UNL A   1      38.728  32.360  36.916  1.00  0.00     0.091 A 
ATOM     42  F   UNL A   1      38.621  30.203  35.906  1.00  0.00    -0.205 F 
ATOM     43  C   UNL A   1      39.293  33.646  36.945  1.00  0.00     0.022 A 
BRANCH  41  44
ATOM     44  S   UNL A   1      37.565  31.948  38.217  1.00  0.00     0.127 S 
ATOM     45  O   UNL A   1      38.359  32.211  39.417  1.00  0.00    -0.237 OA
ATOM     46  O   UNL A   1      36.489  32.908  37.972  1.00  0.00    -0.237 OA
ATOM     47  O   UNL A   1      37.200  30.554  38.009  1.00  0.00    -0.744 OA
ENDBRANCH  41  44
ENDBRANCH  23  37
BRANCH  24  48
ATOM     48  C   UNL A   1      42.810  25.786  27.417  1.00  0.00     0.023 A 
ATOM     49  C   UNL A   1      43.756  26.203  26.454  1.00  0.00     0.012 A 
ATOM     50  C   UNL A   1      42.255  24.497  27.290  1.00  0.00     0.148 A 
ATOM     51  C   UNL A   1      44.112  25.375  25.383  1.00  0.00     0.002 A 
ATOM     52  C   UNL A   1      42.677  23.647  26.272  1.00  0.00     0.091 A 
ATOM     53  F   UNL A   1      41.308  24.123  28.160  1.00  0.00    -0.205 F 
ATOM     54  C   UNL A   1      43.585  24.090  25.301  1.00  0.00     0.022 A 
BRANCH  52  55
ATOM     55  S   UNL A   1      42.169  21.925  26.196  1.00  0.00     0.127 S 
ATOM     56  O   UNL A   1      42.949  21.430  25.066  1.00  0.00    -0.237 OA
ATOM     57  O   UNL A   1      42.593  21.430  27.507  1.00  0.00    -0.237 OA
ATOM     58  O   UNL A   1      40.724  21.956  26.011  1.00  0.00    -0.744 OA
ENDBRANCH  52  55
ENDBRANCH  24  48
BRANCH  36  59
ATOM     59  C   UNL A   1      45.327  27.203  33.758  1.00  0.00     0.023 A 
ATOM     60  C   UNL A   1      46.583  27.832  33.675  1.00  0.00     0.012 A 
ATOM     61  C   UNL A   1      45.151  26.101  34.613  1.00  0.00     0.148 A 
ATOM     62  C   UNL A   1      47.660  27.347  34.414  1.00  0.00     0.002 A 
ATOM     63  C   UNL A   1      46.210  25.661  35.391  1.00  0.00     0.091 A 
ATOM     64  F   UNL A   1      43.951  25.503  34.648  1.00  0.00    -0.205 F 
ATOM     65  C   UNL A   1      47.470  26.272  35.282  1.00  0.00     0.022 A 
BRANCH  63  66
ATOM     66  S   UNL A   1      46.013  24.359  36.609  1.00  0.00     0.127 S 
ATOM     67  O   UNL A   1      45.714  23.205  35.763  1.00  0.00    -0.237 OA
ATOM     68  O   UNL A   1      47.331  24.328  37.243  1.00  0.00    -0.237 OA
ATOM     69  O   UNL A   1      44.932  24.789  37.486  1.00  0.00    -0.744 OA
ENDBRANCH  63  66
ENDBRANCH  36  59
ENDBRANCH  10  11
ENDBRANCH   3   5
ENDBRANCH   2   3
ENDBRANCH   1   2
BRANCH   1  70
ATOM     70  C   UNL A   1      31.975  28.306  27.516  1.00  0.00     0.274 C 
BRANCH  70  71
ATOM     71  O   UNL A   1      32.483  27.614  26.367  1.00  0.00    -0.462 OA
BRANCH  71  72
ATOM     72  C   UNL A   1      31.701  26.570  26.010  1.00  0.00     0.310 C 
ATOM     73  O   UNL A   1      31.573  25.551  26.670  1.00  0.00    -0.252 OA
BRANCH  72  74
ATOM     74  C   UNL A   1      30.910  26.782  24.755  1.00  0.00     0.119 C 
ATOM     75  C   UNL A   1      31.611  26.303  23.461  1.00  0.00     0.100 C 
ATOM     76  C   UNL A   1      30.329  28.120  24.308  1.00  0.00     0.027 C 
ATOM     77  C   UNL A   1      30.984  27.211  22.366  1.00  0.00     0.025 C 
ATOM     78  C   UNL A   1      31.374  29.003  23.683  1.00  0.00    -0.027 C 
ATOM     79  C   UNL A   1      29.653  27.656  22.999  1.00  0.00     0.017 C 
ATOM     80  C   UNL A   1      31.667  28.521  22.467  1.00  0.00    -0.027 C 
BRANCH  75  81
ATOM     81  C   UNL A   1      33.149  26.117  23.501  1.00  0.00     0.229 C 
ATOM     82  O   UNL A   1      33.818  27.147  23.285  1.00  0.00    -0.274 OA
ATOM     83  N   UNL A   1      33.942  25.036  23.751  1.00  0.00    -0.323 N 
ATOM     84  H   UNL A   1      34.889  25.272  23.622  1.00  0.00     0.170 HD
BRANCH  83  85
ATOM     85  C   UNL A   1      33.825  23.680  24.138  1.00  0.00     0.078 A 
ATOM     86  C   UNL A   1      33.182  22.802  23.252  1.00  0.00     0.029 A 
ATOM     87  C   UNL A   1      34.009  23.230  25.452  1.00  0.00     0.165 A 
ATOM     88  C   UNL A   1      32.851  21.489  23.627  1.00  0.00     0.004 A 
ATOM     89  C   UNL A   1      33.647  21.929  25.843  1.00  0.00     0.078 A 
ATOM     90  F   UNL A   1      34.457  24.070  26.389  1.00  0.00    -0.203 F 
ATOM     91  C   UNL A   1      33.092  21.046  24.925  1.00  0.00     0.024 A 
ATOM     92  Cl  UNL A   1      33.780  21.433  27.493  1.00  0.00    -0.081 Cl
ENDBRANCH  83  85
ENDBRANCH  75  81
ENDBRANCH  72  74
ENDBRANCH  71  72
ENDBRANCH  70  71
ENDBRANCH   1  70
TORSDOF 16
ENDMDL
MODEL 3
REMARK VINA RESULT:     -12.6      5.057      9.959
REMARK SMILES O=C(OCCOC(=O)[C@@H]1[C@H](C(=O)Nc2cccc(Cl)c2F)[C@@H]2C=C[C@H]1C2)c1ccc(-c2c3nc(c(-c4cccc(S(=O)(=O)[O-])c4F)c4ccc([nH]4)c(-c4cccc(S(=O)(=O)[O-])c4F)c4nc(c(-c5cccc(S(=O)(=O)[O-])c5F)c5ccc2[nH]5)C=C4)C=C3)cc1
REMARK SMILES IDX 4 1 3 2 2 3 1 4 27 5 28 6 89 7 29 8 88 9 30 10 31 11 32 12
REMARK SMILES IDX 82 13 33 14 87 15 81 16 83 17 34 18 86 19 80 20 79 21 35 23
REMARK SMILES IDX 67 24 47 25 66 26 48 27 51 28 65 29 84 30 49 31 50 32 64 34
REMARK SMILES IDX 85 35 52 36 36 37 37 38 45 39 38 40 40 41 46 42 39 43 41 44
REMARK SMILES IDX 42 45 43 46 44 47 68 48 69 49 77 50 70 51 72 52 78 53 71 54
REMARK SMILES IDX 73 55 74 56 75 57 76 58 53 59 54 60 62 61 55 62 57 63 63 64
REMARK SMILES IDX 56 65 58 66 59 67 60 68 61 69 5 70 6 71 7 72 8 73 9 74 10 75
REMARK SMILES IDX 25 76 22 77 24 78 26 79 23 80 11 81 12 82 13 83 14 85 15 86
REMARK SMILES IDX 20 87 16 88 18 89 21 90 17 91 19 92
REMARK H PARENT 83 22 51 33 13 84
REMARK Flexibility Score: inf
ROOT
ATOM      1  C   UNL A   1      36.201  20.721  25.049  1.00  0.00     0.275 C 
ENDROOT
BRANCH   1   2
ATOM      2  O   UNL A   1      37.535  21.208  24.776  1.00  0.00    -0.458 OA
BRANCH   2   3
ATOM      3  C   UNL A   1      38.601  21.120  25.614  1.00  0.00     0.338 C 
ATOM      4  O   UNL A   1      39.153  20.036  25.783  1.00  0.00    -0.246 OA
BRANCH   3   5
ATOM      5  C   UNL A   1      39.216  22.362  26.197  1.00  0.00     0.060 A 
ATOM      6  C   UNL A   1      38.781  23.657  25.935  1.00  0.00     0.016 A 
ATOM      7  C   UNL A   1      40.308  22.209  27.079  1.00  0.00     0.016 A 
ATOM      8  C   UNL A   1      39.353  24.753  26.594  1.00  0.00     0.010 A 
ATOM      9  C   UNL A   1      40.888  23.312  27.743  1.00  0.00     0.010 A 
ATOM     10  C   UNL A   1      40.393  24.598  27.521  1.00  0.00    -0.014 A 
BRANCH  10  11
ATOM     11  C   UNL A   1      41.060  25.848  27.979  1.00  0.00     0.031 A 
ATOM     12  C   UNL A   1      42.375  26.148  27.355  1.00  0.00     0.074 A 
ATOM     13  C   UNL A   1      40.482  26.769  28.776  1.00  0.00     0.049 A 
ATOM     14  N   UNL A   1      43.079  27.239  27.418  1.00  0.00    -0.248 NA
ATOM     15  C   UNL A   1      42.991  25.054  26.585  1.00  0.00     0.031 C 
ATOM     16  C   UNL A   1      39.286  26.540  29.552  1.00  0.00     0.029 A 
ATOM     17  N   UNL A   1      40.775  28.085  29.050  1.00  0.00    -0.354 N 
ATOM     18  C   UNL A   1      44.259  26.942  26.762  1.00  0.00     0.074 A 
ATOM     19  C   UNL A   1      44.151  25.590  26.258  1.00  0.00     0.031 C 
ATOM     20  C   UNL A   1      38.814  27.697  30.041  1.00  0.00     0.029 A 
ATOM     21  C   UNL A   1      39.788  28.739  29.769  1.00  0.00     0.049 A 
ATOM     22  H   UNL A   1      41.610  28.522  28.761  1.00  0.00     0.167 HD
ATOM     23  C   UNL A   1      45.358  27.712  26.646  1.00  0.00     0.034 A 
ATOM     24  C   UNL A   1      39.707  30.014  30.210  1.00  0.00     0.034 A 
ATOM     25  C   UNL A   1      45.477  29.019  27.222  1.00  0.00     0.049 A 
ATOM     26  C   UNL A   1      40.931  30.865  30.026  1.00  0.00     0.074 A 
ATOM     27  C   UNL A   1      46.568  29.863  27.215  1.00  0.00     0.029 A 
ATOM     28  N   UNL A   1      44.476  29.655  27.946  1.00  0.00    -0.354 N 
ATOM     29  N   UNL A   1      42.032  30.582  29.373  1.00  0.00    -0.248 NA
ATOM     30  C   UNL A   1      40.938  32.181  30.680  1.00  0.00     0.031 C 
ATOM     31  C   UNL A   1      46.239  30.999  27.962  1.00  0.00     0.029 A 
ATOM     32  C   UNL A   1      44.921  30.888  28.382  1.00  0.00     0.049 A 
ATOM     33  H   UNL A   1      43.582  29.282  28.122  1.00  0.00     0.167 HD
ATOM     34  C   UNL A   1      42.864  31.678  29.539  1.00  0.00     0.074 A 
ATOM     35  C   UNL A   1      42.122  32.652  30.315  1.00  0.00     0.031 C 
ATOM     36  C   UNL A   1      44.138  31.850  29.114  1.00  0.00     0.034 A 
BRANCH  23  37
ATOM     37  C   UNL A   1      46.528  27.074  25.963  1.00  0.00     0.023 A 
ATOM     38  C   UNL A   1      47.317  26.123  26.644  1.00  0.00     0.012 A 
ATOM     39  C   UNL A   1      46.906  27.510  24.681  1.00  0.00     0.148 A 
ATOM     40  C   UNL A   1      48.499  25.656  26.073  1.00  0.00     0.002 A 
ATOM     41  C   UNL A   1      48.054  26.998  24.098  1.00  0.00     0.091 A 
ATOM     42  F   UNL A   1      46.164  28.450  24.081  1.00  0.00    -0.205 F 
ATOM     43  C   UNL A   1      48.863  26.089  24.800  1.00  0.00     0.022 A 
BRANCH  41  44
ATOM     44  S   UNL A   1      48.571  27.444  22.441  1.00  0.00     0.127 S 
ATOM     45  O   UNL A   1      47.462  28.291  22.003  1.00  0.00    -0.237 OA
ATOM     46  O   UNL A   1      49.822  28.157  22.699  1.00  0.00    -0.237 OA
ATOM     47  O   UNL A   1      48.720  26.192  21.712  1.00  0.00    -0.744 OA
ENDBRANCH  41  44
ENDBRANCH  23  37
BRANCH  24  48
ATOM     48  C   UNL A   1      38.499  30.560  30.917  1.00  0.00     0.023 A 
ATOM     49  C   UNL A   1      38.370  30.393  32.315  1.00  0.00     0.012 A 
ATOM     50  C   UNL A   1      37.456  31.206  30.226  1.00  0.00     0.148 A 
ATOM     51  C   UNL A   1      37.225  30.828  32.993  1.00  0.00     0.002 A 
ATOM     52  C   UNL A   1      36.360  31.712  30.918  1.00  0.00     0.091 A 
ATOM     53  F   UNL A   1      37.542  31.307  28.893  1.00  0.00    -0.205 F 
ATOM     54  C   UNL A   1      36.228  31.502  32.297  1.00  0.00     0.022 A 
BRANCH  52  55
ATOM     55  S   UNL A   1      35.117  32.735  30.120  1.00  0.00     0.127 S 
ATOM     56  O   UNL A   1      34.186  32.988  31.215  1.00  0.00    -0.237 OA
ATOM     57  O   UNL A   1      35.907  33.893  29.698  1.00  0.00    -0.237 OA
ATOM     58  O   UNL A   1      34.605  31.931  29.018  1.00  0.00    -0.744 OA
ENDBRANCH  52  55
ENDBRANCH  24  48
BRANCH  36  59
ATOM     59  C   UNL A   1      44.774  33.179  29.397  1.00  0.00     0.023 A 
ATOM     60  C   UNL A   1      45.486  33.400  30.591  1.00  0.00     0.012 A 
ATOM     61  C   UNL A   1      44.709  34.191  28.423  1.00  0.00     0.148 A 
ATOM     62  C   UNL A   1      46.099  34.629  30.824  1.00  0.00     0.002 A 
ATOM     63  C   UNL A   1      45.372  35.389  28.635  1.00  0.00     0.091 A 
ATOM     64  F   UNL A   1      43.998  33.961  27.309  1.00  0.00    -0.205 F 
ATOM     65  C   UNL A   1      46.055  35.617  29.840  1.00  0.00     0.022 A 
BRANCH  63  66
ATOM     66  S   UNL A   1      45.452  36.661  27.373  1.00  0.00     0.127 S 
ATOM     67  O   UNL A   1      45.831  35.885  26.193  1.00  0.00    -0.237 OA
ATOM     68  O   UNL A   1      44.080  37.167  27.358  1.00  0.00    -0.237 OA
ATOM     69  O   UNL A   1      46.445  37.623  27.834  1.00  0.00    -0.744 OA
ENDBRANCH  63  66
ENDBRANCH  36  59
ENDBRANCH  10  11
ENDBRANCH   3   5
ENDBRANCH   2   3
ENDBRANCH   1   2
BRANCH   1  70
ATOM     70  C   UNL A   1      35.440  21.436  26.157  1.00  0.00     0.274 C 
BRANCH  70  71
ATOM     71  O   UNL A   1      34.309  22.159  25.651  1.00  0.00    -0.462 OA
BRANCH  71  72
ATOM     72  C   UNL A   1      34.638  23.406  25.242  1.00  0.00     0.310 C 
ATOM     73  O   UNL A   1      35.456  24.118  25.803  1.00  0.00    -0.252 OA
BRANCH  72  74
ATOM     74  C   UNL A   1      33.976  23.842  23.970  1.00  0.00     0.119 C 
ATOM     75  C   UNL A   1      32.931  24.970  24.139  1.00  0.00     0.100 C 
ATOM     76  C   UNL A   1      33.260  22.908  22.998  1.00  0.00     0.027 C 
ATOM     77  C   UNL A   1      31.971  24.741  22.939  1.00  0.00     0.025 C 
ATOM     78  C   UNL A   1      31.882  22.551  23.479  1.00  0.00    -0.027 C 
ATOM     79  C   UNL A   1      32.837  23.952  21.941  1.00  0.00     0.017 C 
ATOM     80  C   UNL A   1      31.085  23.618  23.320  1.00  0.00    -0.027 C 
BRANCH  75  81
ATOM     81  C   UNL A   1      32.338  25.197  25.552  1.00  0.00     0.229 C 
ATOM     82  O   UNL A   1      32.134  24.162  26.219  1.00  0.00    -0.274 OA
ATOM     83  N   UNL A   1      32.001  26.324  26.243  1.00  0.00    -0.323 N 
ATOM     84  H   UNL A   1      31.582  26.084  27.101  1.00  0.00     0.170 HD
BRANCH  83  85
ATOM     85  C   UNL A   1      32.069  27.731  26.108  1.00  0.00     0.078 A 
ATOM     86  C   UNL A   1      32.673  28.457  27.147  1.00  0.00     0.029 A 
ATOM     87  C   UNL A   1      31.305  28.460  25.188  1.00  0.00     0.165 A 
ATOM     88  C   UNL A   1      32.619  29.860  27.192  1.00  0.00     0.004 A 
ATOM     89  C   UNL A   1      31.217  29.861  25.249  1.00  0.00     0.078 A 
ATOM     90  F   UNL A   1      30.566  27.819  24.278  1.00  0.00    -0.203 F 
ATOM     91  C   UNL A   1      31.896  30.567  26.235  1.00  0.00     0.024 A 
ATOM     92  Cl  UNL A   1      30.181  30.729  24.174  1.00  0.00    -0.081 Cl
ENDBRANCH  83  85
ENDBRANCH  75  81
ENDBRANCH  72  74
ENDBRANCH  71  72
ENDBRANCH  70  71
ENDBRANCH   1  70
TORSDOF 16
ENDMDL
