MODEL 1
REMARK VINA RESULT:     -10.9      0.000      0.000
REMARK SMILES O=C(C[C@H]([NH2+]Cc1ccccc1C1CC1)c1cccs1)OCCOC(=O)c1ccc(-c2c3nc(c(-c4cccc(S(=O)(=O)[O-])c4F)c4ccc([nH]4)c(-c4cccc(S(=O)(=O)[O-])c4F)c4nc(c(-c5cccc(S(=O)(=O)[O-])c5F)c5ccc2[nH]5)C=C4)C=C3)cc1
REMARK SMILES IDX 22 1 21 2 2 3 1 4 3 5 4 6 16 7 17 8 20 9 18 10 19 11 5 12
REMARK SMILES IDX 6 15 7 16 8 17 12 18 9 19 11 20 10 21 13 22 14 23 15 24
REMARK SMILES IDX 23 25 24 26 25 27 26 28 27 29 28 30 89 31 29 32 88 33 30 34
REMARK SMILES IDX 31 35 32 36 82 37 33 38 87 39 81 40 83 41 34 42 86 43 80 44
REMARK SMILES IDX 79 45 35 47 67 48 47 49 66 50 48 51 51 52 65 53 84 54 49 55
REMARK SMILES IDX 50 56 64 58 85 59 52 60 36 61 37 62 45 63 38 64 40 65 46 66
REMARK SMILES IDX 39 67 41 68 42 69 43 70 44 71 68 72 69 73 77 74 70 75 72 76
REMARK SMILES IDX 78 77 71 78 73 79 74 80 75 81 76 82 53 83 54 84 62 85 55 86
REMARK SMILES IDX 57 87 63 88 56 89 58 90 59 91 60 92 61 93
REMARK H PARENT 5 13 5 14 83 46 51 57
REMARK Flexibility Score: inf
ROOT
ATOM      1  C   UNL A   1      31.582  31.456  26.382  1.00  0.00     0.274 C 
ENDROOT
BRANCH   1   2
ATOM      2  O   UNL A   1      32.113  30.419  27.229  1.00  0.00    -0.462 OA
BRANCH   2   3
ATOM      3  C   UNL A   1      32.701  29.278  26.809  1.00  0.00     0.312 C 
ATOM      4  O   UNL A   1      33.815  29.330  26.289  1.00  0.00    -0.252 OA
BRANCH   3   5
ATOM      5  C   UNL A   1      32.002  27.958  26.991  1.00  0.00     0.193 C 
BRANCH   5   6
ATOM      6  C   UNL A   1      32.153  26.928  25.861  1.00  0.00     0.235 C 
BRANCH   6   7
ATOM      7  C   UNL A   1      31.103  27.260  24.799  1.00  0.00     0.062 A 
ATOM      8  C   UNL A   1      29.899  26.615  24.569  1.00  0.00     0.021 A 
ATOM      9  S   UNL A   1      31.261  28.625  23.756  1.00  0.00    -0.143 S 
ATOM     10  C   UNL A   1      29.138  27.219  23.525  1.00  0.00     0.012 A 
ATOM     11  C   UNL A   1      29.783  28.302  22.974  1.00  0.00     0.065 A 
ENDBRANCH   6   7
BRANCH   6  12
ATOM     12  N   UNL A   1      33.489  26.901  25.269  1.00  0.00    -0.335 N 
ATOM     13  H   UNL A   1      34.150  26.631  25.997  1.00  0.00     0.347 HD
ATOM     14  H   UNL A   1      33.648  27.835  24.895  1.00  0.00     0.347 HD
BRANCH  12  15
ATOM     15  C   UNL A   1      33.659  25.999  24.161  1.00  0.00     0.298 C 
BRANCH  15  16
ATOM     16  C   UNL A   1      33.872  24.506  24.414  1.00  0.00     0.010 A 
ATOM     17  C   UNL A   1      35.251  24.183  24.171  1.00  0.00     0.010 A 
ATOM     18  C   UNL A   1      32.982  23.450  24.767  1.00  0.00    -0.036 A 
ATOM     19  C   UNL A   1      35.764  22.894  24.225  1.00  0.00     0.001 A 
ATOM     20  C   UNL A   1      33.564  22.140  24.761  1.00  0.00     0.004 A 
ATOM     21  C   UNL A   1      34.906  21.857  24.504  1.00  0.00     0.000 A 
BRANCH  18  22
ATOM     22  C   UNL A   1      31.513  23.397  25.230  1.00  0.00     0.020 C 
ATOM     23  C   UNL A   1      30.843  22.233  25.889  1.00  0.00     0.009 C 
ATOM     24  C   UNL A   1      31.004  23.542  26.632  1.00  0.00     0.009 C 
ENDBRANCH  18  22
ENDBRANCH  15  16
ENDBRANCH  12  15
ENDBRANCH   6  12
ENDBRANCH   5   6
ENDBRANCH   3   5
ENDBRANCH   2   3
ENDBRANCH   1   2
BRANCH   1  25
ATOM     25  C   UNL A   1      31.985  32.842  26.890  1.00  0.00     0.275 C 
BRANCH  25  26
ATOM     26  O   UNL A   1      32.916  32.702  27.977  1.00  0.00    -0.458 OA
BRANCH  26  27
ATOM     27  C   UNL A   1      34.008  33.508  27.940  1.00  0.00     0.338 C 
ATOM     28  O   UNL A   1      34.015  34.707  27.722  1.00  0.00    -0.246 OA
BRANCH  27  29
ATOM     29  C   UNL A   1      35.189  32.740  28.409  1.00  0.00     0.060 A 
ATOM     30  C   UNL A   1      35.001  31.406  28.791  1.00  0.00     0.016 A 
ATOM     31  C   UNL A   1      36.475  33.295  28.415  1.00  0.00     0.016 A 
ATOM     32  C   UNL A   1      36.088  30.637  29.218  1.00  0.00     0.010 A 
ATOM     33  C   UNL A   1      37.560  32.524  28.837  1.00  0.00     0.010 A 
ATOM     34  C   UNL A   1      37.369  31.202  29.274  1.00  0.00    -0.014 A 
BRANCH  34  35
ATOM     35  C   UNL A   1      38.482  30.489  29.948  1.00  0.00     0.031 A 
ATOM     36  C   UNL A   1      38.864  30.910  31.339  1.00  0.00     0.074 A 
ATOM     37  C   UNL A   1      39.174  29.515  29.330  1.00  0.00     0.049 A 
ATOM     38  N   UNL A   1      39.817  30.457  32.109  1.00  0.00    -0.248 NA
ATOM     39  C   UNL A   1      38.067  31.993  31.939  1.00  0.00     0.031 C 
ATOM     40  C   UNL A   1      38.916  29.018  27.982  1.00  0.00     0.029 A 
ATOM     41  N   UNL A   1      40.265  28.795  29.752  1.00  0.00    -0.354 N 
ATOM     42  C   UNL A   1      39.742  31.201  33.278  1.00  0.00     0.074 A 
ATOM     43  C   UNL A   1      38.670  32.157  33.106  1.00  0.00     0.031 C 
ATOM     44  C   UNL A   1      39.851  28.104  27.668  1.00  0.00     0.029 A 
ATOM     45  C   UNL A   1      40.780  27.960  28.789  1.00  0.00     0.049 A 
ATOM     46  H   UNL A   1      40.642  28.870  30.658  1.00  0.00     0.167 HD
ATOM     47  C   UNL A   1      40.480  31.085  34.407  1.00  0.00     0.034 A 
ATOM     48  C   UNL A   1      41.882  27.184  28.804  1.00  0.00     0.034 A 
ATOM     49  C   UNL A   1      41.537  30.131  34.590  1.00  0.00     0.049 A 
ATOM     50  C   UNL A   1      42.715  27.099  30.059  1.00  0.00     0.074 A 
ATOM     51  C   UNL A   1      42.298  29.899  35.721  1.00  0.00     0.029 A 
ATOM     52  N   UNL A   1      41.998  29.265  33.612  1.00  0.00    -0.354 N 
ATOM     53  N   UNL A   1      42.530  27.692  31.214  1.00  0.00    -0.248 NA
ATOM     54  C   UNL A   1      43.885  26.208  30.026  1.00  0.00     0.031 C 
ATOM     55  C   UNL A   1      43.236  28.906  35.420  1.00  0.00     0.029 A 
ATOM     56  C   UNL A   1      43.045  28.507  34.107  1.00  0.00     0.049 A 
ATOM     57  H   UNL A   1      41.634  29.198  32.700  1.00  0.00     0.167 HD
ATOM     58  C   UNL A   1      43.529  27.209  32.056  1.00  0.00     0.074 A 
ATOM     59  C   UNL A   1      44.311  26.269  31.281  1.00  0.00     0.031 C 
ATOM     60  C   UNL A   1      43.778  27.526  33.350  1.00  0.00     0.034 A 
BRANCH  47  61
ATOM     61  C   UNL A   1      40.130  31.994  35.551  1.00  0.00     0.023 A 
ATOM     62  C   UNL A   1      40.892  33.160  35.765  1.00  0.00     0.012 A 
ATOM     63  C   UNL A   1      39.033  31.718  36.389  1.00  0.00     0.148 A 
ATOM     64  C   UNL A   1      40.588  34.024  36.816  1.00  0.00     0.002 A 
ATOM     65  C   UNL A   1      38.713  32.604  37.411  1.00  0.00     0.091 A 
ATOM     66  F   UNL A   1      38.341  30.588  36.187  1.00  0.00    -0.205 F 
ATOM     67  C   UNL A   1      39.494  33.750  37.631  1.00  0.00     0.022 A 
BRANCH  65  68
ATOM     68  S   UNL A   1      37.284  32.370  38.473  1.00  0.00     0.127 S 
ATOM     69  O   UNL A   1      37.691  33.092  39.678  1.00  0.00    -0.237 OA
ATOM     70  O   UNL A   1      36.219  33.017  37.706  1.00  0.00    -0.237 OA
ATOM     71  O   UNL A   1      37.130  30.930  38.626  1.00  0.00    -0.744 OA
ENDBRANCH  65  68
ENDBRANCH  47  61
BRANCH  48  72
ATOM     72  C   UNL A   1      42.247  26.384  27.601  1.00  0.00     0.023 A 
ATOM     73  C   UNL A   1      42.940  26.999  26.540  1.00  0.00     0.012 A 
ATOM     74  C   UNL A   1      41.910  25.020  27.502  1.00  0.00     0.148 A 
ATOM     75  C   UNL A   1      43.261  26.278  25.389  1.00  0.00     0.002 A 
ATOM     76  C   UNL A   1      42.274  24.297  26.373  1.00  0.00     0.091 A 
ATOM     77  F   UNL A   1      41.232  24.458  28.514  1.00  0.00    -0.205 F 
ATOM     78  C   UNL A   1      42.937  24.927  25.308  1.00  0.00     0.022 A 
BRANCH  76  79
ATOM     79  S   UNL A   1      41.998  22.527  26.241  1.00  0.00     0.127 S 
ATOM     80  O   UNL A   1      40.539  22.453  26.217  1.00  0.00    -0.237 OA
ATOM     81  O   UNL A   1      42.652  22.208  24.972  1.00  0.00    -0.237 OA
ATOM     82  O   UNL A   1      42.645  21.946  27.411  1.00  0.00    -0.744 OA
ENDBRANCH  76  79
ENDBRANCH  48  72
BRANCH  60  83
ATOM     83  C   UNL A   1      44.922  26.828  34.043  1.00  0.00     0.023 A 
ATOM     84  C   UNL A   1      46.213  27.389  33.998  1.00  0.00     0.012 A 
ATOM     85  C   UNL A   1      44.697  25.673  34.818  1.00  0.00     0.148 A 
ATOM     86  C   UNL A   1      47.268  26.797  34.694  1.00  0.00     0.002 A 
ATOM     87  C   UNL A   1      45.741  25.115  35.545  1.00  0.00     0.091 A 
ATOM     88  F   UNL A   1      43.465  25.143  34.833  1.00  0.00    -0.205 F 
ATOM     89  C   UNL A   1      47.029  25.669  35.477  1.00  0.00     0.022 A 
BRANCH  87  90
ATOM     90  S   UNL A   1      45.504  23.722  36.656  1.00  0.00     0.127 S 
ATOM     91  O   UNL A   1      44.712  24.326  37.727  1.00  0.00    -0.237 OA
ATOM     92  O   UNL A   1      44.771  22.773  35.816  1.00  0.00    -0.237 OA
ATOM     93  O   UNL A   1      46.840  23.282  37.035  1.00  0.00    -0.744 OA
ENDBRANCH  87  90
ENDBRANCH  60  83
ENDBRANCH  34  35
ENDBRANCH  27  29
ENDBRANCH  26  27
ENDBRANCH  25  26
ENDBRANCH   1  25
TORSDOF 20
ENDMDL
MODEL 2
REMARK VINA RESULT:     -10.9      4.965     10.333
REMARK SMILES O=C(C[C@H]([NH2+]Cc1ccccc1C1CC1)c1cccs1)OCCOC(=O)c1ccc(-c2c3nc(c(-c4cccc(S(=O)(=O)[O-])c4F)c4ccc([nH]4)c(-c4cccc(S(=O)(=O)[O-])c4F)c4nc(c(-c5cccc(S(=O)(=O)[O-])c5F)c5ccc2[nH]5)C=C4)C=C3)cc1
REMARK SMILES IDX 22 1 21 2 2 3 1 4 3 5 4 6 16 7 17 8 20 9 18 10 19 11 5 12
REMARK SMILES IDX 6 15 7 16 8 17 12 18 9 19 11 20 10 21 13 22 14 23 15 24
REMARK SMILES IDX 23 25 24 26 25 27 26 28 27 29 28 30 89 31 29 32 88 33 30 34
REMARK SMILES IDX 31 35 32 36 82 37 33 38 87 39 81 40 83 41 34 42 86 43 80 44
REMARK SMILES IDX 79 45 35 47 67 48 47 49 66 50 48 51 51 52 65 53 84 54 49 55
REMARK SMILES IDX 50 56 64 58 85 59 52 60 36 61 37 62 45 63 38 64 40 65 46 66
REMARK SMILES IDX 39 67 41 68 42 69 43 70 44 71 68 72 69 73 77 74 70 75 72 76
REMARK SMILES IDX 78 77 71 78 73 79 74 80 75 81 76 82 53 83 54 84 62 85 55 86
REMARK SMILES IDX 57 87 63 88 56 89 58 90 59 91 60 92 61 93
REMARK H PARENT 5 13 5 14 83 46 51 57
REMARK Flexibility Score: inf
ROOT
ATOM      1  C   UNL A   1      36.058  21.160  25.544  1.00  0.00     0.274 C 
ENDROOT
BRANCH   1   2
ATOM      2  O   UNL A   1      35.265  21.683  24.461  1.00  0.00    -0.462 OA
BRANCH   2   3
ATOM      3  C   UNL A   1      35.156  22.984  24.116  1.00  0.00     0.312 C 
ATOM      4  O   UNL A   1      35.888  23.814  24.653  1.00  0.00    -0.252 OA
BRANCH   3   5
ATOM      5  C   UNL A   1      34.155  23.407  23.075  1.00  0.00     0.193 C 
BRANCH   5   6
ATOM      6  C   UNL A   1      33.188  24.539  23.456  1.00  0.00     0.235 C 
BRANCH   6   7
ATOM      7  C   UNL A   1      32.289  24.011  24.577  1.00  0.00     0.062 A 
ATOM      8  C   UNL A   1      31.475  22.891  24.551  1.00  0.00     0.021 A 
ATOM      9  S   UNL A   1      32.255  24.744  26.138  1.00  0.00    -0.143 S 
ATOM     10  C   UNL A   1      30.807  22.664  25.791  1.00  0.00     0.012 A 
ATOM     11  C   UNL A   1      31.118  23.621  26.729  1.00  0.00     0.065 A 
ENDBRANCH   6   7
BRANCH   6  12
ATOM     12  N   UNL A   1      33.860  25.766  23.875  1.00  0.00    -0.335 N 
ATOM     13  H   UNL A   1      34.866  25.612  23.809  1.00  0.00     0.347 HD
ATOM     14  H   UNL A   1      33.534  25.955  24.822  1.00  0.00     0.347 HD
BRANCH  12  15
ATOM     15  C   UNL A   1      33.543  26.941  23.107  1.00  0.00     0.298 C 
BRANCH  15  16
ATOM     16  C   UNL A   1      32.359  27.822  23.508  1.00  0.00     0.010 A 
ATOM     17  C   UNL A   1      31.308  27.662  22.541  1.00  0.00     0.010 A 
ATOM     18  C   UNL A   1      32.164  28.751  24.571  1.00  0.00    -0.036 A 
ATOM     19  C   UNL A   1      30.124  28.386  22.560  1.00  0.00     0.001 A 
ATOM     20  C   UNL A   1      30.942  29.497  24.506  1.00  0.00     0.004 A 
ATOM     21  C   UNL A   1      29.947  29.329  23.544  1.00  0.00     0.000 A 
BRANCH  18  22
ATOM     22  C   UNL A   1      32.956  29.103  25.846  1.00  0.00     0.020 C 
ATOM     23  C   UNL A   1      32.821  28.432  27.175  1.00  0.00     0.009 C 
ATOM     24  C   UNL A   1      34.126  28.359  26.413  1.00  0.00     0.009 C 
ENDBRANCH  18  22
ENDBRANCH  15  16
ENDBRANCH  12  15
ENDBRANCH   6  12
ENDBRANCH   5   6
ENDBRANCH   3   5
ENDBRANCH   2   3
ENDBRANCH   1   2
BRANCH   1  25
ATOM     25  C   UNL A   1      37.259  20.373  25.017  1.00  0.00     0.275 C 
BRANCH  25  26
ATOM     26  O   UNL A   1      38.434  21.200  25.065  1.00  0.00    -0.458 OA
BRANCH  26  27
ATOM     27  C   UNL A   1      39.248  21.028  26.138  1.00  0.00     0.338 C 
ATOM     28  O   UNL A   1      39.677  19.968  26.557  1.00  0.00    -0.246 OA
BRANCH  27  29
ATOM     29  C   UNL A   1      39.705  22.359  26.614  1.00  0.00     0.060 A 
ATOM     30  C   UNL A   1      39.046  23.496  26.129  1.00  0.00     0.016 A 
ATOM     31  C   UNL A   1      40.721  22.492  27.568  1.00  0.00     0.016 A 
ATOM     32  C   UNL A   1      39.428  24.768  26.567  1.00  0.00     0.010 A 
ATOM     33  C   UNL A   1      41.097  23.763  28.007  1.00  0.00     0.010 A 
ATOM     34  C   UNL A   1      40.478  24.911  27.484  1.00  0.00    -0.014 A 
BRANCH  34  35
ATOM     35  C   UNL A   1      41.055  26.247  27.771  1.00  0.00     0.031 A 
ATOM     36  C   UNL A   1      42.474  26.517  27.358  1.00  0.00     0.074 A 
ATOM     37  C   UNL A   1      40.357  27.192  28.425  1.00  0.00     0.049 A 
ATOM     38  N   UNL A   1      43.197  27.591  27.531  1.00  0.00    -0.248 NA
ATOM     39  C   UNL A   1      43.175  25.424  26.661  1.00  0.00     0.031 C 
ATOM     40  C   UNL A   1      38.980  27.058  28.889  1.00  0.00     0.029 A 
ATOM     41  N   UNL A   1      40.733  28.446  28.840  1.00  0.00    -0.354 N 
ATOM     42  C   UNL A   1      44.436  27.305  26.975  1.00  0.00     0.074 A 
ATOM     43  C   UNL A   1      44.380  25.945  26.486  1.00  0.00     0.031 C 
ATOM     44  C   UNL A   1      38.639  28.168  29.567  1.00  0.00     0.029 A 
ATOM     45  C   UNL A   1      39.777  29.086  29.593  1.00  0.00     0.049 A 
ATOM     46  H   UNL A   1      41.604  28.849  28.621  1.00  0.00     0.167 HD
ATOM     47  C   UNL A   1      45.518  28.109  26.856  1.00  0.00     0.034 A 
ATOM     48  C   UNL A   1      39.822  30.268  30.242  1.00  0.00     0.034 A 
ATOM     49  C   UNL A   1      45.579  29.463  27.328  1.00  0.00     0.049 A 
ATOM     50  C   UNL A   1      41.054  31.130  30.131  1.00  0.00     0.074 A 
ATOM     51  C   UNL A   1      46.612  30.373  27.196  1.00  0.00     0.029 A 
ATOM     52  N   UNL A   1      44.574  30.098  28.039  1.00  0.00    -0.354 N 
ATOM     53  N   UNL A   1      42.159  30.910  29.460  1.00  0.00    -0.248 NA
ATOM     54  C   UNL A   1      41.030  32.424  30.831  1.00  0.00     0.031 C 
ATOM     55  C   UNL A   1      46.240  31.554  27.849  1.00  0.00     0.029 A 
ATOM     56  C   UNL A   1      44.967  31.383  28.370  1.00  0.00     0.049 A 
ATOM     57  H   UNL A   1      43.708  29.694  28.275  1.00  0.00     0.167 HD
ATOM     58  C   UNL A   1      42.939  32.052  29.619  1.00  0.00     0.074 A 
ATOM     59  C   UNL A   1      42.176  32.968  30.442  1.00  0.00     0.031 C 
ATOM     60  C   UNL A   1      44.177  32.313  29.134  1.00  0.00     0.034 A 
BRANCH  47  61
ATOM     61  C   UNL A   1      46.716  27.545  26.143  1.00  0.00     0.023 A 
ATOM     62  C   UNL A   1      46.829  27.708  24.748  1.00  0.00     0.012 A 
ATOM     63  C   UNL A   1      47.740  26.889  26.852  1.00  0.00     0.148 A 
ATOM     64  C   UNL A   1      47.930  27.200  24.062  1.00  0.00     0.002 A 
ATOM     65  C   UNL A   1      48.853  26.419  26.166  1.00  0.00     0.091 A 
ATOM     66  F   UNL A   1      47.598  26.718  28.173  1.00  0.00    -0.205 F 
ATOM     67  C   UNL A   1      48.945  26.565  24.771  1.00  0.00     0.022 A 
BRANCH  65  68
ATOM     68  S   UNL A   1      50.242  25.645  27.001  1.00  0.00     0.127 S 
ATOM     69  O   UNL A   1      49.633  24.414  27.505  1.00  0.00    -0.237 OA
ATOM     70  O   UNL A   1      51.193  25.451  25.907  1.00  0.00    -0.237 OA
ATOM     71  O   UNL A   1      50.675  26.593  28.018  1.00  0.00    -0.744 OA
ENDBRANCH  65  68
ENDBRANCH  47  61
BRANCH  48  72
ATOM     72  C   UNL A   1      38.644  30.732  31.028  1.00  0.00     0.023 A 
ATOM     73  C   UNL A   1      38.593  30.490  32.415  1.00  0.00     0.012 A 
ATOM     74  C   UNL A   1      37.576  31.409  30.409  1.00  0.00     0.148 A 
ATOM     75  C   UNL A   1      37.484  30.885  33.164  1.00  0.00     0.002 A 
ATOM     76  C   UNL A   1      36.496  31.841  31.170  1.00  0.00     0.091 A 
ATOM     77  F   UNL A   1      37.633  31.611  29.085  1.00  0.00    -0.205 F 
ATOM     78  C   UNL A   1      36.441  31.567  32.545  1.00  0.00     0.022 A 
BRANCH  76  79
ATOM     79  S   UNL A   1      35.167  32.827  30.471  1.00  0.00     0.127 S 
ATOM     80  O   UNL A   1      35.880  34.028  30.041  1.00  0.00    -0.237 OA
ATOM     81  O   UNL A   1      34.690  31.972  29.384  1.00  0.00    -0.237 OA
ATOM     82  O   UNL A   1      34.210  33.009  31.554  1.00  0.00    -0.744 OA
ENDBRANCH  76  79
ENDBRANCH  48  72
BRANCH  60  83
ATOM     83  C   UNL A   1      44.789  33.657  29.439  1.00  0.00     0.023 A 
ATOM     84  C   UNL A   1      45.485  33.851  30.647  1.00  0.00     0.012 A 
ATOM     85  C   UNL A   1      44.759  34.694  28.485  1.00  0.00     0.148 A 
ATOM     86  C   UNL A   1      46.120  35.065  30.914  1.00  0.00     0.002 A 
ATOM     87  C   UNL A   1      45.433  35.884  28.736  1.00  0.00     0.091 A 
ATOM     88  F   UNL A   1      44.076  34.498  27.347  1.00  0.00    -0.205 F 
ATOM     89  C   UNL A   1      46.105  36.075  29.954  1.00  0.00     0.022 A 
BRANCH  87  90
ATOM     90  S   UNL A   1      45.549  37.200  27.518  1.00  0.00     0.127 S 
ATOM     91  O   UNL A   1      46.150  36.503  26.382  1.00  0.00    -0.237 OA
ATOM     92  O   UNL A   1      44.148  37.578  27.331  1.00  0.00    -0.237 OA
ATOM     93  O   UNL A   1      46.374  38.235  28.127  1.00  0.00    -0.744 OA
ENDBRANCH  87  90
ENDBRANCH  60  83
ENDBRANCH  34  35
ENDBRANCH  27  29
ENDBRANCH  26  27
ENDBRANCH  25  26
ENDBRANCH   1  25
TORSDOF 20
ENDMDL
MODEL 3
REMARK VINA RESULT:     -10.8      5.090     10.618
REMARK SMILES O=C(C[C@H]([NH2+]Cc1ccccc1C1CC1)c1cccs1)OCCOC(=O)c1ccc(-c2c3nc(c(-c4cccc(S(=O)(=O)[O-])c4F)c4ccc([nH]4)c(-c4cccc(S(=O)(=O)[O-])c4F)c4nc(c(-c5cccc(S(=O)(=O)[O-])c5F)c5ccc2[nH]5)C=C4)C=C3)cc1
REMARK SMILES IDX 22 1 21 2 2 3 1 4 3 5 4 6 16 7 17 8 20 9 18 10 19 11 5 12
REMARK SMILES IDX 6 15 7 16 8 17 12 18 9 19 11 20 10 21 13 22 14 23 15 24
REMARK SMILES IDX 23 25 24 26 25 27 26 28 27 29 28 30 89 31 29 32 88 33 30 34
REMARK SMILES IDX 31 35 32 36 82 37 33 38 87 39 81 40 83 41 34 42 86 43 80 44
REMARK SMILES IDX 79 45 35 47 67 48 47 49 66 50 48 51 51 52 65 53 84 54 49 55
REMARK SMILES IDX 50 56 64 58 85 59 52 60 36 61 37 62 45 63 38 64 40 65 46 66
REMARK SMILES IDX 39 67 41 68 42 69 43 70 44 71 68 72 69 73 77 74 70 75 72 76
REMARK SMILES IDX 78 77 71 78 73 79 74 80 75 81 76 82 53 83 54 84 62 85 55 86
REMARK SMILES IDX 57 87 63 88 56 89 58 90 59 91 60 92 61 93
REMARK H PARENT 5 13 5 14 83 46 51 57
REMARK Flexibility Score: inf
ROOT
ATOM      1  C   UNL A   1      38.321  20.022  24.938  1.00  0.00     0.274 C 
ENDROOT
BRANCH   1   2
ATOM      2  O   UNL A   1      37.839  21.206  25.603  1.00  0.00    -0.462 OA
BRANCH   2   3
ATOM      3  C   UNL A   1      37.070  22.168  25.049  1.00  0.00     0.312 C 
ATOM      4  O   UNL A   1      37.434  23.341  25.111  1.00  0.00    -0.252 OA
BRANCH   3   5
ATOM      5  C   UNL A   1      35.788  21.799  24.352  1.00  0.00     0.193 C 
BRANCH   5   6
ATOM      6  C   UNL A   1      34.603  21.391  25.242  1.00  0.00     0.235 C 
BRANCH   6   7
ATOM      7  C   UNL A   1      34.199  19.972  24.839  1.00  0.00     0.062 A 
ATOM      8  C   UNL A   1      35.029  18.884  24.626  1.00  0.00     0.021 A 
ATOM      9  S   UNL A   1      32.545  19.505  24.685  1.00  0.00    -0.143 S 
ATOM     10  C   UNL A   1      34.310  17.695  24.306  1.00  0.00     0.012 A 
ATOM     11  C   UNL A   1      32.951  17.904  24.271  1.00  0.00     0.065 A 
ENDBRANCH   6   7
BRANCH   6  12
ATOM     12  N   UNL A   1      34.898  21.453  26.672  1.00  0.00    -0.335 N 
ATOM     13  H   UNL A   1      35.909  21.387  26.788  1.00  0.00     0.347 HD
ATOM     14  H   UNL A   1      34.383  20.683  27.097  1.00  0.00     0.347 HD
BRANCH  12  15
ATOM     15  C   UNL A   1      34.453  22.644  27.346  1.00  0.00     0.298 C 
BRANCH  15  16
ATOM     16  C   UNL A   1      33.221  23.396  26.841  1.00  0.00     0.010 A 
ATOM     17  C   UNL A   1      32.041  22.677  27.234  1.00  0.00     0.010 A 
ATOM     18  C   UNL A   1      33.065  24.573  26.054  1.00  0.00    -0.036 A 
ATOM     19  C   UNL A   1      30.754  23.041  26.862  1.00  0.00     0.001 A 
ATOM     20  C   UNL A   1      31.717  24.867  25.666  1.00  0.00     0.004 A 
ATOM     21  C   UNL A   1      30.591  24.139  26.052  1.00  0.00     0.000 A 
BRANCH  18  22
ATOM     22  C   UNL A   1      34.030  25.670  25.562  1.00  0.00     0.020 C 
ATOM     23  C   UNL A   1      33.853  26.509  24.337  1.00  0.00     0.009 C 
ATOM     24  C   UNL A   1      33.860  27.151  25.707  1.00  0.00     0.009 C 
ENDBRANCH  18  22
ENDBRANCH  15  16
ENDBRANCH  12  15
ENDBRANCH   6  12
ENDBRANCH   5   6
ENDBRANCH   3   5
ENDBRANCH   2   3
ENDBRANCH   1   2
BRANCH   1  25
ATOM     25  C   UNL A   1      39.584  19.486  25.614  1.00  0.00     0.275 C 
BRANCH  25  26
ATOM     26  O   UNL A   1      39.854  20.250  26.801  1.00  0.00    -0.458 OA
BRANCH  26  27
ATOM     27  C   UNL A   1      41.162  20.466  27.094  1.00  0.00     0.338 C 
ATOM     28  O   UNL A   1      42.073  19.668  26.962  1.00  0.00    -0.246 OA
BRANCH  27  29
ATOM     29  C   UNL A   1      41.353  21.903  27.415  1.00  0.00     0.060 A 
ATOM     30  C   UNL A   1      40.730  22.852  26.595  1.00  0.00     0.016 A 
ATOM     31  C   UNL A   1      42.079  22.318  28.538  1.00  0.00     0.016 A 
ATOM     32  C   UNL A   1      40.863  24.216  26.872  1.00  0.00     0.010 A 
ATOM     33  C   UNL A   1      42.206  23.681  28.816  1.00  0.00     0.010 A 
ATOM     34  C   UNL A   1      41.629  24.639  27.966  1.00  0.00    -0.014 A 
BRANCH  34  35
ATOM     35  C   UNL A   1      41.982  26.070  28.134  1.00  0.00     0.031 A 
ATOM     36  C   UNL A   1      43.360  26.518  27.736  1.00  0.00     0.074 A 
ATOM     37  C   UNL A   1      41.120  26.953  28.670  1.00  0.00     0.049 A 
ATOM     38  N   UNL A   1      43.902  27.705  27.821  1.00  0.00    -0.248 NA
ATOM     39  C   UNL A   1      44.249  25.488  27.172  1.00  0.00     0.031 C 
ATOM     40  C   UNL A   1      39.761  26.649  29.106  1.00  0.00     0.029 A 
ATOM     41  N   UNL A   1      41.282  28.283  28.968  1.00  0.00    -0.354 N 
ATOM     42  C   UNL A   1      45.193  27.565  27.331  1.00  0.00     0.074 A 
ATOM     43  C   UNL A   1      45.366  26.172  26.979  1.00  0.00     0.031 C 
ATOM     44  C   UNL A   1      39.226  27.752  29.660  1.00  0.00     0.029 A 
ATOM     45  C   UNL A   1      40.208  28.835  29.626  1.00  0.00     0.049 A 
ATOM     46  H   UNL A   1      42.090  28.795  28.734  1.00  0.00     0.167 HD
ATOM     47  C   UNL A   1      46.144  28.512  27.162  1.00  0.00     0.034 A 
ATOM     48  C   UNL A   1      40.044  30.065  30.154  1.00  0.00     0.034 A 
ATOM     49  C   UNL A   1      45.976  29.898  27.498  1.00  0.00     0.049 A 
ATOM     50  C   UNL A   1      41.133  31.095  29.991  1.00  0.00     0.074 A 
ATOM     51  C   UNL A   1      46.863  30.942  27.304  1.00  0.00     0.029 A 
ATOM     52  N   UNL A   1      44.856  30.432  28.113  1.00  0.00    -0.354 N 
ATOM     53  N   UNL A   1      42.287  30.987  29.377  1.00  0.00    -0.248 NA
ATOM     54  C   UNL A   1      40.881  32.429  30.558  1.00  0.00     0.031 C 
ATOM     55  C   UNL A   1      46.287  32.106  27.825  1.00  0.00     0.029 A 
ATOM     56  C   UNL A   1      45.034  31.788  28.324  1.00  0.00     0.049 A 
ATOM     57  H   UNL A   1      44.053  29.922  28.364  1.00  0.00     0.167 HD
ATOM     58  C   UNL A   1      42.874  32.248  29.443  1.00  0.00     0.074 A 
ATOM     59  C   UNL A   1      41.946  33.106  30.148  1.00  0.00     0.031 C 
ATOM     60  C   UNL A   1      44.079  32.652  28.969  1.00  0.00     0.034 A 
BRANCH  47  61
ATOM     61  C   UNL A   1      47.443  28.078  26.543  1.00  0.00     0.023 A 
ATOM     62  C   UNL A   1      48.534  27.761  27.378  1.00  0.00     0.012 A 
ATOM     63  C   UNL A   1      47.576  27.950  25.148  1.00  0.00     0.148 A 
ATOM     64  C   UNL A   1      49.749  27.351  26.832  1.00  0.00     0.002 A 
ATOM     65  C   UNL A   1      48.778  27.504  24.614  1.00  0.00     0.091 A 
ATOM     66  F   UNL A   1      46.536  28.286  24.372  1.00  0.00    -0.205 F 
ATOM     67  C   UNL A   1      49.867  27.214  25.452  1.00  0.00     0.022 A 
BRANCH  65  68
ATOM     68  S   UNL A   1      49.006  27.234  22.853  1.00  0.00     0.127 S 
ATOM     69  O   UNL A   1      50.464  27.159  22.753  1.00  0.00    -0.237 OA
ATOM     70  O   UNL A   1      48.315  25.962  22.642  1.00  0.00    -0.237 OA
ATOM     71  O   UNL A   1      48.390  28.375  22.190  1.00  0.00    -0.744 OA
ENDBRANCH  65  68
ENDBRANCH  47  61
BRANCH  48  72
ATOM     72  C   UNL A   1      38.776  30.411  30.856  1.00  0.00     0.023 A 
ATOM     73  C   UNL A   1      38.591  30.016  32.196  1.00  0.00     0.012 A 
ATOM     74  C   UNL A   1      37.753  31.126  30.204  1.00  0.00     0.148 A 
ATOM     75  C   UNL A   1      37.398  30.299  32.862  1.00  0.00     0.002 A 
ATOM     76  C   UNL A   1      36.587  31.446  30.888  1.00  0.00     0.091 A 
ATOM     77  F   UNL A   1      37.939  31.475  28.923  1.00  0.00    -0.205 F 
ATOM     78  C   UNL A   1      36.400  31.020  32.213  1.00  0.00     0.022 A 
BRANCH  76  79
ATOM     79  S   UNL A   1      35.303  32.471  30.162  1.00  0.00     0.127 S 
ATOM     80  O   UNL A   1      34.854  31.644  29.045  1.00  0.00    -0.237 OA
ATOM     81  O   UNL A   1      34.347  32.591  31.264  1.00  0.00    -0.237 OA
ATOM     82  O   UNL A   1      35.963  33.721  29.804  1.00  0.00    -0.744 OA
ENDBRANCH  76  79
ENDBRANCH  48  72
BRANCH  60  83
ATOM     83  C   UNL A   1      44.464  34.098  29.154  1.00  0.00     0.023 A 
ATOM     84  C   UNL A   1      44.101  35.048  28.180  1.00  0.00     0.012 A 
ATOM     85  C   UNL A   1      45.098  34.528  30.337  1.00  0.00     0.148 A 
ATOM     86  C   UNL A   1      44.386  36.401  28.370  1.00  0.00     0.002 A 
ATOM     87  C   UNL A   1      45.336  35.882  30.540  1.00  0.00     0.091 A 
ATOM     88  F   UNL A   1      45.452  33.606  31.245  1.00  0.00    -0.205 F 
ATOM     89  C   UNL A   1      44.990  36.819  29.554  1.00  0.00     0.022 A 
BRANCH  87  90
ATOM     90  S   UNL A   1      46.019  36.520  32.075  1.00  0.00     0.127 S 
ATOM     91  O   UNL A   1      47.343  35.898  32.093  1.00  0.00    -0.237 OA
ATOM     92  O   UNL A   1      46.027  37.963  31.839  1.00  0.00    -0.237 OA
ATOM     93  O   UNL A   1      45.110  36.087  33.127  1.00  0.00    -0.744 OA
ENDBRANCH  87  90
ENDBRANCH  60  83
ENDBRANCH  34  35
ENDBRANCH  27  29
ENDBRANCH  26  27
ENDBRANCH  25  26
ENDBRANCH   1  25
TORSDOF 20
ENDMDL
