MODEL 1
REMARK VINA RESULT:     -11.9      0.000      0.000
REMARK SMILES COc1ccccc1-c1nnc(S[C@@H](C)C(=O)OCCOC(=O)c2ccc(-c3c4nc(c(-c5cccc(S(=O)(=O)[O-])c5F)c5ccc([nH]5)c(-c5cccc(S(=O)(=O)[O-])c5F)c5nc(c(-c6cccc(S(=O)(=O)[O-])c6F)c6ccc3[nH]6)C=C5)C=C4)cc2)n1-c1ccccc1
REMARK SMILES IDX 19 1 18 2 16 3 17 4 14 5 15 6 13 7 12 8 9 9 10 10 87 11
REMARK SMILES IDX 11 12 8 13 3 14 4 15 5 16 7 17 6 18 2 19 1 20 88 21 89 22
REMARK SMILES IDX 93 23 90 24 92 25 91 26 20 27 21 28 22 29 23 30 24 31 25 32
REMARK SMILES IDX 86 33 26 34 85 35 27 36 28 37 29 38 79 39 30 40 84 41 78 42
REMARK SMILES IDX 80 43 31 44 83 45 77 46 76 47 32 49 64 50 44 51 63 52 45 53
REMARK SMILES IDX 48 54 62 55 81 56 46 57 47 58 61 60 82 61 49 62 33 63 34 64
REMARK SMILES IDX 42 65 35 66 37 67 43 68 36 69 38 70 39 71 40 72 41 73 65 74
REMARK SMILES IDX 66 75 74 76 67 77 69 78 75 79 68 80 70 81 71 82 72 83 73 84
REMARK SMILES IDX 50 85 51 86 59 87 52 88 54 89 60 90 53 91 55 92 56 93 57 94
REMARK SMILES IDX 58 95
REMARK H PARENT 80 48 48 59
REMARK Flexibility Score: inf
ROOT
ATOM      1  C   UNL A   1      33.924  28.726  27.505  1.00  0.00     0.274 C 
ENDROOT
BRANCH   1   2
ATOM      2  O   UNL A   1      33.579  27.759  26.481  1.00  0.00    -0.461 OA
BRANCH   2   3
ATOM      3  C   UNL A   1      32.312  27.672  25.980  1.00  0.00     0.319 C 
ATOM      4  O   UNL A   1      31.329  27.388  26.658  1.00  0.00    -0.251 OA
BRANCH   3   5
ATOM      5  C   UNL A   1      32.211  28.087  24.507  1.00  0.00     0.161 C 
ATOM      6  C   UNL A   1      30.887  28.688  24.027  1.00  0.00     0.032 C 
BRANCH   5   7
ATOM      7  S   UNL A   1      32.726  26.942  23.227  1.00  0.00    -0.071 SA
BRANCH   7   8
ATOM      8  C   UNL A   1      32.271  25.312  23.549  1.00  0.00     0.196 A 
ATOM      9  C   UNL A   1      32.003  23.168  23.861  1.00  0.00     0.173 A 
ATOM     10  N   UNL A   1      30.824  23.687  23.601  1.00  0.00    -0.129 NA
ATOM     11  N   UNL A   1      32.991  24.153  23.842  1.00  0.00    -0.270 N 
ATOM     12  N   UNL A   1      30.988  25.022  23.446  1.00  0.00    -0.122 NA
BRANCH   9  13
ATOM     13  C   UNL A   1      32.211  21.783  24.227  1.00  0.00     0.062 A 
ATOM     14  C   UNL A   1      32.546  21.385  25.531  1.00  0.00     0.129 A 
ATOM     15  C   UNL A   1      33.002  20.082  25.732  1.00  0.00     0.047 A 
ATOM     16  C   UNL A   1      33.056  19.169  24.674  1.00  0.00     0.004 A 
ATOM     17  C   UNL A   1      32.215  20.848  23.177  1.00  0.00     0.016 A 
ATOM     18  C   UNL A   1      32.644  19.544  23.399  1.00  0.00     0.001 A 
BRANCH  14  19
ATOM     19  O   UNL A   1      32.654  22.202  26.629  1.00  0.00    -0.496 OA
ATOM     20  C   UNL A   1      33.684  21.913  27.573  1.00  0.00     0.278 C 
ENDBRANCH  14  19
ENDBRANCH   9  13
BRANCH  11  21
ATOM     21  C   UNL A   1      34.388  23.914  24.074  1.00  0.00     0.050 A 
ATOM     22  C   UNL A   1      35.127  23.067  23.259  1.00  0.00     0.027 A 
ATOM     23  C   UNL A   1      35.024  24.494  25.188  1.00  0.00     0.027 A 
ATOM     24  C   UNL A   1      36.397  22.637  23.666  1.00  0.00     0.002 A 
ATOM     25  C   UNL A   1      36.271  24.035  25.617  1.00  0.00     0.002 A 
ATOM     26  C   UNL A   1      36.940  23.074  24.873  1.00  0.00     0.000 A 
ENDBRANCH  11  21
ENDBRANCH   7   8
ENDBRANCH   5   7
ENDBRANCH   3   5
ENDBRANCH   2   3
ENDBRANCH   1   2
BRANCH   1  27
ATOM     27  C   UNL A   1      34.326  30.045  26.878  1.00  0.00     0.275 C 
BRANCH  27  28
ATOM     28  O   UNL A   1      34.520  30.948  27.946  1.00  0.00    -0.458 OA
BRANCH  28  29
ATOM     29  C   UNL A   1      33.711  32.034  27.890  1.00  0.00     0.338 C 
ATOM     30  O   UNL A   1      32.666  32.140  27.284  1.00  0.00    -0.246 OA
BRANCH  29  31
ATOM     31  C   UNL A   1      34.300  33.109  28.731  1.00  0.00     0.060 A 
ATOM     32  C   UNL A   1      35.290  33.788  28.018  1.00  0.00     0.016 A 
ATOM     33  C   UNL A   1      34.498  32.707  30.047  1.00  0.00     0.016 A 
ATOM     34  C   UNL A   1      36.584  33.458  28.328  1.00  0.00     0.010 A 
ATOM     35  C   UNL A   1      35.777  32.343  30.347  1.00  0.00     0.010 A 
ATOM     36  C   UNL A   1      36.783  32.605  29.411  1.00  0.00    -0.014 A 
BRANCH  36  37
ATOM     37  C   UNL A   1      38.110  32.116  29.688  1.00  0.00     0.031 A 
ATOM     38  C   UNL A   1      38.186  30.697  29.295  1.00  0.00     0.074 A 
ATOM     39  C   UNL A   1      39.138  32.909  30.036  1.00  0.00     0.049 A 
ATOM     40  N   UNL A   1      37.939  29.664  30.039  1.00  0.00    -0.248 NA
ATOM     41  C   UNL A   1      38.128  30.419  27.848  1.00  0.00     0.031 C 
ATOM     42  C   UNL A   1      39.208  34.371  30.114  1.00  0.00     0.029 A 
ATOM     43  N   UNL A   1      40.419  32.537  30.267  1.00  0.00    -0.354 N 
ATOM     44  C   UNL A   1      37.978  28.613  29.131  1.00  0.00     0.074 A 
ATOM     45  C   UNL A   1      37.626  29.184  27.866  1.00  0.00     0.031 C 
ATOM     46  C   UNL A   1      40.513  34.748  30.113  1.00  0.00     0.029 A 
ATOM     47  C   UNL A   1      41.350  33.559  30.141  1.00  0.00     0.049 A 
ATOM     48  H   UNL A   1      40.671  31.615  30.504  1.00  0.00     0.167 HD
ATOM     49  C   UNL A   1      38.767  27.525  29.348  1.00  0.00     0.034 A 
ATOM     50  C   UNL A   1      42.687  33.389  29.956  1.00  0.00     0.034 A 
ATOM     51  C   UNL A   1      39.194  27.468  30.726  1.00  0.00     0.049 A 
ATOM     52  C   UNL A   1      43.004  31.982  30.329  1.00  0.00     0.074 A 
ATOM     53  C   UNL A   1      38.551  27.456  31.948  1.00  0.00     0.029 A 
ATOM     54  N   UNL A   1      40.485  27.872  30.981  1.00  0.00    -0.354 N 
ATOM     55  N   UNL A   1      42.870  31.514  31.540  1.00  0.00    -0.248 NA
ATOM     56  C   UNL A   1      42.976  30.985  29.269  1.00  0.00     0.031 C 
ATOM     57  C   UNL A   1      39.350  28.278  32.797  1.00  0.00     0.029 A 
ATOM     58  C   UNL A   1      40.476  28.688  32.081  1.00  0.00     0.049 A 
ATOM     59  H   UNL A   1      41.281  27.617  30.459  1.00  0.00     0.167 HD
ATOM     60  C   UNL A   1      42.288  30.263  31.369  1.00  0.00     0.074 A 
ATOM     61  C   UNL A   1      42.467  29.952  29.950  1.00  0.00     0.031 C 
ATOM     62  C   UNL A   1      41.437  29.748  32.309  1.00  0.00     0.034 A 
BRANCH  49  63
ATOM     63  C   UNL A   1      39.514  26.784  28.249  1.00  0.00     0.023 A 
ATOM     64  C   UNL A   1      39.315  25.391  28.190  1.00  0.00     0.012 A 
ATOM     65  C   UNL A   1      40.563  27.302  27.444  1.00  0.00     0.148 A 
ATOM     66  C   UNL A   1      40.146  24.563  27.427  1.00  0.00     0.002 A 
ATOM     67  C   UNL A   1      41.338  26.489  26.630  1.00  0.00     0.091 A 
ATOM     68  F   UNL A   1      40.939  28.574  27.533  1.00  0.00    -0.205 F 
ATOM     69  C   UNL A   1      41.156  25.110  26.642  1.00  0.00     0.022 A 
BRANCH  67  70
ATOM     70  S   UNL A   1      42.638  27.175  25.588  1.00  0.00     0.127 S 
ATOM     71  O   UNL A   1      43.635  27.552  26.583  1.00  0.00    -0.237 OA
ATOM     72  O   UNL A   1      42.988  26.024  24.757  1.00  0.00    -0.237 OA
ATOM     73  O   UNL A   1      42.022  28.273  24.851  1.00  0.00    -0.744 OA
ENDBRANCH  67  70
ENDBRANCH  49  63
BRANCH  50  74
ATOM     74  C   UNL A   1      43.627  34.209  29.149  1.00  0.00     0.023 A 
ATOM     75  C   UNL A   1      44.460  35.162  29.772  1.00  0.00     0.012 A 
ATOM     76  C   UNL A   1      43.903  33.871  27.805  1.00  0.00     0.148 A 
ATOM     77  C   UNL A   1      45.533  35.748  29.082  1.00  0.00     0.002 A 
ATOM     78  C   UNL A   1      44.961  34.463  27.120  1.00  0.00     0.091 A 
ATOM     79  F   UNL A   1      43.184  32.900  27.227  1.00  0.00    -0.205 F 
ATOM     80  C   UNL A   1      45.786  35.396  27.758  1.00  0.00     0.022 A 
BRANCH  78  81
ATOM     81  S   UNL A   1      45.356  34.046  25.415  1.00  0.00     0.127 S 
ATOM     82  O   UNL A   1      44.246  34.664  24.690  1.00  0.00    -0.237 OA
ATOM     83  O   UNL A   1      46.647  34.704  25.233  1.00  0.00    -0.237 OA
ATOM     84  O   UNL A   1      45.378  32.590  25.354  1.00  0.00    -0.744 OA
ENDBRANCH  78  81
ENDBRANCH  50  74
BRANCH  62  85
ATOM     85  C   UNL A   1      41.323  30.482  33.627  1.00  0.00     0.023 A 
ATOM     86  C   UNL A   1      42.293  30.375  34.648  1.00  0.00     0.012 A 
ATOM     87  C   UNL A   1      40.301  31.433  33.766  1.00  0.00     0.148 A 
ATOM     88  C   UNL A   1      42.230  31.180  35.790  1.00  0.00     0.002 A 
ATOM     89  C   UNL A   1      40.265  32.262  34.881  1.00  0.00     0.091 A 
ATOM     90  F   UNL A   1      39.396  31.534  32.781  1.00  0.00    -0.205 F 
ATOM     91  C   UNL A   1      41.221  32.134  35.901  1.00  0.00     0.022 A 
BRANCH  89  92
ATOM     92  S   UNL A   1      39.066  33.586  35.026  1.00  0.00     0.127 S 
ATOM     93  O   UNL A   1      37.812  32.849  35.161  1.00  0.00    -0.237 OA
ATOM     94  O   UNL A   1      39.505  34.274  36.242  1.00  0.00    -0.237 OA
ATOM     95  O   UNL A   1      39.194  34.383  33.813  1.00  0.00    -0.744 OA
ENDBRANCH  89  92
ENDBRANCH  62  85
ENDBRANCH  36  37
ENDBRANCH  29  31
ENDBRANCH  28  29
ENDBRANCH  27  28
ENDBRANCH   1  27
TORSDOF 19
ENDMDL
MODEL 2
REMARK VINA RESULT:     -11.6      1.883      2.235
REMARK SMILES COc1ccccc1-c1nnc(S[C@@H](C)C(=O)OCCOC(=O)c2ccc(-c3c4nc(c(-c5cccc(S(=O)(=O)[O-])c5F)c5ccc([nH]5)c(-c5cccc(S(=O)(=O)[O-])c5F)c5nc(c(-c6cccc(S(=O)(=O)[O-])c6F)c6ccc3[nH]6)C=C5)C=C4)cc2)n1-c1ccccc1
REMARK SMILES IDX 19 1 18 2 16 3 17 4 14 5 15 6 13 7 12 8 9 9 10 10 87 11
REMARK SMILES IDX 11 12 8 13 3 14 4 15 5 16 7 17 6 18 2 19 1 20 88 21 89 22
REMARK SMILES IDX 93 23 90 24 92 25 91 26 20 27 21 28 22 29 23 30 24 31 25 32
REMARK SMILES IDX 86 33 26 34 85 35 27 36 28 37 29 38 79 39 30 40 84 41 78 42
REMARK SMILES IDX 80 43 31 44 83 45 77 46 76 47 32 49 64 50 44 51 63 52 45 53
REMARK SMILES IDX 48 54 62 55 81 56 46 57 47 58 61 60 82 61 49 62 33 63 34 64
REMARK SMILES IDX 42 65 35 66 37 67 43 68 36 69 38 70 39 71 40 72 41 73 65 74
REMARK SMILES IDX 66 75 74 76 67 77 69 78 75 79 68 80 70 81 71 82 72 83 73 84
REMARK SMILES IDX 50 85 51 86 59 87 52 88 54 89 60 90 53 91 55 92 56 93 57 94
REMARK SMILES IDX 58 95
REMARK H PARENT 80 48 48 59
REMARK Flexibility Score: inf
ROOT
ATOM      1  C   UNL A   1      33.489  28.660  27.296  1.00  0.00     0.274 C 
ENDROOT
BRANCH   1   2
ATOM      2  O   UNL A   1      33.710  27.548  26.391  1.00  0.00    -0.461 OA
BRANCH   2   3
ATOM      3  C   UNL A   1      32.894  27.328  25.319  1.00  0.00     0.319 C 
ATOM      4  O   UNL A   1      31.697  27.071  25.415  1.00  0.00    -0.251 OA
BRANCH   3   5
ATOM      5  C   UNL A   1      33.587  27.555  23.970  1.00  0.00     0.161 C 
ATOM      6  C   UNL A   1      33.595  28.978  23.407  1.00  0.00     0.032 C 
BRANCH   5   7
ATOM      7  S   UNL A   1      33.209  26.478  22.588  1.00  0.00    -0.071 SA
BRANCH   7   8
ATOM      8  C   UNL A   1      32.620  24.933  23.069  1.00  0.00     0.196 A 
ATOM      9  C   UNL A   1      32.186  22.871  23.639  1.00  0.00     0.173 A 
ATOM     10  N   UNL A   1      31.084  23.394  23.149  1.00  0.00    -0.129 NA
ATOM     11  N   UNL A   1      33.225  23.802  23.618  1.00  0.00    -0.270 N 
ATOM     12  N   UNL A   1      31.347  24.683  22.832  1.00  0.00    -0.122 NA
BRANCH   9  13
ATOM     13  C   UNL A   1      32.261  21.547  24.222  1.00  0.00     0.062 A 
ATOM     14  C   UNL A   1      32.385  21.333  25.603  1.00  0.00     0.129 A 
ATOM     15  C   UNL A   1      32.733  20.058  26.049  1.00  0.00     0.047 A 
ATOM     16  C   UNL A   1      32.884  18.998  25.148  1.00  0.00     0.004 A 
ATOM     17  C   UNL A   1      32.360  20.470  23.324  1.00  0.00     0.016 A 
ATOM     18  C   UNL A   1      32.678  19.198  23.786  1.00  0.00     0.001 A 
BRANCH  14  19
ATOM     19  O   UNL A   1      32.383  22.297  26.580  1.00  0.00    -0.496 OA
ATOM     20  C   UNL A   1      33.298  22.145  27.664  1.00  0.00     0.278 C 
ENDBRANCH  14  19
ENDBRANCH   9  13
BRANCH  11  21
ATOM     21  C   UNL A   1      34.563  23.544  24.072  1.00  0.00     0.050 A 
ATOM     22  C   UNL A   1      35.041  24.068  25.266  1.00  0.00     0.027 A 
ATOM     23  C   UNL A   1      35.445  22.796  23.269  1.00  0.00     0.027 A 
ATOM     24  C   UNL A   1      36.414  24.036  25.544  1.00  0.00     0.002 A 
ATOM     25  C   UNL A   1      36.818  22.799  23.523  1.00  0.00     0.002 A 
ATOM     26  C   UNL A   1      37.306  23.456  24.644  1.00  0.00     0.000 A 
ENDBRANCH  11  21
ENDBRANCH   7   8
ENDBRANCH   5   7
ENDBRANCH   3   5
ENDBRANCH   2   3
ENDBRANCH   1   2
BRANCH   1  27
ATOM     27  C   UNL A   1      34.461  29.785  27.003  1.00  0.00     0.275 C 
BRANCH  27  28
ATOM     28  O   UNL A   1      34.382  30.671  28.100  1.00  0.00    -0.458 OA
BRANCH  28  29
ATOM     29  C   UNL A   1      33.645  31.780  27.847  1.00  0.00     0.338 C 
ATOM     30  O   UNL A   1      32.706  31.879  27.086  1.00  0.00    -0.246 OA
BRANCH  29  31
ATOM     31  C   UNL A   1      34.156  32.892  28.690  1.00  0.00     0.060 A 
ATOM     32  C   UNL A   1      35.080  33.654  27.972  1.00  0.00     0.016 A 
ATOM     33  C   UNL A   1      34.402  32.498  30.001  1.00  0.00     0.016 A 
ATOM     34  C   UNL A   1      36.399  33.426  28.264  1.00  0.00     0.010 A 
ATOM     35  C   UNL A   1      35.709  32.235  30.283  1.00  0.00     0.010 A 
ATOM     36  C   UNL A   1      36.680  32.584  29.338  1.00  0.00    -0.014 A 
BRANCH  36  37
ATOM     37  C   UNL A   1      38.045  32.202  29.595  1.00  0.00     0.031 A 
ATOM     38  C   UNL A   1      38.208  30.773  29.267  1.00  0.00     0.074 A 
ATOM     39  C   UNL A   1      39.024  33.080  29.871  1.00  0.00     0.049 A 
ATOM     40  N   UNL A   1      38.055  29.764  30.067  1.00  0.00    -0.248 NA
ATOM     41  C   UNL A   1      38.129  30.421  27.839  1.00  0.00     0.031 C 
ATOM     42  C   UNL A   1      38.995  34.545  29.878  1.00  0.00     0.029 A 
ATOM     43  N   UNL A   1      40.335  32.808  30.079  1.00  0.00    -0.354 N 
ATOM     44  C   UNL A   1      38.142  28.675  29.210  1.00  0.00     0.074 A 
ATOM     45  C   UNL A   1      37.715  29.156  27.931  1.00  0.00     0.031 C 
ATOM     46  C   UNL A   1      40.269  35.009  29.817  1.00  0.00     0.029 A 
ATOM     47  C   UNL A   1      41.188  33.883  29.875  1.00  0.00     0.049 A 
ATOM     48  H   UNL A   1      40.656  31.918  30.351  1.00  0.00     0.167 HD
ATOM     49  C   UNL A   1      39.011  27.655  29.453  1.00  0.00     0.034 A 
ATOM     50  C   UNL A   1      42.527  33.796  29.656  1.00  0.00     0.034 A 
ATOM     51  C   UNL A   1      39.480  27.696  30.818  1.00  0.00     0.049 A 
ATOM     52  C   UNL A   1      42.952  32.435  30.085  1.00  0.00     0.074 A 
ATOM     53  C   UNL A   1      38.874  27.701  32.059  1.00  0.00     0.029 A 
ATOM     54  N   UNL A   1      40.746  28.200  31.012  1.00  0.00    -0.354 N 
ATOM     55  N   UNL A   1      42.886  32.020  31.320  1.00  0.00    -0.248 NA
ATOM     56  C   UNL A   1      42.964  31.386  29.075  1.00  0.00     0.031 C 
ATOM     57  C   UNL A   1      39.638  28.617  32.842  1.00  0.00     0.029 A 
ATOM     58  C   UNL A   1      40.712  29.067  32.072  1.00  0.00     0.049 A 
ATOM     59  H   UNL A   1      41.542  27.974  30.478  1.00  0.00     0.167 HD
ATOM     60  C   UNL A   1      42.388  30.724  31.228  1.00  0.00     0.074 A 
ATOM     61  C   UNL A   1      42.547  30.356  29.821  1.00  0.00     0.031 C 
ATOM     62  C   UNL A   1      41.602  30.200  32.218  1.00  0.00     0.034 A 
BRANCH  49  63
ATOM     63  C   UNL A   1      39.775  26.913  28.368  1.00  0.00     0.023 A 
ATOM     64  C   UNL A   1      39.612  25.515  28.334  1.00  0.00     0.012 A 
ATOM     65  C   UNL A   1      40.812  27.442  27.552  1.00  0.00     0.148 A 
ATOM     66  C   UNL A   1      40.463  24.694  27.585  1.00  0.00     0.002 A 
ATOM     67  C   UNL A   1      41.606  26.634  26.753  1.00  0.00     0.091 A 
ATOM     68  F   UNL A   1      41.156  28.725  27.618  1.00  0.00    -0.205 F 
ATOM     69  C   UNL A   1      41.459  25.251  26.791  1.00  0.00     0.022 A 
BRANCH  67  70
ATOM     70  S   UNL A   1      42.890  27.333  25.699  1.00  0.00     0.127 S 
ATOM     71  O   UNL A   1      43.431  26.133  25.071  1.00  0.00    -0.237 OA
ATOM     72  O   UNL A   1      42.108  28.200  24.819  1.00  0.00    -0.237 OA
ATOM     73  O   UNL A   1      43.793  28.051  26.591  1.00  0.00    -0.744 OA
ENDBRANCH  67  70
ENDBRANCH  49  63
BRANCH  50  74
ATOM     74  C   UNL A   1      43.385  34.637  28.781  1.00  0.00     0.023 A 
ATOM     75  C   UNL A   1      43.591  34.286  27.431  1.00  0.00     0.012 A 
ATOM     76  C   UNL A   1      43.785  35.928  29.195  1.00  0.00     0.148 A 
ATOM     77  C   UNL A   1      44.165  35.192  26.526  1.00  0.00     0.002 A 
ATOM     78  C   UNL A   1      44.365  36.820  28.297  1.00  0.00     0.091 A 
ATOM     79  F   UNL A   1      43.511  36.314  30.448  1.00  0.00    -0.205 F 
ATOM     80  C   UNL A   1      44.548  36.460  26.956  1.00  0.00     0.022 A 
BRANCH  78  81
ATOM     81  S   UNL A   1      44.870  38.479  28.778  1.00  0.00     0.127 S 
ATOM     82  O   UNL A   1      43.599  39.066  29.206  1.00  0.00    -0.237 OA
ATOM     83  O   UNL A   1      45.812  38.207  29.860  1.00  0.00    -0.237 OA
ATOM     84  O   UNL A   1      45.441  39.087  27.584  1.00  0.00    -0.744 OA
ENDBRANCH  78  81
ENDBRANCH  50  74
BRANCH  62  85
ATOM     85  C   UNL A   1      41.475  30.989  33.502  1.00  0.00     0.023 A 
ATOM     86  C   UNL A   1      40.414  31.888  33.746  1.00  0.00     0.012 A 
ATOM     87  C   UNL A   1      42.354  30.685  34.553  1.00  0.00     0.148 A 
ATOM     88  C   UNL A   1      40.248  32.486  34.999  1.00  0.00     0.002 A 
ATOM     89  C   UNL A   1      42.162  31.247  35.810  1.00  0.00     0.091 A 
ATOM     90  F   UNL A   1      43.348  29.817  34.311  1.00  0.00    -0.205 F 
ATOM     91  C   UNL A   1      41.117  32.156  36.036  1.00  0.00     0.022 A 
BRANCH  89  92
ATOM     92  S   UNL A   1      43.170  30.771  37.213  1.00  0.00     0.127 S 
ATOM     93  O   UNL A   1      42.428  31.349  38.331  1.00  0.00    -0.237 OA
ATOM     94  O   UNL A   1      43.133  29.310  37.144  1.00  0.00    -0.237 OA
ATOM     95  O   UNL A   1      44.490  31.345  36.976  1.00  0.00    -0.744 OA
ENDBRANCH  89  92
ENDBRANCH  62  85
ENDBRANCH  36  37
ENDBRANCH  29  31
ENDBRANCH  28  29
ENDBRANCH  27  28
ENDBRANCH   1  27
TORSDOF 19
ENDMDL
MODEL 3
REMARK VINA RESULT:     -11.2      1.797      2.445
REMARK SMILES COc1ccccc1-c1nnc(S[C@@H](C)C(=O)OCCOC(=O)c2ccc(-c3c4nc(c(-c5cccc(S(=O)(=O)[O-])c5F)c5ccc([nH]5)c(-c5cccc(S(=O)(=O)[O-])c5F)c5nc(c(-c6cccc(S(=O)(=O)[O-])c6F)c6ccc3[nH]6)C=C5)C=C4)cc2)n1-c1ccccc1
REMARK SMILES IDX 19 1 18 2 16 3 17 4 14 5 15 6 13 7 12 8 9 9 10 10 87 11
REMARK SMILES IDX 11 12 8 13 3 14 4 15 5 16 7 17 6 18 2 19 1 20 88 21 89 22
REMARK SMILES IDX 93 23 90 24 92 25 91 26 20 27 21 28 22 29 23 30 24 31 25 32
REMARK SMILES IDX 86 33 26 34 85 35 27 36 28 37 29 38 79 39 30 40 84 41 78 42
REMARK SMILES IDX 80 43 31 44 83 45 77 46 76 47 32 49 64 50 44 51 63 52 45 53
REMARK SMILES IDX 48 54 62 55 81 56 46 57 47 58 61 60 82 61 49 62 33 63 34 64
REMARK SMILES IDX 42 65 35 66 37 67 43 68 36 69 38 70 39 71 40 72 41 73 65 74
REMARK SMILES IDX 66 75 74 76 67 77 69 78 75 79 68 80 70 81 71 82 72 83 73 84
REMARK SMILES IDX 50 85 51 86 59 87 52 88 54 89 60 90 53 91 55 92 56 93 57 94
REMARK SMILES IDX 58 95
REMARK H PARENT 80 48 48 59
REMARK Flexibility Score: inf
ROOT
ATOM      1  C   UNL A   1      33.824  28.746  27.291  1.00  0.00     0.274 C 
ENDROOT
BRANCH   1   2
ATOM      2  O   UNL A   1      32.674  28.448  26.459  1.00  0.00    -0.461 OA
BRANCH   2   3
ATOM      3  C   UNL A   1      31.664  27.643  26.900  1.00  0.00     0.319 C 
ATOM      4  O   UNL A   1      31.051  27.829  27.947  1.00  0.00    -0.251 OA
BRANCH   3   5
ATOM      5  C   UNL A   1      31.278  26.547  25.898  1.00  0.00     0.161 C 
ATOM      6  C   UNL A   1      30.305  26.920  24.777  1.00  0.00     0.032 C 
BRANCH   5   7
ATOM      7  S   UNL A   1      30.747  24.944  26.500  1.00  0.00    -0.071 SA
BRANCH   7   8
ATOM      8  C   UNL A   1      31.998  23.760  26.479  1.00  0.00     0.196 A 
ATOM      9  C   UNL A   1      33.542  22.260  26.123  1.00  0.00     0.173 A 
ATOM     10  N   UNL A   1      33.064  22.066  27.332  1.00  0.00    -0.129 NA
ATOM     11  N   UNL A   1      32.902  23.334  25.506  1.00  0.00    -0.270 N 
ATOM     12  N   UNL A   1      32.134  23.021  27.563  1.00  0.00    -0.122 NA
BRANCH   9  13
ATOM     13  C   UNL A   1      34.659  21.522  25.570  1.00  0.00     0.062 A 
ATOM     14  C   UNL A   1      34.513  20.261  24.973  1.00  0.00     0.129 A 
ATOM     15  C   UNL A   1      35.659  19.505  24.726  1.00  0.00     0.047 A 
ATOM     16  C   UNL A   1      36.931  20.019  25.000  1.00  0.00     0.004 A 
ATOM     17  C   UNL A   1      35.940  22.058  25.794  1.00  0.00     0.016 A 
ATOM     18  C   UNL A   1      37.074  21.304  25.515  1.00  0.00     0.001 A 
BRANCH  14  19
ATOM     19  O   UNL A   1      33.333  19.590  24.764  1.00  0.00    -0.496 OA
ATOM     20  C   UNL A   1      32.946  18.613  25.728  1.00  0.00     0.278 C 
ENDBRANCH  14  19
ENDBRANCH   9  13
BRANCH  11  21
ATOM     21  C   UNL A   1      33.182  23.798  24.176  1.00  0.00     0.050 A 
ATOM     22  C   UNL A   1      33.656  25.082  23.938  1.00  0.00     0.027 A 
ATOM     23  C   UNL A   1      32.915  22.968  23.072  1.00  0.00     0.027 A 
ATOM     24  C   UNL A   1      33.654  25.597  22.635  1.00  0.00     0.002 A 
ATOM     25  C   UNL A   1      32.873  23.492  21.778  1.00  0.00     0.002 A 
ATOM     26  C   UNL A   1      33.205  24.823  21.566  1.00  0.00     0.000 A 
ENDBRANCH  11  21
ENDBRANCH   7   8
ENDBRANCH   5   7
ENDBRANCH   3   5
ENDBRANCH   2   3
ENDBRANCH   1   2
BRANCH   1  27
ATOM     27  C   UNL A   1      34.451  30.063  26.881  1.00  0.00     0.275 C 
BRANCH  27  28
ATOM     28  O   UNL A   1      34.436  30.883  28.030  1.00  0.00    -0.458 OA
BRANCH  28  29
ATOM     29  C   UNL A   1      33.606  31.950  27.922  1.00  0.00     0.338 C 
ATOM     30  O   UNL A   1      32.572  32.014  27.291  1.00  0.00    -0.246 OA
BRANCH  29  31
ATOM     31  C   UNL A   1      34.153  33.062  28.742  1.00  0.00     0.060 A 
ATOM     32  C   UNL A   1      35.088  33.788  28.003  1.00  0.00     0.016 A 
ATOM     33  C   UNL A   1      34.402  32.683  30.057  1.00  0.00     0.016 A 
ATOM     34  C   UNL A   1      36.405  33.532  28.286  1.00  0.00     0.010 A 
ATOM     35  C   UNL A   1      35.705  32.391  30.330  1.00  0.00     0.010 A 
ATOM     36  C   UNL A   1      36.675  32.700  29.371  1.00  0.00    -0.014 A 
BRANCH  36  37
ATOM     37  C   UNL A   1      38.032  32.288  29.621  1.00  0.00     0.031 A 
ATOM     38  C   UNL A   1      38.161  30.855  29.298  1.00  0.00     0.074 A 
ATOM     39  C   UNL A   1      39.033  33.144  29.888  1.00  0.00     0.049 A 
ATOM     40  N   UNL A   1      37.990  29.853  30.102  1.00  0.00    -0.248 NA
ATOM     41  C   UNL A   1      38.065  30.499  27.871  1.00  0.00     0.031 C 
ATOM     42  C   UNL A   1      39.037  34.610  29.889  1.00  0.00     0.029 A 
ATOM     43  N   UNL A   1      40.338  32.843  30.089  1.00  0.00    -0.354 N 
ATOM     44  C   UNL A   1      38.046  28.758  29.249  1.00  0.00     0.074 A 
ATOM     45  C   UNL A   1      37.623  29.245  27.971  1.00  0.00     0.031 C 
ATOM     46  C   UNL A   1      40.321  35.044  29.819  1.00  0.00     0.029 A 
ATOM     47  C   UNL A   1      41.214  33.898  29.876  1.00  0.00     0.049 A 
ATOM     48  H   UNL A   1      40.641  31.947  30.363  1.00  0.00     0.167 HD
ATOM     49  C   UNL A   1      38.893  27.720  29.490  1.00  0.00     0.034 A 
ATOM     50  C   UNL A   1      42.550  33.780  29.649  1.00  0.00     0.034 A 
ATOM     51  C   UNL A   1      39.371  27.755  30.852  1.00  0.00     0.049 A 
ATOM     52  C   UNL A   1      42.946  32.410  30.081  1.00  0.00     0.074 A 
ATOM     53  C   UNL A   1      38.774  27.778  32.097  1.00  0.00     0.029 A 
ATOM     54  N   UNL A   1      40.649  28.230  31.036  1.00  0.00    -0.354 N 
ATOM     55  N   UNL A   1      42.879  32.001  31.318  1.00  0.00    -0.248 NA
ATOM     56  C   UNL A   1      42.929  31.358  29.075  1.00  0.00     0.031 C 
ATOM     57  C   UNL A   1      39.562  28.679  32.872  1.00  0.00     0.029 A 
ATOM     58  C   UNL A   1      40.642  29.102  32.093  1.00  0.00     0.049 A 
ATOM     59  H   UNL A   1      41.438  27.984  30.498  1.00  0.00     0.167 HD
ATOM     60  C   UNL A   1      42.350  30.717  31.233  1.00  0.00     0.074 A 
ATOM     61  C   UNL A   1      42.493  30.341  29.826  1.00  0.00     0.031 C 
ATOM     62  C   UNL A   1      41.559  30.215  32.230  1.00  0.00     0.034 A 
BRANCH  49  63
ATOM     63  C   UNL A   1      39.634  26.956  28.403  1.00  0.00     0.023 A 
ATOM     64  C   UNL A   1      39.494  25.556  28.419  1.00  0.00     0.012 A 
ATOM     65  C   UNL A   1      40.632  27.477  27.536  1.00  0.00     0.148 A 
ATOM     66  C   UNL A   1      40.334  24.726  27.667  1.00  0.00     0.002 A 
ATOM     67  C   UNL A   1      41.414  26.658  26.736  1.00  0.00     0.091 A 
ATOM     68  F   UNL A   1      40.956  28.767  27.550  1.00  0.00    -0.205 F 
ATOM     69  C   UNL A   1      41.293  25.274  26.822  1.00  0.00     0.022 A 
BRANCH  67  70
ATOM     70  S   UNL A   1      42.648  27.344  25.617  1.00  0.00     0.127 S 
ATOM     71  O   UNL A   1      41.902  28.435  25.000  1.00  0.00    -0.237 OA
ATOM     72  O   UNL A   1      43.697  27.753  26.549  1.00  0.00    -0.237 OA
ATOM     73  O   UNL A   1      43.034  26.252  24.730  1.00  0.00    -0.744 OA
ENDBRANCH  67  70
ENDBRANCH  49  63
BRANCH  50  74
ATOM     74  C   UNL A   1      43.422  34.598  28.766  1.00  0.00     0.023 A 
ATOM     75  C   UNL A   1      43.710  34.172  27.453  1.00  0.00     0.012 A 
ATOM     76  C   UNL A   1      43.753  35.926  29.116  1.00  0.00     0.148 A 
ATOM     77  C   UNL A   1      44.297  35.042  26.521  1.00  0.00     0.002 A 
ATOM     78  C   UNL A   1      44.347  36.783  28.193  1.00  0.00     0.091 A 
ATOM     79  F   UNL A   1      43.401  36.378  30.327  1.00  0.00    -0.205 F 
ATOM     80  C   UNL A   1      44.612  36.348  26.889  1.00  0.00     0.022 A 
BRANCH  78  81
ATOM     81  S   UNL A   1      44.766  38.486  28.592  1.00  0.00     0.127 S 
ATOM     82  O   UNL A   1      45.744  38.310  29.666  1.00  0.00    -0.237 OA
ATOM     83  O   UNL A   1      45.322  38.967  27.330  1.00  0.00    -0.237 OA
ATOM     84  O   UNL A   1      43.521  39.118  29.011  1.00  0.00    -0.744 OA
ENDBRANCH  78  81
ENDBRANCH  50  74
BRANCH  62  85
ATOM     85  C   UNL A   1      41.458  31.011  33.512  1.00  0.00     0.023 A 
ATOM     86  C   UNL A   1      42.479  31.024  34.487  1.00  0.00     0.012 A 
ATOM     87  C   UNL A   1      40.381  31.899  33.654  1.00  0.00     0.148 A 
ATOM     88  C   UNL A   1      42.416  31.885  35.587  1.00  0.00     0.002 A 
ATOM     89  C   UNL A   1      40.341  32.785  34.725  1.00  0.00     0.091 A 
ATOM     90  F   UNL A   1      39.426  31.886  32.712  1.00  0.00    -0.205 F 
ATOM     91  C   UNL A   1      41.351  32.775  35.700  1.00  0.00     0.022 A 
BRANCH  89  92
ATOM     92  S   UNL A   1      39.063  34.034  34.862  1.00  0.00     0.127 S 
ATOM     93  O   UNL A   1      39.335  34.877  33.700  1.00  0.00    -0.237 OA
ATOM     94  O   UNL A   1      37.838  33.239  34.767  1.00  0.00    -0.237 OA
ATOM     95  O   UNL A   1      39.259  34.673  36.157  1.00  0.00    -0.744 OA
ENDBRANCH  89  92
ENDBRANCH  62  85
ENDBRANCH  36  37
ENDBRANCH  29  31
ENDBRANCH  28  29
ENDBRANCH  27  28
ENDBRANCH   1  27
TORSDOF 19
ENDMDL
