MODEL 1
REMARK VINA RESULT:     -10.7      0.000      0.000
REMARK SMILES CCOc1ccc(-c2csc3ncn([C@H](C)C(=O)OCCOC(=O)c4ccc(-c5c6nc(c(-c7cccc(S(=O)(=O)[O-])c7F)c7ccc([nH]7)c(-c7cccc(S(=O)(=O)[O-])c7F)c7nc(c(-c8cccc(S(=O)(=O)[O-])c8F)c8ccc5[nH]8)C=C7)C=C6)cc4)c(=O)c23)cc1
REMARK SMILES IDX 20 1 19 2 17 3 18 4 15 5 16 6 14 7 8 8 9 9 90 10 10 11 11 12
REMARK SMILES IDX 88 13 12 14 89 15 13 16 7 17 4 18 5 19 92 20 6 21 91 22 3 23
REMARK SMILES IDX 2 24 1 25 21 26 22 27 23 28 24 29 25 30 26 31 87 32 27 33
REMARK SMILES IDX 86 34 28 35 29 36 30 37 80 38 31 39 85 40 79 41 81 42 32 43
REMARK SMILES IDX 84 44 78 45 77 46 33 48 65 49 45 50 64 51 46 52 49 53 63 54
REMARK SMILES IDX 82 55 47 56 48 57 62 59 83 60 50 61 34 62 35 63 43 64 36 65
REMARK SMILES IDX 38 66 44 67 37 68 39 69 40 70 41 71 42 72 66 73 67 74 75 75
REMARK SMILES IDX 68 76 70 77 76 78 69 79 71 80 72 81 73 82 74 83 51 84 52 85
REMARK SMILES IDX 60 86 53 87 55 88 61 89 54 90 56 91 57 92 58 93 59 94
REMARK H PARENT 81 47 49 58
REMARK Flexibility Score: inf
ROOT
ATOM      1  C   UNL A   1      34.366  34.541  29.256  1.00  0.00     0.274 C 
ENDROOT
BRANCH   1   2
ATOM      2  O   UNL A   1      35.417  34.252  30.198  1.00  0.00    -0.461 OA
BRANCH   2   3
ATOM      3  C   UNL A   1      35.000  33.938  31.460  1.00  0.00     0.329 C 
ATOM      4  O   UNL A   1      34.182  33.057  31.707  1.00  0.00    -0.250 OA
BRANCH   3   5
ATOM      5  C   UNL A   1      35.518  34.922  32.512  1.00  0.00     0.198 C 
ATOM      6  C   UNL A   1      34.510  35.672  33.383  1.00  0.00     0.044 C 
BRANCH   5   7
ATOM      7  N   UNL A   1      36.466  34.128  33.285  1.00  0.00    -0.284 N 
ATOM      8  C   UNL A   1      40.043  32.946  33.473  1.00  0.00     0.007 A 
ATOM      9  C   UNL A   1      40.451  32.001  34.398  1.00  0.00     0.076 A 
ATOM     10  C   UNL A   1      38.649  33.237  33.631  1.00  0.00     0.085 A 
ATOM     11  S   UNL A   1      39.177  31.457  35.398  1.00  0.00    -0.123 S 
ATOM     12  C   UNL A   1      38.057  32.473  34.614  1.00  0.00     0.131 A 
ATOM     13  C   UNL A   1      37.805  34.159  32.884  1.00  0.00     0.263 A 
ATOM     14  N   UNL A   1      36.746  32.462  34.963  1.00  0.00    -0.227 NA
ATOM     15  O   UNL A   1      38.228  34.892  32.014  1.00  0.00    -0.268 OA
ATOM     16  C   UNL A   1      36.014  33.274  34.273  1.00  0.00     0.204 A 
BRANCH   8  17
ATOM     17  C   UNL A   1      40.979  33.465  32.484  1.00  0.00    -0.016 A 
ATOM     18  C   UNL A   1      42.801  34.499  30.622  1.00  0.00     0.119 A 
ATOM     19  C   UNL A   1      42.009  33.403  30.285  1.00  0.00     0.047 A 
ATOM     20  C   UNL A   1      42.668  35.095  31.873  1.00  0.00     0.047 A 
ATOM     21  C   UNL A   1      41.098  32.887  31.214  1.00  0.00     0.012 A 
ATOM     22  C   UNL A   1      41.779  34.568  32.808  1.00  0.00     0.012 A 
BRANCH  18  23
ATOM     23  O   UNL A   1      43.603  35.042  29.658  1.00  0.00    -0.494 OA
BRANCH  23  24
ATOM     24  C   UNL A   1      43.270  36.399  29.334  1.00  0.00     0.226 C 
ATOM     25  C   UNL A   1      42.112  36.478  28.351  1.00  0.00     0.049 C 
ENDBRANCH  23  24
ENDBRANCH  18  23
ENDBRANCH   8  17
ENDBRANCH   5   7
ENDBRANCH   3   5
ENDBRANCH   2   3
ENDBRANCH   1   2
BRANCH   1  26
ATOM     26  C   UNL A   1      34.712  34.007  27.873  1.00  0.00     0.275 C 
BRANCH  26  27
ATOM     27  O   UNL A   1      35.858  33.155  27.906  1.00  0.00    -0.458 OA
BRANCH  27  28
ATOM     28  C   UNL A   1      35.562  31.840  27.815  1.00  0.00     0.338 C 
ATOM     29  O   UNL A   1      34.531  31.349  27.386  1.00  0.00    -0.246 OA
BRANCH  28  30
ATOM     30  C   UNL A   1      36.546  31.035  28.522  1.00  0.00     0.060 A 
ATOM     31  C   UNL A   1      37.482  31.723  29.304  1.00  0.00     0.016 A 
ATOM     32  C   UNL A   1      36.725  29.707  28.123  1.00  0.00     0.016 A 
ATOM     33  C   UNL A   1      38.689  31.116  29.559  1.00  0.00     0.010 A 
ATOM     34  C   UNL A   1      37.937  29.112  28.360  1.00  0.00     0.010 A 
ATOM     35  C   UNL A   1      38.921  29.848  29.020  1.00  0.00    -0.014 A 
BRANCH  35  36
ATOM     36  C   UNL A   1      40.197  29.225  29.282  1.00  0.00     0.031 A 
ATOM     37  C   UNL A   1      40.412  28.942  30.717  1.00  0.00     0.074 A 
ATOM     38  C   UNL A   1      41.005  28.813  28.289  1.00  0.00     0.049 A 
ATOM     39  N   UNL A   1      41.325  29.430  31.487  1.00  0.00    -0.248 NA
ATOM     40  C   UNL A   1      39.384  28.158  31.422  1.00  0.00     0.031 C 
ATOM     41  C   UNL A   1      40.713  28.792  26.854  1.00  0.00     0.029 A 
ATOM     42  N   UNL A   1      42.191  28.155  28.379  1.00  0.00    -0.354 N 
ATOM     43  C   UNL A   1      41.129  28.809  32.717  1.00  0.00     0.074 A 
ATOM     44  C   UNL A   1      39.813  28.233  32.680  1.00  0.00     0.031 C 
ATOM     45  C   UNL A   1      41.553  27.921  26.253  1.00  0.00     0.029 A 
ATOM     46  C   UNL A   1      42.495  27.420  27.239  1.00  0.00     0.049 A 
ATOM     47  H   UNL A   1      42.775  28.195  29.170  1.00  0.00     0.167 HD
ATOM     48  C   UNL A   1      42.175  28.563  33.548  1.00  0.00     0.034 A 
ATOM     49  C   UNL A   1      43.375  26.391  27.162  1.00  0.00     0.034 A 
ATOM     50  C   UNL A   1      43.321  29.370  33.212  1.00  0.00     0.049 A 
ATOM     51  C   UNL A   1      44.282  26.489  28.332  1.00  0.00     0.074 A 
ATOM     52  C   UNL A   1      43.544  30.726  33.061  1.00  0.00     0.029 A 
ATOM     53  N   UNL A   1      44.375  28.743  32.592  1.00  0.00    -0.354 N 
ATOM     54  N   UNL A   1      45.148  27.449  28.495  1.00  0.00    -0.248 NA
ATOM     55  C   UNL A   1      43.927  25.759  29.540  1.00  0.00     0.031 C 
ATOM     56  C   UNL A   1      44.446  30.829  31.962  1.00  0.00     0.029 A 
ATOM     57  C   UNL A   1      44.766  29.536  31.547  1.00  0.00     0.049 A 
ATOM     58  H   UNL A   1      44.774  27.881  32.852  1.00  0.00     0.167 HD
ATOM     59  C   UNL A   1      45.083  27.748  29.850  1.00  0.00     0.074 A 
ATOM     60  C   UNL A   1      44.413  26.600  30.458  1.00  0.00     0.031 C 
ATOM     61  C   UNL A   1      45.297  29.019  30.304  1.00  0.00     0.034 A 
BRANCH  48  62
ATOM     62  C   UNL A   1      42.301  27.319  34.399  1.00  0.00     0.023 A 
ATOM     63  C   UNL A   1      41.886  27.422  35.744  1.00  0.00     0.012 A 
ATOM     64  C   UNL A   1      43.052  26.173  34.046  1.00  0.00     0.148 A 
ATOM     65  C   UNL A   1      42.259  26.472  36.699  1.00  0.00     0.002 A 
ATOM     66  C   UNL A   1      43.345  25.187  34.980  1.00  0.00     0.091 A 
ATOM     67  F   UNL A   1      43.619  26.079  32.841  1.00  0.00    -0.205 F 
ATOM     68  C   UNL A   1      42.983  25.350  36.317  1.00  0.00     0.022 A 
BRANCH  66  69
ATOM     69  S   UNL A   1      44.231  23.693  34.517  1.00  0.00     0.127 S 
ATOM     70  O   UNL A   1      45.510  24.239  34.074  1.00  0.00    -0.237 OA
ATOM     71  O   UNL A   1      44.270  22.965  35.785  1.00  0.00    -0.237 OA
ATOM     72  O   UNL A   1      43.413  23.058  33.492  1.00  0.00    -0.744 OA
ENDBRANCH  66  69
ENDBRANCH  48  62
BRANCH  49  73
ATOM     73  C   UNL A   1      43.327  25.184  26.302  1.00  0.00     0.023 A 
ATOM     74  C   UNL A   1      44.278  25.027  25.274  1.00  0.00     0.012 A 
ATOM     75  C   UNL A   1      42.524  24.071  26.638  1.00  0.00     0.148 A 
ATOM     76  C   UNL A   1      44.441  23.798  24.624  1.00  0.00     0.002 A 
ATOM     77  C   UNL A   1      42.676  22.857  25.975  1.00  0.00     0.091 A 
ATOM     78  F   UNL A   1      41.680  24.164  27.673  1.00  0.00    -0.205 F 
ATOM     79  C   UNL A   1      43.643  22.712  24.974  1.00  0.00     0.022 A 
BRANCH  77  80
ATOM     80  S   UNL A   1      41.675  21.420  26.387  1.00  0.00     0.127 S 
ATOM     81  O   UNL A   1      40.329  21.873  26.036  1.00  0.00    -0.237 OA
ATOM     82  O   UNL A   1      42.230  20.401  25.502  1.00  0.00    -0.237 OA
ATOM     83  O   UNL A   1      41.874  21.197  27.814  1.00  0.00    -0.744 OA
ENDBRANCH  77  80
ENDBRANCH  49  73
BRANCH  61  84
ATOM     84  C   UNL A   1      45.867  30.038  29.347  1.00  0.00     0.023 A 
ATOM     85  C   UNL A   1      47.255  30.194  29.149  1.00  0.00     0.012 A 
ATOM     86  C   UNL A   1      44.983  30.731  28.501  1.00  0.00     0.148 A 
ATOM     87  C   UNL A   1      47.749  31.046  28.159  1.00  0.00     0.002 A 
ATOM     88  C   UNL A   1      45.478  31.539  27.484  1.00  0.00     0.091 A 
ATOM     89  F   UNL A   1      43.664  30.572  28.691  1.00  0.00    -0.205 F 
ATOM     90  C   UNL A   1      46.861  31.708  27.317  1.00  0.00     0.022 A 
BRANCH  88  91
ATOM     91  S   UNL A   1      44.384  32.310  26.288  1.00  0.00     0.127 S 
ATOM     92  O   UNL A   1      43.476  31.215  25.954  1.00  0.00    -0.237 OA
ATOM     93  O   UNL A   1      43.778  33.394  27.063  1.00  0.00    -0.237 OA
ATOM     94  O   UNL A   1      45.245  32.769  25.204  1.00  0.00    -0.744 OA
ENDBRANCH  88  91
ENDBRANCH  61  84
ENDBRANCH  35  36
ENDBRANCH  28  30
ENDBRANCH  27  28
ENDBRANCH  26  27
ENDBRANCH   1  26
TORSDOF 18
ENDMDL
MODEL 2
REMARK VINA RESULT:     -10.4      2.803     10.890
REMARK SMILES CCOc1ccc(-c2csc3ncn([C@H](C)C(=O)OCCOC(=O)c4ccc(-c5c6nc(c(-c7cccc(S(=O)(=O)[O-])c7F)c7ccc([nH]7)c(-c7cccc(S(=O)(=O)[O-])c7F)c7nc(c(-c8cccc(S(=O)(=O)[O-])c8F)c8ccc5[nH]8)C=C7)C=C6)cc4)c(=O)c23)cc1
REMARK SMILES IDX 20 1 19 2 17 3 18 4 15 5 16 6 14 7 8 8 9 9 90 10 10 11 11 12
REMARK SMILES IDX 88 13 12 14 89 15 13 16 7 17 4 18 5 19 92 20 6 21 91 22 3 23
REMARK SMILES IDX 2 24 1 25 21 26 22 27 23 28 24 29 25 30 26 31 87 32 27 33
REMARK SMILES IDX 86 34 28 35 29 36 30 37 80 38 31 39 85 40 79 41 81 42 32 43
REMARK SMILES IDX 84 44 78 45 77 46 33 48 65 49 45 50 64 51 46 52 49 53 63 54
REMARK SMILES IDX 82 55 47 56 48 57 62 59 83 60 50 61 34 62 35 63 43 64 36 65
REMARK SMILES IDX 38 66 44 67 37 68 39 69 40 70 41 71 42 72 66 73 67 74 75 75
REMARK SMILES IDX 68 76 70 77 76 78 69 79 71 80 72 81 73 82 74 83 51 84 52 85
REMARK SMILES IDX 60 86 53 87 55 88 61 89 54 90 56 91 57 92 58 93 59 94
REMARK H PARENT 81 47 49 58
REMARK Flexibility Score: inf
ROOT
ATOM      1  C   UNL A   1      42.606  20.904  26.863  1.00  0.00     0.274 C 
ENDROOT
BRANCH   1   2
ATOM      2  O   UNL A   1      42.522  21.336  25.492  1.00  0.00    -0.461 OA
BRANCH   2   3
ATOM      3  C   UNL A   1      43.555  22.118  25.062  1.00  0.00     0.329 C 
ATOM      4  O   UNL A   1      43.420  23.057  24.284  1.00  0.00    -0.250 OA
BRANCH   3   5
ATOM      5  C   UNL A   1      44.920  21.583  25.505  1.00  0.00     0.198 C 
ATOM      6  C   UNL A   1      45.500  20.359  24.797  1.00  0.00     0.044 C 
BRANCH   5   7
ATOM      7  N   UNL A   1      45.787  22.754  25.430  1.00  0.00    -0.284 N 
ATOM      8  C   UNL A   1      47.024  25.782  27.307  1.00  0.00     0.007 A 
ATOM      9  C   UNL A   1      47.789  26.759  26.694  1.00  0.00     0.076 A 
ATOM     10  C   UNL A   1      46.709  24.733  26.384  1.00  0.00     0.085 A 
ATOM     11  S   UNL A   1      48.083  26.432  25.043  1.00  0.00    -0.123 S 
ATOM     12  C   UNL A   1      47.194  24.981  25.117  1.00  0.00     0.131 A 
ATOM     13  C   UNL A   1      45.936  23.517  26.591  1.00  0.00     0.263 A 
ATOM     14  N   UNL A   1      47.013  24.220  24.009  1.00  0.00    -0.227 NA
ATOM     15  O   UNL A   1      45.483  23.193  27.669  1.00  0.00    -0.268 OA
ATOM     16  C   UNL A   1      46.306  23.157  24.213  1.00  0.00     0.204 A 
BRANCH   8  17
ATOM     17  C   UNL A   1      46.607  25.933  28.696  1.00  0.00    -0.016 A 
ATOM     18  C   UNL A   1      45.752  26.235  31.347  1.00  0.00     0.119 A 
ATOM     19  C   UNL A   1      47.053  25.815  31.081  1.00  0.00     0.047 A 
ATOM     20  C   UNL A   1      44.887  26.530  30.298  1.00  0.00     0.047 A 
ATOM     21  C   UNL A   1      47.481  25.666  29.757  1.00  0.00     0.012 A 
ATOM     22  C   UNL A   1      45.303  26.359  28.979  1.00  0.00     0.012 A 
BRANCH  18  23
ATOM     23  O   UNL A   1      45.399  26.471  32.647  1.00  0.00    -0.494 OA
BRANCH  23  24
ATOM     24  C   UNL A   1      46.438  27.090  33.418  1.00  0.00     0.226 C 
ATOM     25  C   UNL A   1      45.877  27.908  34.570  1.00  0.00     0.049 C 
ENDBRANCH  23  24
ENDBRANCH  18  23
ENDBRANCH   8  17
ENDBRANCH   5   7
ENDBRANCH   3   5
ENDBRANCH   2   3
ENDBRANCH   1   2
BRANCH   1  26
ATOM     26  C   UNL A   1      41.221  20.808  27.490  1.00  0.00     0.275 C 
BRANCH  26  27
ATOM     27  O   UNL A   1      40.827  22.040  28.095  1.00  0.00    -0.458 OA
BRANCH  27  28
ATOM     28  C   UNL A   1      40.034  22.803  27.312  1.00  0.00     0.338 C 
ATOM     29  O   UNL A   1      39.251  22.413  26.461  1.00  0.00    -0.246 OA
BRANCH  28  30
ATOM     30  C   UNL A   1      40.387  24.209  27.428  1.00  0.00     0.060 A 
ATOM     31  C   UNL A   1      41.630  24.505  28.001  1.00  0.00     0.016 A 
ATOM     32  C   UNL A   1      39.369  25.160  27.299  1.00  0.00     0.016 A 
ATOM     33  C   UNL A   1      41.798  25.733  28.594  1.00  0.00     0.010 A 
ATOM     34  C   UNL A   1      39.532  26.377  27.909  1.00  0.00     0.010 A 
ATOM     35  C   UNL A   1      40.719  26.621  28.599  1.00  0.00    -0.014 A 
BRANCH  35  36
ATOM     36  C   UNL A   1      40.901  27.904  29.237  1.00  0.00     0.031 A 
ATOM     37  C   UNL A   1      41.897  28.750  28.545  1.00  0.00     0.074 A 
ATOM     38  C   UNL A   1      40.116  28.313  30.248  1.00  0.00     0.049 A 
ATOM     39  N   UNL A   1      43.018  29.187  29.013  1.00  0.00    -0.248 NA
ATOM     40  C   UNL A   1      41.707  28.994  27.106  1.00  0.00     0.031 C 
ATOM     41  C   UNL A   1      38.922  27.647  30.776  1.00  0.00     0.029 A 
ATOM     42  N   UNL A   1      40.121  29.509  30.896  1.00  0.00    -0.354 N 
ATOM     43  C   UNL A   1      43.549  29.975  27.996  1.00  0.00     0.074 A 
ATOM     44  C   UNL A   1      42.832  29.636  26.798  1.00  0.00     0.031 C 
ATOM     45  C   UNL A   1      38.181  28.554  31.449  1.00  0.00     0.029 A 
ATOM     46  C   UNL A   1      38.900  29.816  31.485  1.00  0.00     0.049 A 
ATOM     47  H   UNL A   1      40.910  30.097  30.943  1.00  0.00     0.167 HD
ATOM     48  C   UNL A   1      44.326  31.052  28.282  1.00  0.00     0.034 A 
ATOM     49  C   UNL A   1      38.480  31.051  31.855  1.00  0.00     0.034 A 
ATOM     50  C   UNL A   1      44.844  30.989  29.625  1.00  0.00     0.049 A 
ATOM     51  C   UNL A   1      39.680  31.916  31.972  1.00  0.00     0.074 A 
ATOM     52  C   UNL A   1      45.576  30.062  30.343  1.00  0.00     0.029 A 
ATOM     53  N   UNL A   1      44.287  31.832  30.557  1.00  0.00    -0.354 N 
ATOM     54  N   UNL A   1      40.595  31.761  32.886  1.00  0.00    -0.248 NA
ATOM     55  C   UNL A   1      40.088  32.686  30.807  1.00  0.00     0.031 C 
ATOM     56  C   UNL A   1      45.034  30.107  31.661  1.00  0.00     0.029 A 
ATOM     57  C   UNL A   1      44.050  31.096  31.686  1.00  0.00     0.049 A 
ATOM     58  H   UNL A   1      44.093  32.790  30.434  1.00  0.00     0.167 HD
ATOM     59  C   UNL A   1      41.793  31.988  32.219  1.00  0.00     0.074 A 
ATOM     60  C   UNL A   1      41.413  32.672  30.984  1.00  0.00     0.031 C 
ATOM     61  C   UNL A   1      42.938  31.335  32.580  1.00  0.00     0.034 A 
BRANCH  48  62
ATOM     62  C   UNL A   1      44.291  32.347  27.503  1.00  0.00     0.023 A 
ATOM     63  C   UNL A   1      45.279  32.522  26.511  1.00  0.00     0.012 A 
ATOM     64  C   UNL A   1      43.547  33.492  27.874  1.00  0.00     0.148 A 
ATOM     65  C   UNL A   1      45.560  33.781  25.971  1.00  0.00     0.002 A 
ATOM     66  C   UNL A   1      43.769  34.723  27.271  1.00  0.00     0.091 A 
ATOM     67  F   UNL A   1      42.710  33.449  28.914  1.00  0.00    -0.205 F 
ATOM     68  C   UNL A   1      44.801  34.882  26.345  1.00  0.00     0.022 A 
BRANCH  66  69
ATOM     69  S   UNL A   1      42.772  36.161  27.684  1.00  0.00     0.127 S 
ATOM     70  O   UNL A   1      43.116  36.360  29.089  1.00  0.00    -0.237 OA
ATOM     71  O   UNL A   1      43.306  37.168  26.765  1.00  0.00    -0.237 OA
ATOM     72  O   UNL A   1      41.395  35.774  27.406  1.00  0.00    -0.744 OA
ENDBRANCH  66  69
ENDBRANCH  48  62
BRANCH  49  73
ATOM     73  C   UNL A   1      37.106  31.607  31.861  1.00  0.00     0.023 A 
ATOM     74  C   UNL A   1      36.498  31.942  33.088  1.00  0.00     0.012 A 
ATOM     75  C   UNL A   1      36.483  32.048  30.671  1.00  0.00     0.148 A 
ATOM     76  C   UNL A   1      35.329  32.711  33.128  1.00  0.00     0.002 A 
ATOM     77  C   UNL A   1      35.310  32.794  30.715  1.00  0.00     0.091 A 
ATOM     78  F   UNL A   1      37.089  31.826  29.497  1.00  0.00    -0.205 F 
ATOM     79  C   UNL A   1      34.735  33.139  31.943  1.00  0.00     0.022 A 
BRANCH  77  80
ATOM     80  S   UNL A   1      34.501  33.378  29.218  1.00  0.00     0.127 S 
ATOM     81  O   UNL A   1      35.562  34.158  28.580  1.00  0.00    -0.237 OA
ATOM     82  O   UNL A   1      34.171  32.126  28.544  1.00  0.00    -0.237 OA
ATOM     83  O   UNL A   1      33.367  34.175  29.669  1.00  0.00    -0.744 OA
ENDBRANCH  77  80
ENDBRANCH  49  73
BRANCH  61  84
ATOM     84  C   UNL A   1      42.947  30.565  33.878  1.00  0.00     0.023 A 
ATOM     85  C   UNL A   1      43.201  31.183  35.120  1.00  0.00     0.012 A 
ATOM     86  C   UNL A   1      42.519  29.226  33.867  1.00  0.00     0.148 A 
ATOM     87  C   UNL A   1      43.068  30.475  36.317  1.00  0.00     0.002 A 
ATOM     88  C   UNL A   1      42.339  28.539  35.061  1.00  0.00     0.091 A 
ATOM     89  F   UNL A   1      42.272  28.647  32.681  1.00  0.00    -0.205 F 
ATOM     90  C   UNL A   1      42.623  29.157  36.289  1.00  0.00     0.022 A 
BRANCH  88  91
ATOM     91  S   UNL A   1      41.643  26.886  35.092  1.00  0.00     0.127 S 
ATOM     92  O   UNL A   1      40.526  27.006  34.159  1.00  0.00    -0.237 OA
ATOM     93  O   UNL A   1      42.755  26.063  34.614  1.00  0.00    -0.237 OA
ATOM     94  O   UNL A   1      41.279  26.635  36.482  1.00  0.00    -0.744 OA
ENDBRANCH  88  91
ENDBRANCH  61  84
ENDBRANCH  35  36
ENDBRANCH  28  30
ENDBRANCH  27  28
ENDBRANCH  26  27
ENDBRANCH   1  26
TORSDOF 18
ENDMDL
MODEL 3
REMARK VINA RESULT:     -10.1      1.730      2.058
REMARK SMILES CCOc1ccc(-c2csc3ncn([C@H](C)C(=O)OCCOC(=O)c4ccc(-c5c6nc(c(-c7cccc(S(=O)(=O)[O-])c7F)c7ccc([nH]7)c(-c7cccc(S(=O)(=O)[O-])c7F)c7nc(c(-c8cccc(S(=O)(=O)[O-])c8F)c8ccc5[nH]8)C=C7)C=C6)cc4)c(=O)c23)cc1
REMARK SMILES IDX 20 1 19 2 17 3 18 4 15 5 16 6 14 7 8 8 9 9 90 10 10 11 11 12
REMARK SMILES IDX 88 13 12 14 89 15 13 16 7 17 4 18 5 19 92 20 6 21 91 22 3 23
REMARK SMILES IDX 2 24 1 25 21 26 22 27 23 28 24 29 25 30 26 31 87 32 27 33
REMARK SMILES IDX 86 34 28 35 29 36 30 37 80 38 31 39 85 40 79 41 81 42 32 43
REMARK SMILES IDX 84 44 78 45 77 46 33 48 65 49 45 50 64 51 46 52 49 53 63 54
REMARK SMILES IDX 82 55 47 56 48 57 62 59 83 60 50 61 34 62 35 63 43 64 36 65
REMARK SMILES IDX 38 66 44 67 37 68 39 69 40 70 41 71 42 72 66 73 67 74 75 75
REMARK SMILES IDX 68 76 70 77 76 78 69 79 71 80 72 81 73 82 74 83 51 84 52 85
REMARK SMILES IDX 60 86 53 87 55 88 61 89 54 90 56 91 57 92 58 93 59 94
REMARK H PARENT 81 47 49 58
REMARK Flexibility Score: inf
ROOT
ATOM      1  C   UNL A   1      33.836  34.280  29.381  1.00  0.00     0.274 C 
ENDROOT
BRANCH   1   2
ATOM      2  O   UNL A   1      34.996  34.480  30.211  1.00  0.00    -0.461 OA
BRANCH   2   3
ATOM      3  C   UNL A   1      34.869  34.058  31.502  1.00  0.00     0.329 C 
ATOM      4  O   UNL A   1      34.273  33.036  31.830  1.00  0.00    -0.250 OA
BRANCH   3   5
ATOM      5  C   UNL A   1      35.387  35.088  32.511  1.00  0.00     0.198 C 
ATOM      6  C   UNL A   1      34.381  35.852  33.370  1.00  0.00     0.044 C 
BRANCH   5   7
ATOM      7  N   UNL A   1      36.359  34.337  33.297  1.00  0.00    -0.284 N 
ATOM      8  C   UNL A   1      39.942  33.167  33.443  1.00  0.00     0.007 A 
ATOM      9  C   UNL A   1      40.379  32.273  34.405  1.00  0.00     0.076 A 
ATOM     10  C   UNL A   1      38.553  33.466  33.626  1.00  0.00     0.085 A 
ATOM     11  S   UNL A   1      39.136  31.784  35.470  1.00  0.00    -0.123 S 
ATOM     12  C   UNL A   1      37.992  32.756  34.666  1.00  0.00     0.131 A 
ATOM     13  C   UNL A   1      37.686  34.346  32.856  1.00  0.00     0.263 A 
ATOM     14  N   UNL A   1      36.692  32.763  35.054  1.00  0.00    -0.227 NA
ATOM     15  O   UNL A   1      38.082  35.030  31.936  1.00  0.00    -0.268 OA
ATOM     16  C   UNL A   1      35.938  33.537  34.343  1.00  0.00     0.204 A 
BRANCH   8  17
ATOM     17  C   UNL A   1      40.848  33.631  32.400  1.00  0.00    -0.016 A 
ATOM     18  C   UNL A   1      42.559  34.495  30.356  1.00  0.00     0.119 A 
ATOM     19  C   UNL A   1      42.696  35.013  31.642  1.00  0.00     0.047 A 
ATOM     20  C   UNL A   1      41.591  33.530  30.094  1.00  0.00     0.047 A 
ATOM     21  C   UNL A   1      41.843  34.581  32.663  1.00  0.00     0.012 A 
ATOM     22  C   UNL A   1      40.724  33.117  31.104  1.00  0.00     0.012 A 
BRANCH  18  23
ATOM     23  O   UNL A   1      43.474  34.859  29.408  1.00  0.00    -0.494 OA
BRANCH  23  24
ATOM     24  C   UNL A   1      42.904  35.051  28.106  1.00  0.00     0.226 C 
ATOM     25  C   UNL A   1      43.554  36.210  27.368  1.00  0.00     0.049 C 
ENDBRANCH  23  24
ENDBRANCH  18  23
ENDBRANCH   8  17
ENDBRANCH   5   7
ENDBRANCH   3   5
ENDBRANCH   2   3
ENDBRANCH   1   2
BRANCH   1  26
ATOM     26  C   UNL A   1      34.240  33.938  27.953  1.00  0.00     0.275 C 
BRANCH  26  27
ATOM     27  O   UNL A   1      35.397  33.101  27.916  1.00  0.00    -0.458 OA
BRANCH  27  28
ATOM     28  C   UNL A   1      35.119  31.782  28.005  1.00  0.00     0.338 C 
ATOM     29  O   UNL A   1      34.055  31.240  27.755  1.00  0.00    -0.246 OA
BRANCH  28  30
ATOM     30  C   UNL A   1      36.192  31.068  28.677  1.00  0.00     0.060 A 
ATOM     31  C   UNL A   1      37.204  31.845  29.254  1.00  0.00     0.016 A 
ATOM     32  C   UNL A   1      36.342  29.702  28.419  1.00  0.00     0.016 A 
ATOM     33  C   UNL A   1      38.442  31.274  29.432  1.00  0.00     0.010 A 
ATOM     34  C   UNL A   1      37.583  29.141  28.577  1.00  0.00     0.010 A 
ATOM     35  C   UNL A   1      38.627  29.950  29.022  1.00  0.00    -0.014 A 
BRANCH  35  36
ATOM     36  C   UNL A   1      39.935  29.365  29.199  1.00  0.00     0.031 A 
ATOM     37  C   UNL A   1      40.331  29.269  30.620  1.00  0.00     0.074 A 
ATOM     38  C   UNL A   1      40.618  28.826  28.174  1.00  0.00     0.049 A 
ATOM     39  N   UNL A   1      41.327  29.851  31.200  1.00  0.00    -0.248 NA
ATOM     40  C   UNL A   1      39.411  28.585  31.543  1.00  0.00     0.031 C 
ATOM     41  C   UNL A   1      40.150  28.620  26.801  1.00  0.00     0.029 A 
ATOM     42  N   UNL A   1      41.815  28.183  28.197  1.00  0.00    -0.354 N 
ATOM     43  C   UNL A   1      41.295  29.395  32.514  1.00  0.00     0.074 A 
ATOM     44  C   UNL A   1      39.993  28.821  32.717  1.00  0.00     0.031 C 
ATOM     45  C   UNL A   1      40.921  27.677  26.216  1.00  0.00     0.029 A 
ATOM     46  C   UNL A   1      41.986  27.306  27.132  1.00  0.00     0.049 A 
ATOM     47  H   UNL A   1      42.493  28.323  28.898  1.00  0.00     0.167 HD
ATOM     48  C   UNL A   1      42.440  29.256  33.232  1.00  0.00     0.034 A 
ATOM     49  C   UNL A   1      42.864  26.274  27.078  1.00  0.00     0.034 A 
ATOM     50  C   UNL A   1      43.522  30.011  32.653  1.00  0.00     0.049 A 
ATOM     51  C   UNL A   1      43.908  26.521  28.103  1.00  0.00     0.074 A 
ATOM     52  C   UNL A   1      43.706  31.335  32.303  1.00  0.00     0.029 A 
ATOM     53  N   UNL A   1      44.500  29.307  31.992  1.00  0.00    -0.354 N 
ATOM     54  N   UNL A   1      44.774  27.492  28.031  1.00  0.00    -0.248 NA
ATOM     55  C   UNL A   1      43.718  25.954  29.429  1.00  0.00     0.031 C 
ATOM     56  C   UNL A   1      44.462  31.294  31.095  1.00  0.00     0.029 A 
ATOM     57  C   UNL A   1      44.746  29.957  30.813  1.00  0.00     0.049 A 
ATOM     58  H   UNL A   1      44.941  28.485  32.308  1.00  0.00     0.167 HD
ATOM     59  C   UNL A   1      44.874  27.964  29.333  1.00  0.00     0.074 A 
ATOM     60  C   UNL A   1      44.303  26.905  30.163  1.00  0.00     0.031 C 
ATOM     61  C   UNL A   1      45.125  29.283  29.590  1.00  0.00     0.034 A 
BRANCH  48  62
ATOM     62  C   UNL A   1      42.688  28.133  34.213  1.00  0.00     0.023 A 
ATOM     63  C   UNL A   1      41.839  27.009  34.125  1.00  0.00     0.012 A 
ATOM     64  C   UNL A   1      43.494  28.237  35.372  1.00  0.00     0.148 A 
ATOM     65  C   UNL A   1      41.745  26.079  35.165  1.00  0.00     0.002 A 
ATOM     66  C   UNL A   1      43.463  27.263  36.362  1.00  0.00     0.091 A 
ATOM     67  F   UNL A   1      44.201  29.345  35.608  1.00  0.00    -0.205 F 
ATOM     68  C   UNL A   1      42.562  26.201  36.281  1.00  0.00     0.022 A 
BRANCH  66  69
ATOM     69  S   UNL A   1      44.542  27.353  37.797  1.00  0.00     0.127 S 
ATOM     70  O   UNL A   1      43.888  26.422  38.711  1.00  0.00    -0.237 OA
ATOM     71  O   UNL A   1      45.814  26.888  37.242  1.00  0.00    -0.237 OA
ATOM     72  O   UNL A   1      44.544  28.754  38.196  1.00  0.00    -0.744 OA
ENDBRANCH  66  69
ENDBRANCH  48  62
BRANCH  49  73
ATOM     73  C   UNL A   1      42.727  24.966  26.394  1.00  0.00     0.023 A 
ATOM     74  C   UNL A   1      43.723  24.549  25.489  1.00  0.00     0.012 A 
ATOM     75  C   UNL A   1      41.766  24.015  26.806  1.00  0.00     0.148 A 
ATOM     76  C   UNL A   1      43.776  23.226  25.033  1.00  0.00     0.002 A 
ATOM     77  C   UNL A   1      41.810  22.707  26.334  1.00  0.00     0.091 A 
ATOM     78  F   UNL A   1      40.866  24.359  27.736  1.00  0.00    -0.205 F 
ATOM     79  C   UNL A   1      42.823  22.304  25.456  1.00  0.00     0.022 A 
BRANCH  77  80
ATOM     80  S   UNL A   1      40.607  21.473  26.848  1.00  0.00     0.127 S 
ATOM     81  O   UNL A   1      39.347  22.067  26.402  1.00  0.00    -0.237 OA
ATOM     82  O   UNL A   1      41.034  20.300  26.091  1.00  0.00    -0.237 OA
ATOM     83  O   UNL A   1      40.738  21.374  28.297  1.00  0.00    -0.744 OA
ENDBRANCH  77  80
ENDBRANCH  49  73
BRANCH  61  84
ATOM     84  C   UNL A   1      45.556  30.168  28.446  1.00  0.00     0.023 A 
ATOM     85  C   UNL A   1      44.633  30.899  27.668  1.00  0.00     0.012 A 
ATOM     86  C   UNL A   1      46.929  30.405  28.261  1.00  0.00     0.148 A 
ATOM     87  C   UNL A   1      45.068  31.814  26.707  1.00  0.00     0.002 A 
ATOM     88  C   UNL A   1      47.358  31.353  27.340  1.00  0.00     0.091 A 
ATOM     89  F   UNL A   1      47.801  29.711  29.010  1.00  0.00    -0.205 F 
ATOM     90  C   UNL A   1      46.430  32.052  26.552  1.00  0.00     0.022 A 
BRANCH  88  91
ATOM     91  S   UNL A   1      49.091  31.795  27.192  1.00  0.00     0.127 S 
ATOM     92  O   UNL A   1      49.675  30.566  26.662  1.00  0.00    -0.237 OA
ATOM     93  O   UNL A   1      49.055  32.913  26.248  1.00  0.00    -0.237 OA
ATOM     94  O   UNL A   1      49.520  32.169  28.535  1.00  0.00    -0.744 OA
ENDBRANCH  88  91
ENDBRANCH  61  84
ENDBRANCH  35  36
ENDBRANCH  28  30
ENDBRANCH  27  28
ENDBRANCH  26  27
ENDBRANCH   1  26
TORSDOF 18
ENDMDL
