MODEL 1
REMARK VINA RESULT:     -11.5      0.000      0.000
REMARK SMILES C[C@@H]1CN(C(=O)C[NH+]2CCC(CC(=O)OCCOC(=O)c3ccc(-c4c5nc(c(-c6cccc(S(=O)(=O)[O-])c6F)c6ccc([nH]6)c(-c6cccc(S(=O)(=O)[O-])c6F)c6nc(c(-c7cccc(S(=O)(=O)[O-])c7F)c7ccc4[nH]7)C=C6)C=C5)cc3)CC2)C[C@@H](C)O1
REMARK SMILES IDX 16 1 15 2 13 3 14 4 12 5 11 6 8 7 9 8 85 9 10 11 84 12 7 13
REMARK SMILES IDX 5 14 1 15 2 16 3 17 89 18 4 19 87 20 86 21 88 22 6 23 17 24
REMARK SMILES IDX 18 25 19 26 20 27 21 28 22 29 83 30 23 31 82 32 24 33 25 34
REMARK SMILES IDX 26 35 76 36 27 37 81 38 75 39 77 40 28 41 80 42 74 43 73 44
REMARK SMILES IDX 29 46 61 47 41 48 60 49 42 50 45 51 59 52 78 53 43 54 44 55
REMARK SMILES IDX 58 57 79 58 46 59 30 60 31 61 39 62 32 63 34 64 40 65 33 66
REMARK SMILES IDX 35 67 36 68 37 69 38 70 62 71 63 72 71 73 64 74 66 75 72 76
REMARK SMILES IDX 65 77 67 78 68 79 69 80 70 81 47 82 48 83 56 84 49 85 51 86
REMARK SMILES IDX 57 87 50 88 52 89 53 90 54 91 55 92
REMARK H PARENT 8 10 77 45 45 56
REMARK Flexibility Score: inf
ROOT
ATOM      1  C   UNL A   1      35.683  21.068  25.006  1.00  0.00     0.274 C 
ENDROOT
BRANCH   1   2
ATOM      2  O   UNL A   1      34.764  19.984  24.794  1.00  0.00    -0.462 OA
BRANCH   2   3
ATOM      3  C   UNL A   1      33.452  20.320  24.824  1.00  0.00     0.306 C 
ATOM      4  O   UNL A   1      32.517  19.541  24.700  1.00  0.00    -0.252 OA
BRANCH   3   5
ATOM      5  C   UNL A   1      33.251  21.802  24.992  1.00  0.00     0.126 C 
BRANCH   5   6
ATOM      6  C   UNL A   1      32.532  22.505  23.820  1.00  0.00     0.011 C 
ATOM      7  N   UNL A   1      32.186  25.238  22.696  1.00  0.00    -0.327 N 
ATOM      8  C   UNL A   1      32.998  24.245  21.995  1.00  0.00     0.262 C 
ATOM      9  C   UNL A   1      31.055  24.543  23.322  1.00  0.00     0.262 C 
ATOM     10  H   UNL A   1      31.838  25.916  22.017  1.00  0.00     0.348 HD
ATOM     11  C   UNL A   1      33.578  23.176  22.920  1.00  0.00     0.066 C 
ATOM     12  C   UNL A   1      31.480  23.496  24.351  1.00  0.00     0.066 C 
BRANCH   7  13
ATOM     13  C   UNL A   1      32.954  26.067  23.654  1.00  0.00     0.363 C 
BRANCH  13  14
ATOM     14  C   UNL A   1      32.376  27.490  23.800  1.00  0.00     0.277 C 
ATOM     15  C   UNL A   1      34.579  28.775  27.021  1.00  0.00     0.040 C 
ATOM     16  C   UNL A   1      33.103  28.502  27.304  1.00  0.00     0.135 C 
ATOM     17  C   UNL A   1      32.448  27.457  26.368  1.00  0.00     0.151 C 
ATOM     18  O   UNL A   1      32.363  29.735  27.330  1.00  0.00    -0.372 OA
ATOM     19  N   UNL A   1      32.099  28.011  25.059  1.00  0.00    -0.333 N 
ATOM     20  C   UNL A   1      32.108  30.273  26.020  1.00  0.00     0.135 C 
ATOM     21  C   UNL A   1      31.341  29.257  25.165  1.00  0.00     0.151 C 
ATOM     22  C   UNL A   1      31.299  31.547  26.212  1.00  0.00     0.040 C 
ATOM     23  O   UNL A   1      32.097  28.131  22.779  1.00  0.00    -0.268 OA
ENDBRANCH  13  14
ENDBRANCH   7  13
ENDBRANCH   5   6
ENDBRANCH   3   5
ENDBRANCH   2   3
ENDBRANCH   1   2
BRANCH   1  24
ATOM     24  C   UNL A   1      37.114  20.533  25.085  1.00  0.00     0.275 C 
BRANCH  24  25
ATOM     25  O   UNL A   1      38.057  21.601  25.305  1.00  0.00    -0.458 OA
BRANCH  25  26
ATOM     26  C   UNL A   1      39.096  21.326  26.123  1.00  0.00     0.338 C 
ATOM     27  O   UNL A   1      39.575  20.230  26.376  1.00  0.00    -0.246 OA
BRANCH  26  28
ATOM     28  C   UNL A   1      39.648  22.578  26.657  1.00  0.00     0.060 A 
ATOM     29  C   UNL A   1      39.211  23.798  26.133  1.00  0.00     0.016 A 
ATOM     30  C   UNL A   1      40.663  22.538  27.613  1.00  0.00     0.016 A 
ATOM     31  C   UNL A   1      39.797  24.990  26.563  1.00  0.00     0.010 A 
ATOM     32  C   UNL A   1      41.237  23.734  28.053  1.00  0.00     0.010 A 
ATOM     33  C   UNL A   1      40.820  24.967  27.522  1.00  0.00    -0.014 A 
BRANCH  33  34
ATOM     34  C   UNL A   1      41.475  26.222  27.974  1.00  0.00     0.031 A 
ATOM     35  C   UNL A   1      40.671  27.284  28.673  1.00  0.00     0.074 A 
ATOM     36  C   UNL A   1      42.776  26.436  27.698  1.00  0.00     0.049 A 
ATOM     37  N   UNL A   1      41.029  28.489  29.030  1.00  0.00    -0.248 NA
ATOM     38  C   UNL A   1      39.278  26.946  29.006  1.00  0.00     0.031 C 
ATOM     39  C   UNL A   1      43.660  25.492  27.014  1.00  0.00     0.029 A 
ATOM     40  N   UNL A   1      43.570  27.533  27.927  1.00  0.00    -0.354 N 
ATOM     41  C   UNL A   1      39.898  29.072  29.591  1.00  0.00     0.074 A 
ATOM     42  C   UNL A   1      38.841  28.085  29.526  1.00  0.00     0.031 C 
ATOM     43  C   UNL A   1      44.868  26.058  26.856  1.00  0.00     0.029 A 
ATOM     44  C   UNL A   1      44.833  27.416  27.393  1.00  0.00     0.049 A 
ATOM     45  H   UNL A   1      43.266  28.325  28.425  1.00  0.00     0.167 HD
ATOM     46  C   UNL A   1      39.756  30.309  30.124  1.00  0.00     0.034 A 
ATOM     47  C   UNL A   1      45.839  28.311  27.319  1.00  0.00     0.034 A 
ATOM     48  C   UNL A   1      40.818  31.275  30.223  1.00  0.00     0.049 A 
ATOM     49  C   UNL A   1      45.654  29.679  27.918  1.00  0.00     0.074 A 
ATOM     50  C   UNL A   1      40.784  32.535  30.797  1.00  0.00     0.029 A 
ATOM     51  N   UNL A   1      42.102  31.095  29.734  1.00  0.00    -0.354 N 
ATOM     52  N   UNL A   1      44.614  30.172  28.546  1.00  0.00    -0.248 NA
ATOM     53  C   UNL A   1      46.791  30.607  27.821  1.00  0.00     0.031 C 
ATOM     54  C   UNL A   1      42.045  33.120  30.643  1.00  0.00     0.029 A 
ATOM     55  C   UNL A   1      42.869  32.221  29.987  1.00  0.00     0.049 A 
ATOM     56  H   UNL A   1      42.423  30.286  29.274  1.00  0.00     0.167 HD
ATOM     57  C   UNL A   1      44.980  31.451  28.945  1.00  0.00     0.074 A 
ATOM     58  C   UNL A   1      46.346  31.652  28.508  1.00  0.00     0.031 C 
ATOM     59  C   UNL A   1      44.246  32.385  29.600  1.00  0.00     0.034 A 
BRANCH  46  60
ATOM     60  C   UNL A   1      38.409  30.680  30.685  1.00  0.00     0.023 A 
ATOM     61  C   UNL A   1      38.093  30.333  32.013  1.00  0.00     0.012 A 
ATOM     62  C   UNL A   1      37.486  31.428  29.926  1.00  0.00     0.148 A 
ATOM     63  C   UNL A   1      36.868  30.700  32.570  1.00  0.00     0.002 A 
ATOM     64  C   UNL A   1      36.283  31.822  30.501  1.00  0.00     0.091 A 
ATOM     65  F   UNL A   1      37.797  31.729  28.658  1.00  0.00    -0.205 F 
ATOM     66  C   UNL A   1      35.969  31.452  31.819  1.00  0.00     0.022 A 
BRANCH  64  67
ATOM     67  S   UNL A   1      35.092  32.853  29.635  1.00  0.00     0.127 S 
ATOM     68  O   UNL A   1      35.930  33.971  29.203  1.00  0.00    -0.237 OA
ATOM     69  O   UNL A   1      34.648  31.972  28.553  1.00  0.00    -0.237 OA
ATOM     70  O   UNL A   1      34.062  33.179  30.610  1.00  0.00    -0.744 OA
ENDBRANCH  64  67
ENDBRANCH  46  60
BRANCH  47  71
ATOM     71  C   UNL A   1      47.130  27.922  26.686  1.00  0.00     0.023 A 
ATOM     72  C   UNL A   1      48.199  27.503  27.501  1.00  0.00     0.012 A 
ATOM     73  C   UNL A   1      47.298  27.936  25.287  1.00  0.00     0.148 A 
ATOM     74  C   UNL A   1      49.418  27.125  26.938  1.00  0.00     0.002 A 
ATOM     75  C   UNL A   1      48.497  27.507  24.730  1.00  0.00     0.091 A 
ATOM     76  F   UNL A   1      46.278  28.359  24.528  1.00  0.00    -0.205 F 
ATOM     77  C   UNL A   1      49.564  27.116  25.553  1.00  0.00     0.022 A 
BRANCH  75  78
ATOM     78  S   UNL A   1      48.721  27.339  22.955  1.00  0.00     0.127 S 
ATOM     79  O   UNL A   1      50.162  27.532  22.815  1.00  0.00    -0.237 OA
ATOM     80  O   UNL A   1      48.258  25.970  22.717  1.00  0.00    -0.237 OA
ATOM     81  O   UNL A   1      47.878  28.366  22.358  1.00  0.00    -0.744 OA
ENDBRANCH  75  78
ENDBRANCH  47  71
BRANCH  59  82
ATOM     82  C   UNL A   1      44.906  33.702  29.915  1.00  0.00     0.023 A 
ATOM     83  C   UNL A   1      45.663  33.836  31.096  1.00  0.00     0.012 A 
ATOM     84  C   UNL A   1      44.842  34.777  29.008  1.00  0.00     0.148 A 
ATOM     85  C   UNL A   1      46.325  35.029  31.381  1.00  0.00     0.002 A 
ATOM     86  C   UNL A   1      45.539  35.949  29.279  1.00  0.00     0.091 A 
ATOM     87  F   UNL A   1      44.100  34.637  27.900  1.00  0.00    -0.205 F 
ATOM     88  C   UNL A   1      46.273  36.080  30.469  1.00  0.00     0.022 A 
BRANCH  86  89
ATOM     89  S   UNL A   1      45.601  37.319  28.117  1.00  0.00     0.127 S 
ATOM     90  O   UNL A   1      45.978  36.642  26.878  1.00  0.00    -0.237 OA
ATOM     91  O   UNL A   1      44.225  37.816  28.147  1.00  0.00    -0.237 OA
ATOM     92  O   UNL A   1      46.587  38.249  28.650  1.00  0.00    -0.744 OA
ENDBRANCH  86  89
ENDBRANCH  59  82
ENDBRANCH  33  34
ENDBRANCH  26  28
ENDBRANCH  25  26
ENDBRANCH  24  25
ENDBRANCH   1  24
TORSDOF 17
ENDMDL
MODEL 2
REMARK VINA RESULT:     -11.4      5.019     10.039
REMARK SMILES C[C@@H]1CN(C(=O)C[NH+]2CCC(CC(=O)OCCOC(=O)c3ccc(-c4c5nc(c(-c6cccc(S(=O)(=O)[O-])c6F)c6ccc([nH]6)c(-c6cccc(S(=O)(=O)[O-])c6F)c6nc(c(-c7cccc(S(=O)(=O)[O-])c7F)c7ccc4[nH]7)C=C6)C=C5)cc3)CC2)C[C@@H](C)O1
REMARK SMILES IDX 16 1 15 2 13 3 14 4 12 5 11 6 8 7 9 8 85 9 10 11 84 12 7 13
REMARK SMILES IDX 5 14 1 15 2 16 3 17 89 18 4 19 87 20 86 21 88 22 6 23 17 24
REMARK SMILES IDX 18 25 19 26 20 27 21 28 22 29 83 30 23 31 82 32 24 33 25 34
REMARK SMILES IDX 26 35 76 36 27 37 81 38 75 39 77 40 28 41 80 42 74 43 73 44
REMARK SMILES IDX 29 46 61 47 41 48 60 49 42 50 45 51 59 52 78 53 43 54 44 55
REMARK SMILES IDX 58 57 79 58 46 59 30 60 31 61 39 62 32 63 34 64 40 65 33 66
REMARK SMILES IDX 35 67 36 68 37 69 38 70 62 71 63 72 71 73 64 74 66 75 72 76
REMARK SMILES IDX 65 77 67 78 68 79 69 80 70 81 47 82 48 83 56 84 49 85 51 86
REMARK SMILES IDX 57 87 50 88 52 89 53 90 54 91 55 92
REMARK H PARENT 8 10 77 45 45 56
REMARK Flexibility Score: inf
ROOT
ATOM      1  C   UNL A   1      31.173  29.534  24.653  1.00  0.00     0.274 C 
ENDROOT
BRANCH   1   2
ATOM      2  O   UNL A   1      32.102  28.452  24.826  1.00  0.00    -0.462 OA
BRANCH   2   3
ATOM      3  C   UNL A   1      32.094  27.517  23.845  1.00  0.00     0.306 C 
ATOM      4  O   UNL A   1      33.085  27.061  23.292  1.00  0.00    -0.252 OA
BRANCH   3   5
ATOM      5  C   UNL A   1      30.697  27.108  23.464  1.00  0.00     0.126 C 
BRANCH   5   6
ATOM      6  C   UNL A   1      30.194  25.802  24.118  1.00  0.00     0.011 C 
ATOM      7  N   UNL A   1      31.281  23.417  25.525  1.00  0.00    -0.327 N 
ATOM      8  C   UNL A   1      30.522  24.429  26.258  1.00  0.00     0.262 C 
ATOM      9  C   UNL A   1      30.694  23.286  24.186  1.00  0.00     0.262 C 
ATOM     10  H   UNL A   1      31.207  22.528  26.020  1.00  0.00     0.348 HD
ATOM     11  C   UNL A   1      30.568  25.810  25.606  1.00  0.00     0.066 C 
ATOM     12  C   UNL A   1      30.752  24.578  23.370  1.00  0.00     0.066 C 
BRANCH   7  13
ATOM     13  C   UNL A   1      32.741  23.675  25.492  1.00  0.00     0.363 C 
BRANCH  13  14
ATOM     14  C   UNL A   1      33.570  22.375  25.507  1.00  0.00     0.277 C 
ATOM     15  C   UNL A   1      37.313  23.983  26.045  1.00  0.00     0.040 C 
ATOM     16  C   UNL A   1      37.042  23.405  24.657  1.00  0.00     0.135 C 
ATOM     17  C   UNL A   1      35.551  23.406  24.236  1.00  0.00     0.151 C 
ATOM     18  O   UNL A   1      37.630  22.099  24.537  1.00  0.00    -0.372 OA
ATOM     19  N   UNL A   1      34.792  22.313  24.845  1.00  0.00    -0.333 N 
ATOM     20  C   UNL A   1      36.881  21.072  25.213  1.00  0.00     0.135 C 
ATOM     21  C   UNL A   1      35.447  21.016  24.675  1.00  0.00     0.151 C 
ATOM     22  C   UNL A   1      37.608  19.758  24.969  1.00  0.00     0.040 C 
ATOM     23  O   UNL A   1      33.101  21.369  26.055  1.00  0.00    -0.268 OA
ENDBRANCH  13  14
ENDBRANCH   7  13
ENDBRANCH   5   6
ENDBRANCH   3   5
ENDBRANCH   2   3
ENDBRANCH   1   2
BRANCH   1  24
ATOM     24  C   UNL A   1      31.406  30.600  25.725  1.00  0.00     0.275 C 
BRANCH  24  25
ATOM     25  O   UNL A   1      32.745  30.523  26.253  1.00  0.00    -0.458 OA
BRANCH  25  26
ATOM     26  C   UNL A   1      33.140  31.545  27.041  1.00  0.00     0.338 C 
ATOM     27  O   UNL A   1      32.528  32.575  27.290  1.00  0.00    -0.246 OA
BRANCH  26  28
ATOM     28  C   UNL A   1      34.441  31.229  27.645  1.00  0.00     0.060 A 
ATOM     29  C   UNL A   1      34.731  29.907  27.996  1.00  0.00     0.016 A 
ATOM     30  C   UNL A   1      35.337  32.256  27.944  1.00  0.00     0.016 A 
ATOM     31  C   UNL A   1      35.923  29.608  28.658  1.00  0.00     0.010 A 
ATOM     32  C   UNL A   1      36.537  31.951  28.592  1.00  0.00     0.010 A 
ATOM     33  C   UNL A   1      36.834  30.629  28.967  1.00  0.00    -0.014 A 
BRANCH  33  34
ATOM     34  C   UNL A   1      38.096  30.336  29.694  1.00  0.00     0.031 A 
ATOM     35  C   UNL A   1      39.103  29.386  29.105  1.00  0.00     0.074 A 
ATOM     36  C   UNL A   1      38.307  30.870  30.912  1.00  0.00     0.049 A 
ATOM     37  N   UNL A   1      40.198  28.909  29.637  1.00  0.00    -0.248 NA
ATOM     38  C   UNL A   1      38.837  28.903  27.741  1.00  0.00     0.031 C 
ATOM     39  C   UNL A   1      37.402  31.793  31.598  1.00  0.00     0.029 A 
ATOM     40  N   UNL A   1      39.334  30.683  31.804  1.00  0.00    -0.354 N 
ATOM     41  C   UNL A   1      40.732  28.039  28.693  1.00  0.00     0.074 A 
ATOM     42  C   UNL A   1      39.838  28.053  27.555  1.00  0.00     0.031 C 
ATOM     43  C   UNL A   1      37.901  32.073  32.813  1.00  0.00     0.029 A 
ATOM     44  C   UNL A   1      39.139  31.322  33.007  1.00  0.00     0.049 A 
ATOM     45  H   UNL A   1      40.134  30.145  31.603  1.00  0.00     0.167 HD
ATOM     46  C   UNL A   1      41.869  27.305  28.763  1.00  0.00     0.034 A 
ATOM     47  C   UNL A   1      39.859  31.286  34.146  1.00  0.00     0.034 A 
ATOM     48  C   UNL A   1      42.775  27.320  29.880  1.00  0.00     0.049 A 
ATOM     49  C   UNL A   1      41.118  30.461  34.197  1.00  0.00     0.074 A 
ATOM     50  C   UNL A   1      43.981  26.653  30.018  1.00  0.00     0.029 A 
ATOM     51  N   UNL A   1      42.579  28.034  31.051  1.00  0.00    -0.354 N 
ATOM     52  N   UNL A   1      41.666  29.734  33.253  1.00  0.00    -0.248 NA
ATOM     53  C   UNL A   1      41.870  30.472  35.460  1.00  0.00     0.031 C 
ATOM     54  C   UNL A   1      44.506  26.954  31.279  1.00  0.00     0.029 A 
ATOM     55  C   UNL A   1      43.636  27.820  31.920  1.00  0.00     0.049 A 
ATOM     56  H   UNL A   1      41.802  28.609  31.239  1.00  0.00     0.167 HD
ATOM     57  C   UNL A   1      42.841  29.228  33.797  1.00  0.00     0.074 A 
ATOM     58  C   UNL A   1      42.937  29.748  35.145  1.00  0.00     0.031 C 
ATOM     59  C   UNL A   1      43.750  28.392  33.237  1.00  0.00     0.034 A 
BRANCH  46  60
ATOM     60  C   UNL A   1      42.223  26.450  27.576  1.00  0.00     0.023 A 
ATOM     61  C   UNL A   1      42.989  27.001  26.529  1.00  0.00     0.012 A 
ATOM     62  C   UNL A   1      41.861  25.088  27.526  1.00  0.00     0.148 A 
ATOM     63  C   UNL A   1      43.366  26.218  25.438  1.00  0.00     0.002 A 
ATOM     64  C   UNL A   1      42.273  24.306  26.453  1.00  0.00     0.091 A 
ATOM     65  F   UNL A   1      41.114  24.589  28.521  1.00  0.00    -0.205 F 
ATOM     66  C   UNL A   1      43.018  24.871  25.405  1.00  0.00     0.022 A 
BRANCH  64  67
ATOM     67  S   UNL A   1      41.932  22.544  26.357  1.00  0.00     0.127 S 
ATOM     68  O   UNL A   1      42.615  22.179  25.116  1.00  0.00    -0.237 OA
ATOM     69  O   UNL A   1      42.569  22.038  27.574  1.00  0.00    -0.237 OA
ATOM     70  O   UNL A   1      40.482  22.418  26.336  1.00  0.00    -0.744 OA
ENDBRANCH  64  67
ENDBRANCH  46  60
BRANCH  47  71
ATOM     71  C   UNL A   1      39.426  32.092  35.322  1.00  0.00     0.023 A 
ATOM     72  C   UNL A   1      38.615  31.494  36.306  1.00  0.00     0.012 A 
ATOM     73  C   UNL A   1      39.833  33.430  35.487  1.00  0.00     0.148 A 
ATOM     74  C   UNL A   1      38.199  32.220  37.422  1.00  0.00     0.002 A 
ATOM     75  C   UNL A   1      39.460  34.131  36.628  1.00  0.00     0.091 A 
ATOM     76  F   UNL A   1      40.586  33.990  34.530  1.00  0.00    -0.205 F 
ATOM     77  C   UNL A   1      38.630  33.533  37.589  1.00  0.00     0.022 A 
BRANCH  75  78
ATOM     78  S   UNL A   1      40.080  35.780  36.985  1.00  0.00     0.127 S 
ATOM     79  O   UNL A   1      39.429  36.075  38.258  1.00  0.00    -0.237 OA
ATOM     80  O   UNL A   1      41.523  35.551  37.069  1.00  0.00    -0.237 OA
ATOM     81  O   UNL A   1      39.671  36.600  35.853  1.00  0.00    -0.744 OA
ENDBRANCH  75  78
ENDBRANCH  47  71
BRANCH  59  82
ATOM     82  C   UNL A   1      44.949  28.006  34.063  1.00  0.00     0.023 A 
ATOM     83  C   UNL A   1      46.079  28.847  34.086  1.00  0.00     0.012 A 
ATOM     84  C   UNL A   1      44.926  26.854  34.874  1.00  0.00     0.148 A 
ATOM     85  C   UNL A   1      47.179  28.535  34.885  1.00  0.00     0.002 A 
ATOM     86  C   UNL A   1      46.009  26.572  35.700  1.00  0.00     0.091 A 
ATOM     87  F   UNL A   1      43.851  26.056  34.823  1.00  0.00    -0.205 F 
ATOM     88  C   UNL A   1      47.140  27.405  35.698  1.00  0.00     0.022 A 
BRANCH  86  89
ATOM     89  S   UNL A   1      46.006  25.188  36.847  1.00  0.00     0.127 S 
ATOM     90  O   UNL A   1      47.290  25.359  37.523  1.00  0.00    -0.237 OA
ATOM     91  O   UNL A   1      44.835  25.473  37.677  1.00  0.00    -0.237 OA
ATOM     92  O   UNL A   1      45.883  23.991  36.025  1.00  0.00    -0.744 OA
ENDBRANCH  86  89
ENDBRANCH  59  82
ENDBRANCH  33  34
ENDBRANCH  26  28
ENDBRANCH  25  26
ENDBRANCH  24  25
ENDBRANCH   1  24
TORSDOF 17
ENDMDL
MODEL 3
REMARK VINA RESULT:     -11.4      1.513      2.186
REMARK SMILES C[C@@H]1CN(C(=O)C[NH+]2CCC(CC(=O)OCCOC(=O)c3ccc(-c4c5nc(c(-c6cccc(S(=O)(=O)[O-])c6F)c6ccc([nH]6)c(-c6cccc(S(=O)(=O)[O-])c6F)c6nc(c(-c7cccc(S(=O)(=O)[O-])c7F)c7ccc4[nH]7)C=C6)C=C5)cc3)CC2)C[C@@H](C)O1
REMARK SMILES IDX 16 1 15 2 13 3 14 4 12 5 11 6 8 7 9 8 85 9 10 11 84 12 7 13
REMARK SMILES IDX 5 14 1 15 2 16 3 17 89 18 4 19 87 20 86 21 88 22 6 23 17 24
REMARK SMILES IDX 18 25 19 26 20 27 21 28 22 29 83 30 23 31 82 32 24 33 25 34
REMARK SMILES IDX 26 35 76 36 27 37 81 38 75 39 77 40 28 41 80 42 74 43 73 44
REMARK SMILES IDX 29 46 61 47 41 48 60 49 42 50 45 51 59 52 78 53 43 54 44 55
REMARK SMILES IDX 58 57 79 58 46 59 30 60 31 61 39 62 32 63 34 64 40 65 33 66
REMARK SMILES IDX 35 67 36 68 37 69 38 70 62 71 63 72 71 73 64 74 66 75 72 76
REMARK SMILES IDX 65 77 67 78 68 79 69 80 70 81 47 82 48 83 56 84 49 85 51 86
REMARK SMILES IDX 57 87 50 88 52 89 53 90 54 91 55 92
REMARK H PARENT 8 10 77 45 45 56
REMARK Flexibility Score: inf
ROOT
ATOM      1  C   UNL A   1      34.665  20.713  24.993  1.00  0.00     0.274 C 
ENDROOT
BRANCH   1   2
ATOM      2  O   UNL A   1      33.576  21.243  24.220  1.00  0.00    -0.462 OA
BRANCH   2   3
ATOM      3  C   UNL A   1      32.369  21.234  24.834  1.00  0.00     0.306 C 
ATOM      4  O   UNL A   1      31.839  20.256  25.344  1.00  0.00    -0.252 OA
BRANCH   3   5
ATOM      5  C   UNL A   1      31.703  22.583  24.795  1.00  0.00     0.126 C 
BRANCH   5   6
ATOM      6  C   UNL A   1      32.608  23.749  24.340  1.00  0.00     0.011 C 
ATOM      7  N   UNL A   1      32.579  26.723  24.241  1.00  0.00    -0.327 N 
ATOM      8  C   UNL A   1      33.450  26.020  25.181  1.00  0.00     0.262 C 
ATOM      9  C   UNL A   1      32.516  25.937  23.002  1.00  0.00     0.262 C 
ATOM     10  H   UNL A   1      32.980  27.640  24.044  1.00  0.00     0.348 HD
ATOM     11  C   UNL A   1      32.942  24.627  25.552  1.00  0.00     0.066 C 
ATOM     12  C   UNL A   1      31.935  24.537  23.201  1.00  0.00     0.066 C 
BRANCH   7  13
ATOM     13  C   UNL A   1      31.240  27.039  24.791  1.00  0.00     0.363 C 
BRANCH  13  14
ATOM     14  C   UNL A   1      30.894  28.538  24.678  1.00  0.00     0.277 C 
ATOM     15  C   UNL A   1      26.887  28.232  23.825  1.00  0.00     0.040 C 
ATOM     16  C   UNL A   1      27.770  28.686  22.665  1.00  0.00     0.135 C 
ATOM     17  C   UNL A   1      29.239  28.201  22.743  1.00  0.00     0.151 C 
ATOM     18  O   UNL A   1      27.687  30.112  22.503  1.00  0.00    -0.372 OA
ATOM     19  N   UNL A   1      30.047  28.991  23.673  1.00  0.00    -0.333 N 
ATOM     20  C   UNL A   1      28.442  30.843  23.486  1.00  0.00     0.135 C 
ATOM     21  C   UNL A   1      29.918  30.429  23.442  1.00  0.00     0.151 C 
ATOM     22  C   UNL A   1      28.280  32.321  23.164  1.00  0.00     0.040 C 
ATOM     23  O   UNL A   1      31.437  29.339  25.451  1.00  0.00    -0.268 OA
ENDBRANCH  13  14
ENDBRANCH   7  13
ENDBRANCH   5   6
ENDBRANCH   3   5
ENDBRANCH   2   3
ENDBRANCH   1   2
BRANCH   1  24
ATOM     24  C   UNL A   1      35.961  21.446  24.642  1.00  0.00     0.275 C 
BRANCH  24  25
ATOM     25  O   UNL A   1      36.759  21.685  25.818  1.00  0.00    -0.458 OA
BRANCH  25  26
ATOM     26  C   UNL A   1      38.057  21.321  25.747  1.00  0.00     0.338 C 
ATOM     27  O   UNL A   1      38.511  20.243  25.389  1.00  0.00    -0.246 OA
BRANCH  26  28
ATOM     28  C   UNL A   1      38.909  22.459  26.119  1.00  0.00     0.060 A 
ATOM     29  C   UNL A   1      40.009  22.246  26.955  1.00  0.00     0.016 A 
ATOM     30  C   UNL A   1      38.565  23.748  25.712  1.00  0.00     0.016 A 
ATOM     31  C   UNL A   1      40.769  23.332  27.395  1.00  0.00     0.010 A 
ATOM     32  C   UNL A   1      39.337  24.831  26.140  1.00  0.00     0.010 A 
ATOM     33  C   UNL A   1      40.436  24.634  26.996  1.00  0.00    -0.014 A 
BRANCH  33  34
ATOM     34  C   UNL A   1      41.215  25.805  27.473  1.00  0.00     0.031 A 
ATOM     35  C   UNL A   1      40.548  26.869  28.300  1.00  0.00     0.074 A 
ATOM     36  C   UNL A   1      42.504  25.946  27.110  1.00  0.00     0.049 A 
ATOM     37  N   UNL A   1      41.020  28.020  28.705  1.00  0.00    -0.248 NA
ATOM     38  C   UNL A   1      39.161  26.608  28.721  1.00  0.00     0.031 C 
ATOM     39  C   UNL A   1      43.261  24.993  26.299  1.00  0.00     0.029 A 
ATOM     40  N   UNL A   1      43.393  26.967  27.344  1.00  0.00    -0.354 N 
ATOM     41  C   UNL A   1      39.981  28.639  29.390  1.00  0.00     0.074 A 
ATOM     42  C   UNL A   1      38.851  27.736  29.345  1.00  0.00     0.031 C 
ATOM     43  C   UNL A   1      44.493  25.483  26.082  1.00  0.00     0.029 A 
ATOM     44  C   UNL A   1      44.601  26.800  26.706  1.00  0.00     0.049 A 
ATOM     45  H   UNL A   1      43.188  27.742  27.915  1.00  0.00     0.167 HD
ATOM     46  C   UNL A   1      39.973  29.843  30.011  1.00  0.00     0.034 A 
ATOM     47  C   UNL A   1      45.663  27.625  26.610  1.00  0.00     0.034 A 
ATOM     48  C   UNL A   1      41.108  30.723  30.086  1.00  0.00     0.049 A 
ATOM     49  C   UNL A   1      45.626  28.958  27.308  1.00  0.00     0.074 A 
ATOM     50  C   UNL A   1      41.211  31.939  30.741  1.00  0.00     0.029 A 
ATOM     51  N   UNL A   1      42.335  30.489  29.487  1.00  0.00    -0.354 N 
ATOM     52  N   UNL A   1      44.675  29.477  28.047  1.00  0.00    -0.248 NA
ATOM     53  C   UNL A   1      46.819  29.809  27.181  1.00  0.00     0.031 C 
ATOM     54  C   UNL A   1      42.498  32.445  30.526  1.00  0.00     0.029 A 
ATOM     55  C   UNL A   1      43.201  31.537  29.750  1.00  0.00     0.049 A 
ATOM     56  H   UNL A   1      42.559  29.693  28.952  1.00  0.00     0.167 HD
ATOM     57  C   UNL A   1      45.165  30.697  28.497  1.00  0.00     0.074 A 
ATOM     58  C   UNL A   1      46.506  30.831  27.966  1.00  0.00     0.031 C 
ATOM     59  C   UNL A   1      44.554  31.631  29.266  1.00  0.00     0.034 A 
BRANCH  46  60
ATOM     60  C   UNL A   1      38.703  30.267  30.699  1.00  0.00     0.023 A 
ATOM     61  C   UNL A   1      38.528  29.980  32.068  1.00  0.00     0.012 A 
ATOM     62  C   UNL A   1      37.716  31.006  30.015  1.00  0.00     0.148 A 
ATOM     63  C   UNL A   1      37.379  30.398  32.739  1.00  0.00     0.002 A 
ATOM     64  C   UNL A   1      36.591  31.451  30.700  1.00  0.00     0.091 A 
ATOM     65  F   UNL A   1      37.891  31.249  28.709  1.00  0.00    -0.205 F 
ATOM     66  C   UNL A   1      36.417  31.141  32.060  1.00  0.00     0.022 A 
BRANCH  64  67
ATOM     67  S   UNL A   1      35.332  32.474  29.927  1.00  0.00     0.127 S 
ATOM     68  O   UNL A   1      34.408  32.694  31.039  1.00  0.00    -0.237 OA
ATOM     69  O   UNL A   1      36.096  33.657  29.527  1.00  0.00    -0.237 OA
ATOM     70  O   UNL A   1      34.806  31.691  28.819  1.00  0.00    -0.744 OA
ENDBRANCH  64  67
ENDBRANCH  46  60
BRANCH  47  71
ATOM     71  C   UNL A   1      46.870  27.191  25.853  1.00  0.00     0.023 A 
ATOM     72  C   UNL A   1      47.791  26.319  26.464  1.00  0.00     0.012 A 
ATOM     73  C   UNL A   1      47.098  27.611  24.527  1.00  0.00     0.148 A 
ATOM     74  C   UNL A   1      48.928  25.890  25.779  1.00  0.00     0.002 A 
ATOM     75  C   UNL A   1      48.204  27.137  23.832  1.00  0.00     0.091 A 
ATOM     76  F   UNL A   1      46.223  28.460  23.969  1.00  0.00    -0.205 F 
ATOM     77  C   UNL A   1      49.129  26.289  24.460  1.00  0.00     0.022 A 
BRANCH  75  78
ATOM     78  S   UNL A   1      48.466  27.495  22.090  1.00  0.00     0.127 S 
ATOM     79  O   UNL A   1      49.685  28.298  22.130  1.00  0.00    -0.237 OA
ATOM     80  O   UNL A   1      48.628  26.155  21.524  1.00  0.00    -0.237 OA
ATOM     81  O   UNL A   1      47.261  28.186  21.652  1.00  0.00    -0.744 OA
ENDBRANCH  75  78
ENDBRANCH  47  71
BRANCH  59  82
ATOM     82  C   UNL A   1      45.333  32.874  29.612  1.00  0.00     0.023 A 
ATOM     83  C   UNL A   1      46.144  32.889  30.764  1.00  0.00     0.012 A 
ATOM     84  C   UNL A   1      45.322  33.994  28.757  1.00  0.00     0.148 A 
ATOM     85  C   UNL A   1      46.913  34.010  31.074  1.00  0.00     0.002 A 
ATOM     86  C   UNL A   1      46.124  35.091  29.051  1.00  0.00     0.091 A 
ATOM     87  F   UNL A   1      44.528  33.968  27.678  1.00  0.00    -0.205 F 
ATOM     88  C   UNL A   1      46.912  35.104  30.213  1.00  0.00     0.022 A 
BRANCH  86  89
ATOM     89  S   UNL A   1      46.253  36.506  27.950  1.00  0.00     0.127 S 
ATOM     90  O   UNL A   1      44.900  37.057  28.014  1.00  0.00    -0.237 OA
ATOM     91  O   UNL A   1      47.276  37.321  28.607  1.00  0.00    -0.237 OA
ATOM     92  O   UNL A   1      46.653  35.969  26.656  1.00  0.00    -0.744 OA
ENDBRANCH  86  89
ENDBRANCH  59  82
ENDBRANCH  33  34
ENDBRANCH  26  28
ENDBRANCH  25  26
ENDBRANCH  24  25
ENDBRANCH   1  24
TORSDOF 17
ENDMDL
