MODEL 1
REMARK VINA RESULT:     -13.4      0.000      0.000
REMARK SMILES Cc1ccccc1NC(=O)CSc1nc(C(=O)OCCOC(=O)c2ccc(-c3c4nc(c(-c5cccc(S(=O)(=O)[O-])c5F)c5ccc([nH]5)c(-c5cccc(S(=O)(=O)[O-])c5F)c5nc(c(-c6cccc(S(=O)(=O)[O-])c6F)c6ccc3[nH]6)C=C5)C=C4)cc2)c2ccccc2n1
REMARK SMILES IDX 19 1 18 2 16 3 17 4 15 5 13 6 14 7 93 8 92 9 87 10 91 11
REMARK SMILES IDX 88 12 90 13 89 14 12 15 11 16 9 17 8 18 10 20 7 21 1 22 2 23
REMARK SMILES IDX 3 24 4 25 6 26 5 27 20 28 21 29 22 30 23 31 24 32 25 33
REMARK SMILES IDX 86 34 26 35 85 36 27 37 28 38 29 39 79 40 30 41 84 42 78 43
REMARK SMILES IDX 80 44 31 45 83 46 77 47 76 48 32 50 64 51 44 52 63 53 45 54
REMARK SMILES IDX 48 55 62 56 81 57 46 58 47 59 61 61 82 62 49 63 33 64 34 65
REMARK SMILES IDX 42 66 35 67 37 68 43 69 36 70 38 71 39 72 40 73 41 74 65 75
REMARK SMILES IDX 66 76 74 77 67 78 69 79 75 80 68 81 70 82 71 83 72 84 73 85
REMARK SMILES IDX 50 86 51 87 59 88 52 89 54 90 60 91 53 92 55 93 56 94 57 95
REMARK SMILES IDX 58 96
REMARK H PARENT 8 19 80 49 48 60
REMARK Flexibility Score: inf
ROOT
ATOM      1  C   UNL A   1      33.124  30.760  26.987  1.00  0.00     0.275 C 
ENDROOT
BRANCH   1   2
ATOM      2  O   UNL A   1      32.505  30.388  25.756  1.00  0.00    -0.457 OA
BRANCH   2   3
ATOM      3  C   UNL A   1      31.696  29.302  25.799  1.00  0.00     0.357 C 
ATOM      4  O   UNL A   1      31.362  28.703  26.809  1.00  0.00    -0.244 OA
BRANCH   3   5
ATOM      5  C   UNL A   1      31.222  28.994  24.421  1.00  0.00     0.160 A 
ATOM      6  C   UNL A   1      31.218  27.509  22.699  1.00  0.00     0.189 A 
ATOM      7  N   UNL A   1      31.723  27.855  23.887  1.00  0.00    -0.215 NA
ATOM      8  N   UNL A   1      30.190  28.122  22.100  1.00  0.00    -0.222 NA
ATOM      9  C   UNL A   1      29.712  29.239  22.657  1.00  0.00     0.076 A 
ATOM     10  C   UNL A   1      30.217  29.778  23.841  1.00  0.00     0.034 A 
ATOM     11  C   UNL A   1      28.637  29.871  22.048  1.00  0.00     0.029 A 
ATOM     12  C   UNL A   1      29.667  30.985  24.355  1.00  0.00     0.013 A 
ATOM     13  C   UNL A   1      28.075  31.042  22.564  1.00  0.00     0.002 A 
ATOM     14  C   UNL A   1      28.607  31.614  23.711  1.00  0.00     0.001 A 
BRANCH   6  15
ATOM     15  S   UNL A   1      31.782  26.002  21.961  1.00  0.00    -0.076 SA
BRANCH  15  16
ATOM     16  C   UNL A   1      32.460  25.187  23.443  1.00  0.00     0.178 C 
BRANCH  16  17
ATOM     17  C   UNL A   1      32.280  23.687  23.418  1.00  0.00     0.234 C 
ATOM     18  N   UNL A   1      33.280  22.773  23.591  1.00  0.00    -0.325 N 
ATOM     19  H   UNL A   1      33.028  21.873  23.280  1.00  0.00     0.169 HD
ATOM     20  O   UNL A   1      31.147  23.202  23.291  1.00  0.00    -0.274 OA
BRANCH  18  21
ATOM     21  C   UNL A   1      34.588  22.816  24.113  1.00  0.00     0.044 A 
ATOM     22  C   UNL A   1      33.623  22.754  26.512  1.00  0.00     0.046 C 
ATOM     23  C   UNL A   1      34.747  22.905  25.518  1.00  0.00    -0.027 A 
ATOM     24  C   UNL A   1      36.008  23.238  26.050  1.00  0.00     0.005 A 
ATOM     25  C   UNL A   1      37.118  23.390  25.228  1.00  0.00     0.000 A 
ATOM     26  C   UNL A   1      35.735  22.866  23.318  1.00  0.00     0.026 A 
ATOM     27  C   UNL A   1      36.988  23.160  23.866  1.00  0.00     0.002 A 
ENDBRANCH  18  21
ENDBRANCH  16  17
ENDBRANCH  15  16
ENDBRANCH   6  15
ENDBRANCH   3   5
ENDBRANCH   2   3
ENDBRANCH   1   2
BRANCH   1  28
ATOM     28  C   UNL A   1      34.435  30.041  27.355  1.00  0.00     0.275 C 
BRANCH  28  29
ATOM     29  O   UNL A   1      35.695  30.755  27.282  1.00  0.00    -0.458 OA
BRANCH  29  30
ATOM     30  C   UNL A   1      36.633  30.957  28.250  1.00  0.00     0.338 C 
ATOM     31  O   UNL A   1      36.600  31.937  28.982  1.00  0.00    -0.246 OA
BRANCH  30  32
ATOM     32  C   UNL A   1      37.660  29.919  28.412  1.00  0.00     0.060 A 
ATOM     33  C   UNL A   1      37.624  29.042  29.507  1.00  0.00     0.016 A 
ATOM     34  C   UNL A   1      38.597  29.759  27.404  1.00  0.00     0.016 A 
ATOM     35  C   UNL A   1      38.482  27.940  29.548  1.00  0.00     0.010 A 
ATOM     36  C   UNL A   1      39.318  28.594  27.354  1.00  0.00     0.010 A 
ATOM     37  C   UNL A   1      39.327  27.725  28.462  1.00  0.00    -0.014 A 
BRANCH  37  38
ATOM     38  C   UNL A   1      40.526  26.897  28.518  1.00  0.00     0.031 A 
ATOM     39  C   UNL A   1      40.567  25.447  28.308  1.00  0.00     0.074 A 
ATOM     40  C   UNL A   1      41.654  27.630  28.650  1.00  0.00     0.049 A 
ATOM     41  N   UNL A   1      41.498  24.707  28.805  1.00  0.00    -0.248 NA
ATOM     42  C   UNL A   1      39.579  24.704  27.541  1.00  0.00     0.031 C 
ATOM     43  C   UNL A   1      43.028  27.308  28.337  1.00  0.00     0.029 A 
ATOM     44  N   UNL A   1      41.715  28.921  29.191  1.00  0.00    -0.354 N 
ATOM     45  C   UNL A   1      41.416  23.473  28.196  1.00  0.00     0.074 A 
ATOM     46  C   UNL A   1      40.142  23.486  27.509  1.00  0.00     0.031 C 
ATOM     47  C   UNL A   1      43.821  28.263  28.858  1.00  0.00     0.029 A 
ATOM     48  C   UNL A   1      42.997  29.149  29.674  1.00  0.00     0.049 A 
ATOM     49  H   UNL A   1      40.969  29.562  29.224  1.00  0.00     0.167 HD
ATOM     50  C   UNL A   1      42.523  22.674  28.188  1.00  0.00     0.034 A 
ATOM     51  C   UNL A   1      43.209  29.542  30.964  1.00  0.00     0.034 A 
ATOM     52  C   UNL A   1      43.642  23.343  28.882  1.00  0.00     0.049 A 
ATOM     53  C   UNL A   1      43.882  28.411  31.732  1.00  0.00     0.074 A 
ATOM     54  C   UNL A   1      44.694  24.103  28.394  1.00  0.00     0.029 A 
ATOM     55  N   UNL A   1      43.598  23.574  30.254  1.00  0.00    -0.354 N 
ATOM     56  N   UNL A   1      44.175  27.249  31.216  1.00  0.00    -0.248 NA
ATOM     57  C   UNL A   1      44.202  28.475  33.155  1.00  0.00     0.031 C 
ATOM     58  C   UNL A   1      45.215  24.874  29.464  1.00  0.00     0.029 A 
ATOM     59  C   UNL A   1      44.510  24.563  30.615  1.00  0.00     0.049 A 
ATOM     60  H   UNL A   1      43.005  23.103  30.884  1.00  0.00     0.167 HD
ATOM     61  C   UNL A   1      44.507  26.373  32.211  1.00  0.00     0.074 A 
ATOM     62  C   UNL A   1      44.595  27.212  33.396  1.00  0.00     0.031 C 
ATOM     63  C   UNL A   1      44.606  25.025  31.999  1.00  0.00     0.034 A 
BRANCH  50  64
ATOM     64  C   UNL A   1      42.743  21.500  27.237  1.00  0.00     0.023 A 
ATOM     65  C   UNL A   1      41.963  20.338  27.457  1.00  0.00     0.012 A 
ATOM     66  C   UNL A   1      43.690  21.414  26.190  1.00  0.00     0.148 A 
ATOM     67  C   UNL A   1      42.186  19.133  26.783  1.00  0.00     0.002 A 
ATOM     68  C   UNL A   1      43.952  20.193  25.549  1.00  0.00     0.091 A 
ATOM     69  F   UNL A   1      44.295  22.524  25.754  1.00  0.00    -0.205 F 
ATOM     70  C   UNL A   1      43.208  19.049  25.853  1.00  0.00     0.022 A 
BRANCH  68  71
ATOM     71  S   UNL A   1      45.297  19.975  24.368  1.00  0.00     0.127 S 
ATOM     72  O   UNL A   1      45.657  18.569  24.567  1.00  0.00    -0.237 OA
ATOM     73  O   UNL A   1      44.646  20.259  23.092  1.00  0.00    -0.237 OA
ATOM     74  O   UNL A   1      46.339  20.916  24.764  1.00  0.00    -0.744 OA
ENDBRANCH  68  71
ENDBRANCH  50  64
BRANCH  51  75
ATOM     75  C   UNL A   1      42.103  30.412  31.511  1.00  0.00     0.023 A 
ATOM     76  C   UNL A   1      41.781  31.608  30.812  1.00  0.00     0.012 A 
ATOM     77  C   UNL A   1      41.146  29.898  32.394  1.00  0.00     0.148 A 
ATOM     78  C   UNL A   1      40.499  32.172  30.883  1.00  0.00     0.002 A 
ATOM     79  C   UNL A   1      39.860  30.437  32.423  1.00  0.00     0.091 A 
ATOM     80  F   UNL A   1      41.440  28.822  33.134  1.00  0.00    -0.205 F 
ATOM     81  C   UNL A   1      39.520  31.558  31.658  1.00  0.00     0.022 A 
BRANCH  79  82
ATOM     82  S   UNL A   1      38.583  29.490  33.250  1.00  0.00     0.127 S 
ATOM     83  O   UNL A   1      38.830  29.737  34.670  1.00  0.00    -0.237 OA
ATOM     84  O   UNL A   1      37.361  30.103  32.750  1.00  0.00    -0.237 OA
ATOM     85  O   UNL A   1      38.860  28.125  32.816  1.00  0.00    -0.744 OA
ENDBRANCH  79  82
ENDBRANCH  51  75
BRANCH  63  86
ATOM     86  C   UNL A   1      44.840  24.017  33.097  1.00  0.00     0.023 A 
ATOM     87  C   UNL A   1      43.893  23.032  33.432  1.00  0.00     0.012 A 
ATOM     88  C   UNL A   1      46.090  23.965  33.760  1.00  0.00     0.148 A 
ATOM     89  C   UNL A   1      44.130  22.105  34.452  1.00  0.00     0.002 A 
ATOM     90  C   UNL A   1      46.364  22.967  34.688  1.00  0.00     0.091 A 
ATOM     91  F   UNL A   1      47.017  24.903  33.512  1.00  0.00    -0.205 F 
ATOM     92  C   UNL A   1      45.372  22.061  35.070  1.00  0.00     0.022 A 
BRANCH  90  93
ATOM     93  S   UNL A   1      48.035  22.732  35.304  1.00  0.00     0.127 S 
ATOM     94  O   UNL A   1      48.780  22.458  34.077  1.00  0.00    -0.237 OA
ATOM     95  O   UNL A   1      48.334  24.026  35.920  1.00  0.00    -0.237 OA
ATOM     96  O   UNL A   1      47.930  21.633  36.255  1.00  0.00    -0.744 OA
ENDBRANCH  90  93
ENDBRANCH  63  86
ENDBRANCH  37  38
ENDBRANCH  30  32
ENDBRANCH  29  30
ENDBRANCH  28  29
ENDBRANCH   1  28
TORSDOF 18
ENDMDL
MODEL 2
REMARK VINA RESULT:     -13.3      4.544     10.929
REMARK SMILES Cc1ccccc1NC(=O)CSc1nc(C(=O)OCCOC(=O)c2ccc(-c3c4nc(c(-c5cccc(S(=O)(=O)[O-])c5F)c5ccc([nH]5)c(-c5cccc(S(=O)(=O)[O-])c5F)c5nc(c(-c6cccc(S(=O)(=O)[O-])c6F)c6ccc3[nH]6)C=C5)C=C4)cc2)c2ccccc2n1
REMARK SMILES IDX 19 1 18 2 16 3 17 4 15 5 13 6 14 7 93 8 92 9 87 10 91 11
REMARK SMILES IDX 88 12 90 13 89 14 12 15 11 16 9 17 8 18 10 20 7 21 1 22 2 23
REMARK SMILES IDX 3 24 4 25 6 26 5 27 20 28 21 29 22 30 23 31 24 32 25 33
REMARK SMILES IDX 86 34 26 35 85 36 27 37 28 38 29 39 79 40 30 41 84 42 78 43
REMARK SMILES IDX 80 44 31 45 83 46 77 47 76 48 32 50 64 51 44 52 63 53 45 54
REMARK SMILES IDX 48 55 62 56 81 57 46 58 47 59 61 61 82 62 49 63 33 64 34 65
REMARK SMILES IDX 42 66 35 67 37 68 43 69 36 70 38 71 39 72 40 73 41 74 65 75
REMARK SMILES IDX 66 76 74 77 67 78 69 79 75 80 68 81 70 82 71 83 72 84 73 85
REMARK SMILES IDX 50 86 51 87 59 88 52 89 54 90 60 91 53 92 55 93 56 94 57 95
REMARK SMILES IDX 58 96
REMARK H PARENT 8 19 80 49 48 60
REMARK Flexibility Score: inf
ROOT
ATOM      1  C   UNL A   1      37.215  22.889  25.227  1.00  0.00     0.275 C 
ENDROOT
BRANCH   1   2
ATOM      2  O   UNL A   1      36.251  22.004  25.797  1.00  0.00    -0.457 OA
BRANCH   2   3
ATOM      3  C   UNL A   1      36.130  20.792  25.205  1.00  0.00     0.357 C 
ATOM      4  O   UNL A   1      37.034  19.990  25.034  1.00  0.00    -0.244 OA
BRANCH   3   5
ATOM      5  C   UNL A   1      34.700  20.561  24.856  1.00  0.00     0.160 A 
ATOM      6  C   UNL A   1      32.687  21.497  24.366  1.00  0.00     0.189 A 
ATOM      7  N   UNL A   1      33.941  21.680  24.790  1.00  0.00    -0.215 NA
ATOM      8  N   UNL A   1      32.203  20.343  23.892  1.00  0.00    -0.222 NA
ATOM      9  C   UNL A   1      32.980  19.259  23.962  1.00  0.00     0.076 A 
ATOM     10  C   UNL A   1      34.275  19.280  24.484  1.00  0.00     0.034 A 
ATOM     11  C   UNL A   1      32.489  18.062  23.459  1.00  0.00     0.029 A 
ATOM     12  C   UNL A   1      35.027  18.073  24.545  1.00  0.00     0.013 A 
ATOM     13  C   UNL A   1      33.235  16.881  23.492  1.00  0.00     0.002 A 
ATOM     14  C   UNL A   1      34.502  16.882  24.059  1.00  0.00     0.001 A 
BRANCH   6  15
ATOM     15  S   UNL A   1      31.649  22.922  24.200  1.00  0.00    -0.076 SA
BRANCH  15  16
ATOM     16  C   UNL A   1      32.165  23.835  25.690  1.00  0.00     0.178 C 
BRANCH  16  17
ATOM     17  C   UNL A   1      30.994  24.383  26.473  1.00  0.00     0.234 C 
ATOM     18  N   UNL A   1      30.509  25.656  26.374  1.00  0.00    -0.325 N 
ATOM     19  H   UNL A   1      29.937  25.902  27.136  1.00  0.00     0.169 HD
ATOM     20  O   UNL A   1      30.357  23.640  27.234  1.00  0.00    -0.274 OA
BRANCH  18  21
ATOM     21  C   UNL A   1      30.637  26.698  25.435  1.00  0.00     0.044 A 
ATOM     22  C   UNL A   1      32.418  27.820  26.937  1.00  0.00     0.046 C 
ATOM     23  C   UNL A   1      31.484  27.788  25.755  1.00  0.00    -0.027 A 
ATOM     24  C   UNL A   1      31.413  28.967  24.985  1.00  0.00     0.005 A 
ATOM     25  C   UNL A   1      30.594  29.045  23.865  1.00  0.00     0.000 A 
ATOM     26  C   UNL A   1      29.905  26.761  24.247  1.00  0.00     0.026 A 
ATOM     27  C   UNL A   1      29.875  27.926  23.472  1.00  0.00     0.002 A 
ENDBRANCH  18  21
ENDBRANCH  16  17
ENDBRANCH  15  16
ENDBRANCH   6  15
ENDBRANCH   3   5
ENDBRANCH   2   3
ENDBRANCH   1   2
BRANCH   1  28
ATOM     28  C   UNL A   1      38.083  23.700  26.205  1.00  0.00     0.275 C 
BRANCH  28  29
ATOM     29  O   UNL A   1      39.378  23.190  26.614  1.00  0.00    -0.458 OA
BRANCH  29  30
ATOM     30  C   UNL A   1      40.295  23.737  27.460  1.00  0.00     0.338 C 
ATOM     31  O   UNL A   1      41.252  23.095  27.873  1.00  0.00    -0.246 OA
BRANCH  30  32
ATOM     32  C   UNL A   1      40.116  25.151  27.818  1.00  0.00     0.060 A 
ATOM     33  C   UNL A   1      40.576  26.168  26.966  1.00  0.00     0.016 A 
ATOM     34  C   UNL A   1      39.387  25.453  28.956  1.00  0.00     0.016 A 
ATOM     35  C   UNL A   1      40.228  27.497  27.215  1.00  0.00     0.010 A 
ATOM     36  C   UNL A   1      38.903  26.726  29.109  1.00  0.00     0.010 A 
ATOM     37  C   UNL A   1      39.387  27.765  28.292  1.00  0.00    -0.014 A 
BRANCH  37  38
ATOM     38  C   UNL A   1      39.261  29.077  28.917  1.00  0.00     0.031 A 
ATOM     39  C   UNL A   1      38.262  30.091  28.569  1.00  0.00     0.074 A 
ATOM     40  C   UNL A   1      40.091  29.227  29.974  1.00  0.00     0.049 A 
ATOM     41  N   UNL A   1      38.454  31.348  28.782  1.00  0.00    -0.248 NA
ATOM     42  C   UNL A   1      36.977  29.795  27.953  1.00  0.00     0.031 C 
ATOM     43  C   UNL A   1      40.025  30.131  31.101  1.00  0.00     0.029 A 
ATOM     44  N   UNL A   1      41.278  28.511  30.172  1.00  0.00    -0.354 N 
ATOM     45  C   UNL A   1      37.243  31.986  28.622  1.00  0.00     0.074 A 
ATOM     46  C   UNL A   1      36.388  31.000  27.996  1.00  0.00     0.031 C 
ATOM     47  C   UNL A   1      41.193  30.070  31.767  1.00  0.00     0.029 A 
ATOM     48  C   UNL A   1      42.120  29.249  30.994  1.00  0.00     0.049 A 
ATOM     49  H   UNL A   1      41.482  27.627  29.791  1.00  0.00     0.167 HD
ATOM     50  C   UNL A   1      37.061  33.201  29.219  1.00  0.00     0.034 A 
ATOM     51  C   UNL A   1      43.394  29.554  30.611  1.00  0.00     0.034 A 
ATOM     52  C   UNL A   1      38.280  33.599  29.951  1.00  0.00     0.049 A 
ATOM     53  C   UNL A   1      43.497  31.051  30.348  1.00  0.00     0.074 A 
ATOM     54  C   UNL A   1      38.630  33.458  31.285  1.00  0.00     0.029 A 
ATOM     55  N   UNL A   1      39.455  33.908  29.270  1.00  0.00    -0.354 N 
ATOM     56  N   UNL A   1      42.498  31.883  30.455  1.00  0.00    -0.248 NA
ATOM     57  C   UNL A   1      44.709  31.709  29.867  1.00  0.00     0.031 C 
ATOM     58  C   UNL A   1      40.039  33.579  31.387  1.00  0.00     0.029 A 
ATOM     59  C   UNL A   1      40.552  33.831  30.125  1.00  0.00     0.049 A 
ATOM     60  H   UNL A   1      39.504  34.149  28.317  1.00  0.00     0.167 HD
ATOM     61  C   UNL A   1      42.835  33.083  29.892  1.00  0.00     0.074 A 
ATOM     62  C   UNL A   1      44.257  32.950  29.619  1.00  0.00     0.031 C 
ATOM     63  C   UNL A   1      41.908  34.054  29.625  1.00  0.00     0.034 A 
BRANCH  50  64
ATOM     64  C   UNL A   1      35.703  33.841  29.495  1.00  0.00     0.023 A 
ATOM     65  C   UNL A   1      35.012  34.391  28.387  1.00  0.00     0.012 A 
ATOM     66  C   UNL A   1      35.075  34.006  30.751  1.00  0.00     0.148 A 
ATOM     67  C   UNL A   1      33.853  35.162  28.519  1.00  0.00     0.002 A 
ATOM     68  C   UNL A   1      33.943  34.822  30.894  1.00  0.00     0.091 A 
ATOM     69  F   UNL A   1      35.523  33.319  31.809  1.00  0.00    -0.205 F 
ATOM     70  C   UNL A   1      33.337  35.410  29.779  1.00  0.00     0.022 A 
BRANCH  68  71
ATOM     71  S   UNL A   1      33.236  35.246  32.498  1.00  0.00     0.127 S 
ATOM     72  O   UNL A   1      31.921  35.775  32.125  1.00  0.00    -0.237 OA
ATOM     73  O   UNL A   1      33.198  33.955  33.178  1.00  0.00    -0.237 OA
ATOM     74  O   UNL A   1      34.129  36.239  33.083  1.00  0.00    -0.744 OA
ENDBRANCH  68  71
ENDBRANCH  50  64
BRANCH  51  75
ATOM     75  C   UNL A   1      44.031  28.486  29.754  1.00  0.00     0.023 A 
ATOM     76  C   UNL A   1      44.102  27.163  30.273  1.00  0.00     0.012 A 
ATOM     77  C   UNL A   1      44.161  28.649  28.370  1.00  0.00     0.148 A 
ATOM     78  C   UNL A   1      44.148  26.049  29.424  1.00  0.00     0.002 A 
ATOM     79  C   UNL A   1      44.160  27.534  27.531  1.00  0.00     0.091 A 
ATOM     80  F   UNL A   1      44.185  29.881  27.849  1.00  0.00    -0.205 F 
ATOM     81  C   UNL A   1      44.132  26.233  28.045  1.00  0.00     0.022 A 
BRANCH  79  82
ATOM     82  S   UNL A   1      43.912  27.817  25.779  1.00  0.00     0.127 S 
ATOM     83  O   UNL A   1      42.820  28.789  25.734  1.00  0.00    -0.237 OA
ATOM     84  O   UNL A   1      45.197  28.358  25.362  1.00  0.00    -0.237 OA
ATOM     85  O   UNL A   1      43.563  26.491  25.282  1.00  0.00    -0.744 OA
ENDBRANCH  79  82
ENDBRANCH  51  75
BRANCH  63  86
ATOM     86  C   UNL A   1      42.220  35.332  28.887  1.00  0.00     0.023 A 
ATOM     87  C   UNL A   1      41.635  35.650  27.649  1.00  0.00     0.012 A 
ATOM     88  C   UNL A   1      43.043  36.315  29.486  1.00  0.00     0.148 A 
ATOM     89  C   UNL A   1      41.935  36.842  26.981  1.00  0.00     0.002 A 
ATOM     90  C   UNL A   1      43.244  37.548  28.873  1.00  0.00     0.091 A 
ATOM     91  F   UNL A   1      43.663  36.052  30.647  1.00  0.00    -0.205 F 
ATOM     92  C   UNL A   1      42.727  37.799  27.600  1.00  0.00     0.022 A 
BRANCH  90  93
ATOM     93  S   UNL A   1      44.041  38.888  29.765  1.00  0.00     0.127 S 
ATOM     94  O   UNL A   1      43.400  38.811  31.075  1.00  0.00    -0.237 OA
ATOM     95  O   UNL A   1      45.449  38.487  29.752  1.00  0.00    -0.237 OA
ATOM     96  O   UNL A   1      43.757  40.080  28.976  1.00  0.00    -0.744 OA
ENDBRANCH  90  93
ENDBRANCH  63  86
ENDBRANCH  37  38
ENDBRANCH  30  32
ENDBRANCH  29  30
ENDBRANCH  28  29
ENDBRANCH   1  28
TORSDOF 18
ENDMDL
MODEL 3
REMARK VINA RESULT:     -12.9      1.964      2.369
REMARK SMILES Cc1ccccc1NC(=O)CSc1nc(C(=O)OCCOC(=O)c2ccc(-c3c4nc(c(-c5cccc(S(=O)(=O)[O-])c5F)c5ccc([nH]5)c(-c5cccc(S(=O)(=O)[O-])c5F)c5nc(c(-c6cccc(S(=O)(=O)[O-])c6F)c6ccc3[nH]6)C=C5)C=C4)cc2)c2ccccc2n1
REMARK SMILES IDX 19 1 18 2 16 3 17 4 15 5 13 6 14 7 93 8 92 9 87 10 91 11
REMARK SMILES IDX 88 12 90 13 89 14 12 15 11 16 9 17 8 18 10 20 7 21 1 22 2 23
REMARK SMILES IDX 3 24 4 25 6 26 5 27 20 28 21 29 22 30 23 31 24 32 25 33
REMARK SMILES IDX 86 34 26 35 85 36 27 37 28 38 29 39 79 40 30 41 84 42 78 43
REMARK SMILES IDX 80 44 31 45 83 46 77 47 76 48 32 50 64 51 44 52 63 53 45 54
REMARK SMILES IDX 48 55 62 56 81 57 46 58 47 59 61 61 82 62 49 63 33 64 34 65
REMARK SMILES IDX 42 66 35 67 37 68 43 69 36 70 38 71 39 72 40 73 41 74 65 75
REMARK SMILES IDX 66 76 74 77 67 78 69 79 75 80 68 81 70 82 71 83 72 84 73 85
REMARK SMILES IDX 50 86 51 87 59 88 52 89 54 90 60 91 53 92 55 93 56 94 57 95
REMARK SMILES IDX 58 96
REMARK H PARENT 8 19 80 49 48 60
REMARK Flexibility Score: inf
ROOT
ATOM      1  C   UNL A   1      33.829  29.457  26.545  1.00  0.00     0.275 C 
ENDROOT
BRANCH   1   2
ATOM      2  O   UNL A   1      33.138  29.649  25.311  1.00  0.00    -0.457 OA
BRANCH   2   3
ATOM      3  C   UNL A   1      31.838  30.015  25.406  1.00  0.00     0.357 C 
ATOM      4  O   UNL A   1      31.393  30.879  26.144  1.00  0.00    -0.244 OA
BRANCH   3   5
ATOM      5  C   UNL A   1      31.041  29.241  24.413  1.00  0.00     0.160 A 
ATOM      6  C   UNL A   1      30.618  27.210  23.483  1.00  0.00     0.189 A 
ATOM      7  N   UNL A   1      31.398  27.941  24.284  1.00  0.00    -0.215 NA
ATOM      8  N   UNL A   1      29.473  27.637  22.936  1.00  0.00    -0.222 NA
ATOM      9  C   UNL A   1      29.144  28.923  23.089  1.00  0.00     0.076 A 
ATOM     10  C   UNL A   1      29.923  29.830  23.809  1.00  0.00     0.034 A 
ATOM     11  C   UNL A   1      27.952  29.368  22.535  1.00  0.00     0.029 A 
ATOM     12  C   UNL A   1      29.513  31.189  23.903  1.00  0.00     0.013 A 
ATOM     13  C   UNL A   1      27.531  30.696  22.648  1.00  0.00     0.002 A 
ATOM     14  C   UNL A   1      28.326  31.616  23.317  1.00  0.00     0.001 A 
BRANCH   6  15
ATOM     15  S   UNL A   1      30.987  25.487  23.307  1.00  0.00    -0.076 SA
BRANCH  15  16
ATOM     16  C   UNL A   1      32.722  25.502  23.865  1.00  0.00     0.178 C 
BRANCH  16  17
ATOM     17  C   UNL A   1      33.679  25.003  22.808  1.00  0.00     0.234 C 
ATOM     18  N   UNL A   1      34.420  23.859  22.897  1.00  0.00    -0.325 N 
ATOM     19  H   UNL A   1      35.166  23.841  22.254  1.00  0.00     0.169 HD
ATOM     20  O   UNL A   1      33.790  25.613  21.736  1.00  0.00    -0.274 OA
BRANCH  18  21
ATOM     21  C   UNL A   1      34.367  22.698  23.692  1.00  0.00     0.044 A 
ATOM     22  C   UNL A   1      36.812  23.104  24.432  1.00  0.00     0.046 C 
ATOM     23  C   UNL A   1      35.549  22.283  24.353  1.00  0.00    -0.027 A 
ATOM     24  C   UNL A   1      35.611  20.991  24.913  1.00  0.00     0.005 A 
ATOM     25  C   UNL A   1      34.503  20.153  24.908  1.00  0.00     0.000 A 
ATOM     26  C   UNL A   1      33.237  21.883  23.795  1.00  0.00     0.026 A 
ATOM     27  C   UNL A   1      33.304  20.618  24.388  1.00  0.00     0.002 A 
ENDBRANCH  18  21
ENDBRANCH  16  17
ENDBRANCH  15  16
ENDBRANCH   6  15
ENDBRANCH   3   5
ENDBRANCH   2   3
ENDBRANCH   1   2
BRANCH   1  28
ATOM     28  C   UNL A   1      34.297  30.721  27.288  1.00  0.00     0.275 C 
BRANCH  28  29
ATOM     29  O   UNL A   1      35.692  30.866  27.658  1.00  0.00    -0.458 OA
BRANCH  29  30
ATOM     30  C   UNL A   1      36.323  30.509  28.812  1.00  0.00     0.338 C 
ATOM     31  O   UNL A   1      35.875  30.813  29.909  1.00  0.00    -0.246 OA
BRANCH  30  32
ATOM     32  C   UNL A   1      37.541  29.698  28.685  1.00  0.00     0.060 A 
ATOM     33  C   UNL A   1      38.250  29.659  27.474  1.00  0.00     0.016 A 
ATOM     34  C   UNL A   1      38.029  29.064  29.816  1.00  0.00     0.016 A 
ATOM     35  C   UNL A   1      39.506  29.049  27.421  1.00  0.00     0.010 A 
ATOM     36  C   UNL A   1      39.325  28.618  29.813  1.00  0.00     0.010 A 
ATOM     37  C   UNL A   1      40.035  28.531  28.600  1.00  0.00    -0.014 A 
BRANCH  37  38
ATOM     38  C   UNL A   1      41.103  27.538  28.644  1.00  0.00     0.031 A 
ATOM     39  C   UNL A   1      40.934  26.098  28.437  1.00  0.00     0.074 A 
ATOM     40  C   UNL A   1      42.327  28.103  28.762  1.00  0.00     0.049 A 
ATOM     41  N   UNL A   1      41.755  25.232  28.924  1.00  0.00    -0.248 NA
ATOM     42  C   UNL A   1      39.841  25.503  27.683  1.00  0.00     0.031 C 
ATOM     43  C   UNL A   1      43.636  27.586  28.434  1.00  0.00     0.029 A 
ATOM     44  N   UNL A   1      42.578  29.371  29.300  1.00  0.00    -0.354 N 
ATOM     45  C   UNL A   1      41.489  24.023  28.319  1.00  0.00     0.074 A 
ATOM     46  C   UNL A   1      40.223  24.217  27.647  1.00  0.00     0.031 C 
ATOM     47  C   UNL A   1      44.564  28.418  28.944  1.00  0.00     0.029 A 
ATOM     48  C   UNL A   1      43.886  29.413  29.767  1.00  0.00     0.049 A 
ATOM     49  H   UNL A   1      41.933  30.113  29.340  1.00  0.00     0.167 HD
ATOM     50  C   UNL A   1      42.471  23.072  28.300  1.00  0.00     0.034 A 
ATOM     51  C   UNL A   1      44.167  29.772  31.054  1.00  0.00     0.034 A 
ATOM     52  C   UNL A   1      43.682  23.574  28.979  1.00  0.00     0.049 A 
ATOM     53  C   UNL A   1      44.680  28.557  31.816  1.00  0.00     0.074 A 
ATOM     54  C   UNL A   1      44.826  24.175  28.478  1.00  0.00     0.029 A 
ATOM     55  N   UNL A   1      43.688  23.810  30.351  1.00  0.00    -0.354 N 
ATOM     56  N   UNL A   1      44.797  27.364  31.299  1.00  0.00    -0.248 NA
ATOM     57  C   UNL A   1      45.021  28.574  33.236  1.00  0.00     0.031 C 
ATOM     58  C   UNL A   1      45.465  24.864  29.540  1.00  0.00     0.029 A 
ATOM     59  C   UNL A   1      44.736  24.658  30.700  1.00  0.00     0.049 A 
ATOM     60  H   UNL A   1      43.040  23.429  30.989  1.00  0.00     0.167 HD
ATOM     61  C   UNL A   1      45.011  26.450  32.293  1.00  0.00     0.074 A 
ATOM     62  C   UNL A   1      45.232  27.268  33.474  1.00  0.00     0.031 C 
ATOM     63  C   UNL A   1      44.913  25.102  32.082  1.00  0.00     0.034 A 
BRANCH  50  64
ATOM     64  C   UNL A   1      42.509  21.879  27.349  1.00  0.00     0.023 A 
ATOM     65  C   UNL A   1      41.514  20.885  27.522  1.00  0.00     0.012 A 
ATOM     66  C   UNL A   1      43.470  21.616  26.345  1.00  0.00     0.148 A 
ATOM     67  C   UNL A   1      41.537  19.660  26.847  1.00  0.00     0.002 A 
ATOM     68  C   UNL A   1      43.526  20.369  25.705  1.00  0.00     0.091 A 
ATOM     69  F   UNL A   1      44.293  22.592  25.947  1.00  0.00    -0.205 F 
ATOM     70  C   UNL A   1      42.566  19.385  25.964  1.00  0.00     0.022 A 
BRANCH  68  71
ATOM     71  S   UNL A   1      44.859  19.901  24.584  1.00  0.00     0.127 S 
ATOM     72  O   UNL A   1      46.040  20.428  25.272  1.00  0.00    -0.237 OA
ATOM     73  O   UNL A   1      44.765  18.444  24.571  1.00  0.00    -0.237 OA
ATOM     74  O   UNL A   1      44.569  20.561  23.315  1.00  0.00    -0.744 OA
ENDBRANCH  68  71
ENDBRANCH  50  64
BRANCH  51  75
ATOM     75  C   UNL A   1      43.203  30.792  31.612  1.00  0.00     0.023 A 
ATOM     76  C   UNL A   1      42.197  30.342  32.512  1.00  0.00     0.012 A 
ATOM     77  C   UNL A   1      43.510  32.157  31.610  1.00  0.00     0.148 A 
ATOM     78  C   UNL A   1      41.640  31.201  33.470  1.00  0.00     0.002 A 
ATOM     79  C   UNL A   1      42.985  32.994  32.596  1.00  0.00     0.091 A 
ATOM     80  F   UNL A   1      44.389  32.636  30.722  1.00  0.00    -0.205 F 
ATOM     81  C   UNL A   1      42.068  32.523  33.541  1.00  0.00     0.022 A 
BRANCH  79  82
ATOM     82  S   UNL A   1      43.729  34.612  32.790  1.00  0.00     0.127 S 
ATOM     83  O   UNL A   1      42.962  35.221  33.876  1.00  0.00    -0.237 OA
ATOM     84  O   UNL A   1      45.101  34.287  33.151  1.00  0.00    -0.237 OA
ATOM     85  O   UNL A   1      43.520  35.225  31.483  1.00  0.00    -0.744 OA
ENDBRANCH  79  82
ENDBRANCH  51  75
BRANCH  63  86
ATOM     86  C   UNL A   1      45.013  24.070  33.179  1.00  0.00     0.023 A 
ATOM     87  C   UNL A   1      43.935  23.240  33.534  1.00  0.00     0.012 A 
ATOM     88  C   UNL A   1      46.252  23.833  33.820  1.00  0.00     0.148 A 
ATOM     89  C   UNL A   1      44.048  22.288  34.553  1.00  0.00     0.002 A 
ATOM     90  C   UNL A   1      46.391  22.806  34.747  1.00  0.00     0.091 A 
ATOM     91  F   UNL A   1      47.305  24.621  33.553  1.00  0.00    -0.205 F 
ATOM     92  C   UNL A   1      45.281  22.059  35.149  1.00  0.00     0.022 A 
BRANCH  90  93
ATOM     93  S   UNL A   1      48.018  22.323  35.334  1.00  0.00     0.127 S 
ATOM     94  O   UNL A   1      48.433  23.498  36.095  1.00  0.00    -0.237 OA
ATOM     95  O   UNL A   1      47.726  21.142  36.150  1.00  0.00    -0.237 OA
ATOM     96  O   UNL A   1      48.779  22.034  34.126  1.00  0.00    -0.744 OA
ENDBRANCH  90  93
ENDBRANCH  63  86
ENDBRANCH  37  38
ENDBRANCH  30  32
ENDBRANCH  29  30
ENDBRANCH  28  29
ENDBRANCH   1  28
TORSDOF 18
ENDMDL
