MODEL 1
REMARK VINA RESULT:     -12.2      0.000      0.000
REMARK SMILES C[C@@H]1[C@H](C(=O)OCCOC(=O)c2ccc(-c3c4nc(c(-c5cccc(S(=O)(=O)[O-])c5F)c5ccc([nH]5)c(-c5cccc(S(=O)(=O)[O-])c5F)c5nc(c(-c6cccc(S(=O)(=O)[O-])c6F)c6ccc3[nH]6)C=C5)C=C4)cc2)CC[N@@H+]1Cc1cnn(-c2ccccc2)c1
REMARK SMILES IDX 7 1 6 2 4 3 5 4 3 5 1 6 2 7 77 8 75 9 76 10 78 12 79 13
REMARK SMILES IDX 80 14 89 15 81 16 82 17 83 18 84 19 88 20 85 21 87 22 86 23
REMARK SMILES IDX 8 24 9 25 10 26 11 27 12 28 13 29 74 30 14 31 73 32 15 33
REMARK SMILES IDX 16 34 17 35 67 36 18 37 72 38 66 39 68 40 19 41 71 42 65 43
REMARK SMILES IDX 64 44 20 46 52 47 32 48 51 49 33 50 36 51 50 52 69 53 34 54
REMARK SMILES IDX 35 55 49 57 70 58 37 59 21 60 22 61 30 62 23 63 25 64 31 65
REMARK SMILES IDX 24 66 26 67 27 68 28 69 29 70 53 71 54 72 62 73 55 74 57 75
REMARK SMILES IDX 63 76 56 77 58 78 59 79 60 80 61 81 38 82 39 83 47 84 40 85
REMARK SMILES IDX 42 86 48 87 41 88 43 89 44 90 45 91 46 92
REMARK H PARENT 77 11 68 45 36 56
REMARK Flexibility Score: inf
ROOT
ATOM      1  C   UNL A   1      34.881  20.574  25.573  1.00  0.00     0.274 C 
ENDROOT
BRANCH   1   2
ATOM      2  O   UNL A   1      33.909  21.019  24.606  1.00  0.00    -0.462 OA
BRANCH   2   3
ATOM      3  C   UNL A   1      32.709  21.408  25.087  1.00  0.00     0.315 C 
ATOM      4  O   UNL A   1      31.778  20.641  25.308  1.00  0.00    -0.252 OA
BRANCH   3   5
ATOM      5  C   UNL A   1      32.566  22.898  25.315  1.00  0.00     0.162 C 
ATOM      6  C   UNL A   1      31.184  23.324  23.125  1.00  0.00     0.076 C 
ATOM      7  C   UNL A   1      32.014  23.890  24.270  1.00  0.00     0.195 C 
ATOM      8  N   UNL A   1      31.404  24.961  25.091  1.00  0.00    -0.328 N 
ATOM      9  C   UNL A   1      31.780  23.194  26.580  1.00  0.00     0.083 C 
ATOM     10  C   UNL A   1      31.628  24.698  26.506  1.00  0.00     0.263 C 
ATOM     11  H   UNL A   1      31.931  25.777  24.779  1.00  0.00     0.348 HD
BRANCH   8  12
ATOM     12  C   UNL A   1      30.151  25.608  24.738  1.00  0.00     0.302 C 
BRANCH  12  13
ATOM     13  C   UNL A   1      30.294  27.046  24.372  1.00  0.00     0.045 A 
ATOM     14  C   UNL A   1      31.274  27.982  24.769  1.00  0.00     0.145 A 
ATOM     15  C   UNL A   1      29.516  27.770  23.490  1.00  0.00     0.124 A 
ATOM     16  N   UNL A   1      31.107  29.186  24.215  1.00  0.00    -0.176 NA
ATOM     17  N   UNL A   1      29.945  29.074  23.524  1.00  0.00    -0.240 N 
BRANCH  17  18
ATOM     18  C   UNL A   1      29.304  30.197  22.942  1.00  0.00     0.065 A 
ATOM     19  C   UNL A   1      28.927  30.162  21.594  1.00  0.00     0.028 A 
ATOM     20  C   UNL A   1      29.062  31.352  23.703  1.00  0.00     0.028 A 
ATOM     21  C   UNL A   1      28.276  31.259  21.025  1.00  0.00     0.002 A 
ATOM     22  C   UNL A   1      28.436  32.454  23.121  1.00  0.00     0.002 A 
ATOM     23  C   UNL A   1      28.032  32.403  21.788  1.00  0.00     0.000 A 
ENDBRANCH  17  18
ENDBRANCH  12  13
ENDBRANCH   8  12
ENDBRANCH   3   5
ENDBRANCH   2   3
ENDBRANCH   1   2
BRANCH   1  24
ATOM     24  C   UNL A   1      36.294  20.686  25.000  1.00  0.00     0.275 C 
BRANCH  24  25
ATOM     25  O   UNL A   1      37.052  21.691  25.699  1.00  0.00    -0.458 OA
BRANCH  25  26
ATOM     26  C   UNL A   1      38.353  21.396  25.926  1.00  0.00     0.338 C 
ATOM     27  O   UNL A   1      38.937  20.359  25.671  1.00  0.00    -0.246 OA
BRANCH  26  28
ATOM     28  C   UNL A   1      39.034  22.577  26.469  1.00  0.00     0.060 A 
ATOM     29  C   UNL A   1      38.563  23.841  26.111  1.00  0.00     0.016 A 
ATOM     30  C   UNL A   1      40.191  22.438  27.233  1.00  0.00     0.016 A 
ATOM     31  C   UNL A   1      39.255  24.982  26.503  1.00  0.00     0.010 A 
ATOM     32  C   UNL A   1      40.875  23.585  27.645  1.00  0.00     0.010 A 
ATOM     33  C   UNL A   1      40.421  24.862  27.270  1.00  0.00    -0.014 A 
BRANCH  33  34
ATOM     34  C   UNL A   1      41.186  26.073  27.651  1.00  0.00     0.031 A 
ATOM     35  C   UNL A   1      40.521  27.155  28.451  1.00  0.00     0.074 A 
ATOM     36  C   UNL A   1      42.469  26.197  27.265  1.00  0.00     0.049 A 
ATOM     37  N   UNL A   1      40.977  28.334  28.783  1.00  0.00    -0.248 NA
ATOM     38  C   UNL A   1      39.161  26.876  28.942  1.00  0.00     0.031 C 
ATOM     39  C   UNL A   1      43.223  25.200  26.503  1.00  0.00     0.029 A 
ATOM     40  N   UNL A   1      43.360  27.226  27.442  1.00  0.00    -0.354 N 
ATOM     41  C   UNL A   1      39.949  28.957  29.480  1.00  0.00     0.074 A 
ATOM     42  C   UNL A   1      38.844  28.024  29.527  1.00  0.00     0.031 C 
ATOM     43  C   UNL A   1      44.459  25.669  26.269  1.00  0.00     0.029 A 
ATOM     44  C   UNL A   1      44.570  27.015  26.822  1.00  0.00     0.049 A 
ATOM     45  H   UNL A   1      43.154  28.035  27.962  1.00  0.00     0.167 HD
ATOM     46  C   UNL A   1      39.934  30.189  30.039  1.00  0.00     0.034 A 
ATOM     47  C   UNL A   1      45.636  27.828  26.691  1.00  0.00     0.034 A 
ATOM     48  C   UNL A   1      41.053  31.094  30.025  1.00  0.00     0.049 A 
ATOM     49  C   UNL A   1      45.587  29.196  27.313  1.00  0.00     0.074 A 
ATOM     50  C   UNL A   1      41.147  32.357  30.580  1.00  0.00     0.029 A 
ATOM     51  N   UNL A   1      42.277  30.826  29.429  1.00  0.00    -0.354 N 
ATOM     52  N   UNL A   1      44.632  29.745  28.025  1.00  0.00    -0.248 NA
ATOM     53  C   UNL A   1      46.768  30.051  27.132  1.00  0.00     0.031 C 
ATOM     54  C   UNL A   1      42.427  32.856  30.317  1.00  0.00     0.029 A 
ATOM     55  C   UNL A   1      43.133  31.900  29.604  1.00  0.00     0.049 A 
ATOM     56  H   UNL A   1      42.502  29.996  28.952  1.00  0.00     0.167 HD
ATOM     57  C   UNL A   1      45.104  30.998  28.397  1.00  0.00     0.074 A 
ATOM     58  C   UNL A   1      46.442  31.117  27.853  1.00  0.00     0.031 C 
ATOM     59  C   UNL A   1      44.482  31.971  29.105  1.00  0.00     0.034 A 
BRANCH  46  60
ATOM     60  C   UNL A   1      38.679  30.620  30.749  1.00  0.00     0.023 A 
ATOM     61  C   UNL A   1      38.545  30.372  32.130  1.00  0.00     0.012 A 
ATOM     62  C   UNL A   1      37.659  31.312  30.068  1.00  0.00     0.148 A 
ATOM     63  C   UNL A   1      37.405  30.785  32.818  1.00  0.00     0.002 A 
ATOM     64  C   UNL A   1      36.540  31.753  30.768  1.00  0.00     0.091 A 
ATOM     65  F   UNL A   1      37.793  31.515  28.749  1.00  0.00    -0.205 F 
ATOM     66  C   UNL A   1      36.409  31.483  32.140  1.00  0.00     0.022 A 
BRANCH  64  67
ATOM     67  S   UNL A   1      35.235  32.714  29.994  1.00  0.00     0.127 S 
ATOM     68  O   UNL A   1      35.974  33.881  29.514  1.00  0.00    -0.237 OA
ATOM     69  O   UNL A   1      34.768  31.814  28.941  1.00  0.00    -0.237 OA
ATOM     70  O   UNL A   1      34.258  32.976  31.042  1.00  0.00    -0.744 OA
ENDBRANCH  64  67
ENDBRANCH  46  60
BRANCH  47  71
ATOM     71  C   UNL A   1      46.851  27.351  25.971  1.00  0.00     0.023 A 
ATOM     72  C   UNL A   1      46.969  27.587  24.589  1.00  0.00     0.012 A 
ATOM     73  C   UNL A   1      47.903  26.704  26.649  1.00  0.00     0.148 A 
ATOM     74  C   UNL A   1      48.102  27.169  23.890  1.00  0.00     0.002 A 
ATOM     75  C   UNL A   1      49.053  26.340  25.957  1.00  0.00     0.091 A 
ATOM     76  F   UNL A   1      47.764  26.462  27.961  1.00  0.00    -0.205 F 
ATOM     77  C   UNL A   1      49.149  26.559  24.576  1.00  0.00     0.022 A 
BRANCH  75  78
ATOM     78  S   UNL A   1      50.494  25.674  26.799  1.00  0.00     0.127 S 
ATOM     79  O   UNL A   1      50.811  26.741  27.743  1.00  0.00    -0.237 OA
ATOM     80  O   UNL A   1      49.961  24.453  27.407  1.00  0.00    -0.237 OA
ATOM     81  O   UNL A   1      51.474  25.434  25.748  1.00  0.00    -0.744 OA
ENDBRANCH  75  78
ENDBRANCH  47  71
BRANCH  59  82
ATOM     82  C   UNL A   1      45.246  33.243  29.353  1.00  0.00     0.023 A 
ATOM     83  C   UNL A   1      46.048  33.356  30.506  1.00  0.00     0.012 A 
ATOM     84  C   UNL A   1      45.230  34.291  28.413  1.00  0.00     0.148 A 
ATOM     85  C   UNL A   1      46.803  34.504  30.732  1.00  0.00     0.002 A 
ATOM     86  C   UNL A   1      46.018  35.416  28.625  1.00  0.00     0.091 A 
ATOM     87  F   UNL A   1      44.443  34.173  27.334  1.00  0.00    -0.205 F 
ATOM     88  C   UNL A   1      46.799  35.529  29.788  1.00  0.00     0.022 A 
BRANCH  86  89
ATOM     89  S   UNL A   1      46.135  36.742  27.418  1.00  0.00     0.127 S 
ATOM     90  O   UNL A   1      44.754  37.217  27.360  1.00  0.00    -0.237 OA
ATOM     91  O   UNL A   1      47.073  37.667  28.056  1.00  0.00    -0.237 OA
ATOM     92  O   UNL A   1      46.640  36.122  26.199  1.00  0.00    -0.744 OA
ENDBRANCH  86  89
ENDBRANCH  59  82
ENDBRANCH  33  34
ENDBRANCH  26  28
ENDBRANCH  25  26
ENDBRANCH  24  25
ENDBRANCH   1  24
TORSDOF 17
ENDMDL
MODEL 2
REMARK VINA RESULT:     -12.1      1.522      1.974
REMARK SMILES C[C@@H]1[C@H](C(=O)OCCOC(=O)c2ccc(-c3c4nc(c(-c5cccc(S(=O)(=O)[O-])c5F)c5ccc([nH]5)c(-c5cccc(S(=O)(=O)[O-])c5F)c5nc(c(-c6cccc(S(=O)(=O)[O-])c6F)c6ccc3[nH]6)C=C5)C=C4)cc2)CC[N@@H+]1Cc1cnn(-c2ccccc2)c1
REMARK SMILES IDX 7 1 6 2 4 3 5 4 3 5 1 6 2 7 77 8 75 9 76 10 78 12 79 13
REMARK SMILES IDX 80 14 89 15 81 16 82 17 83 18 84 19 88 20 85 21 87 22 86 23
REMARK SMILES IDX 8 24 9 25 10 26 11 27 12 28 13 29 74 30 14 31 73 32 15 33
REMARK SMILES IDX 16 34 17 35 67 36 18 37 72 38 66 39 68 40 19 41 71 42 65 43
REMARK SMILES IDX 64 44 20 46 52 47 32 48 51 49 33 50 36 51 50 52 69 53 34 54
REMARK SMILES IDX 35 55 49 57 70 58 37 59 21 60 22 61 30 62 23 63 25 64 31 65
REMARK SMILES IDX 24 66 26 67 27 68 28 69 29 70 53 71 54 72 62 73 55 74 57 75
REMARK SMILES IDX 63 76 56 77 58 78 59 79 60 80 61 81 38 82 39 83 47 84 40 85
REMARK SMILES IDX 42 86 48 87 41 88 43 89 44 90 45 91 46 92
REMARK H PARENT 77 11 68 45 36 56
REMARK Flexibility Score: inf
ROOT
ATOM      1  C   UNL A   1      35.730  19.870  24.911  1.00  0.00     0.274 C 
ENDROOT
BRANCH   1   2
ATOM      2  O   UNL A   1      34.446  20.347  24.462  1.00  0.00    -0.462 OA
BRANCH   2   3
ATOM      3  C   UNL A   1      33.660  20.934  25.389  1.00  0.00     0.315 C 
ATOM      4  O   UNL A   1      33.631  20.607  26.571  1.00  0.00    -0.252 OA
BRANCH   3   5
ATOM      5  C   UNL A   1      32.764  22.034  24.861  1.00  0.00     0.162 C 
ATOM      6  C   UNL A   1      34.415  23.979  25.475  1.00  0.00     0.076 C 
ATOM      7  C   UNL A   1      33.010  23.541  25.082  1.00  0.00     0.195 C 
ATOM      8  N   UNL A   1      32.406  24.175  23.888  1.00  0.00    -0.328 N 
ATOM      9  C   UNL A   1      32.538  21.897  23.365  1.00  0.00     0.083 C 
ATOM     10  C   UNL A   1      31.776  23.165  23.048  1.00  0.00     0.263 C 
ATOM     11  H   UNL A   1      31.710  24.786  24.316  1.00  0.00     0.348 HD
BRANCH   8  12
ATOM     12  C   UNL A   1      33.012  25.306  23.204  1.00  0.00     0.302 C 
BRANCH  12  13
ATOM     13  C   UNL A   1      32.396  26.621  23.547  1.00  0.00     0.045 A 
ATOM     14  C   UNL A   1      32.801  27.583  24.498  1.00  0.00     0.145 A 
ATOM     15  C   UNL A   1      31.310  27.221  22.943  1.00  0.00     0.124 A 
ATOM     16  N   UNL A   1      32.022  28.668  24.513  1.00  0.00    -0.176 NA
ATOM     17  N   UNL A   1      31.032  28.376  23.633  1.00  0.00    -0.240 N 
BRANCH  17  18
ATOM     18  C   UNL A   1      29.883  29.196  23.495  1.00  0.00     0.065 A 
ATOM     19  C   UNL A   1      29.938  30.542  23.874  1.00  0.00     0.028 A 
ATOM     20  C   UNL A   1      28.683  28.660  22.998  1.00  0.00     0.028 A 
ATOM     21  C   UNL A   1      28.813  31.355  23.718  1.00  0.00     0.002 A 
ATOM     22  C   UNL A   1      27.555  29.472  22.871  1.00  0.00     0.002 A 
ATOM     23  C   UNL A   1      27.625  30.820  23.218  1.00  0.00     0.000 A 
ENDBRANCH  17  18
ENDBRANCH  12  13
ENDBRANCH   8  12
ENDBRANCH   3   5
ENDBRANCH   2   3
ENDBRANCH   1   2
BRANCH   1  24
ATOM     24  C   UNL A   1      36.826  20.879  24.566  1.00  0.00     0.275 C 
BRANCH  24  25
ATOM     25  O   UNL A   1      37.381  21.459  25.761  1.00  0.00    -0.458 OA
BRANCH  25  26
ATOM     26  C   UNL A   1      38.693  21.211  25.982  1.00  0.00     0.338 C 
ATOM     27  O   UNL A   1      39.311  20.192  25.729  1.00  0.00    -0.246 OA
BRANCH  26  28
ATOM     28  C   UNL A   1      39.336  22.418  26.513  1.00  0.00     0.060 A 
ATOM     29  C   UNL A   1      38.838  23.663  26.127  1.00  0.00     0.016 A 
ATOM     30  C   UNL A   1      40.486  22.321  27.294  1.00  0.00     0.016 A 
ATOM     31  C   UNL A   1      39.496  24.828  26.508  1.00  0.00     0.010 A 
ATOM     32  C   UNL A   1      41.135  23.492  27.695  1.00  0.00     0.010 A 
ATOM     33  C   UNL A   1      40.654  24.751  27.293  1.00  0.00    -0.014 A 
BRANCH  33  34
ATOM     34  C   UNL A   1      41.382  25.987  27.662  1.00  0.00     0.031 A 
ATOM     35  C   UNL A   1      40.687  27.055  28.456  1.00  0.00     0.074 A 
ATOM     36  C   UNL A   1      42.661  26.147  27.272  1.00  0.00     0.049 A 
ATOM     37  N   UNL A   1      41.108  28.249  28.778  1.00  0.00    -0.248 NA
ATOM     38  C   UNL A   1      39.337  26.738  28.952  1.00  0.00     0.031 C 
ATOM     39  C   UNL A   1      43.442  25.168  26.517  1.00  0.00     0.029 A 
ATOM     40  N   UNL A   1      43.520  27.203  27.440  1.00  0.00    -0.354 N 
ATOM     41  C   UNL A   1      40.063  28.846  29.472  1.00  0.00     0.074 A 
ATOM     42  C   UNL A   1      38.986  27.881  29.529  1.00  0.00     0.031 C 
ATOM     43  C   UNL A   1      44.663  25.672  26.276  1.00  0.00     0.029 A 
ATOM     44  C   UNL A   1      44.735  27.025  26.818  1.00  0.00     0.049 A 
ATOM     45  H   UNL A   1      43.291  28.010  27.955  1.00  0.00     0.167 HD
ATOM     46  C   UNL A   1      40.012  30.082  30.023  1.00  0.00     0.034 A 
ATOM     47  C   UNL A   1      45.775  27.869  26.679  1.00  0.00     0.034 A 
ATOM     48  C   UNL A   1      41.103  31.019  29.999  1.00  0.00     0.049 A 
ATOM     49  C   UNL A   1      45.687  29.239  27.291  1.00  0.00     0.074 A 
ATOM     50  C   UNL A   1      41.159  32.289  30.544  1.00  0.00     0.029 A 
ATOM     51  N   UNL A   1      42.332  30.784  29.402  1.00  0.00    -0.354 N 
ATOM     52  N   UNL A   1      44.716  29.764  28.000  1.00  0.00    -0.248 NA
ATOM     53  C   UNL A   1      46.841  30.128  27.101  1.00  0.00     0.031 C 
ATOM     54  C   UNL A   1      42.423  32.825  30.274  1.00  0.00     0.029 A 
ATOM     55  C   UNL A   1      43.156  31.885  29.567  1.00  0.00     0.049 A 
ATOM     56  H   UNL A   1      42.582  29.958  28.930  1.00  0.00     0.167 HD
ATOM     57  C   UNL A   1      45.151  31.034  28.362  1.00  0.00     0.074 A 
ATOM     58  C   UNL A   1      46.484  31.189  27.814  1.00  0.00     0.031 C 
ATOM     59  C   UNL A   1      44.502  31.993  29.064  1.00  0.00     0.034 A 
BRANCH  46  60
ATOM     60  C   UNL A   1      38.746  30.479  30.732  1.00  0.00     0.023 A 
ATOM     61  C   UNL A   1      38.625  30.244  32.116  1.00  0.00     0.012 A 
ATOM     62  C   UNL A   1      37.701  31.129  30.047  1.00  0.00     0.148 A 
ATOM     63  C   UNL A   1      37.473  30.628  32.804  1.00  0.00     0.002 A 
ATOM     64  C   UNL A   1      36.571  31.541  30.746  1.00  0.00     0.091 A 
ATOM     65  F   UNL A   1      37.824  31.321  28.725  1.00  0.00    -0.205 F 
ATOM     66  C   UNL A   1      36.453  31.285  32.121  1.00  0.00     0.022 A 
BRANCH  64  67
ATOM     67  S   UNL A   1      35.232  32.450  29.966  1.00  0.00     0.127 S 
ATOM     68  O   UNL A   1      34.324  32.661  31.092  1.00  0.00    -0.237 OA
ATOM     69  O   UNL A   1      35.909  33.658  29.495  1.00  0.00    -0.237 OA
ATOM     70  O   UNL A   1      34.729  31.588  28.906  1.00  0.00    -0.744 OA
ENDBRANCH  64  67
ENDBRANCH  46  60
BRANCH  47  71
ATOM     71  C   UNL A   1      47.002  27.423  25.960  1.00  0.00     0.023 A 
ATOM     72  C   UNL A   1      47.951  26.637  26.639  1.00  0.00     0.012 A 
ATOM     73  C   UNL A   1      47.216  27.739  24.604  1.00  0.00     0.148 A 
ATOM     74  C   UNL A   1      49.102  26.188  25.987  1.00  0.00     0.002 A 
ATOM     75  C   UNL A   1      48.337  27.243  23.945  1.00  0.00     0.091 A 
ATOM     76  F   UNL A   1      46.317  28.512  23.978  1.00  0.00    -0.205 F 
ATOM     77  C   UNL A   1      49.288  26.480  24.638  1.00  0.00     0.022 A 
BRANCH  75  78
ATOM     78  S   UNL A   1      48.572  27.465  22.178  1.00  0.00     0.127 S 
ATOM     79  O   UNL A   1      49.798  28.255  22.133  1.00  0.00    -0.237 OA
ATOM     80  O   UNL A   1      48.711  26.085  21.708  1.00  0.00    -0.237 OA
ATOM     81  O   UNL A   1      47.362  28.131  21.712  1.00  0.00    -0.744 OA
ENDBRANCH  75  78
ENDBRANCH  47  71
BRANCH  59  82
ATOM     82  C   UNL A   1      45.227  33.289  29.302  1.00  0.00     0.023 A 
ATOM     83  C   UNL A   1      46.016  33.440  30.458  1.00  0.00     0.012 A 
ATOM     84  C   UNL A   1      45.188  34.324  28.348  1.00  0.00     0.148 A 
ATOM     85  C   UNL A   1      46.737  34.613  30.675  1.00  0.00     0.002 A 
ATOM     86  C   UNL A   1      45.943  35.474  28.550  1.00  0.00     0.091 A 
ATOM     87  F   UNL A   1      44.413  34.170  27.264  1.00  0.00    -0.205 F 
ATOM     88  C   UNL A   1      46.711  35.624  29.717  1.00  0.00     0.022 A 
BRANCH  86  89
ATOM     89  S   UNL A   1      46.031  36.787  27.327  1.00  0.00     0.127 S 
ATOM     90  O   UNL A   1      47.088  37.636  27.874  1.00  0.00    -0.237 OA
ATOM     91  O   UNL A   1      46.400  36.060  26.112  1.00  0.00    -0.237 OA
ATOM     92  O   UNL A   1      44.701  37.382  27.289  1.00  0.00    -0.744 OA
ENDBRANCH  86  89
ENDBRANCH  59  82
ENDBRANCH  33  34
ENDBRANCH  26  28
ENDBRANCH  25  26
ENDBRANCH  24  25
ENDBRANCH   1  24
TORSDOF 17
ENDMDL
MODEL 3
REMARK VINA RESULT:     -11.9      5.388     10.534
REMARK SMILES C[C@@H]1[C@H](C(=O)OCCOC(=O)c2ccc(-c3c4nc(c(-c5cccc(S(=O)(=O)[O-])c5F)c5ccc([nH]5)c(-c5cccc(S(=O)(=O)[O-])c5F)c5nc(c(-c6cccc(S(=O)(=O)[O-])c6F)c6ccc3[nH]6)C=C5)C=C4)cc2)CC[N@@H+]1Cc1cnn(-c2ccccc2)c1
REMARK SMILES IDX 7 1 6 2 4 3 5 4 3 5 1 6 2 7 77 8 75 9 76 10 78 12 79 13
REMARK SMILES IDX 80 14 89 15 81 16 82 17 83 18 84 19 88 20 85 21 87 22 86 23
REMARK SMILES IDX 8 24 9 25 10 26 11 27 12 28 13 29 74 30 14 31 73 32 15 33
REMARK SMILES IDX 16 34 17 35 67 36 18 37 72 38 66 39 68 40 19 41 71 42 65 43
REMARK SMILES IDX 64 44 20 46 52 47 32 48 51 49 33 50 36 51 50 52 69 53 34 54
REMARK SMILES IDX 35 55 49 57 70 58 37 59 21 60 22 61 30 62 23 63 25 64 31 65
REMARK SMILES IDX 24 66 26 67 27 68 28 69 29 70 53 71 54 72 62 73 55 74 57 75
REMARK SMILES IDX 63 76 56 77 58 78 59 79 60 80 61 81 38 82 39 83 47 84 40 85
REMARK SMILES IDX 42 86 48 87 41 88 43 89 44 90 45 91 46 92
REMARK H PARENT 77 11 68 45 36 56
REMARK Flexibility Score: inf
ROOT
ATOM      1  C   UNL A   1      31.135  29.807  24.919  1.00  0.00     0.274 C 
ENDROOT
BRANCH   1   2
ATOM      2  O   UNL A   1      31.159  29.085  23.671  1.00  0.00    -0.462 OA
BRANCH   2   3
ATOM      3  C   UNL A   1      30.746  27.800  23.705  1.00  0.00     0.315 C 
ATOM      4  O   UNL A   1      29.580  27.451  23.554  1.00  0.00    -0.252 OA
BRANCH   3   5
ATOM      5  C   UNL A   1      31.836  26.788  23.982  1.00  0.00     0.162 C 
ATOM      6  C   UNL A   1      31.350  26.638  26.556  1.00  0.00     0.076 C 
ATOM      7  C   UNL A   1      32.294  26.364  25.393  1.00  0.00     0.195 C 
ATOM      8  N   UNL A   1      32.763  24.972  25.208  1.00  0.00    -0.328 N 
ATOM      9  C   UNL A   1      31.579  25.480  23.253  1.00  0.00     0.083 C 
ATOM     10  C   UNL A   1      32.678  24.597  23.802  1.00  0.00     0.263 C 
ATOM     11  H   UNL A   1      33.733  25.044  25.513  1.00  0.00     0.348 HD
BRANCH   8  12
ATOM     12  C   UNL A   1      32.513  23.919  26.179  1.00  0.00     0.302 C 
BRANCH  12  13
ATOM     13  C   UNL A   1      33.226  22.643  25.885  1.00  0.00     0.045 A 
ATOM     14  C   UNL A   1      34.573  22.290  26.118  1.00  0.00     0.145 A 
ATOM     15  C   UNL A   1      32.688  21.481  25.367  1.00  0.00     0.124 A 
ATOM     16  N   UNL A   1      34.861  21.038  25.752  1.00  0.00    -0.176 NA
ATOM     17  N   UNL A   1      33.716  20.591  25.176  1.00  0.00    -0.240 N 
BRANCH  17  18
ATOM     18  C   UNL A   1      33.658  19.360  24.476  1.00  0.00     0.065 A 
ATOM     19  C   UNL A   1      34.686  18.421  24.631  1.00  0.00     0.028 A 
ATOM     20  C   UNL A   1      32.586  19.082  23.612  1.00  0.00     0.028 A 
ATOM     21  C   UNL A   1      34.618  17.199  23.958  1.00  0.00     0.002 A 
ATOM     22  C   UNL A   1      32.540  17.870  22.923  1.00  0.00     0.002 A 
ATOM     23  C   UNL A   1      33.547  16.925  23.106  1.00  0.00     0.000 A 
ENDBRANCH  17  18
ENDBRANCH  12  13
ENDBRANCH   8  12
ENDBRANCH   3   5
ENDBRANCH   2   3
ENDBRANCH   1   2
BRANCH   1  24
ATOM     24  C   UNL A   1      32.557  30.050  25.423  1.00  0.00     0.275 C 
BRANCH  24  25
ATOM     25  O   UNL A   1      32.561  30.301  26.841  1.00  0.00    -0.458 OA
BRANCH  25  26
ATOM     26  C   UNL A   1      33.175  31.441  27.235  1.00  0.00     0.338 C 
ATOM     27  O   UNL A   1      32.723  32.571  27.226  1.00  0.00    -0.246 OA
BRANCH  26  28
ATOM     28  C   UNL A   1      34.496  31.119  27.786  1.00  0.00     0.060 A 
ATOM     29  C   UNL A   1      34.747  29.808  28.193  1.00  0.00     0.016 A 
ATOM     30  C   UNL A   1      35.436  32.124  28.002  1.00  0.00     0.016 A 
ATOM     31  C   UNL A   1      35.940  29.491  28.835  1.00  0.00     0.010 A 
ATOM     32  C   UNL A   1      36.644  31.802  28.628  1.00  0.00     0.010 A 
ATOM     33  C   UNL A   1      36.897  30.488  29.061  1.00  0.00    -0.014 A 
BRANCH  33  34
ATOM     34  C   UNL A   1      38.149  30.163  29.785  1.00  0.00     0.031 A 
ATOM     35  C   UNL A   1      39.145  29.225  29.168  1.00  0.00     0.074 A 
ATOM     36  C   UNL A   1      38.376  30.704  30.996  1.00  0.00     0.049 A 
ATOM     37  N   UNL A   1      40.237  28.726  29.685  1.00  0.00    -0.248 NA
ATOM     38  C   UNL A   1      38.877  28.786  27.788  1.00  0.00     0.031 C 
ATOM     39  C   UNL A   1      37.489  31.645  31.681  1.00  0.00     0.029 A 
ATOM     40  N   UNL A   1      39.415  30.524  31.874  1.00  0.00    -0.354 N 
ATOM     41  C   UNL A   1      40.764  27.881  28.716  1.00  0.00     0.074 A 
ATOM     42  C   UNL A   1      39.873  27.935  27.577  1.00  0.00     0.031 C 
ATOM     43  C   UNL A   1      38.014  31.951  32.878  1.00  0.00     0.029 A 
ATOM     44  C   UNL A   1      39.248  31.196  33.063  1.00  0.00     0.049 A 
ATOM     45  H   UNL A   1      40.202  29.969  31.674  1.00  0.00     0.167 HD
ATOM     46  C   UNL A   1      41.894  27.137  28.769  1.00  0.00     0.034 A 
ATOM     47  C   UNL A   1      39.994  31.180  34.185  1.00  0.00     0.034 A 
ATOM     48  C   UNL A   1      42.796  27.122  29.889  1.00  0.00     0.049 A 
ATOM     49  C   UNL A   1      41.238  30.336  34.220  1.00  0.00     0.074 A 
ATOM     50  C   UNL A   1      43.979  26.418  30.033  1.00  0.00     0.029 A 
ATOM     51  N   UNL A   1      42.619  27.852  31.055  1.00  0.00    -0.354 N 
ATOM     52  N   UNL A   1      41.757  29.593  33.271  1.00  0.00    -0.248 NA
ATOM     53  C   UNL A   1      42.011  30.341  35.469  1.00  0.00     0.031 C 
ATOM     54  C   UNL A   1      44.515  26.719  31.290  1.00  0.00     0.029 A 
ATOM     55  C   UNL A   1      43.671  27.616  31.924  1.00  0.00     0.049 A 
ATOM     56  H   UNL A   1      41.858  28.447  31.237  1.00  0.00     0.167 HD
ATOM     57  C   UNL A   1      42.928  29.062  33.799  1.00  0.00     0.074 A 
ATOM     58  C   UNL A   1      43.055  29.589  35.143  1.00  0.00     0.031 C 
ATOM     59  C   UNL A   1      43.807  28.200  33.234  1.00  0.00     0.034 A 
BRANCH  46  60
ATOM     60  C   UNL A   1      42.240  26.305  27.563  1.00  0.00     0.023 A 
ATOM     61  C   UNL A   1      42.945  26.893  26.495  1.00  0.00     0.012 A 
ATOM     62  C   UNL A   1      41.915  24.936  27.508  1.00  0.00     0.148 A 
ATOM     63  C   UNL A   1      43.303  26.137  25.379  1.00  0.00     0.002 A 
ATOM     64  C   UNL A   1      42.306  24.179  26.407  1.00  0.00     0.091 A 
ATOM     65  F   UNL A   1      41.220  24.400  28.522  1.00  0.00    -0.205 F 
ATOM     66  C   UNL A   1      42.993  24.780  25.340  1.00  0.00     0.022 A 
BRANCH  64  67
ATOM     67  S   UNL A   1      42.007  22.412  26.295  1.00  0.00     0.127 S 
ATOM     68  O   UNL A   1      40.547  22.364  26.221  1.00  0.00    -0.237 OA
ATOM     69  O   UNL A   1      42.691  22.058  25.052  1.00  0.00    -0.237 OA
ATOM     70  O   UNL A   1      42.595  21.831  27.495  1.00  0.00    -0.744 OA
ENDBRANCH  64  67
ENDBRANCH  46  60
BRANCH  47  71
ATOM     71  C   UNL A   1      39.600  32.020  35.352  1.00  0.00     0.023 A 
ATOM     72  C   UNL A   1      39.999  33.369  35.396  1.00  0.00     0.012 A 
ATOM     73  C   UNL A   1      38.803  31.506  36.393  1.00  0.00     0.148 A 
ATOM     74  C   UNL A   1      39.630  34.186  36.466  1.00  0.00     0.002 A 
ATOM     75  C   UNL A   1      38.393  32.340  37.429  1.00  0.00     0.091 A 
ATOM     76  F   UNL A   1      38.453  30.212  36.351  1.00  0.00    -0.205 F 
ATOM     77  C   UNL A   1      38.816  33.676  37.474  1.00  0.00     0.022 A 
BRANCH  75  78
ATOM     78  S   UNL A   1      37.236  31.788  38.687  1.00  0.00     0.127 S 
ATOM     79  O   UNL A   1      37.029  30.392  38.315  1.00  0.00    -0.237 OA
ATOM     80  O   UNL A   1      37.998  31.990  39.921  1.00  0.00    -0.237 OA
ATOM     81  O   UNL A   1      36.080  32.665  38.554  1.00  0.00    -0.744 OA
ENDBRANCH  75  78
ENDBRANCH  47  71
BRANCH  59  82
ATOM     82  C   UNL A   1      44.997  27.787  34.056  1.00  0.00     0.023 A 
ATOM     83  C   UNL A   1      46.173  28.561  34.010  1.00  0.00     0.012 A 
ATOM     84  C   UNL A   1      44.927  26.682  34.925  1.00  0.00     0.148 A 
ATOM     85  C   UNL A   1      47.271  28.228  34.800  1.00  0.00     0.002 A 
ATOM     86  C   UNL A   1      46.012  26.379  35.741  1.00  0.00     0.091 A 
ATOM     87  F   UNL A   1      43.807  25.945  34.937  1.00  0.00    -0.205 F 
ATOM     88  C   UNL A   1      47.187  27.145  35.674  1.00  0.00     0.022 A 
BRANCH  86  89
ATOM     89  S   UNL A   1      45.955  25.055  36.954  1.00  0.00     0.127 S 
ATOM     90  O   UNL A   1      46.004  23.868  36.103  1.00  0.00    -0.237 OA
ATOM     91  O   UNL A   1      47.166  25.294  37.738  1.00  0.00    -0.237 OA
ATOM     92  O   UNL A   1      44.714  25.250  37.693  1.00  0.00    -0.744 OA
ENDBRANCH  86  89
ENDBRANCH  59  82
ENDBRANCH  33  34
ENDBRANCH  26  28
ENDBRANCH  25  26
ENDBRANCH  24  25
ENDBRANCH   1  24
TORSDOF 17
ENDMDL
