MODEL 1
REMARK VINA RESULT:     -11.9      0.000      0.000
REMARK SMILES CC1(C)C(Nc2cc(C(=O)OCCOC(=O)c3ccc(-c4c5nc(c(-c6cccc(S(=O)(=O)[O-])c6F)c6ccc([nH]6)c(-c6cccc(S(=O)(=O)[O-])c6F)c6nc(c(-c7cccc(S(=O)(=O)[O-])c7F)c7ccc4[nH]7)C=C6)C=C5)cc3)cc(Cl)n2)C1(C)C
REMARK SMILES IDX 13 1 12 2 11 3 9 4 10 5 8 6 6 7 7 8 83 9 81 10 80 11 82 12
REMARK SMILES IDX 5 13 4 15 1 16 2 17 3 18 84 19 85 20 86 21 14 22 15 23 16 24
REMARK SMILES IDX 17 25 18 26 79 27 19 28 78 29 20 30 21 31 22 32 72 33 23 34
REMARK SMILES IDX 77 35 71 36 73 37 24 38 76 39 70 40 69 41 25 43 57 44 37 45
REMARK SMILES IDX 56 46 38 47 41 48 55 49 74 50 39 51 40 52 54 54 75 55 42 56
REMARK SMILES IDX 26 57 27 58 35 59 28 60 30 61 36 62 29 63 31 64 32 65 33 66
REMARK SMILES IDX 34 67 58 68 59 69 67 70 60 71 62 72 68 73 61 74 63 75 64 76
REMARK SMILES IDX 65 77 66 78 43 79 44 80 52 81 45 82 47 83 53 84 46 85 48 86
REMARK SMILES IDX 49 87 50 88 51 89
REMARK H PARENT 5 14 73 42 41 53
REMARK Flexibility Score: inf
ROOT
ATOM      1  C   UNL A   1      36.624  21.030  25.483  1.00  0.00     0.275 C 
ENDROOT
BRANCH   1   2
ATOM      2  C   UNL A   1      35.504  21.499  24.549  1.00  0.00     0.275 C 
BRANCH   2   3
ATOM      3  O   UNL A   1      34.363  22.005  25.278  1.00  0.00    -0.458 OA
BRANCH   3   4
ATOM      4  C   UNL A   1      33.229  22.201  24.555  1.00  0.00     0.338 C 
ATOM      5  O   UNL A   1      33.026  21.825  23.417  1.00  0.00    -0.246 OA
BRANCH   4   6
ATOM      6  C   UNL A   1      32.212  22.934  25.346  1.00  0.00     0.066 A 
ATOM      7  C   UNL A   1      31.480  24.951  26.451  1.00  0.00     0.128 A 
ATOM      8  C   UNL A   1      32.409  24.286  25.658  1.00  0.00     0.062 A 
ATOM      9  N   UNL A   1      30.435  24.304  26.995  1.00  0.00    -0.219 NA
ATOM     10  C   UNL A   1      30.270  23.003  26.673  1.00  0.00     0.132 A 
ATOM     11  C   UNL A   1      31.102  22.274  25.850  1.00  0.00     0.057 A 
ATOM     12  Cl  UNL A   1      28.901  22.265  27.399  1.00  0.00    -0.062 Cl
BRANCH   7  13
ATOM     13  N   UNL A   1      31.567  26.333  26.685  1.00  0.00    -0.366 N 
ATOM     14  H   UNL A   1      30.811  26.806  27.103  1.00  0.00     0.162 HD
BRANCH  13  15
ATOM     15  C   UNL A   1      32.780  27.078  26.311  1.00  0.00     0.093 C 
ATOM     16  C   UNL A   1      33.888  27.732  24.107  1.00  0.00     0.014 C 
ATOM     17  C   UNL A   1      32.752  27.994  25.085  1.00  0.00    -0.008 C 
ATOM     18  C   UNL A   1      31.536  28.551  24.392  1.00  0.00     0.014 C 
ATOM     19  C   UNL A   1      33.010  28.560  26.485  1.00  0.00    -0.008 C 
ATOM     20  C   UNL A   1      34.383  29.128  26.668  1.00  0.00     0.014 C 
ATOM     21  C   UNL A   1      31.989  29.307  27.315  1.00  0.00     0.014 C 
ENDBRANCH  13  15
ENDBRANCH   7  13
ENDBRANCH   4   6
ENDBRANCH   3   4
ENDBRANCH   2   3
ENDBRANCH   1   2
BRANCH   1  22
ATOM     22  O   UNL A   1      37.910  21.471  25.012  1.00  0.00    -0.458 OA
BRANCH  22  23
ATOM     23  C   UNL A   1      38.958  21.089  25.774  1.00  0.00     0.338 C 
ATOM     24  O   UNL A   1      39.534  20.013  25.756  1.00  0.00    -0.246 OA
BRANCH  23  25
ATOM     25  C   UNL A   1      39.433  22.226  26.573  1.00  0.00     0.060 A 
ATOM     26  C   UNL A   1      38.890  23.468  26.282  1.00  0.00     0.016 A 
ATOM     27  C   UNL A   1      40.511  22.125  27.448  1.00  0.00     0.016 A 
ATOM     28  C   UNL A   1      39.495  24.622  26.756  1.00  0.00     0.010 A 
ATOM     29  C   UNL A   1      41.050  23.293  28.022  1.00  0.00     0.010 A 
ATOM     30  C   UNL A   1      40.585  24.565  27.643  1.00  0.00    -0.014 A 
BRANCH  30  31
ATOM     31  C   UNL A   1      41.261  25.841  28.053  1.00  0.00     0.031 A 
ATOM     32  C   UNL A   1      42.628  26.205  27.502  1.00  0.00     0.074 A 
ATOM     33  C   UNL A   1      40.569  26.795  28.720  1.00  0.00     0.049 A 
ATOM     34  N   UNL A   1      43.317  27.310  27.664  1.00  0.00    -0.248 NA
ATOM     35  C   UNL A   1      43.281  25.235  26.608  1.00  0.00     0.031 C 
ATOM     36  C   UNL A   1      39.192  26.659  29.200  1.00  0.00     0.029 A 
ATOM     37  N   UNL A   1      40.892  28.098  29.026  1.00  0.00    -0.354 N 
ATOM     38  C   UNL A   1      44.495  27.145  26.944  1.00  0.00     0.074 A 
ATOM     39  C   UNL A   1      44.426  25.840  26.323  1.00  0.00     0.031 C 
ATOM     40  C   UNL A   1      38.761  27.843  29.652  1.00  0.00     0.029 A 
ATOM     41  C   UNL A   1      39.867  28.795  29.627  1.00  0.00     0.049 A 
ATOM     42  H   UNL A   1      41.771  28.494  28.834  1.00  0.00     0.167 HD
ATOM     43  C   UNL A   1      45.540  27.996  26.796  1.00  0.00     0.034 A 
ATOM     44  C   UNL A   1      39.818  30.037  30.150  1.00  0.00     0.034 A 
ATOM     45  C   UNL A   1      45.610  29.317  27.361  1.00  0.00     0.049 A 
ATOM     46  C   UNL A   1      41.039  30.909  30.087  1.00  0.00     0.074 A 
ATOM     47  C   UNL A   1      46.658  30.221  27.301  1.00  0.00     0.029 A 
ATOM     48  N   UNL A   1      44.601  29.928  28.086  1.00  0.00    -0.354 N 
ATOM     49  N   UNL A   1      42.160  30.712  29.441  1.00  0.00    -0.248 NA
ATOM     50  C   UNL A   1      40.987  32.177  30.830  1.00  0.00     0.031 C 
ATOM     51  C   UNL A   1      46.299  31.360  28.028  1.00  0.00     0.029 A 
ATOM     52  C   UNL A   1      45.010  31.186  28.502  1.00  0.00     0.049 A 
ATOM     53  H   UNL A   1      43.722  29.528  28.277  1.00  0.00     0.167 HD
ATOM     54  C   UNL A   1      42.943  31.834  29.688  1.00  0.00     0.074 A 
ATOM     55  C   UNL A   1      42.151  32.725  30.509  1.00  0.00     0.031 C 
ATOM     56  C   UNL A   1      44.213  32.089  29.289  1.00  0.00     0.034 A 
BRANCH  43  57
ATOM     57  C   UNL A   1      46.737  27.506  26.022  1.00  0.00     0.023 A 
ATOM     58  C   UNL A   1      46.853  27.758  24.642  1.00  0.00     0.012 A 
ATOM     59  C   UNL A   1      47.781  26.841  26.696  1.00  0.00     0.148 A 
ATOM     60  C   UNL A   1      47.983  27.332  23.939  1.00  0.00     0.002 A 
ATOM     61  C   UNL A   1      48.921  26.459  25.999  1.00  0.00     0.091 A 
ATOM     62  F   UNL A   1      47.639  26.593  28.006  1.00  0.00    -0.205 F 
ATOM     63  C   UNL A   1      49.018  26.694  24.618  1.00  0.00     0.022 A 
BRANCH  61  64
ATOM     64  S   UNL A   1      50.334  25.699  26.804  1.00  0.00     0.127 S 
ATOM     65  O   UNL A   1      51.240  25.495  25.676  1.00  0.00    -0.237 OA
ATOM     66  O   UNL A   1      50.752  26.742  27.742  1.00  0.00    -0.237 OA
ATOM     67  O   UNL A   1      49.834  24.483  27.432  1.00  0.00    -0.744 OA
ENDBRANCH  61  64
ENDBRANCH  43  57
BRANCH  44  68
ATOM     68  C   UNL A   1      38.587  30.504  30.857  1.00  0.00     0.023 A 
ATOM     69  C   UNL A   1      38.437  30.309  32.243  1.00  0.00     0.012 A 
ATOM     70  C   UNL A   1      37.555  31.145  30.141  1.00  0.00     0.148 A 
ATOM     71  C   UNL A   1      37.274  30.728  32.896  1.00  0.00     0.002 A 
ATOM     72  C   UNL A   1      36.439  31.631  30.809  1.00  0.00     0.091 A 
ATOM     73  F   UNL A   1      37.688  31.276  28.814  1.00  0.00    -0.205 F 
ATOM     74  C   UNL A   1      36.285  31.404  32.183  1.00  0.00     0.022 A 
BRANCH  72  75
ATOM     75  S   UNL A   1      35.210  32.646  29.987  1.00  0.00     0.127 S 
ATOM     76  O   UNL A   1      34.295  32.954  31.082  1.00  0.00    -0.237 OA
ATOM     77  O   UNL A   1      36.014  33.774  29.517  1.00  0.00    -0.237 OA
ATOM     78  O   UNL A   1      34.665  31.817  28.919  1.00  0.00    -0.744 OA
ENDBRANCH  72  75
ENDBRANCH  44  68
BRANCH  56  79
ATOM     79  C   UNL A   1      44.828  33.400  29.712  1.00  0.00     0.023 A 
ATOM     80  C   UNL A   1      45.590  33.469  30.896  1.00  0.00     0.012 A 
ATOM     81  C   UNL A   1      44.689  34.552  28.913  1.00  0.00     0.148 A 
ATOM     82  C   UNL A   1      46.166  34.673  31.299  1.00  0.00     0.002 A 
ATOM     83  C   UNL A   1      45.311  35.735  29.295  1.00  0.00     0.091 A 
ATOM     84  F   UNL A   1      43.946  34.473  27.799  1.00  0.00    -0.205 F 
ATOM     85  C   UNL A   1      46.036  35.801  30.495  1.00  0.00     0.022 A 
BRANCH  83  86
ATOM     86  S   UNL A   1      45.278  37.213  28.275  1.00  0.00     0.127 S 
ATOM     87  O   UNL A   1      46.073  38.144  29.074  1.00  0.00    -0.237 OA
ATOM     88  O   UNL A   1      45.927  36.756  27.046  1.00  0.00    -0.237 OA
ATOM     89  O   UNL A   1      43.873  37.565  28.121  1.00  0.00    -0.744 OA
ENDBRANCH  83  86
ENDBRANCH  56  79
ENDBRANCH  30  31
ENDBRANCH  23  25
ENDBRANCH  22  23
ENDBRANCH   1  22
TORSDOF 16
ENDMDL
MODEL 2
REMARK VINA RESULT:     -11.8      0.639      7.901
REMARK SMILES CC1(C)C(Nc2cc(C(=O)OCCOC(=O)c3ccc(-c4c5nc(c(-c6cccc(S(=O)(=O)[O-])c6F)c6ccc([nH]6)c(-c6cccc(S(=O)(=O)[O-])c6F)c6nc(c(-c7cccc(S(=O)(=O)[O-])c7F)c7ccc4[nH]7)C=C6)C=C5)cc3)cc(Cl)n2)C1(C)C
REMARK SMILES IDX 13 1 12 2 11 3 9 4 10 5 8 6 6 7 7 8 83 9 81 10 80 11 82 12
REMARK SMILES IDX 5 13 4 15 1 16 2 17 3 18 84 19 85 20 86 21 14 22 15 23 16 24
REMARK SMILES IDX 17 25 18 26 79 27 19 28 78 29 20 30 21 31 22 32 72 33 23 34
REMARK SMILES IDX 77 35 71 36 73 37 24 38 76 39 70 40 69 41 25 43 57 44 37 45
REMARK SMILES IDX 56 46 38 47 41 48 55 49 74 50 39 51 40 52 54 54 75 55 42 56
REMARK SMILES IDX 26 57 27 58 35 59 28 60 30 61 36 62 29 63 31 64 32 65 33 66
REMARK SMILES IDX 34 67 58 68 59 69 67 70 60 71 62 72 68 73 61 74 63 75 64 76
REMARK SMILES IDX 65 77 66 78 43 79 44 80 52 81 45 82 47 83 53 84 46 85 48 86
REMARK SMILES IDX 49 87 50 88 51 89
REMARK H PARENT 5 14 73 42 41 53
REMARK Flexibility Score: inf
ROOT
ATOM      1  C   UNL A   1      36.184  20.428  24.992  1.00  0.00     0.275 C 
ENDROOT
BRANCH   1   2
ATOM      2  C   UNL A   1      34.681  20.563  25.257  1.00  0.00     0.275 C 
BRANCH   2   3
ATOM      3  O   UNL A   1      34.271  21.944  25.376  1.00  0.00    -0.458 OA
BRANCH   3   4
ATOM      4  C   UNL A   1      33.253  22.338  24.566  1.00  0.00     0.338 C 
ATOM      5  O   UNL A   1      33.168  22.145  23.369  1.00  0.00    -0.246 OA
BRANCH   4   6
ATOM      6  C   UNL A   1      32.198  23.039  25.337  1.00  0.00     0.066 A 
ATOM      7  C   UNL A   1      31.356  25.048  26.374  1.00  0.00     0.128 A 
ATOM      8  C   UNL A   1      32.319  24.410  25.600  1.00  0.00     0.062 A 
ATOM      9  N   UNL A   1      30.353  24.362  26.948  1.00  0.00    -0.219 NA
ATOM     10  C   UNL A   1      30.262  23.043  26.673  1.00  0.00     0.132 A 
ATOM     11  C   UNL A   1      31.131  22.334  25.871  1.00  0.00     0.057 A 
ATOM     12  Cl  UNL A   1      28.941  22.254  27.433  1.00  0.00    -0.062 Cl
BRANCH   7  13
ATOM     13  N   UNL A   1      31.364  26.441  26.560  1.00  0.00    -0.366 N 
ATOM     14  H   UNL A   1      31.110  26.819  27.433  1.00  0.00     0.162 HD
BRANCH  13  15
ATOM     15  C   UNL A   1      31.748  27.337  25.457  1.00  0.00     0.093 C 
ATOM     16  C   UNL A   1      30.992  29.637  24.652  1.00  0.00     0.014 C 
ATOM     17  C   UNL A   1      31.776  28.849  25.690  1.00  0.00    -0.008 C 
ATOM     18  C   UNL A   1      31.825  29.565  27.015  1.00  0.00     0.014 C 
ATOM     19  C   UNL A   1      33.054  28.085  25.326  1.00  0.00    -0.008 C 
ATOM     20  C   UNL A   1      33.620  28.452  23.989  1.00  0.00     0.014 C 
ATOM     21  C   UNL A   1      34.145  27.712  26.304  1.00  0.00     0.014 C 
ENDBRANCH  13  15
ENDBRANCH   7  13
ENDBRANCH   4   6
ENDBRANCH   3   4
ENDBRANCH   2   3
ENDBRANCH   1   2
BRANCH   1  22
ATOM     22  O   UNL A   1      36.910  21.533  25.559  1.00  0.00    -0.458 OA
BRANCH  22  23
ATOM     23  C   UNL A   1      38.225  21.305  25.767  1.00  0.00     0.338 C 
ATOM     24  O   UNL A   1      38.878  20.343  25.392  1.00  0.00    -0.246 OA
BRANCH  23  25
ATOM     25  C   UNL A   1      38.838  22.472  26.413  1.00  0.00     0.060 A 
ATOM     26  C   UNL A   1      38.216  23.695  26.218  1.00  0.00     0.016 A 
ATOM     27  C   UNL A   1      40.084  22.415  27.032  1.00  0.00     0.016 A 
ATOM     28  C   UNL A   1      38.884  24.872  26.519  1.00  0.00     0.010 A 
ATOM     29  C   UNL A   1      40.709  23.607  27.444  1.00  0.00     0.010 A 
ATOM     30  C   UNL A   1      40.143  24.860  27.145  1.00  0.00    -0.014 A 
BRANCH  30  31
ATOM     31  C   UNL A   1      40.864  26.159  27.365  1.00  0.00     0.031 A 
ATOM     32  C   UNL A   1      40.268  27.234  28.257  1.00  0.00     0.074 A 
ATOM     33  C   UNL A   1      42.152  26.298  26.974  1.00  0.00     0.049 A 
ATOM     34  N   UNL A   1      40.794  28.373  28.641  1.00  0.00    -0.248 NA
ATOM     35  C   UNL A   1      38.942  26.975  28.840  1.00  0.00     0.031 C 
ATOM     36  C   UNL A   1      42.922  25.298  26.228  1.00  0.00     0.029 A 
ATOM     37  N   UNL A   1      43.073  27.289  27.231  1.00  0.00    -0.354 N 
ATOM     38  C   UNL A   1      39.849  28.982  29.459  1.00  0.00     0.074 A 
ATOM     39  C   UNL A   1      38.720  28.081  29.536  1.00  0.00     0.031 C 
ATOM     40  C   UNL A   1      44.203  25.680  26.167  1.00  0.00     0.029 A 
ATOM     41  C   UNL A   1      44.332  27.014  26.744  1.00  0.00     0.049 A 
ATOM     42  H   UNL A   1      42.853  28.116  27.716  1.00  0.00     0.167 HD
ATOM     43  C   UNL A   1      39.907  30.175  30.100  1.00  0.00     0.034 A 
ATOM     44  C   UNL A   1      45.458  27.755  26.712  1.00  0.00     0.034 A 
ATOM     45  C   UNL A   1      41.037  31.065  30.080  1.00  0.00     0.049 A 
ATOM     46  C   UNL A   1      45.451  29.129  27.317  1.00  0.00     0.074 A 
ATOM     47  C   UNL A   1      41.154  32.317  30.662  1.00  0.00     0.029 A 
ATOM     48  N   UNL A   1      42.244  30.806  29.453  1.00  0.00    -0.354 N 
ATOM     49  N   UNL A   1      44.527  29.705  28.044  1.00  0.00    -0.248 NA
ATOM     50  C   UNL A   1      46.644  29.959  27.092  1.00  0.00     0.031 C 
ATOM     51  C   UNL A   1      42.415  32.833  30.347  1.00  0.00     0.029 A 
ATOM     52  C   UNL A   1      43.102  31.884  29.609  1.00  0.00     0.049 A 
ATOM     53  H   UNL A   1      42.461  29.978  28.967  1.00  0.00     0.167 HD
ATOM     54  C   UNL A   1      45.031  30.958  28.376  1.00  0.00     0.074 A 
ATOM     55  C   UNL A   1      46.358  31.042  27.803  1.00  0.00     0.031 C 
ATOM     56  C   UNL A   1      44.434  31.957  29.071  1.00  0.00     0.034 A 
BRANCH  43  57
ATOM     57  C   UNL A   1      38.680  30.625  30.852  1.00  0.00     0.023 A 
ATOM     58  C   UNL A   1      38.586  30.447  32.245  1.00  0.00     0.012 A 
ATOM     59  C   UNL A   1      37.643  31.286  30.165  1.00  0.00     0.148 A 
ATOM     60  C   UNL A   1      37.462  30.900  32.940  1.00  0.00     0.002 A 
ATOM     61  C   UNL A   1      36.548  31.773  30.869  1.00  0.00     0.091 A 
ATOM     62  F   UNL A   1      37.745  31.426  28.836  1.00  0.00    -0.205 F 
ATOM     63  C   UNL A   1      36.451  31.571  32.255  1.00  0.00     0.022 A 
BRANCH  61  64
ATOM     64  S   UNL A   1      35.235  32.712  30.082  1.00  0.00     0.127 S 
ATOM     65  O   UNL A   1      35.961  33.886  29.603  1.00  0.00    -0.237 OA
ATOM     66  O   UNL A   1      34.790  31.798  29.030  1.00  0.00    -0.237 OA
ATOM     67  O   UNL A   1      34.247  32.969  31.121  1.00  0.00    -0.744 OA
ENDBRANCH  61  64
ENDBRANCH  43  57
BRANCH  44  68
ATOM     68  C   UNL A   1      46.672  27.242  26.006  1.00  0.00     0.023 A 
ATOM     69  C   UNL A   1      46.812  27.397  24.614  1.00  0.00     0.012 A 
ATOM     70  C   UNL A   1      47.694  26.593  26.729  1.00  0.00     0.148 A 
ATOM     71  C   UNL A   1      47.939  26.895  23.955  1.00  0.00     0.002 A 
ATOM     72  C   UNL A   1      48.847  26.171  26.081  1.00  0.00     0.091 A 
ATOM     73  F   UNL A   1      47.523  26.406  28.045  1.00  0.00    -0.205 F 
ATOM     74  C   UNL A   1      48.963  26.301  24.690  1.00  0.00     0.022 A 
BRANCH  72  75
ATOM     75  S   UNL A   1      50.266  25.545  26.983  1.00  0.00     0.127 S 
ATOM     76  O   UNL A   1      49.739  24.305  27.547  1.00  0.00    -0.237 OA
ATOM     77  O   UNL A   1      51.250  25.369  25.915  1.00  0.00    -0.237 OA
ATOM     78  O   UNL A   1      50.610  26.584  27.944  1.00  0.00    -0.744 OA
ENDBRANCH  72  75
ENDBRANCH  44  68
BRANCH  56  79
ATOM     79  C   UNL A   1      45.219  33.228  29.279  1.00  0.00     0.023 A 
ATOM     80  C   UNL A   1      46.038  33.369  30.418  1.00  0.00     0.012 A 
ATOM     81  C   UNL A   1      45.181  34.263  28.324  1.00  0.00     0.148 A 
ATOM     82  C   UNL A   1      46.771  34.538  30.624  1.00  0.00     0.002 A 
ATOM     83  C   UNL A   1      45.956  35.402  28.510  1.00  0.00     0.091 A 
ATOM     84  F   UNL A   1      44.384  34.119  27.255  1.00  0.00    -0.205 F 
ATOM     85  C   UNL A   1      46.739  35.547  29.666  1.00  0.00     0.022 A 
BRANCH  83  86
ATOM     86  S   UNL A   1      46.052  36.712  27.285  1.00  0.00     0.127 S 
ATOM     87  O   UNL A   1      44.676  37.203  27.265  1.00  0.00    -0.237 OA
ATOM     88  O   UNL A   1      47.018  37.630  27.889  1.00  0.00    -0.237 OA
ATOM     89  O   UNL A   1      46.509  36.080  26.055  1.00  0.00    -0.744 OA
ENDBRANCH  83  86
ENDBRANCH  56  79
ENDBRANCH  30  31
ENDBRANCH  23  25
ENDBRANCH  22  23
ENDBRANCH   1  22
TORSDOF 16
ENDMDL
MODEL 3
REMARK VINA RESULT:     -11.8      5.291      7.790
REMARK SMILES CC1(C)C(Nc2cc(C(=O)OCCOC(=O)c3ccc(-c4c5nc(c(-c6cccc(S(=O)(=O)[O-])c6F)c6ccc([nH]6)c(-c6cccc(S(=O)(=O)[O-])c6F)c6nc(c(-c7cccc(S(=O)(=O)[O-])c7F)c7ccc4[nH]7)C=C6)C=C5)cc3)cc(Cl)n2)C1(C)C
REMARK SMILES IDX 13 1 12 2 11 3 9 4 10 5 8 6 6 7 7 8 83 9 81 10 80 11 82 12
REMARK SMILES IDX 5 13 4 15 1 16 2 17 3 18 84 19 85 20 86 21 14 22 15 23 16 24
REMARK SMILES IDX 17 25 18 26 79 27 19 28 78 29 20 30 21 31 22 32 72 33 23 34
REMARK SMILES IDX 77 35 71 36 73 37 24 38 76 39 70 40 69 41 25 43 57 44 37 45
REMARK SMILES IDX 56 46 38 47 41 48 55 49 74 50 39 51 40 52 54 54 75 55 42 56
REMARK SMILES IDX 26 57 27 58 35 59 28 60 30 61 36 62 29 63 31 64 32 65 33 66
REMARK SMILES IDX 34 67 58 68 59 69 67 70 60 71 62 72 68 73 61 74 63 75 64 76
REMARK SMILES IDX 65 77 66 78 43 79 44 80 52 81 45 82 47 83 53 84 46 85 48 86
REMARK SMILES IDX 49 87 50 88 51 89
REMARK H PARENT 5 14 73 42 41 53
REMARK Flexibility Score: inf
ROOT
ATOM      1  C   UNL A   1      31.828  30.454  25.717  1.00  0.00     0.275 C 
ENDROOT
BRANCH   1   2
ATOM      2  C   UNL A   1      31.547  29.026  25.236  1.00  0.00     0.275 C 
BRANCH   2   3
ATOM      3  O   UNL A   1      32.542  28.563  24.295  1.00  0.00    -0.458 OA
BRANCH   3   4
ATOM      4  C   UNL A   1      33.332  27.539  24.714  1.00  0.00     0.338 C 
ATOM      5  O   UNL A   1      33.966  27.496  25.749  1.00  0.00    -0.246 OA
BRANCH   4   6
ATOM      6  C   UNL A   1      33.315  26.420  23.741  1.00  0.00     0.066 A 
ATOM      7  C   UNL A   1      33.897  24.152  23.157  1.00  0.00     0.128 A 
ATOM      8  C   UNL A   1      33.862  25.179  24.094  1.00  0.00     0.062 A 
ATOM      9  N   UNL A   1      33.491  24.347  21.891  1.00  0.00    -0.219 NA
ATOM     10  C   UNL A   1      32.965  25.552  21.583  1.00  0.00     0.132 A 
ATOM     11  C   UNL A   1      32.833  26.612  22.456  1.00  0.00     0.057 A 
ATOM     12  Cl  UNL A   1      32.457  25.704  19.950  1.00  0.00    -0.062 Cl
BRANCH   7  13
ATOM     13  N   UNL A   1      34.318  22.856  23.499  1.00  0.00    -0.366 N 
ATOM     14  H   UNL A   1      33.704  22.096  23.380  1.00  0.00     0.162 HD
BRANCH  13  15
ATOM     15  C   UNL A   1      35.670  22.629  24.033  1.00  0.00     0.093 C 
ATOM     16  C   UNL A   1      37.095  23.705  25.857  1.00  0.00     0.014 C 
ATOM     17  C   UNL A   1      35.923  22.790  25.534  1.00  0.00    -0.008 C 
ATOM     18  C   UNL A   1      34.896  22.788  26.636  1.00  0.00     0.014 C 
ATOM     19  C   UNL A   1      36.125  21.437  24.842  1.00  0.00    -0.008 C 
ATOM     20  C   UNL A   1      37.547  20.970  24.824  1.00  0.00     0.014 C 
ATOM     21  C   UNL A   1      35.162  20.273  24.925  1.00  0.00     0.014 C 
ENDBRANCH  13  15
ENDBRANCH   7  13
ENDBRANCH   4   6
ENDBRANCH   3   4
ENDBRANCH   2   3
ENDBRANCH   1   2
BRANCH   1  22
ATOM     22  O   UNL A   1      32.476  30.448  27.001  1.00  0.00    -0.458 OA
BRANCH  22  23
ATOM     23  C   UNL A   1      33.213  31.547  27.272  1.00  0.00     0.338 C 
ATOM     24  O   UNL A   1      32.829  32.706  27.305  1.00  0.00    -0.246 OA
BRANCH  23  25
ATOM     25  C   UNL A   1      34.568  31.152  27.677  1.00  0.00     0.060 A 
ATOM     26  C   UNL A   1      34.783  29.804  27.914  1.00  0.00     0.016 A 
ATOM     27  C   UNL A   1      35.552  32.082  28.001  1.00  0.00     0.016 A 
ATOM     28  C   UNL A   1      35.919  29.388  28.591  1.00  0.00     0.010 A 
ATOM     29  C   UNL A   1      36.757  31.642  28.581  1.00  0.00     0.010 A 
ATOM     30  C   UNL A   1      36.938  30.294  28.936  1.00  0.00    -0.014 A 
BRANCH  30  31
ATOM     31  C   UNL A   1      38.104  29.809  29.749  1.00  0.00     0.031 A 
ATOM     32  C   UNL A   1      39.157  28.907  29.131  1.00  0.00     0.074 A 
ATOM     33  C   UNL A   1      38.365  30.356  30.959  1.00  0.00     0.049 A 
ATOM     34  N   UNL A   1      40.282  28.474  29.651  1.00  0.00    -0.248 NA
ATOM     35  C   UNL A   1      38.956  28.484  27.735  1.00  0.00     0.031 C 
ATOM     36  C   UNL A   1      37.524  31.346  31.638  1.00  0.00     0.029 A 
ATOM     37  N   UNL A   1      39.455  30.231  31.792  1.00  0.00    -0.354 N 
ATOM     38  C   UNL A   1      40.888  27.693  28.672  1.00  0.00     0.074 A 
ATOM     39  C   UNL A   1      40.019  27.722  27.516  1.00  0.00     0.031 C 
ATOM     40  C   UNL A   1      38.164  31.802  32.722  1.00  0.00     0.029 A 
ATOM     41  C   UNL A   1      39.397  31.044  32.903  1.00  0.00     0.049 A 
ATOM     42  H   UNL A   1      40.204  29.620  31.610  1.00  0.00     0.167 HD
ATOM     43  C   UNL A   1      42.062  27.017  28.717  1.00  0.00     0.034 A 
ATOM     44  C   UNL A   1      40.207  31.145  33.977  1.00  0.00     0.034 A 
ATOM     45  C   UNL A   1      42.967  27.013  29.835  1.00  0.00     0.049 A 
ATOM     46  C   UNL A   1      41.434  30.284  34.056  1.00  0.00     0.074 A 
ATOM     47  C   UNL A   1      44.152  26.310  29.977  1.00  0.00     0.029 A 
ATOM     48  N   UNL A   1      42.796  27.742  31.000  1.00  0.00    -0.354 N 
ATOM     49  N   UNL A   1      41.962  29.514  33.138  1.00  0.00    -0.248 NA
ATOM     50  C   UNL A   1      42.177  30.302  35.325  1.00  0.00     0.031 C 
ATOM     51  C   UNL A   1      44.674  26.579  31.247  1.00  0.00     0.029 A 
ATOM     52  C   UNL A   1      43.839  27.485  31.877  1.00  0.00     0.049 A 
ATOM     53  H   UNL A   1      42.045  28.352  31.179  1.00  0.00     0.167 HD
ATOM     54  C   UNL A   1      43.105  28.968  33.712  1.00  0.00     0.074 A 
ATOM     55  C   UNL A   1      43.214  29.526  35.043  1.00  0.00     0.031 C 
ATOM     56  C   UNL A   1      43.970  28.065  33.188  1.00  0.00     0.034 A 
BRANCH  43  57
ATOM     57  C   UNL A   1      42.426  26.169  27.524  1.00  0.00     0.023 A 
ATOM     58  C   UNL A   1      43.213  26.695  26.482  1.00  0.00     0.012 A 
ATOM     59  C   UNL A   1      42.027  24.819  27.479  1.00  0.00     0.148 A 
ATOM     60  C   UNL A   1      43.577  25.892  25.398  1.00  0.00     0.002 A 
ATOM     61  C   UNL A   1      42.429  24.014  26.420  1.00  0.00     0.091 A 
ATOM     62  F   UNL A   1      41.261  24.346  28.472  1.00  0.00    -0.205 F 
ATOM     63  C   UNL A   1      43.195  24.553  25.373  1.00  0.00     0.022 A 
BRANCH  61  64
ATOM     64  S   UNL A   1      42.047  22.262  26.340  1.00  0.00     0.127 S 
ATOM     65  O   UNL A   1      40.595  22.284  26.174  1.00  0.00    -0.237 OA
ATOM     66  O   UNL A   1      42.791  21.838  25.153  1.00  0.00    -0.237 OA
ATOM     67  O   UNL A   1      42.524  21.689  27.592  1.00  0.00    -0.744 OA
ENDBRANCH  61  64
ENDBRANCH  43  57
BRANCH  44  68
ATOM     68  C   UNL A   1      39.836  32.045  35.111  1.00  0.00     0.023 A 
ATOM     69  C   UNL A   1      40.277  33.382  35.141  1.00  0.00     0.012 A 
ATOM     70  C   UNL A   1      39.040  31.564  36.170  1.00  0.00     0.148 A 
ATOM     71  C   UNL A   1      39.947  34.214  36.215  1.00  0.00     0.002 A 
ATOM     72  C   UNL A   1      38.648  32.418  37.192  1.00  0.00     0.091 A 
ATOM     73  F   UNL A   1      38.672  30.276  36.155  1.00  0.00    -0.205 F 
ATOM     74  C   UNL A   1      39.118  33.738  37.229  1.00  0.00     0.022 A 
BRANCH  72  75
ATOM     75  S   UNL A   1      37.457  31.920  38.439  1.00  0.00     0.127 S 
ATOM     76  O   UNL A   1      36.367  32.863  38.205  1.00  0.00    -0.237 OA
ATOM     77  O   UNL A   1      37.174  30.538  38.051  1.00  0.00    -0.237 OA
ATOM     78  O   UNL A   1      38.147  32.052  39.715  1.00  0.00    -0.744 OA
ENDBRANCH  72  75
ENDBRANCH  44  68
BRANCH  56  79
ATOM     79  C   UNL A   1      45.134  27.636  34.045  1.00  0.00     0.023 A 
ATOM     80  C   UNL A   1      46.335  28.374  34.019  1.00  0.00     0.012 A 
ATOM     81  C   UNL A   1      45.023  26.529  34.910  1.00  0.00     0.148 A 
ATOM     82  C   UNL A   1      47.420  27.991  34.807  1.00  0.00     0.002 A 
ATOM     83  C   UNL A   1      46.091  26.186  35.731  1.00  0.00     0.091 A 
ATOM     84  F   UNL A   1      43.880  25.828  34.909  1.00  0.00    -0.205 F 
ATOM     85  C   UNL A   1      47.295  26.906  35.669  1.00  0.00     0.022 A 
BRANCH  83  86
ATOM     86  S   UNL A   1      45.989  24.863  36.942  1.00  0.00     0.127 S 
ATOM     87  O   UNL A   1      47.314  24.918  37.555  1.00  0.00    -0.237 OA
ATOM     88  O   UNL A   1      44.898  25.316  37.804  1.00  0.00    -0.237 OA
ATOM     89  O   UNL A   1      45.699  23.650  36.189  1.00  0.00    -0.744 OA
ENDBRANCH  83  86
ENDBRANCH  56  79
ENDBRANCH  30  31
ENDBRANCH  23  25
ENDBRANCH  22  23
ENDBRANCH   1  22
TORSDOF 16
ENDMDL
