MODEL 1
REMARK VINA RESULT:     -10.9      0.000      0.000
REMARK SMILES Cc1cc(C(=O)N2CCC[C@@H]2C)sc1/C=C/C(=O)OCCOC(=O)c1ccc(-c2c3nc(c(-c4cccc(S(=O)(=O)[O-])c4F)c4ccc([nH]4)c(-c4cccc(S(=O)(=O)[O-])c4F)c4nc(c(-c5cccc(S(=O)(=O)[O-])c5F)c5ccc2[nH]5)C=C4)C=C3)cc1
REMARK SMILES IDX 20 1 19 2 17 3 18 4 16 5 15 6 14 7 1 8 2 9 3 10 4 11 13 12
REMARK SMILES IDX 5 13 6 14 7 15 8 16 11 17 9 18 10 19 12 20 21 21 22 22 23 23
REMARK SMILES IDX 24 24 25 25 26 26 87 27 27 28 86 29 28 30 29 31 30 32 80 33
REMARK SMILES IDX 31 34 85 35 79 36 81 37 32 38 84 39 78 40 77 41 33 43 65 44
REMARK SMILES IDX 45 45 64 46 46 47 49 48 63 49 82 50 47 51 48 52 62 54 83 55
REMARK SMILES IDX 50 56 34 57 35 58 43 59 36 60 38 61 44 62 37 63 39 64 40 65
REMARK SMILES IDX 41 66 42 67 66 68 67 69 75 70 68 71 70 72 76 73 69 74 71 75
REMARK SMILES IDX 72 76 73 77 74 78 51 79 52 80 60 81 53 82 55 83 61 84 54 85
REMARK SMILES IDX 56 86 57 87 58 88 59 89
REMARK H PARENT 81 42 49 53
REMARK Flexibility Score: inf
ROOT
ATOM      1  C   UNL A   1      43.272  20.451  25.598  1.00  0.00     0.275 C 
ENDROOT
BRANCH   1   2
ATOM      2  O   UNL A   1      41.865  20.746  25.509  1.00  0.00    -0.459 OA
BRANCH   2   3
ATOM      3  C   UNL A   1      41.160  20.582  26.654  1.00  0.00     0.330 C 
ATOM      4  O   UNL A   1      41.507  19.922  27.623  1.00  0.00    -0.247 OA
BRANCH   3   5
ATOM      5  C   UNL A   1      39.887  21.327  26.659  1.00  0.00     0.095 C 
ATOM      6  C   UNL A   1      38.949  21.276  25.699  1.00  0.00     0.027 C 
BRANCH   6   7
ATOM      7  C   UNL A   1      37.752  22.060  25.758  1.00  0.00     0.031 A 
ATOM      8  C   UNL A   1      38.727  24.396  26.236  1.00  0.00     0.046 C 
ATOM      9  C   UNL A   1      37.614  23.419  26.024  1.00  0.00    -0.032 A 
ATOM     10  C   UNL A   1      36.235  23.824  26.004  1.00  0.00     0.029 A 
ATOM     11  C   UNL A   1      35.355  22.802  25.694  1.00  0.00     0.093 A 
ATOM     12  S   UNL A   1      36.204  21.340  25.498  1.00  0.00    -0.130 S 
BRANCH  11  13
ATOM     13  C   UNL A   1      33.945  22.969  25.345  1.00  0.00     0.264 C 
ATOM     14  O   UNL A   1      33.065  22.598  26.130  1.00  0.00    -0.268 OA
BRANCH  13  15
ATOM     15  N   UNL A   1      33.568  23.620  24.179  1.00  0.00    -0.335 N 
ATOM     16  C   UNL A   1      33.102  24.988  24.241  1.00  0.00     0.120 C 
ATOM     17  C   UNL A   1      33.437  23.097  22.816  1.00  0.00     0.082 C 
ATOM     18  C   UNL A   1      33.457  25.527  22.870  1.00  0.00     0.024 C 
ATOM     19  C   UNL A   1      33.170  24.344  21.949  1.00  0.00     0.026 C 
ATOM     20  C   UNL A   1      32.269  22.116  22.715  1.00  0.00     0.031 C 
ENDBRANCH  13  15
ENDBRANCH  11  13
ENDBRANCH   6   7
ENDBRANCH   3   5
ENDBRANCH   2   3
ENDBRANCH   1   2
BRANCH   1  21
ATOM     21  C   UNL A   1      44.121  21.716  25.430  1.00  0.00     0.275 C 
BRANCH  21  22
ATOM     22  O   UNL A   1      43.322  22.856  25.067  1.00  0.00    -0.458 OA
BRANCH  22  23
ATOM     23  C   UNL A   1      43.968  24.048  25.112  1.00  0.00     0.338 C 
ATOM     24  O   UNL A   1      44.858  24.426  24.369  1.00  0.00    -0.246 OA
BRANCH  23  25
ATOM     25  C   UNL A   1      43.354  24.911  26.136  1.00  0.00     0.060 A 
ATOM     26  C   UNL A   1      43.778  26.242  26.209  1.00  0.00     0.016 A 
ATOM     27  C   UNL A   1      42.426  24.411  27.054  1.00  0.00     0.016 A 
ATOM     28  C   UNL A   1      43.278  27.079  27.206  1.00  0.00     0.010 A 
ATOM     29  C   UNL A   1      41.929  25.251  28.055  1.00  0.00     0.010 A 
ATOM     30  C   UNL A   1      42.362  26.586  28.146  1.00  0.00    -0.014 A 
BRANCH  30  31
ATOM     31  C   UNL A   1      41.887  27.464  29.242  1.00  0.00     0.031 A 
ATOM     32  C   UNL A   1      42.594  27.463  30.568  1.00  0.00     0.074 A 
ATOM     33  C   UNL A   1      40.819  28.260  29.047  1.00  0.00     0.049 A 
ATOM     34  N   UNL A   1      42.329  28.155  31.645  1.00  0.00    -0.248 NA
ATOM     35  C   UNL A   1      43.754  26.566  30.701  1.00  0.00     0.031 C 
ATOM     36  C   UNL A   1      40.043  28.337  27.810  1.00  0.00     0.029 A 
ATOM     37  N   UNL A   1      40.191  29.139  29.893  1.00  0.00    -0.354 N 
ATOM     38  C   UNL A   1      43.266  27.761  32.593  1.00  0.00     0.074 A 
ATOM     39  C   UNL A   1      44.103  26.761  31.965  1.00  0.00     0.031 C 
ATOM     40  C   UNL A   1      39.031  29.201  27.983  1.00  0.00     0.029 A 
ATOM     41  C   UNL A   1      39.072  29.722  29.347  1.00  0.00     0.049 A 
ATOM     42  H   UNL A   1      40.511  29.333  30.804  1.00  0.00     0.167 HD
ATOM     43  C   UNL A   1      43.425  28.205  33.862  1.00  0.00     0.034 A 
ATOM     44  C   UNL A   1      38.175  30.567  29.890  1.00  0.00     0.034 A 
ATOM     45  C   UNL A   1      42.605  29.215  34.476  1.00  0.00     0.049 A 
ATOM     46  C   UNL A   1      38.373  31.041  31.306  1.00  0.00     0.074 A 
ATOM     47  C   UNL A   1      42.721  29.766  35.741  1.00  0.00     0.029 A 
ATOM     48  N   UNL A   1      41.512  29.821  33.877  1.00  0.00    -0.354 N 
ATOM     49  N   UNL A   1      39.342  30.756  32.142  1.00  0.00    -0.248 NA
ATOM     50  C   UNL A   1      37.375  31.978  31.841  1.00  0.00     0.031 C 
ATOM     51  C   UNL A   1      41.688  30.693  35.912  1.00  0.00     0.029 A 
ATOM     52  C   UNL A   1      40.938  30.733  34.747  1.00  0.00     0.049 A 
ATOM     53  H   UNL A   1      41.192  29.631  32.966  1.00  0.00     0.167 HD
ATOM     54  C   UNL A   1      39.086  31.499  33.290  1.00  0.00     0.074 A 
ATOM     55  C   UNL A   1      37.884  32.265  33.032  1.00  0.00     0.031 C 
ATOM     56  C   UNL A   1      39.773  31.530  34.458  1.00  0.00     0.034 A 
BRANCH  43  57
ATOM     57  C   UNL A   1      44.560  27.625  34.666  1.00  0.00     0.023 A 
ATOM     58  C   UNL A   1      45.798  28.299  34.699  1.00  0.00     0.012 A 
ATOM     59  C   UNL A   1      44.387  26.456  35.431  1.00  0.00     0.148 A 
ATOM     60  C   UNL A   1      46.856  27.802  35.459  1.00  0.00     0.002 A 
ATOM     61  C   UNL A   1      45.435  25.987  36.216  1.00  0.00     0.091 A 
ATOM     62  F   UNL A   1      43.210  25.818  35.368  1.00  0.00    -0.205 F 
ATOM     63  C   UNL A   1      46.672  26.653  36.224  1.00  0.00     0.022 A 
BRANCH  61  64
ATOM     64  S   UNL A   1      45.272  24.555  37.288  1.00  0.00     0.127 S 
ATOM     65  O   UNL A   1      44.198  24.979  38.185  1.00  0.00    -0.237 OA
ATOM     66  O   UNL A   1      44.896  23.501  36.344  1.00  0.00    -0.237 OA
ATOM     67  O   UNL A   1      46.575  24.372  37.911  1.00  0.00    -0.744 OA
ENDBRANCH  61  64
ENDBRANCH  43  57
BRANCH  44  68
ATOM     68  C   UNL A   1      37.029  31.056  29.072  1.00  0.00     0.023 A 
ATOM     69  C   UNL A   1      36.942  32.423  28.748  1.00  0.00     0.012 A 
ATOM     70  C   UNL A   1      36.048  30.171  28.588  1.00  0.00     0.148 A 
ATOM     71  C   UNL A   1      35.884  32.904  27.975  1.00  0.00     0.002 A 
ATOM     72  C   UNL A   1      35.026  30.647  27.774  1.00  0.00     0.091 A 
ATOM     73  F   UNL A   1      36.135  28.876  28.927  1.00  0.00    -0.205 F 
ATOM     74  C   UNL A   1      34.934  32.015  27.478  1.00  0.00     0.022 A 
BRANCH  72  75
ATOM     75  S   UNL A   1      33.837  29.553  26.989  1.00  0.00     0.127 S 
ATOM     76  O   UNL A   1      33.159  28.971  28.144  1.00  0.00    -0.237 OA
ATOM     77  O   UNL A   1      33.028  30.491  26.209  1.00  0.00    -0.237 OA
ATOM     78  O   UNL A   1      34.626  28.631  26.184  1.00  0.00    -0.744 OA
ENDBRANCH  72  75
ENDBRANCH  44  68
BRANCH  56  79
ATOM     79  C   UNL A   1      39.263  32.439  35.546  1.00  0.00     0.023 A 
ATOM     80  C   UNL A   1      38.313  31.956  36.468  1.00  0.00     0.012 A 
ATOM     81  C   UNL A   1      39.779  33.740  35.702  1.00  0.00     0.148 A 
ATOM     82  C   UNL A   1      37.864  32.763  37.512  1.00  0.00     0.002 A 
ATOM     83  C   UNL A   1      39.359  34.524  36.771  1.00  0.00     0.091 A 
ATOM     84  F   UNL A   1      40.667  34.189  34.803  1.00  0.00    -0.205 F 
ATOM     85  C   UNL A   1      38.396  34.042  37.670  1.00  0.00     0.022 A 
BRANCH  83  86
ATOM     86  S   UNL A   1      40.059  36.146  37.103  1.00  0.00     0.127 S 
ATOM     87  O   UNL A   1      39.811  36.842  35.841  1.00  0.00    -0.237 OA
ATOM     88  O   UNL A   1      39.246  36.614  38.227  1.00  0.00    -0.237 OA
ATOM     89  O   UNL A   1      41.460  35.916  37.429  1.00  0.00    -0.744 OA
ENDBRANCH  83  86
ENDBRANCH  56  79
ENDBRANCH  30  31
ENDBRANCH  23  25
ENDBRANCH  22  23
ENDBRANCH  21  22
ENDBRANCH   1  21
TORSDOF 17
ENDMDL
MODEL 2
REMARK VINA RESULT:     -10.8      2.250      8.844
REMARK SMILES Cc1cc(C(=O)N2CCC[C@@H]2C)sc1/C=C/C(=O)OCCOC(=O)c1ccc(-c2c3nc(c(-c4cccc(S(=O)(=O)[O-])c4F)c4ccc([nH]4)c(-c4cccc(S(=O)(=O)[O-])c4F)c4nc(c(-c5cccc(S(=O)(=O)[O-])c5F)c5ccc2[nH]5)C=C4)C=C3)cc1
REMARK SMILES IDX 20 1 19 2 17 3 18 4 16 5 15 6 14 7 1 8 2 9 3 10 4 11 13 12
REMARK SMILES IDX 5 13 6 14 7 15 8 16 11 17 9 18 10 19 12 20 21 21 22 22 23 23
REMARK SMILES IDX 24 24 25 25 26 26 87 27 27 28 86 29 28 30 29 31 30 32 80 33
REMARK SMILES IDX 31 34 85 35 79 36 81 37 32 38 84 39 78 40 77 41 33 43 65 44
REMARK SMILES IDX 45 45 64 46 46 47 49 48 63 49 82 50 47 51 48 52 62 54 83 55
REMARK SMILES IDX 50 56 34 57 35 58 43 59 36 60 38 61 44 62 37 63 39 64 40 65
REMARK SMILES IDX 41 66 42 67 66 68 67 69 75 70 68 71 70 72 76 73 69 74 71 75
REMARK SMILES IDX 72 76 73 77 74 78 51 79 52 80 60 81 53 82 55 83 61 84 54 85
REMARK SMILES IDX 56 86 57 87 58 88 59 89
REMARK H PARENT 81 42 49 53
REMARK Flexibility Score: inf
ROOT
ATOM      1  C   UNL A   1      31.812  30.999  26.840  1.00  0.00     0.275 C 
ENDROOT
BRANCH   1   2
ATOM      2  O   UNL A   1      32.951  30.658  26.027  1.00  0.00    -0.459 OA
BRANCH   2   3
ATOM      3  C   UNL A   1      33.763  29.700  26.533  1.00  0.00     0.330 C 
ATOM      4  O   UNL A   1      34.500  29.819  27.501  1.00  0.00    -0.247 OA
BRANCH   3   5
ATOM      5  C   UNL A   1      33.663  28.418  25.809  1.00  0.00     0.095 C 
ATOM      6  C   UNL A   1      32.868  28.178  24.754  1.00  0.00     0.027 C 
BRANCH   6   7
ATOM      7  C   UNL A   1      32.798  26.892  24.126  1.00  0.00     0.031 A 
ATOM      8  C   UNL A   1      30.849  27.262  22.482  1.00  0.00     0.046 C 
ATOM      9  C   UNL A   1      31.907  26.446  23.154  1.00  0.00    -0.032 A 
ATOM     10  C   UNL A   1      32.163  25.078  22.793  1.00  0.00     0.029 A 
ATOM     11  C   UNL A   1      33.243  24.517  23.450  1.00  0.00     0.093 A 
ATOM     12  S   UNL A   1      33.899  25.633  24.554  1.00  0.00    -0.130 S 
BRANCH  11  13
ATOM     13  C   UNL A   1      33.891  23.254  23.097  1.00  0.00     0.264 C 
ATOM     14  O   UNL A   1      34.710  23.216  22.173  1.00  0.00    -0.268 OA
BRANCH  13  15
ATOM     15  N   UNL A   1      33.670  22.104  23.841  1.00  0.00    -0.335 N 
ATOM     16  C   UNL A   1      32.333  21.561  23.939  1.00  0.00     0.120 C 
ATOM     17  C   UNL A   1      34.591  21.351  24.698  1.00  0.00     0.082 C 
ATOM     18  C   UNL A   1      32.584  20.085  24.172  1.00  0.00     0.024 C 
ATOM     19  C   UNL A   1      33.806  20.083  25.087  1.00  0.00     0.026 C 
ATOM     20  C   UNL A   1      34.959  22.155  25.944  1.00  0.00     0.031 C 
ENDBRANCH  13  15
ENDBRANCH  11  13
ENDBRANCH   6   7
ENDBRANCH   3   5
ENDBRANCH   2   3
ENDBRANCH   1   2
BRANCH   1  21
ATOM     21  C   UNL A   1      31.684  32.516  27.018  1.00  0.00     0.275 C 
BRANCH  21  22
ATOM     22  O   UNL A   1      32.953  33.182  26.882  1.00  0.00    -0.458 OA
BRANCH  22  23
ATOM     23  C   UNL A   1      33.408  33.786  28.008  1.00  0.00     0.338 C 
ATOM     24  O   UNL A   1      32.900  34.730  28.589  1.00  0.00    -0.246 OA
BRANCH  23  25
ATOM     25  C   UNL A   1      34.574  33.052  28.532  1.00  0.00     0.060 A 
ATOM     26  C   UNL A   1      34.389  32.256  29.667  1.00  0.00     0.016 A 
ATOM     27  C   UNL A   1      35.842  33.192  27.962  1.00  0.00     0.016 A 
ATOM     28  C   UNL A   1      35.476  31.598  30.241  1.00  0.00     0.010 A 
ATOM     29  C   UNL A   1      36.931  32.534  28.542  1.00  0.00     0.010 A 
ATOM     30  C   UNL A   1      36.758  31.744  29.692  1.00  0.00    -0.014 A 
BRANCH  30  31
ATOM     31  C   UNL A   1      37.918  31.095  30.349  1.00  0.00     0.031 A 
ATOM     32  C   UNL A   1      38.299  31.473  31.752  1.00  0.00     0.074 A 
ATOM     33  C   UNL A   1      38.631  30.167  29.683  1.00  0.00     0.049 A 
ATOM     34  N   UNL A   1      39.278  31.022  32.492  1.00  0.00    -0.248 NA
ATOM     35  C   UNL A   1      37.469  32.494  32.412  1.00  0.00     0.031 C 
ATOM     36  C   UNL A   1      38.366  29.728  28.313  1.00  0.00     0.029 A 
ATOM     37  N   UNL A   1      39.734  29.444  30.061  1.00  0.00    -0.354 N 
ATOM     38  C   UNL A   1      39.203  31.719  33.692  1.00  0.00     0.074 A 
ATOM     39  C   UNL A   1      38.085  32.632  33.578  1.00  0.00     0.031 C 
ATOM     40  C   UNL A   1      39.293  28.823  27.958  1.00  0.00     0.029 A 
ATOM     41  C   UNL A   1      40.229  28.636  29.065  1.00  0.00     0.049 A 
ATOM     42  H   UNL A   1      40.132  29.498  30.960  1.00  0.00     0.167 HD
ATOM     43  C   UNL A   1      39.982  31.597  34.793  1.00  0.00     0.034 A 
ATOM     44  C   UNL A   1      41.321  27.848  29.041  1.00  0.00     0.034 A 
ATOM     45  C   UNL A   1      41.078  30.674  34.911  1.00  0.00     0.049 A 
ATOM     46  C   UNL A   1      42.173  27.734  30.278  1.00  0.00     0.074 A 
ATOM     47  C   UNL A   1      41.895  30.442  36.005  1.00  0.00     0.029 A 
ATOM     48  N   UNL A   1      41.521  29.834  33.900  1.00  0.00    -0.354 N 
ATOM     49  N   UNL A   1      42.008  28.303  31.448  1.00  0.00    -0.248 NA
ATOM     50  C   UNL A   1      43.340  26.844  30.204  1.00  0.00     0.031 C 
ATOM     51  C   UNL A   1      42.840  29.475  35.650  1.00  0.00     0.029 A 
ATOM     52  C   UNL A   1      42.603  29.091  34.339  1.00  0.00     0.049 A 
ATOM     53  H   UNL A   1      41.123  29.776  33.002  1.00  0.00     0.167 HD
ATOM     54  C   UNL A   1      43.032  27.820  32.256  1.00  0.00     0.074 A 
ATOM     55  C   UNL A   1      43.798  26.893  31.448  1.00  0.00     0.031 C 
ATOM     56  C   UNL A   1      43.323  28.130  33.543  1.00  0.00     0.034 A 
BRANCH  43  57
ATOM     57  C   UNL A   1      39.650  32.462  35.980  1.00  0.00     0.023 A 
ATOM     58  C   UNL A   1      40.243  33.736  36.096  1.00  0.00     0.012 A 
ATOM     59  C   UNL A   1      38.711  32.045  36.944  1.00  0.00     0.148 A 
ATOM     60  C   UNL A   1      39.930  34.570  37.169  1.00  0.00     0.002 A 
ATOM     61  C   UNL A   1      38.376  32.898  37.991  1.00  0.00     0.091 A 
ATOM     62  F   UNL A   1      38.176  30.822  36.830  1.00  0.00    -0.205 F 
ATOM     63  C   UNL A   1      38.991  34.156  38.109  1.00  0.00     0.022 A 
BRANCH  61  64
ATOM     64  S   UNL A   1      37.127  32.481  39.212  1.00  0.00     0.127 S 
ATOM     65  O   UNL A   1      37.360  33.503  40.232  1.00  0.00    -0.237 OA
ATOM     66  O   UNL A   1      35.885  32.648  38.456  1.00  0.00    -0.237 OA
ATOM     67  O   UNL A   1      37.408  31.111  39.619  1.00  0.00    -0.744 OA
ENDBRANCH  61  64
ENDBRANCH  43  57
BRANCH  44  68
ATOM     68  C   UNL A   1      41.644  27.067  27.815  1.00  0.00     0.023 A 
ATOM     69  C   UNL A   1      42.236  27.716  26.715  1.00  0.00     0.012 A 
ATOM     70  C   UNL A   1      41.400  25.682  27.745  1.00  0.00     0.148 A 
ATOM     71  C   UNL A   1      42.557  27.004  25.558  1.00  0.00     0.002 A 
ATOM     72  C   UNL A   1      41.770  24.968  26.611  1.00  0.00     0.091 A 
ATOM     73  F   UNL A   1      40.814  25.086  28.794  1.00  0.00    -0.205 F 
ATOM     74  C   UNL A   1      42.336  25.630  25.511  1.00  0.00     0.022 A 
BRANCH  72  75
ATOM     75  S   UNL A   1      41.638  23.179  26.518  1.00  0.00     0.127 S 
ATOM     76  O   UNL A   1      42.364  22.890  25.285  1.00  0.00    -0.237 OA
ATOM     77  O   UNL A   1      42.317  22.759  27.744  1.00  0.00    -0.237 OA
ATOM     78  O   UNL A   1      40.210  22.894  26.497  1.00  0.00    -0.744 OA
ENDBRANCH  72  75
ENDBRANCH  44  68
BRANCH  56  79
ATOM     79  C   UNL A   1      44.506  27.446  34.177  1.00  0.00     0.023 A 
ATOM     80  C   UNL A   1      45.785  28.027  34.071  1.00  0.00     0.012 A 
ATOM     81  C   UNL A   1      44.339  26.273  34.939  1.00  0.00     0.148 A 
ATOM     82  C   UNL A   1      46.885  27.437  34.692  1.00  0.00     0.002 A 
ATOM     83  C   UNL A   1      45.433  25.714  35.591  1.00  0.00     0.091 A 
ATOM     84  F   UNL A   1      43.119  25.724  35.011  1.00  0.00    -0.205 F 
ATOM     85  C   UNL A   1      46.707  26.288  35.461  1.00  0.00     0.022 A 
BRANCH  83  86
ATOM     86  S   UNL A   1      45.278  24.290  36.676  1.00  0.00     0.127 S 
ATOM     87  O   UNL A   1      44.780  23.267  35.756  1.00  0.00    -0.237 OA
ATOM     88  O   UNL A   1      46.655  24.086  37.126  1.00  0.00    -0.237 OA
ATOM     89  O   UNL A   1      44.354  24.690  37.729  1.00  0.00    -0.744 OA
ENDBRANCH  83  86
ENDBRANCH  56  79
ENDBRANCH  30  31
ENDBRANCH  23  25
ENDBRANCH  22  23
ENDBRANCH  21  22
ENDBRANCH   1  21
TORSDOF 17
ENDMDL
MODEL 3
REMARK VINA RESULT:     -10.8      2.172      9.144
REMARK SMILES Cc1cc(C(=O)N2CCC[C@@H]2C)sc1/C=C/C(=O)OCCOC(=O)c1ccc(-c2c3nc(c(-c4cccc(S(=O)(=O)[O-])c4F)c4ccc([nH]4)c(-c4cccc(S(=O)(=O)[O-])c4F)c4nc(c(-c5cccc(S(=O)(=O)[O-])c5F)c5ccc2[nH]5)C=C4)C=C3)cc1
REMARK SMILES IDX 20 1 19 2 17 3 18 4 16 5 15 6 14 7 1 8 2 9 3 10 4 11 13 12
REMARK SMILES IDX 5 13 6 14 7 15 8 16 11 17 9 18 10 19 12 20 21 21 22 22 23 23
REMARK SMILES IDX 24 24 25 25 26 26 87 27 27 28 86 29 28 30 29 31 30 32 80 33
REMARK SMILES IDX 31 34 85 35 79 36 81 37 32 38 84 39 78 40 77 41 33 43 65 44
REMARK SMILES IDX 45 45 64 46 46 47 49 48 63 49 82 50 47 51 48 52 62 54 83 55
REMARK SMILES IDX 50 56 34 57 35 58 43 59 36 60 38 61 44 62 37 63 39 64 40 65
REMARK SMILES IDX 41 66 42 67 66 68 67 69 75 70 68 71 70 72 76 73 69 74 71 75
REMARK SMILES IDX 72 76 73 77 74 78 51 79 52 80 60 81 53 82 55 83 61 84 54 85
REMARK SMILES IDX 56 86 57 87 58 88 59 89
REMARK H PARENT 81 42 49 53
REMARK Flexibility Score: inf
ROOT
ATOM      1  C   UNL A   1      30.948  29.912  24.979  1.00  0.00     0.275 C 
ENDROOT
BRANCH   1   2
ATOM      2  O   UNL A   1      30.069  30.334  23.919  1.00  0.00    -0.459 OA
BRANCH   2   3
ATOM      3  C   UNL A   1      29.933  29.463  22.891  1.00  0.00     0.330 C 
ATOM      4  O   UNL A   1      29.392  29.694  21.819  1.00  0.00    -0.247 OA
BRANCH   3   5
ATOM      5  C   UNL A   1      30.547  28.150  23.163  1.00  0.00     0.095 C 
ATOM      6  C   UNL A   1      29.880  27.016  23.433  1.00  0.00     0.027 C 
BRANCH   6   7
ATOM      7  C   UNL A   1      30.550  25.784  23.725  1.00  0.00     0.031 A 
ATOM      8  C   UNL A   1      29.736  25.348  26.129  1.00  0.00     0.046 C 
ATOM      9  C   UNL A   1      30.538  25.045  24.904  1.00  0.00    -0.032 A 
ATOM     10  C   UNL A   1      31.356  23.868  24.797  1.00  0.00     0.029 A 
ATOM     11  C   UNL A   1      31.943  23.704  23.555  1.00  0.00     0.093 A 
ATOM     12  S   UNL A   1      31.553  25.018  22.547  1.00  0.00    -0.130 S 
BRANCH  11  13
ATOM     13  C   UNL A   1      32.599  22.486  23.077  1.00  0.00     0.264 C 
ATOM     14  O   UNL A   1      32.855  22.353  21.876  1.00  0.00    -0.268 OA
BRANCH  13  15
ATOM     15  N   UNL A   1      33.021  21.506  23.962  1.00  0.00    -0.335 N 
ATOM     16  C   UNL A   1      34.341  21.592  24.550  1.00  0.00     0.120 C 
ATOM     17  C   UNL A   1      32.372  20.249  24.348  1.00  0.00     0.082 C 
ATOM     18  C   UNL A   1      34.173  20.854  25.863  1.00  0.00     0.024 C 
ATOM     19  C   UNL A   1      33.243  19.701  25.495  1.00  0.00     0.026 C 
ATOM     20  C   UNL A   1      32.346  19.265  23.179  1.00  0.00     0.031 C 
ENDBRANCH  13  15
ENDBRANCH  11  13
ENDBRANCH   6   7
ENDBRANCH   3   5
ENDBRANCH   2   3
ENDBRANCH   1   2
BRANCH   1  21
ATOM     21  C   UNL A   1      31.470  31.107  25.784  1.00  0.00     0.275 C 
BRANCH  21  22
ATOM     22  O   UNL A   1      32.753  30.838  26.376  1.00  0.00    -0.458 OA
BRANCH  22  23
ATOM     23  C   UNL A   1      33.245  31.833  27.156  1.00  0.00     0.338 C 
ATOM     24  O   UNL A   1      32.699  32.889  27.427  1.00  0.00    -0.246 OA
BRANCH  23  25
ATOM     25  C   UNL A   1      34.523  31.411  27.757  1.00  0.00     0.060 A 
ATOM     26  C   UNL A   1      34.662  30.068  28.121  1.00  0.00     0.016 A 
ATOM     27  C   UNL A   1      35.545  32.327  28.021  1.00  0.00     0.016 A 
ATOM     28  C   UNL A   1      35.825  29.635  28.757  1.00  0.00     0.010 A 
ATOM     29  C   UNL A   1      36.709  31.891  28.663  1.00  0.00     0.010 A 
ATOM     30  C   UNL A   1      36.850  30.546  29.046  1.00  0.00    -0.014 A 
BRANCH  30  31
ATOM     31  C   UNL A   1      38.054  30.090  29.783  1.00  0.00     0.031 A 
ATOM     32  C   UNL A   1      38.322  30.592  31.173  1.00  0.00     0.074 A 
ATOM     33  C   UNL A   1      38.907  29.227  29.200  1.00  0.00     0.049 A 
ATOM     34  N   UNL A   1      39.318  30.313  31.974  1.00  0.00    -0.248 NA
ATOM     35  C   UNL A   1      37.340  31.531  31.739  1.00  0.00     0.031 C 
ATOM     36  C   UNL A   1      38.761  28.682  27.851  1.00  0.00     0.029 A 
ATOM     37  N   UNL A   1      40.076  28.675  29.661  1.00  0.00    -0.354 N 
ATOM     38  C   UNL A   1      39.102  31.060  33.126  1.00  0.00     0.074 A 
ATOM     39  C   UNL A   1      37.883  31.812  32.917  1.00  0.00     0.031 C 
ATOM     40  C   UNL A   1      39.810  27.887  27.585  1.00  0.00     0.029 A 
ATOM     41  C   UNL A   1      40.713  27.884  28.734  1.00  0.00     0.049 A 
ATOM     42  H   UNL A   1      40.424  28.830  30.569  1.00  0.00     0.167 HD
ATOM     43  C   UNL A   1      39.841  31.101  34.260  1.00  0.00     0.034 A 
ATOM     44  C   UNL A   1      41.897  27.244  28.798  1.00  0.00     0.034 A 
ATOM     45  C   UNL A   1      41.040  30.336  34.473  1.00  0.00     0.049 A 
ATOM     46  C   UNL A   1      42.701  27.311  30.069  1.00  0.00     0.074 A 
ATOM     47  C   UNL A   1      41.831  30.272  35.608  1.00  0.00     0.029 A 
ATOM     48  N   UNL A   1      41.629  29.506  33.531  1.00  0.00    -0.354 N 
ATOM     49  N   UNL A   1      42.414  27.917  31.196  1.00  0.00    -0.248 NA
ATOM     50  C   UNL A   1      43.974  26.576  30.091  1.00  0.00     0.031 C 
ATOM     51  C   UNL A   1      42.906  29.418  35.346  1.00  0.00     0.029 A 
ATOM     52  C   UNL A   1      42.777  28.934  34.054  1.00  0.00     0.049 A 
ATOM     53  H   UNL A   1      41.282  29.347  32.624  1.00  0.00     0.167 HD
ATOM     54  C   UNL A   1      43.455  27.616  32.068  1.00  0.00     0.074 A 
ATOM     55  C   UNL A   1      44.367  26.753  31.346  1.00  0.00     0.031 C 
ATOM     56  C   UNL A   1      43.648  28.032  33.344  1.00  0.00     0.034 A 
BRANCH  43  57
ATOM     57  C   UNL A   1      39.350  31.980  35.380  1.00  0.00     0.023 A 
ATOM     58  C   UNL A   1      38.423  31.463  36.309  1.00  0.00     0.012 A 
ATOM     59  C   UNL A   1      39.846  33.286  35.551  1.00  0.00     0.148 A 
ATOM     60  C   UNL A   1      37.975  32.243  37.374  1.00  0.00     0.002 A 
ATOM     61  C   UNL A   1      39.422  34.046  36.637  1.00  0.00     0.091 A 
ATOM     62  F   UNL A   1      40.708  33.768  34.645  1.00  0.00    -0.205 F 
ATOM     63  C   UNL A   1      38.481  33.529  37.542  1.00  0.00     0.022 A 
BRANCH  61  64
ATOM     64  S   UNL A   1      40.069  35.686  36.977  1.00  0.00     0.127 S 
ATOM     65  O   UNL A   1      39.610  36.433  35.808  1.00  0.00    -0.237 OA
ATOM     66  O   UNL A   1      39.390  36.034  38.227  1.00  0.00    -0.237 OA
ATOM     67  O   UNL A   1      41.512  35.530  37.097  1.00  0.00    -0.744 OA
ENDBRANCH  61  64
ENDBRANCH  43  57
BRANCH  44  68
ATOM     68  C   UNL A   1      42.369  26.444  27.633  1.00  0.00     0.023 A 
ATOM     69  C   UNL A   1      43.247  27.029  26.701  1.00  0.00     0.012 A 
ATOM     70  C   UNL A   1      41.982  25.101  27.464  1.00  0.00     0.148 A 
ATOM     71  C   UNL A   1      43.712  26.298  25.607  1.00  0.00     0.002 A 
ATOM     72  C   UNL A   1      42.491  24.362  26.402  1.00  0.00     0.091 A 
ATOM     73  F   UNL A   1      41.128  24.569  28.350  1.00  0.00    -0.205 F 
ATOM     74  C   UNL A   1      43.344  24.963  25.464  1.00  0.00     0.022 A 
BRANCH  72  75
ATOM     75  S   UNL A   1      42.170  22.604  26.217  1.00  0.00     0.127 S 
ATOM     76  O   UNL A   1      42.881  22.300  24.979  1.00  0.00    -0.237 OA
ATOM     77  O   UNL A   1      42.780  22.054  27.428  1.00  0.00    -0.237 OA
ATOM     78  O   UNL A   1      40.720  22.475  26.166  1.00  0.00    -0.744 OA
ENDBRANCH  72  75
ENDBRANCH  44  68
BRANCH  56  79
ATOM     79  C   UNL A   1      44.879  27.543  34.060  1.00  0.00     0.023 A 
ATOM     80  C   UNL A   1      46.052  28.324  34.041  1.00  0.00     0.012 A 
ATOM     81  C   UNL A   1      44.853  26.353  34.813  1.00  0.00     0.148 A 
ATOM     82  C   UNL A   1      47.188  27.915  34.738  1.00  0.00     0.002 A 
ATOM     83  C   UNL A   1      45.975  25.974  35.541  1.00  0.00     0.091 A 
ATOM     84  F   UNL A   1      43.735  25.613  34.802  1.00  0.00    -0.205 F 
ATOM     85  C   UNL A   1      47.146  26.747  35.497  1.00  0.00     0.022 A 
BRANCH  83  86
ATOM     86  S   UNL A   1      45.978  24.534  36.617  1.00  0.00     0.127 S 
ATOM     87  O   UNL A   1      47.311  24.609  37.213  1.00  0.00    -0.237 OA
ATOM     88  O   UNL A   1      44.880  24.830  37.540  1.00  0.00    -0.237 OA
ATOM     89  O   UNL A   1      45.741  23.388  35.750  1.00  0.00    -0.744 OA
ENDBRANCH  83  86
ENDBRANCH  56  79
ENDBRANCH  30  31
ENDBRANCH  23  25
ENDBRANCH  22  23
ENDBRANCH  21  22
ENDBRANCH   1  21
TORSDOF 17
ENDMDL
