MODEL 1
REMARK VINA RESULT:     -12.6      0.000      0.000
REMARK SMILES Cc1cc(Cl)cc2c1O[C@H](C(F)(F)F)C(C(=O)OCCOC(=O)c1ccc(-c3c4nc(c(-c5cccc(S(=O)(=O)[O-])c5F)c5ccc([nH]5)c(-c5cccc(S(=O)(=O)[O-])c5F)c5nc(c(-c6cccc(S(=O)(=O)[O-])c6F)c6ccc3[nH]6)C=C5)C=C4)cc1)=C2
REMARK SMILES IDX 20 1 19 2 18 3 16 4 17 5 15 6 1 7 2 8 3 9 8 10 4 11 7 12
REMARK SMILES IDX 9 13 5 14 6 15 87 16 10 17 11 18 12 19 13 20 14 21 21 22
REMARK SMILES IDX 22 23 23 24 24 25 25 26 86 27 26 28 85 29 27 30 28 31 29 32
REMARK SMILES IDX 79 33 30 34 84 35 78 36 80 37 31 38 83 39 77 40 76 41 32 43
REMARK SMILES IDX 64 44 44 45 63 46 45 47 48 48 62 49 81 50 46 51 47 52 61 54
REMARK SMILES IDX 82 55 49 56 33 57 34 58 42 59 35 60 37 61 43 62 36 63 38 64
REMARK SMILES IDX 39 65 40 66 41 67 65 68 66 69 74 70 67 71 69 72 75 73 68 74
REMARK SMILES IDX 70 75 71 76 72 77 73 78 50 79 51 80 59 81 52 82 54 83 60 84
REMARK SMILES IDX 53 85 55 86 56 87 57 88 58 89
REMARK H PARENT 80 42 48 53
REMARK Flexibility Score: inf
ROOT
ATOM      1  C   UNL A   1      31.603  29.815  25.722  1.00  0.00     0.275 C 
ENDROOT
BRANCH   1   2
ATOM      2  C   UNL A   1      32.054  28.562  24.971  1.00  0.00     0.275 C 
BRANCH   2   3
ATOM      3  O   UNL A   1      32.586  27.565  25.872  1.00  0.00    -0.459 OA
BRANCH   3   4
ATOM      4  C   UNL A   1      31.701  26.637  26.299  1.00  0.00     0.338 C 
ATOM      5  O   UNL A   1      30.652  26.850  26.891  1.00  0.00    -0.246 OA
BRANCH   4   6
ATOM      6  C   UNL A   1      32.158  25.278  25.957  1.00  0.00     0.087 C 
ATOM      7  C   UNL A   1      32.695  20.574  23.899  1.00  0.00     0.048 C 
ATOM      8  C   UNL A   1      33.578  21.589  24.565  1.00  0.00    -0.007 A 
ATOM      9  C   UNL A   1      34.960  21.336  24.628  1.00  0.00     0.027 A 
ATOM     10  C   UNL A   1      33.080  22.801  25.068  1.00  0.00     0.131 A 
ATOM     11  C   UNL A   1      35.824  22.259  25.212  1.00  0.00     0.042 A 
ATOM     12  C   UNL A   1      33.958  23.723  25.645  1.00  0.00     0.019 A 
ATOM     13  O   UNL A   1      31.731  23.021  24.983  1.00  0.00    -0.475 OA
ATOM     14  Cl  UNL A   1      37.510  21.932  25.275  1.00  0.00    -0.084 Cl
ATOM     15  C   UNL A   1      35.329  23.448  25.730  1.00  0.00     0.032 A 
ATOM     16  C   UNL A   1      33.452  24.992  26.125  1.00  0.00     0.027 C 
ATOM     17  C   UNL A   1      31.198  24.340  25.292  1.00  0.00     0.316 C 
BRANCH  17  18
ATOM     18  C   UNL A   1      30.621  24.955  24.008  1.00  0.00     0.430 C 
ATOM     19  F   UNL A   1      31.537  25.731  23.379  1.00  0.00    -0.167 F 
ATOM     20  F   UNL A   1      30.256  24.000  23.117  1.00  0.00    -0.167 F 
ATOM     21  F   UNL A   1      29.535  25.725  24.245  1.00  0.00    -0.167 F 
ENDBRANCH  17  18
ENDBRANCH   4   6
ENDBRANCH   3   4
ENDBRANCH   2   3
ENDBRANCH   1   2
BRANCH   1  22
ATOM     22  O   UNL A   1      32.282  29.918  26.986  1.00  0.00    -0.458 OA
BRANCH  22  23
ATOM     23  C   UNL A   1      32.913  31.095  27.192  1.00  0.00     0.338 C 
ATOM     24  O   UNL A   1      32.406  32.204  27.246  1.00  0.00    -0.246 OA
BRANCH  23  25
ATOM     25  C   UNL A   1      34.341  30.880  27.461  1.00  0.00     0.060 A 
ATOM     26  C   UNL A   1      34.788  29.576  27.628  1.00  0.00     0.016 A 
ATOM     27  C   UNL A   1      35.162  31.948  27.811  1.00  0.00     0.016 A 
ATOM     28  C   UNL A   1      35.956  29.330  28.341  1.00  0.00     0.010 A 
ATOM     29  C   UNL A   1      36.419  31.691  28.371  1.00  0.00     0.010 A 
ATOM     30  C   UNL A   1      36.802  30.382  28.717  1.00  0.00    -0.014 A 
BRANCH  30  31
ATOM     31  C   UNL A   1      38.048  30.125  29.500  1.00  0.00     0.031 A 
ATOM     32  C   UNL A   1      39.141  29.254  28.923  1.00  0.00     0.074 A 
ATOM     33  C   UNL A   1      38.215  30.660  30.729  1.00  0.00     0.049 A 
ATOM     34  N   UNL A   1      40.170  28.711  29.522  1.00  0.00    -0.248 NA
ATOM     35  C   UNL A   1      39.056  28.936  27.487  1.00  0.00     0.031 C 
ATOM     36  C   UNL A   1      37.276  31.562  31.400  1.00  0.00     0.029 A 
ATOM     37  N   UNL A   1      39.232  30.514  31.642  1.00  0.00    -0.354 N 
ATOM     38  C   UNL A   1      40.800  27.922  28.564  1.00  0.00     0.074 A 
ATOM     39  C   UNL A   1      40.041  28.060  27.340  1.00  0.00     0.031 C 
ATOM     40  C   UNL A   1      37.773  31.915  32.593  1.00  0.00     0.029 A 
ATOM     41  C   UNL A   1      39.001  31.170  32.830  1.00  0.00     0.049 A 
ATOM     42  H   UNL A   1      40.047  29.990  31.464  1.00  0.00     0.167 HD
ATOM     43  C   UNL A   1      41.913  27.160  28.690  1.00  0.00     0.034 A 
ATOM     44  C   UNL A   1      39.656  31.133  34.006  1.00  0.00     0.034 A 
ATOM     45  C   UNL A   1      42.709  27.096  29.888  1.00  0.00     0.049 A 
ATOM     46  C   UNL A   1      40.868  30.254  34.133  1.00  0.00     0.074 A 
ATOM     47  C   UNL A   1      43.872  26.379  30.109  1.00  0.00     0.029 A 
ATOM     48  N   UNL A   1      42.438  27.785  31.060  1.00  0.00    -0.354 N 
ATOM     49  N   UNL A   1      41.451  29.518  33.220  1.00  0.00    -0.248 NA
ATOM     50  C   UNL A   1      41.512  30.203  35.452  1.00  0.00     0.031 C 
ATOM     51  C   UNL A   1      44.288  26.612  31.423  1.00  0.00     0.029 A 
ATOM     52  C   UNL A   1      43.403  27.501  32.012  1.00  0.00     0.049 A 
ATOM     53  H   UNL A   1      41.672  28.388  31.196  1.00  0.00     0.167 HD
ATOM     54  C   UNL A   1      42.540  28.926  33.847  1.00  0.00     0.074 A 
ATOM     55  C   UNL A   1      42.555  29.421  35.209  1.00  0.00     0.031 C 
ATOM     56  C   UNL A   1      43.431  28.034  33.351  1.00  0.00     0.034 A 
BRANCH  43  57
ATOM     57  C   UNL A   1      42.364  26.344  27.503  1.00  0.00     0.023 A 
ATOM     58  C   UNL A   1      43.211  26.916  26.533  1.00  0.00     0.012 A 
ATOM     59  C   UNL A   1      42.020  24.979  27.398  1.00  0.00     0.148 A 
ATOM     60  C   UNL A   1      43.688  26.154  25.467  1.00  0.00     0.002 A 
ATOM     61  C   UNL A   1      42.541  24.213  26.360  1.00  0.00     0.091 A 
ATOM     62  F   UNL A   1      41.201  24.454  28.319  1.00  0.00    -0.205 F 
ATOM     63  C   UNL A   1      43.365  24.801  25.388  1.00  0.00     0.022 A 
BRANCH  61  64
ATOM     64  S   UNL A   1      42.260  22.443  26.218  1.00  0.00     0.127 S 
ATOM     65  O   UNL A   1      43.005  22.123  25.001  1.00  0.00    -0.237 OA
ATOM     66  O   UNL A   1      42.863  21.938  27.452  1.00  0.00    -0.237 OA
ATOM     67  O   UNL A   1      40.818  22.268  26.126  1.00  0.00    -0.744 OA
ENDBRANCH  61  64
ENDBRANCH  43  57
BRANCH  44  68
ATOM     68  C   UNL A   1      39.169  31.956  35.153  1.00  0.00     0.023 A 
ATOM     69  C   UNL A   1      38.267  31.389  36.072  1.00  0.00     0.012 A 
ATOM     70  C   UNL A   1      39.636  33.269  35.372  1.00  0.00     0.148 A 
ATOM     71  C   UNL A   1      37.828  32.116  37.180  1.00  0.00     0.002 A 
ATOM     72  C   UNL A   1      39.250  33.961  36.513  1.00  0.00     0.091 A 
ATOM     73  F   UNL A   1      40.479  33.801  34.475  1.00  0.00    -0.205 F 
ATOM     74  C   UNL A   1      38.332  33.394  37.409  1.00  0.00     0.022 A 
BRANCH  72  75
ATOM     75  S   UNL A   1      39.965  35.545  36.970  1.00  0.00     0.127 S 
ATOM     76  O   UNL A   1      39.290  35.824  38.235  1.00  0.00    -0.237 OA
ATOM     77  O   UNL A   1      41.384  35.209  37.090  1.00  0.00    -0.237 OA
ATOM     78  O   UNL A   1      39.653  36.452  35.875  1.00  0.00    -0.744 OA
ENDBRANCH  72  75
ENDBRANCH  44  68
BRANCH  56  79
ATOM     79  C   UNL A   1      44.509  27.534  34.277  1.00  0.00     0.023 A 
ATOM     80  C   UNL A   1      45.688  28.288  34.442  1.00  0.00     0.012 A 
ATOM     81  C   UNL A   1      44.320  26.369  35.047  1.00  0.00     0.148 A 
ATOM     82  C   UNL A   1      46.677  27.874  35.333  1.00  0.00     0.002 A 
ATOM     83  C   UNL A   1      45.285  25.992  35.974  1.00  0.00     0.091 A 
ATOM     84  F   UNL A   1      43.198  25.657  34.864  1.00  0.00    -0.205 F 
ATOM     85  C   UNL A   1      46.469  26.735  36.107  1.00  0.00     0.022 A 
BRANCH  83  86
ATOM     86  S   UNL A   1      45.062  24.604  37.092  1.00  0.00     0.127 S 
ATOM     87  O   UNL A   1      46.306  24.637  37.859  1.00  0.00    -0.237 OA
ATOM     88  O   UNL A   1      43.870  25.001  37.843  1.00  0.00    -0.237 OA
ATOM     89  O   UNL A   1      44.884  23.430  36.247  1.00  0.00    -0.744 OA
ENDBRANCH  83  86
ENDBRANCH  56  79
ENDBRANCH  30  31
ENDBRANCH  23  25
ENDBRANCH  22  23
ENDBRANCH   1  22
TORSDOF 15
ENDMDL
MODEL 2
REMARK VINA RESULT:     -12.5      4.912      9.933
REMARK SMILES Cc1cc(Cl)cc2c1O[C@H](C(F)(F)F)C(C(=O)OCCOC(=O)c1ccc(-c3c4nc(c(-c5cccc(S(=O)(=O)[O-])c5F)c5ccc([nH]5)c(-c5cccc(S(=O)(=O)[O-])c5F)c5nc(c(-c6cccc(S(=O)(=O)[O-])c6F)c6ccc3[nH]6)C=C5)C=C4)cc1)=C2
REMARK SMILES IDX 20 1 19 2 18 3 16 4 17 5 15 6 1 7 2 8 3 9 8 10 4 11 7 12
REMARK SMILES IDX 9 13 5 14 6 15 87 16 10 17 11 18 12 19 13 20 14 21 21 22
REMARK SMILES IDX 22 23 23 24 24 25 25 26 86 27 26 28 85 29 27 30 28 31 29 32
REMARK SMILES IDX 79 33 30 34 84 35 78 36 80 37 31 38 83 39 77 40 76 41 32 43
REMARK SMILES IDX 64 44 44 45 63 46 45 47 48 48 62 49 81 50 46 51 47 52 61 54
REMARK SMILES IDX 82 55 49 56 33 57 34 58 42 59 35 60 37 61 43 62 36 63 38 64
REMARK SMILES IDX 39 65 40 66 41 67 65 68 66 69 74 70 67 71 69 72 75 73 68 74
REMARK SMILES IDX 70 75 71 76 72 77 73 78 50 79 51 80 59 81 52 82 54 83 60 84
REMARK SMILES IDX 53 85 55 86 56 87 57 88 58 89
REMARK H PARENT 80 42 48 53
REMARK Flexibility Score: inf
ROOT
ATOM      1  C   UNL A   1      36.511  20.611  24.984  1.00  0.00     0.275 C 
ENDROOT
BRANCH   1   2
ATOM      2  C   UNL A   1      35.179  21.362  24.984  1.00  0.00     0.275 C 
BRANCH   2   3
ATOM      3  O   UNL A   1      35.376  22.791  24.911  1.00  0.00    -0.459 OA
BRANCH   3   4
ATOM      4  C   UNL A   1      35.156  23.346  23.697  1.00  0.00     0.338 C 
ATOM      5  O   UNL A   1      35.683  23.021  22.643  1.00  0.00    -0.246 OA
BRANCH   4   6
ATOM      6  C   UNL A   1      34.168  24.435  23.788  1.00  0.00     0.087 C 
ATOM      7  C   UNL A   1      29.860  27.277  23.639  1.00  0.00     0.048 C 
ATOM      8  C   UNL A   1      31.157  27.287  24.395  1.00  0.00    -0.007 A 
ATOM      9  C   UNL A   1      31.324  28.229  25.426  1.00  0.00     0.027 A 
ATOM     10  C   UNL A   1      32.175  26.353  24.149  1.00  0.00     0.131 A 
ATOM     11  C   UNL A   1      32.499  28.261  26.174  1.00  0.00     0.042 A 
ATOM     12  C   UNL A   1      33.347  26.390  24.911  1.00  0.00     0.019 A 
ATOM     13  O   UNL A   1      31.978  25.443  23.145  1.00  0.00    -0.475 OA
ATOM     14  Cl  UNL A   1      32.682  29.417  27.432  1.00  0.00    -0.084 Cl
ATOM     15  C   UNL A   1      33.516  27.351  25.916  1.00  0.00     0.032 A 
ATOM     16  C   UNL A   1      34.380  25.400  24.688  1.00  0.00     0.027 C 
ATOM     17  C   UNL A   1      32.903  24.329  22.993  1.00  0.00     0.316 C 
BRANCH  17  18
ATOM     18  C   UNL A   1      32.159  23.021  23.306  1.00  0.00     0.430 C 
ATOM     19  F   UNL A   1      32.205  22.733  24.630  1.00  0.00    -0.167 F 
ATOM     20  F   UNL A   1      30.845  23.104  22.981  1.00  0.00    -0.167 F 
ATOM     21  F   UNL A   1      32.675  21.961  22.644  1.00  0.00    -0.167 F 
ENDBRANCH  17  18
ENDBRANCH   4   6
ENDBRANCH   3   4
ENDBRANCH   2   3
ENDBRANCH   1   2
BRANCH   1  22
ATOM     22  O   UNL A   1      37.611  21.533  24.902  1.00  0.00    -0.458 OA
BRANCH  22  23
ATOM     23  C   UNL A   1      38.690  21.190  25.641  1.00  0.00     0.338 C 
ATOM     24  O   UNL A   1      39.309  20.140  25.598  1.00  0.00    -0.246 OA
BRANCH  23  25
ATOM     25  C   UNL A   1      39.127  22.316  26.479  1.00  0.00     0.060 A 
ATOM     26  C   UNL A   1      38.632  23.580  26.187  1.00  0.00     0.016 A 
ATOM     27  C   UNL A   1      40.202  22.172  27.350  1.00  0.00     0.016 A 
ATOM     28  C   UNL A   1      39.340  24.709  26.586  1.00  0.00     0.010 A 
ATOM     29  C   UNL A   1      40.803  23.314  27.890  1.00  0.00     0.010 A 
ATOM     30  C   UNL A   1      40.433  24.600  27.456  1.00  0.00    -0.014 A 
BRANCH  30  31
ATOM     31  C   UNL A   1      41.208  25.808  27.872  1.00  0.00     0.031 A 
ATOM     32  C   UNL A   1      40.551  26.880  28.712  1.00  0.00     0.074 A 
ATOM     33  C   UNL A   1      42.498  25.962  27.503  1.00  0.00     0.049 A 
ATOM     34  N   UNL A   1      40.957  28.097  28.966  1.00  0.00    -0.248 NA
ATOM     35  C   UNL A   1      39.258  26.544  29.333  1.00  0.00     0.031 C 
ATOM     36  C   UNL A   1      43.287  24.993  26.737  1.00  0.00     0.029 A 
ATOM     37  N   UNL A   1      43.375  27.000  27.713  1.00  0.00    -0.354 N 
ATOM     38  C   UNL A   1      39.936  28.698  29.697  1.00  0.00     0.074 A 
ATOM     39  C   UNL A   1      38.892  27.709  29.852  1.00  0.00     0.031 C 
ATOM     40  C   UNL A   1      44.531  25.461  26.574  1.00  0.00     0.029 A 
ATOM     41  C   UNL A   1      44.598  26.814  27.109  1.00  0.00     0.049 A 
ATOM     42  H   UNL A   1      43.150  27.798  28.243  1.00  0.00     0.167 HD
ATOM     43  C   UNL A   1      39.878  29.955  30.200  1.00  0.00     0.034 A 
ATOM     44  C   UNL A   1      45.639  27.651  26.938  1.00  0.00     0.034 A 
ATOM     45  C   UNL A   1      40.957  30.903  30.114  1.00  0.00     0.049 A 
ATOM     46  C   UNL A   1      45.539  29.051  27.474  1.00  0.00     0.074 A 
ATOM     47  C   UNL A   1      41.011  32.191  30.618  1.00  0.00     0.029 A 
ATOM     48  N   UNL A   1      42.178  30.665  29.501  1.00  0.00    -0.354 N 
ATOM     49  N   UNL A   1      44.570  29.602  28.164  1.00  0.00    -0.248 NA
ATOM     50  C   UNL A   1      46.675  29.944  27.210  1.00  0.00     0.031 C 
ATOM     51  C   UNL A   1      42.253  32.740  30.285  1.00  0.00     0.029 A 
ATOM     52  C   UNL A   1      42.987  31.784  29.602  1.00  0.00     0.049 A 
ATOM     53  H   UNL A   1      42.432  29.823  29.057  1.00  0.00     0.167 HD
ATOM     54  C   UNL A   1      44.984  30.901  28.430  1.00  0.00     0.074 A 
ATOM     55  C   UNL A   1      46.310  31.041  27.859  1.00  0.00     0.031 C 
ATOM     56  C   UNL A   1      44.320  31.896  29.066  1.00  0.00     0.034 A 
BRANCH  43  57
ATOM     57  C   UNL A   1      38.620  30.385  30.914  1.00  0.00     0.023 A 
ATOM     58  C   UNL A   1      38.482  30.164  32.298  1.00  0.00     0.012 A 
ATOM     59  C   UNL A   1      37.611  31.094  30.226  1.00  0.00     0.148 A 
ATOM     60  C   UNL A   1      37.353  30.617  32.982  1.00  0.00     0.002 A 
ATOM     61  C   UNL A   1      36.513  31.586  30.924  1.00  0.00     0.091 A 
ATOM     62  F   UNL A   1      37.750  31.282  28.907  1.00  0.00    -0.205 F 
ATOM     63  C   UNL A   1      36.377  31.338  32.299  1.00  0.00     0.022 A 
BRANCH  61  64
ATOM     64  S   UNL A   1      35.247  32.605  30.157  1.00  0.00     0.127 S 
ATOM     65  O   UNL A   1      36.024  33.768  29.728  1.00  0.00    -0.237 OA
ATOM     66  O   UNL A   1      34.784  31.747  29.066  1.00  0.00    -0.237 OA
ATOM     67  O   UNL A   1      34.257  32.868  31.191  1.00  0.00    -0.744 OA
ENDBRANCH  61  64
ENDBRANCH  43  57
BRANCH  44  68
ATOM     68  C   UNL A   1      46.861  27.180  26.221  1.00  0.00     0.023 A 
ATOM     69  C   UNL A   1      47.017  27.479  24.855  1.00  0.00     0.012 A 
ATOM     70  C   UNL A   1      47.892  26.491  26.894  1.00  0.00     0.148 A 
ATOM     71  C   UNL A   1      48.169  27.092  24.168  1.00  0.00     0.002 A 
ATOM     72  C   UNL A   1      49.065  26.170  26.222  1.00  0.00     0.091 A 
ATOM     73  F   UNL A   1      47.719  26.196  28.190  1.00  0.00    -0.205 F 
ATOM     74  C   UNL A   1      49.199  26.453  24.854  1.00  0.00     0.022 A 
BRANCH  72  75
ATOM     75  S   UNL A   1      50.503  25.489  27.058  1.00  0.00     0.127 S 
ATOM     76  O   UNL A   1      51.437  25.311  25.950  1.00  0.00    -0.237 OA
ATOM     77  O   UNL A   1      50.847  26.566  27.987  1.00  0.00    -0.237 OA
ATOM     78  O   UNL A   1      50.045  24.265  27.700  1.00  0.00    -0.744 OA
ENDBRANCH  72  75
ENDBRANCH  44  68
BRANCH  56  79
ATOM     79  C   UNL A   1      45.012  33.230  29.191  1.00  0.00     0.023 A 
ATOM     80  C   UNL A   1      45.802  33.498  30.325  1.00  0.00     0.012 A 
ATOM     81  C   UNL A   1      44.949  34.178  28.150  1.00  0.00     0.148 A 
ATOM     82  C   UNL A   1      46.494  34.703  30.439  1.00  0.00     0.002 A 
ATOM     83  C   UNL A   1      45.686  35.352  28.245  1.00  0.00     0.091 A 
ATOM     84  F   UNL A   1      44.179  33.910  27.086  1.00  0.00    -0.205 F 
ATOM     85  C   UNL A   1      46.447  35.623  29.394  1.00  0.00     0.022 A 
BRANCH  83  86
ATOM     86  S   UNL A   1      45.775  36.549  26.908  1.00  0.00     0.127 S 
ATOM     87  O   UNL A   1      44.399  37.041  26.856  1.00  0.00    -0.237 OA
ATOM     88  O   UNL A   1      46.749  37.513  27.421  1.00  0.00    -0.237 OA
ATOM     89  O   UNL A   1      46.215  35.809  25.733  1.00  0.00    -0.744 OA
ENDBRANCH  83  86
ENDBRANCH  56  79
ENDBRANCH  30  31
ENDBRANCH  23  25
ENDBRANCH  22  23
ENDBRANCH   1  22
TORSDOF 15
ENDMDL
MODEL 3
REMARK VINA RESULT:     -12.4      1.513      1.908
REMARK SMILES Cc1cc(Cl)cc2c1O[C@H](C(F)(F)F)C(C(=O)OCCOC(=O)c1ccc(-c3c4nc(c(-c5cccc(S(=O)(=O)[O-])c5F)c5ccc([nH]5)c(-c5cccc(S(=O)(=O)[O-])c5F)c5nc(c(-c6cccc(S(=O)(=O)[O-])c6F)c6ccc3[nH]6)C=C5)C=C4)cc1)=C2
REMARK SMILES IDX 20 1 19 2 18 3 16 4 17 5 15 6 1 7 2 8 3 9 8 10 4 11 7 12
REMARK SMILES IDX 9 13 5 14 6 15 87 16 10 17 11 18 12 19 13 20 14 21 21 22
REMARK SMILES IDX 22 23 23 24 24 25 25 26 86 27 26 28 85 29 27 30 28 31 29 32
REMARK SMILES IDX 79 33 30 34 84 35 78 36 80 37 31 38 83 39 77 40 76 41 32 43
REMARK SMILES IDX 64 44 44 45 63 46 45 47 48 48 62 49 81 50 46 51 47 52 61 54
REMARK SMILES IDX 82 55 49 56 33 57 34 58 42 59 35 60 37 61 43 62 36 63 38 64
REMARK SMILES IDX 39 65 40 66 41 67 65 68 66 69 74 70 67 71 69 72 75 73 68 74
REMARK SMILES IDX 70 75 71 76 72 77 73 78 50 79 51 80 59 81 52 82 54 83 60 84
REMARK SMILES IDX 53 85 55 86 56 87 57 88 58 89
REMARK H PARENT 80 42 48 53
REMARK Flexibility Score: inf
ROOT
ATOM      1  C   UNL A   1      31.457  30.828  26.162  1.00  0.00     0.275 C 
ENDROOT
BRANCH   1   2
ATOM      2  C   UNL A   1      31.425  29.738  25.090  1.00  0.00     0.275 C 
BRANCH   2   3
ATOM      3  O   UNL A   1      31.985  28.498  25.576  1.00  0.00    -0.459 OA
BRANCH   3   4
ATOM      4  C   UNL A   1      33.101  28.076  24.938  1.00  0.00     0.338 C 
ATOM      5  O   UNL A   1      34.033  28.774  24.564  1.00  0.00    -0.246 OA
BRANCH   4   6
ATOM      6  C   UNL A   1      33.069  26.617  24.733  1.00  0.00     0.087 C 
ATOM      7  C   UNL A   1      32.310  21.866  22.862  1.00  0.00     0.048 C 
ATOM      8  C   UNL A   1      33.276  22.538  23.793  1.00  0.00    -0.007 A 
ATOM      9  C   UNL A   1      34.361  21.791  24.287  1.00  0.00     0.027 A 
ATOM     10  C   UNL A   1      33.167  23.895  24.136  1.00  0.00     0.131 A 
ATOM     11  C   UNL A   1      35.300  22.377  25.133  1.00  0.00     0.042 A 
ATOM     12  C   UNL A   1      34.119  24.474  24.979  1.00  0.00     0.019 A 
ATOM     13  O   UNL A   1      32.105  24.597  23.632  1.00  0.00    -0.475 OA
ATOM     14  Cl  UNL A   1      36.620  21.448  25.722  1.00  0.00    -0.084 Cl
ATOM     15  C   UNL A   1      35.180  23.714  25.489  1.00  0.00     0.032 A 
ATOM     16  C   UNL A   1      34.033  25.884  25.298  1.00  0.00     0.027 C 
ATOM     17  C   UNL A   1      32.066  26.044  23.781  1.00  0.00     0.316 C 
BRANCH  17  18
ATOM     18  C   UNL A   1      32.188  26.690  22.391  1.00  0.00     0.430 C 
ATOM     19  F   UNL A   1      31.697  25.875  21.426  1.00  0.00    -0.167 F 
ATOM     20  F   UNL A   1      31.480  27.843  22.312  1.00  0.00    -0.167 F 
ATOM     21  F   UNL A   1      33.469  26.977  22.065  1.00  0.00    -0.167 F 
ENDBRANCH  17  18
ENDBRANCH   4   6
ENDBRANCH   3   4
ENDBRANCH   2   3
ENDBRANCH   1   2
BRANCH   1  22
ATOM     22  O   UNL A   1      32.506  30.571  27.112  1.00  0.00    -0.458 OA
BRANCH  22  23
ATOM     23  C   UNL A   1      33.239  31.655  27.450  1.00  0.00     0.338 C 
ATOM     24  O   UNL A   1      32.831  32.789  27.641  1.00  0.00    -0.246 OA
BRANCH  23  25
ATOM     25  C   UNL A   1      34.643  31.286  27.673  1.00  0.00     0.060 A 
ATOM     26  C   UNL A   1      34.936  29.954  27.938  1.00  0.00     0.016 A 
ATOM     27  C   UNL A   1      35.606  32.267  27.887  1.00  0.00     0.016 A 
ATOM     28  C   UNL A   1      36.104  29.625  28.618  1.00  0.00     0.010 A 
ATOM     29  C   UNL A   1      36.851  31.903  28.411  1.00  0.00     0.010 A 
ATOM     30  C   UNL A   1      37.091  30.590  28.858  1.00  0.00    -0.014 A 
BRANCH  30  31
ATOM     31  C   UNL A   1      38.338  30.245  29.605  1.00  0.00     0.031 A 
ATOM     32  C   UNL A   1      39.351  29.301  28.997  1.00  0.00     0.074 A 
ATOM     33  C   UNL A   1      38.577  30.765  30.828  1.00  0.00     0.049 A 
ATOM     34  N   UNL A   1      40.355  28.686  29.567  1.00  0.00    -0.248 NA
ATOM     35  C   UNL A   1      39.201  28.991  27.565  1.00  0.00     0.031 C 
ATOM     36  C   UNL A   1      37.723  31.730  31.526  1.00  0.00     0.029 A 
ATOM     37  N   UNL A   1      39.608  30.547  31.712  1.00  0.00    -0.354 N 
ATOM     38  C   UNL A   1      40.901  27.856  28.591  1.00  0.00     0.074 A 
ATOM     39  C   UNL A   1      40.119  28.049  27.390  1.00  0.00     0.031 C 
ATOM     40  C   UNL A   1      38.278  32.046  32.703  1.00  0.00     0.029 A 
ATOM     41  C   UNL A   1      39.457  31.217  32.905  1.00  0.00     0.049 A 
ATOM     42  H   UNL A   1      40.378  29.968  31.510  1.00  0.00     0.167 HD
ATOM     43  C   UNL A   1      41.961  27.018  28.686  1.00  0.00     0.034 A 
ATOM     44  C   UNL A   1      40.142  31.133  34.062  1.00  0.00     0.034 A 
ATOM     45  C   UNL A   1      42.785  26.897  29.860  1.00  0.00     0.049 A 
ATOM     46  C   UNL A   1      41.292  30.171  34.155  1.00  0.00     0.074 A 
ATOM     47  C   UNL A   1      43.901  26.100  30.048  1.00  0.00     0.029 A 
ATOM     48  N   UNL A   1      42.597  27.602  31.039  1.00  0.00    -0.354 N 
ATOM     49  N   UNL A   1      41.796  29.397  33.225  1.00  0.00    -0.248 NA
ATOM     50  C   UNL A   1      41.969  30.073  35.455  1.00  0.00     0.031 C 
ATOM     51  C   UNL A   1      44.370  26.302  31.350  1.00  0.00     0.029 A 
ATOM     52  C   UNL A   1      43.567  27.250  31.963  1.00  0.00     0.049 A 
ATOM     53  H   UNL A   1      41.879  28.257  31.197  1.00  0.00     0.167 HD
ATOM     54  C   UNL A   1      42.859  28.729  33.821  1.00  0.00     0.074 A 
ATOM     55  C   UNL A   1      42.948  29.221  35.182  1.00  0.00     0.031 C 
ATOM     56  C   UNL A   1      43.670  27.777  33.300  1.00  0.00     0.034 A 
BRANCH  43  57
ATOM     57  C   UNL A   1      42.319  26.174  27.487  1.00  0.00     0.023 A 
ATOM     58  C   UNL A   1      43.121  26.710  26.460  1.00  0.00     0.012 A 
ATOM     59  C   UNL A   1      41.936  24.817  27.424  1.00  0.00     0.148 A 
ATOM     60  C   UNL A   1      43.514  25.921  25.379  1.00  0.00     0.002 A 
ATOM     61  C   UNL A   1      42.375  24.024  26.368  1.00  0.00     0.091 A 
ATOM     62  F   UNL A   1      41.161  24.327  28.400  1.00  0.00    -0.205 F 
ATOM     63  C   UNL A   1      43.153  24.577  25.340  1.00  0.00     0.022 A 
BRANCH  61  64
ATOM     64  S   UNL A   1      42.041  22.260  26.271  1.00  0.00     0.127 S 
ATOM     65  O   UNL A   1      42.496  21.801  27.584  1.00  0.00    -0.237 OA
ATOM     66  O   UNL A   1      40.590  22.233  26.086  1.00  0.00    -0.237 OA
ATOM     67  O   UNL A   1      42.812  21.764  25.140  1.00  0.00    -0.744 OA
ENDBRANCH  61  64
ENDBRANCH  43  57
BRANCH  44  68
ATOM     68  C   UNL A   1      39.747  31.985  35.222  1.00  0.00     0.023 A 
ATOM     69  C   UNL A   1      40.126  33.340  35.242  1.00  0.00     0.012 A 
ATOM     70  C   UNL A   1      38.951  31.481  36.272  1.00  0.00     0.148 A 
ATOM     71  C   UNL A   1      39.733  34.174  36.290  1.00  0.00     0.002 A 
ATOM     72  C   UNL A   1      38.505  32.332  37.276  1.00  0.00     0.091 A 
ATOM     73  F   UNL A   1      38.615  30.183  36.248  1.00  0.00    -0.205 F 
ATOM     74  C   UNL A   1      38.910  33.675  37.297  1.00  0.00     0.022 A 
BRANCH  72  75
ATOM     75  S   UNL A   1      37.319  31.818  38.523  1.00  0.00     0.127 S 
ATOM     76  O   UNL A   1      37.040  30.441  38.122  1.00  0.00    -0.237 OA
ATOM     77  O   UNL A   1      38.099  31.955  39.754  1.00  0.00    -0.237 OA
ATOM     78  O   UNL A   1      36.201  32.745  38.413  1.00  0.00    -0.744 OA
ENDBRANCH  72  75
ENDBRANCH  44  68
BRANCH  56  79
ATOM     79  C   UNL A   1      44.738  27.203  34.196  1.00  0.00     0.023 A 
ATOM     80  C   UNL A   1      45.998  27.829  34.265  1.00  0.00     0.012 A 
ATOM     81  C   UNL A   1      44.466  26.099  35.029  1.00  0.00     0.148 A 
ATOM     82  C   UNL A   1      46.983  27.347  35.126  1.00  0.00     0.002 A 
ATOM     83  C   UNL A   1      45.434  25.659  35.924  1.00  0.00     0.091 A 
ATOM     84  F   UNL A   1      43.267  25.507  34.936  1.00  0.00    -0.205 F 
ATOM     85  C   UNL A   1      46.697  26.272  35.963  1.00  0.00     0.022 A 
BRANCH  83  86
ATOM     86  S   UNL A   1      45.124  24.352  37.118  1.00  0.00     0.127 S 
ATOM     87  O   UNL A   1      43.909  24.829  37.773  1.00  0.00    -0.237 OA
ATOM     88  O   UNL A   1      44.935  23.185  36.255  1.00  0.00    -0.237 OA
ATOM     89  O   UNL A   1      46.307  24.293  37.966  1.00  0.00    -0.744 OA
ENDBRANCH  83  86
ENDBRANCH  56  79
ENDBRANCH  30  31
ENDBRANCH  23  25
ENDBRANCH  22  23
ENDBRANCH   1  22
TORSDOF 15
ENDMDL
