MODEL 1
REMARK VINA RESULT:     -12.8      0.000      0.000
REMARK SMILES CC1=C(CC(=O)OCCOC(=O)c2ccc(-c3c4nc(c(-c5cccc(S(=O)(=O)[O-])c5F)c5ccc([nH]5)c(-c5cccc(S(=O)(=O)[O-])c5F)c5nc(c(-c6cccc(S(=O)(=O)[O-])c6F)c6ccc3[nH]6)C=C5)C=C4)cc2)c2cc(F)ccc2/C1=C\c1ccc([S@@+](C)[O-])cc1
REMARK SMILES IDX 8 1 7 2 5 3 6 4 4 5 3 6 1 7 2 8 83 9 76 10 82 11 84 12 77 13
REMARK SMILES IDX 81 14 78 15 80 16 79 17 85 18 86 19 93 20 87 21 92 22 88 23
REMARK SMILES IDX 89 24 90 25 91 26 9 27 10 28 11 29 12 30 13 31 14 32 75 33
REMARK SMILES IDX 15 34 74 35 16 36 17 37 18 38 68 39 19 40 73 41 67 42 69 43
REMARK SMILES IDX 20 44 72 45 66 46 65 47 21 49 53 50 33 51 52 52 34 53 37 54
REMARK SMILES IDX 51 55 70 56 35 57 36 58 50 60 71 61 38 62 22 63 23 64 31 65
REMARK SMILES IDX 24 66 26 67 32 68 25 69 27 70 28 71 29 72 30 73 54 74 55 75
REMARK SMILES IDX 63 76 56 77 58 78 64 79 57 80 59 81 60 82 61 83 62 84 39 85
REMARK SMILES IDX 40 86 48 87 41 88 43 89 49 90 42 91 44 92 45 93 46 94 47 95
REMARK H PARENT 69 48 37 59
REMARK Flexibility Score: inf
ROOT
ATOM      1  C   UNL A   1      31.449  28.961  24.576  1.00  0.00     0.274 C 
ENDROOT
BRANCH   1   2
ATOM      2  O   UNL A   1      32.672  28.647  23.879  1.00  0.00    -0.462 OA
BRANCH   2   3
ATOM      3  C   UNL A   1      32.962  27.323  23.772  1.00  0.00     0.310 C 
ATOM      4  O   UNL A   1      33.206  26.751  22.713  1.00  0.00    -0.252 OA
BRANCH   3   5
ATOM      5  C   UNL A   1      32.968  26.570  25.094  1.00  0.00     0.159 C 
BRANCH   5   6
ATOM      6  C   UNL A   1      33.040  25.081  25.036  1.00  0.00    -0.025 C 
ATOM      7  C   UNL A   1      30.634  24.509  24.426  1.00  0.00     0.045 C 
ATOM      8  C   UNL A   1      32.060  24.198  24.733  1.00  0.00    -0.039 C 
ATOM      9  C   UNL A   1      32.612  22.833  24.721  1.00  0.00    -0.014 C 
ATOM     10  C   UNL A   1      34.293  24.324  25.195  1.00  0.00    -0.011 A 
ATOM     11  C   UNL A   1      34.057  22.951  25.011  1.00  0.00    -0.010 A 
ATOM     12  C   UNL A   1      31.888  21.723  24.481  1.00  0.00     0.017 C 
ATOM     13  C   UNL A   1      35.577  24.786  25.444  1.00  0.00     0.048 A 
ATOM     14  C   UNL A   1      35.108  22.043  25.080  1.00  0.00     0.012 A 
ATOM     15  C   UNL A   1      36.615  23.866  25.546  1.00  0.00     0.123 A 
ATOM     16  C   UNL A   1      36.394  22.504  25.368  1.00  0.00     0.040 A 
ATOM     17  F   UNL A   1      37.856  24.301  25.800  1.00  0.00    -0.207 F 
BRANCH  12  18
ATOM     18  C   UNL A   1      32.429  20.364  24.487  1.00  0.00    -0.025 A 
ATOM     19  C   UNL A   1      32.531  19.647  23.292  1.00  0.00     0.013 A 
ATOM     20  C   UNL A   1      32.701  19.730  25.702  1.00  0.00     0.013 A 
ATOM     21  C   UNL A   1      32.801  18.277  23.316  1.00  0.00     0.061 A 
ATOM     22  C   UNL A   1      32.994  18.364  25.721  1.00  0.00     0.061 A 
ATOM     23  C   UNL A   1      33.017  17.620  24.534  1.00  0.00     0.152 A 
BRANCH  23  24
ATOM     24  S   UNL A   1      33.151  15.816  24.631  1.00  0.00    -0.018 S 
ATOM     25  C   UNL A   1      34.828  15.655  25.272  1.00  0.00     0.346 C 
ATOM     26  O   UNL A   1      32.164  15.348  25.761  1.00  0.00    -0.612 OA
ENDBRANCH  23  24
ENDBRANCH  12  18
ENDBRANCH   5   6
ENDBRANCH   3   5
ENDBRANCH   2   3
ENDBRANCH   1   2
BRANCH   1  27
ATOM     27  C   UNL A   1      31.636  30.180  25.475  1.00  0.00     0.275 C 
BRANCH  27  28
ATOM     28  O   UNL A   1      33.008  30.262  25.895  1.00  0.00    -0.458 OA
BRANCH  28  29
ATOM     29  C   UNL A   1      33.268  31.176  26.858  1.00  0.00     0.338 C 
ATOM     30  O   UNL A   1      32.594  32.145  27.157  1.00  0.00    -0.246 OA
BRANCH  29  31
ATOM     31  C   UNL A   1      34.551  30.849  27.505  1.00  0.00     0.060 A 
ATOM     32  C   UNL A   1      35.459  31.877  27.743  1.00  0.00     0.016 A 
ATOM     33  C   UNL A   1      34.816  29.553  27.958  1.00  0.00     0.016 A 
ATOM     34  C   UNL A   1      36.656  31.594  28.402  1.00  0.00     0.010 A 
ATOM     35  C   UNL A   1      35.962  29.297  28.708  1.00  0.00     0.010 A 
ATOM     36  C   UNL A   1      36.915  30.305  28.903  1.00  0.00    -0.014 A 
BRANCH  36  37
ATOM     37  C   UNL A   1      38.196  30.021  29.600  1.00  0.00     0.031 A 
ATOM     38  C   UNL A   1      38.452  30.563  30.983  1.00  0.00     0.074 A 
ATOM     39  C   UNL A   1      39.129  29.259  28.995  1.00  0.00     0.049 A 
ATOM     40  N   UNL A   1      39.441  30.293  31.795  1.00  0.00    -0.248 NA
ATOM     41  C   UNL A   1      37.490  31.539  31.521  1.00  0.00     0.031 C 
ATOM     42  C   UNL A   1      39.048  28.752  27.623  1.00  0.00     0.029 A 
ATOM     43  N   UNL A   1      40.321  28.763  29.463  1.00  0.00    -0.354 N 
ATOM     44  C   UNL A   1      39.231  31.077  32.923  1.00  0.00     0.074 A 
ATOM     45  C   UNL A   1      38.044  31.864  32.680  1.00  0.00     0.031 C 
ATOM     46  C   UNL A   1      40.116  27.976  27.378  1.00  0.00     0.029 A 
ATOM     47  C   UNL A   1      40.960  27.935  28.570  1.00  0.00     0.049 A 
ATOM     48  H   UNL A   1      40.683  28.980  30.352  1.00  0.00     0.167 HD
ATOM     49  C   UNL A   1      39.933  31.105  34.078  1.00  0.00     0.034 A 
ATOM     50  C   UNL A   1      42.078  27.194  28.707  1.00  0.00     0.034 A 
ATOM     51  C   UNL A   1      41.070  30.272  34.352  1.00  0.00     0.049 A 
ATOM     52  C   UNL A   1      42.800  27.186  30.025  1.00  0.00     0.074 A 
ATOM     53  C   UNL A   1      41.781  30.153  35.531  1.00  0.00     0.029 A 
ATOM     54  N   UNL A   1      41.655  29.413  33.438  1.00  0.00    -0.354 N 
ATOM     55  N   UNL A   1      42.488  27.806  31.137  1.00  0.00    -0.248 NA
ATOM     56  C   UNL A   1      44.010  26.354  30.120  1.00  0.00     0.031 C 
ATOM     57  C   UNL A   1      42.802  29.221  35.330  1.00  0.00     0.029 A 
ATOM     58  C   UNL A   1      42.723  28.761  34.025  1.00  0.00     0.049 A 
ATOM     59  H   UNL A   1      41.356  29.286  32.508  1.00  0.00     0.167 HD
ATOM     60  C   UNL A   1      43.445  27.424  32.068  1.00  0.00     0.074 A 
ATOM     61  C   UNL A   1      44.342  26.506  31.397  1.00  0.00     0.031 C 
ATOM     62  C   UNL A   1      43.576  27.813  33.360  1.00  0.00     0.034 A 
BRANCH  49  63
ATOM     63  C   UNL A   1      39.439  31.998  35.181  1.00  0.00     0.023 A 
ATOM     64  C   UNL A   1      39.632  33.389  35.067  1.00  0.00     0.012 A 
ATOM     65  C   UNL A   1      38.711  31.482  36.271  1.00  0.00     0.148 A 
ATOM     66  C   UNL A   1      39.116  34.256  36.028  1.00  0.00     0.002 A 
ATOM     67  C   UNL A   1      38.176  32.356  37.209  1.00  0.00     0.091 A 
ATOM     68  F   UNL A   1      38.554  30.154  36.361  1.00  0.00    -0.205 F 
ATOM     69  C   UNL A   1      38.381  33.742  37.092  1.00  0.00     0.022 A 
BRANCH  67  70
ATOM     70  S   UNL A   1      37.169  31.807  38.592  1.00  0.00     0.127 S 
ATOM     71  O   UNL A   1      38.037  32.115  39.729  1.00  0.00    -0.237 OA
ATOM     72  O   UNL A   1      35.992  32.666  38.473  1.00  0.00    -0.237 OA
ATOM     73  O   UNL A   1      36.919  30.389  38.373  1.00  0.00    -0.744 OA
ENDBRANCH  67  70
ENDBRANCH  49  63
BRANCH  50  74
ATOM     74  C   UNL A   1      42.504  26.302  27.595  1.00  0.00     0.023 A 
ATOM     75  C   UNL A   1      43.455  26.775  26.669  1.00  0.00     0.012 A 
ATOM     76  C   UNL A   1      42.029  24.982  27.485  1.00  0.00     0.148 A 
ATOM     77  C   UNL A   1      43.920  25.951  25.645  1.00  0.00     0.002 A 
ATOM     78  C   UNL A   1      42.523  24.154  26.482  1.00  0.00     0.091 A 
ATOM     79  F   UNL A   1      41.121  24.560  28.375  1.00  0.00    -0.205 F 
ATOM     80  C   UNL A   1      43.461  24.639  25.557  1.00  0.00     0.022 A 
BRANCH  78  81
ATOM     81  S   UNL A   1      42.065  22.423  26.339  1.00  0.00     0.127 S 
ATOM     82  O   UNL A   1      42.842  22.004  25.174  1.00  0.00    -0.237 OA
ATOM     83  O   UNL A   1      42.531  21.884  27.617  1.00  0.00    -0.237 OA
ATOM     84  O   UNL A   1      40.619  22.408  26.166  1.00  0.00    -0.744 OA
ENDBRANCH  78  81
ENDBRANCH  50  74
BRANCH  62  85
ATOM     85  C   UNL A   1      44.727  27.263  34.155  1.00  0.00     0.023 A 
ATOM     86  C   UNL A   1      45.938  27.977  34.187  1.00  0.00     0.012 A 
ATOM     87  C   UNL A   1      44.559  26.133  34.979  1.00  0.00     0.148 A 
ATOM     88  C   UNL A   1      46.973  27.574  35.028  1.00  0.00     0.002 A 
ATOM     89  C   UNL A   1      45.583  25.755  35.839  1.00  0.00     0.091 A 
ATOM     90  F   UNL A   1      43.397  25.468  34.922  1.00  0.00    -0.205 F 
ATOM     91  C   UNL A   1      46.791  26.472  35.861  1.00  0.00     0.022 A 
BRANCH  89  92
ATOM     92  S   UNL A   1      45.417  24.401  37.008  1.00  0.00     0.127 S 
ATOM     93  O   UNL A   1      46.702  24.449  37.704  1.00  0.00    -0.237 OA
ATOM     94  O   UNL A   1      44.271  24.825  37.811  1.00  0.00    -0.237 OA
ATOM     95  O   UNL A   1      45.189  23.204  36.209  1.00  0.00    -0.744 OA
ENDBRANCH  89  92
ENDBRANCH  62  85
ENDBRANCH  36  37
ENDBRANCH  29  31
ENDBRANCH  28  29
ENDBRANCH  27  28
ENDBRANCH   1  27
TORSDOF 17
ENDMDL
MODEL 2
REMARK VINA RESULT:     -12.7      5.453     10.493
REMARK SMILES CC1=C(CC(=O)OCCOC(=O)c2ccc(-c3c4nc(c(-c5cccc(S(=O)(=O)[O-])c5F)c5ccc([nH]5)c(-c5cccc(S(=O)(=O)[O-])c5F)c5nc(c(-c6cccc(S(=O)(=O)[O-])c6F)c6ccc3[nH]6)C=C5)C=C4)cc2)c2cc(F)ccc2/C1=C\c1ccc([S@@+](C)[O-])cc1
REMARK SMILES IDX 8 1 7 2 5 3 6 4 4 5 3 6 1 7 2 8 83 9 76 10 82 11 84 12 77 13
REMARK SMILES IDX 81 14 78 15 80 16 79 17 85 18 86 19 93 20 87 21 92 22 88 23
REMARK SMILES IDX 89 24 90 25 91 26 9 27 10 28 11 29 12 30 13 31 14 32 75 33
REMARK SMILES IDX 15 34 74 35 16 36 17 37 18 38 68 39 19 40 73 41 67 42 69 43
REMARK SMILES IDX 20 44 72 45 66 46 65 47 21 49 53 50 33 51 52 52 34 53 37 54
REMARK SMILES IDX 51 55 70 56 35 57 36 58 50 60 71 61 38 62 22 63 23 64 31 65
REMARK SMILES IDX 24 66 26 67 32 68 25 69 27 70 28 71 29 72 30 73 54 74 55 75
REMARK SMILES IDX 63 76 56 77 58 78 64 79 57 80 59 81 60 82 61 83 62 84 39 85
REMARK SMILES IDX 40 86 48 87 41 88 43 89 49 90 42 91 44 92 45 93 46 94 47 95
REMARK H PARENT 69 48 37 59
REMARK Flexibility Score: inf
ROOT
ATOM      1  C   UNL A   1      35.893  20.254  25.211  1.00  0.00     0.274 C 
ENDROOT
BRANCH   1   2
ATOM      2  O   UNL A   1      34.574  20.508  24.684  1.00  0.00    -0.462 OA
BRANCH   2   3
ATOM      3  C   UNL A   1      33.715  21.133  25.532  1.00  0.00     0.310 C 
ATOM      4  O   UNL A   1      34.033  21.597  26.622  1.00  0.00    -0.252 OA
BRANCH   3   5
ATOM      5  C   UNL A   1      32.283  21.224  25.024  1.00  0.00     0.159 C 
BRANCH   5   6
ATOM      6  C   UNL A   1      31.771  22.577  24.657  1.00  0.00    -0.025 C 
ATOM      7  C   UNL A   1      30.544  23.220  26.793  1.00  0.00     0.045 C 
ATOM      8  C   UNL A   1      31.049  23.441  25.408  1.00  0.00    -0.039 C 
ATOM      9  C   UNL A   1      30.837  24.690  24.658  1.00  0.00    -0.014 C 
ATOM     10  C   UNL A   1      32.098  23.250  23.389  1.00  0.00    -0.011 A 
ATOM     11  C   UNL A   1      31.538  24.538  23.365  1.00  0.00    -0.010 A 
ATOM     12  C   UNL A   1      30.133  25.741  25.117  1.00  0.00     0.017 C 
ATOM     13  C   UNL A   1      32.869  22.803  22.326  1.00  0.00     0.048 A 
ATOM     14  C   UNL A   1      31.748  25.375  22.273  1.00  0.00     0.012 A 
ATOM     15  C   UNL A   1      33.045  23.633  21.225  1.00  0.00     0.123 A 
ATOM     16  C   UNL A   1      32.493  24.910  21.188  1.00  0.00     0.040 A 
ATOM     17  F   UNL A   1      33.776  23.205  20.187  1.00  0.00    -0.207 F 
BRANCH  12  18
ATOM     18  C   UNL A   1      29.905  26.976  24.367  1.00  0.00    -0.025 A 
ATOM     19  C   UNL A   1      30.769  28.063  24.532  1.00  0.00     0.013 A 
ATOM     20  C   UNL A   1      28.743  27.123  23.605  1.00  0.00     0.013 A 
ATOM     21  C   UNL A   1      30.421  29.318  24.025  1.00  0.00     0.061 A 
ATOM     22  C   UNL A   1      28.411  28.373  23.079  1.00  0.00     0.061 A 
ATOM     23  C   UNL A   1      29.229  29.487  23.310  1.00  0.00     0.152 A 
BRANCH  23  24
ATOM     24  S   UNL A   1      28.634  31.129  22.828  1.00  0.00    -0.018 S 
ATOM     25  C   UNL A   1      28.116  30.795  21.134  1.00  0.00     0.346 C 
ATOM     26  O   UNL A   1      27.340  31.409  23.674  1.00  0.00    -0.612 OA
ENDBRANCH  23  24
ENDBRANCH  12  18
ENDBRANCH   5   6
ENDBRANCH   3   5
ENDBRANCH   2   3
ENDBRANCH   1   2
BRANCH   1  27
ATOM     27  C   UNL A   1      36.893  21.279  24.685  1.00  0.00     0.275 C 
BRANCH  27  28
ATOM     28  O   UNL A   1      37.457  22.009  25.787  1.00  0.00    -0.458 OA
BRANCH  28  29
ATOM     29  C   UNL A   1      38.743  21.710  26.086  1.00  0.00     0.338 C 
ATOM     30  O   UNL A   1      39.284  20.622  26.007  1.00  0.00    -0.246 OA
BRANCH  29  31
ATOM     31  C   UNL A   1      39.423  22.922  26.574  1.00  0.00     0.060 A 
ATOM     32  C   UNL A   1      38.984  24.163  26.119  1.00  0.00     0.016 A 
ATOM     33  C   UNL A   1      40.424  22.841  27.547  1.00  0.00     0.016 A 
ATOM     34  C   UNL A   1      39.582  25.323  26.611  1.00  0.00     0.010 A 
ATOM     35  C   UNL A   1      40.943  24.004  28.112  1.00  0.00     0.010 A 
ATOM     36  C   UNL A   1      40.558  25.257  27.622  1.00  0.00    -0.014 A 
BRANCH  36  37
ATOM     37  C   UNL A   1      41.186  26.504  28.132  1.00  0.00     0.031 A 
ATOM     38  C   UNL A   1      42.630  26.813  27.831  1.00  0.00     0.074 A 
ATOM     39  C   UNL A   1      40.450  27.373  28.855  1.00  0.00     0.049 A 
ATOM     40  N   UNL A   1      43.295  27.915  28.064  1.00  0.00    -0.248 NA
ATOM     41  C   UNL A   1      43.437  25.753  27.204  1.00  0.00     0.031 C 
ATOM     42  C   UNL A   1      39.072  27.151  29.297  1.00  0.00     0.029 A 
ATOM     43  N   UNL A   1      40.755  28.624  29.330  1.00  0.00    -0.354 N 
ATOM     44  C   UNL A   1      44.594  27.674  27.633  1.00  0.00     0.074 A 
ATOM     45  C   UNL A   1      44.639  26.309  27.161  1.00  0.00     0.031 C 
ATOM     46  C   UNL A   1      38.633  28.249  29.933  1.00  0.00     0.029 A 
ATOM     47  C   UNL A   1      39.698  29.248  29.950  1.00  0.00     0.049 A 
ATOM     48  H   UNL A   1      41.645  29.034  29.237  1.00  0.00     0.167 HD
ATOM     49  C   UNL A   1      45.643  28.525  27.589  1.00  0.00     0.034 A 
ATOM     50  C   UNL A   1      39.584  30.498  30.443  1.00  0.00     0.034 A 
ATOM     51  C   UNL A   1      45.583  29.902  27.989  1.00  0.00     0.049 A 
ATOM     52  C   UNL A   1      40.743  31.449  30.316  1.00  0.00     0.074 A 
ATOM     53  C   UNL A   1      46.565  30.870  27.881  1.00  0.00     0.029 A 
ATOM     54  N   UNL A   1      44.481  30.506  28.567  1.00  0.00    -0.354 N 
ATOM     55  N   UNL A   1      41.909  31.253  29.751  1.00  0.00    -0.248 NA
ATOM     56  C   UNL A   1      40.561  32.802  30.865  1.00  0.00     0.031 C 
ATOM     57  C   UNL A   1      46.055  32.063  28.398  1.00  0.00     0.029 A 
ATOM     58  C   UNL A   1      44.757  31.836  28.826  1.00  0.00     0.049 A 
ATOM     59  H   UNL A   1      43.627  30.057  28.765  1.00  0.00     0.167 HD
ATOM     60  C   UNL A   1      42.591  32.458  29.855  1.00  0.00     0.074 A 
ATOM     61  C   UNL A   1      41.703  33.387  30.523  1.00  0.00     0.031 C 
ATOM     62  C   UNL A   1      43.846  32.761  29.446  1.00  0.00     0.034 A 
BRANCH  49  63
ATOM     63  C   UNL A   1      46.930  28.024  26.997  1.00  0.00     0.023 A 
ATOM     64  C   UNL A   1      47.947  27.572  27.862  1.00  0.00     0.012 A 
ATOM     65  C   UNL A   1      47.102  27.913  25.604  1.00  0.00     0.148 A 
ATOM     66  C   UNL A   1      49.121  27.025  27.351  1.00  0.00     0.002 A 
ATOM     67  C   UNL A   1      48.264  27.340  25.102  1.00  0.00     0.091 A 
ATOM     68  F   UNL A   1      46.125  28.362  24.803  1.00  0.00    -0.205 F 
ATOM     69  C   UNL A   1      49.275  26.900  25.973  1.00  0.00     0.022 A 
BRANCH  67  70
ATOM     70  S   UNL A   1      48.547  27.083  23.347  1.00  0.00     0.127 S 
ATOM     71  O   UNL A   1      49.994  27.281  23.249  1.00  0.00    -0.237 OA
ATOM     72  O   UNL A   1      48.108  25.700  23.166  1.00  0.00    -0.237 OA
ATOM     73  O   UNL A   1      47.739  28.078  22.656  1.00  0.00    -0.744 OA
ENDBRANCH  67  70
ENDBRANCH  49  63
BRANCH  50  74
ATOM     74  C   UNL A   1      38.277  30.953  30.988  1.00  0.00     0.023 A 
ATOM     75  C   UNL A   1      38.016  30.781  32.362  1.00  0.00     0.012 A 
ATOM     76  C   UNL A   1      37.327  31.604  30.179  1.00  0.00     0.148 A 
ATOM     77  C   UNL A   1      36.824  31.243  32.920  1.00  0.00     0.002 A 
ATOM     78  C   UNL A   1      36.157  32.094  30.750  1.00  0.00     0.091 A 
ATOM     79  F   UNL A   1      37.600  31.749  28.875  1.00  0.00    -0.205 F 
ATOM     80  C   UNL A   1      35.901  31.906  32.118  1.00  0.00     0.022 A 
BRANCH  78  81
ATOM     81  S   UNL A   1      34.946  33.040  29.821  1.00  0.00     0.127 S 
ATOM     82  O   UNL A   1      34.352  32.012  28.970  1.00  0.00    -0.237 OA
ATOM     83  O   UNL A   1      34.075  33.537  30.887  1.00  0.00    -0.237 OA
ATOM     84  O   UNL A   1      35.699  34.072  29.123  1.00  0.00    -0.744 OA
ENDBRANCH  78  81
ENDBRANCH  50  74
BRANCH  62  85
ATOM     85  C   UNL A   1      44.362  34.150  29.701  1.00  0.00     0.023 A 
ATOM     86  C   UNL A   1      45.039  34.416  30.905  1.00  0.00     0.012 A 
ATOM     87  C   UNL A   1      44.306  35.135  28.696  1.00  0.00     0.148 A 
ATOM     88  C   UNL A   1      45.655  35.650  31.109  1.00  0.00     0.002 A 
ATOM     89  C   UNL A   1      44.950  36.351  28.894  1.00  0.00     0.091 A 
ATOM     90  F   UNL A   1      43.648  34.856  27.563  1.00  0.00    -0.205 F 
ATOM     91  C   UNL A   1      45.621  36.610  30.101  1.00  0.00     0.022 A 
BRANCH  89  92
ATOM     92  S   UNL A   1      45.033  37.621  27.626  1.00  0.00     0.127 S 
ATOM     93  O   UNL A   1      43.617  37.912  27.403  1.00  0.00    -0.237 OA
ATOM     94  O   UNL A   1      45.775  38.685  28.302  1.00  0.00    -0.237 OA
ATOM     95  O   UNL A   1      45.728  37.019  26.496  1.00  0.00    -0.744 OA
ENDBRANCH  89  92
ENDBRANCH  62  85
ENDBRANCH  36  37
ENDBRANCH  29  31
ENDBRANCH  28  29
ENDBRANCH  27  28
ENDBRANCH   1  27
TORSDOF 17
ENDMDL
MODEL 3
REMARK VINA RESULT:     -12.7      1.410      2.107
REMARK SMILES CC1=C(CC(=O)OCCOC(=O)c2ccc(-c3c4nc(c(-c5cccc(S(=O)(=O)[O-])c5F)c5ccc([nH]5)c(-c5cccc(S(=O)(=O)[O-])c5F)c5nc(c(-c6cccc(S(=O)(=O)[O-])c6F)c6ccc3[nH]6)C=C5)C=C4)cc2)c2cc(F)ccc2/C1=C\c1ccc([S@@+](C)[O-])cc1
REMARK SMILES IDX 8 1 7 2 5 3 6 4 4 5 3 6 1 7 2 8 83 9 76 10 82 11 84 12 77 13
REMARK SMILES IDX 81 14 78 15 80 16 79 17 85 18 86 19 93 20 87 21 92 22 88 23
REMARK SMILES IDX 89 24 90 25 91 26 9 27 10 28 11 29 12 30 13 31 14 32 75 33
REMARK SMILES IDX 15 34 74 35 16 36 17 37 18 38 68 39 19 40 73 41 67 42 69 43
REMARK SMILES IDX 20 44 72 45 66 46 65 47 21 49 53 50 33 51 52 52 34 53 37 54
REMARK SMILES IDX 51 55 70 56 35 57 36 58 50 60 71 61 38 62 22 63 23 64 31 65
REMARK SMILES IDX 24 66 26 67 32 68 25 69 27 70 28 71 29 72 30 73 54 74 55 75
REMARK SMILES IDX 63 76 56 77 58 78 64 79 57 80 59 81 60 82 61 83 62 84 39 85
REMARK SMILES IDX 40 86 48 87 41 88 43 89 49 90 42 91 44 92 45 93 46 94 47 95
REMARK H PARENT 69 48 37 59
REMARK Flexibility Score: inf
ROOT
ATOM      1  C   UNL A   1      31.285  30.123  25.008  1.00  0.00     0.274 C 
ENDROOT
BRANCH   1   2
ATOM      2  O   UNL A   1      31.581  28.723  24.835  1.00  0.00    -0.462 OA
BRANCH   2   3
ATOM      3  C   UNL A   1      31.818  28.327  23.556  1.00  0.00     0.310 C 
ATOM      4  O   UNL A   1      32.725  28.763  22.853  1.00  0.00    -0.252 OA
BRANCH   3   5
ATOM      5  C   UNL A   1      30.854  27.271  23.035  1.00  0.00     0.159 C 
BRANCH   5   6
ATOM      6  C   UNL A   1      31.214  25.841  23.263  1.00  0.00    -0.025 C 
ATOM      7  C   UNL A   1      32.848  25.447  21.350  1.00  0.00     0.045 C 
ATOM      8  C   UNL A   1      32.075  25.064  22.567  1.00  0.00    -0.039 C 
ATOM      9  C   UNL A   1      32.174  23.740  23.205  1.00  0.00    -0.014 C 
ATOM     10  C   UNL A   1      30.742  25.062  24.420  1.00  0.00    -0.011 A 
ATOM     11  C   UNL A   1      31.311  23.778  24.405  1.00  0.00    -0.010 A 
ATOM     12  C   UNL A   1      32.928  22.727  22.739  1.00  0.00     0.017 C 
ATOM     13  C   UNL A   1      29.903  25.443  25.457  1.00  0.00     0.048 A 
ATOM     14  C   UNL A   1      31.034  22.875  25.427  1.00  0.00     0.012 A 
ATOM     15  C   UNL A   1      29.605  24.523  26.455  1.00  0.00     0.123 A 
ATOM     16  C   UNL A   1      30.159  23.247  26.449  1.00  0.00     0.040 A 
ATOM     17  F   UNL A   1      28.784  24.876  27.453  1.00  0.00    -0.207 F 
BRANCH  12  18
ATOM     18  C   UNL A   1      33.013  21.405  23.361  1.00  0.00    -0.025 A 
ATOM     19  C   UNL A   1      33.964  21.161  24.356  1.00  0.00     0.013 A 
ATOM     20  C   UNL A   1      32.251  20.349  22.856  1.00  0.00     0.013 A 
ATOM     21  C   UNL A   1      34.226  19.853  24.771  1.00  0.00     0.061 A 
ATOM     22  C   UNL A   1      32.498  19.045  23.290  1.00  0.00     0.061 A 
ATOM     23  C   UNL A   1      33.506  18.781  24.227  1.00  0.00     0.152 A 
BRANCH  23  24
ATOM     24  S   UNL A   1      33.959  17.061  24.569  1.00  0.00    -0.018 S 
ATOM     25  C   UNL A   1      32.598  16.583  25.651  1.00  0.00     0.346 C 
ATOM     26  O   UNL A   1      33.793  16.271  23.221  1.00  0.00    -0.612 OA
ENDBRANCH  23  24
ENDBRANCH  12  18
ENDBRANCH   5   6
ENDBRANCH   3   5
ENDBRANCH   2   3
ENDBRANCH   1   2
BRANCH   1  27
ATOM     27  C   UNL A   1      31.690  30.594  26.402  1.00  0.00     0.275 C 
BRANCH  27  28
ATOM     28  O   UNL A   1      33.118  30.730  26.467  1.00  0.00    -0.458 OA
BRANCH  28  29
ATOM     29  C   UNL A   1      33.574  31.689  27.307  1.00  0.00     0.338 C 
ATOM     30  O   UNL A   1      33.055  32.763  27.551  1.00  0.00    -0.246 OA
BRANCH  29  31
ATOM     31  C   UNL A   1      34.858  31.258  27.886  1.00  0.00     0.060 A 
ATOM     32  C   UNL A   1      35.875  32.198  28.030  1.00  0.00     0.016 A 
ATOM     33  C   UNL A   1      35.024  29.958  28.373  1.00  0.00     0.016 A 
ATOM     34  C   UNL A   1      37.079  31.819  28.625  1.00  0.00     0.010 A 
ATOM     35  C   UNL A   1      36.187  29.614  29.061  1.00  0.00     0.010 A 
ATOM     36  C   UNL A   1      37.243  30.528  29.159  1.00  0.00    -0.014 A 
BRANCH  36  37
ATOM     37  C   UNL A   1      38.533  30.142  29.788  1.00  0.00     0.031 A 
ATOM     38  C   UNL A   1      38.883  30.619  31.173  1.00  0.00     0.074 A 
ATOM     39  C   UNL A   1      39.388  29.343  29.117  1.00  0.00     0.049 A 
ATOM     40  N   UNL A   1      39.887  30.261  31.931  1.00  0.00    -0.248 NA
ATOM     41  C   UNL A   1      38.010  31.635  31.785  1.00  0.00     0.031 C 
ATOM     42  C   UNL A   1      39.215  28.889  27.736  1.00  0.00     0.029 A 
ATOM     43  N   UNL A   1      40.565  28.758  29.514  1.00  0.00    -0.354 N 
ATOM     44  C   UNL A   1      39.777  31.018  33.091  1.00  0.00     0.074 A 
ATOM     45  C   UNL A   1      38.634  31.885  32.927  1.00  0.00     0.031 C 
ATOM     46  C   UNL A   1      40.219  28.056  27.418  1.00  0.00     0.029 A 
ATOM     47  C   UNL A   1      41.109  27.922  28.568  1.00  0.00     0.049 A 
ATOM     48  H   UNL A   1      40.979  28.923  30.392  1.00  0.00     0.167 HD
ATOM     49  C   UNL A   1      40.530  30.963  34.213  1.00  0.00     0.034 A 
ATOM     50  C   UNL A   1      42.183  27.109  28.631  1.00  0.00     0.034 A 
ATOM     51  C   UNL A   1      41.621  30.051  34.409  1.00  0.00     0.049 A 
ATOM     52  C   UNL A   1      42.961  27.012  29.914  1.00  0.00     0.074 A 
ATOM     53  C   UNL A   1      42.375  29.849  35.550  1.00  0.00     0.029 A 
ATOM     54  N   UNL A   1      42.110  29.190  33.443  1.00  0.00    -0.354 N 
ATOM     55  N   UNL A   1      42.737  27.611  31.058  1.00  0.00    -0.248 NA
ATOM     56  C   UNL A   1      44.118  26.103  29.928  1.00  0.00     0.031 C 
ATOM     57  C   UNL A   1      43.324  28.862  35.273  1.00  0.00     0.029 A 
ATOM     58  C   UNL A   1      43.159  28.453  33.960  1.00  0.00     0.049 A 
ATOM     59  H   UNL A   1      41.763  29.112  32.524  1.00  0.00     0.167 HD
ATOM     60  C   UNL A   1      43.708  27.139  31.932  1.00  0.00     0.074 A 
ATOM     61  C   UNL A   1      44.514  26.190  31.192  1.00  0.00     0.031 C 
ATOM     62  C   UNL A   1      43.920  27.476  33.227  1.00  0.00     0.034 A 
BRANCH  49  63
ATOM     63  C   UNL A   1      40.142  31.847  35.365  1.00  0.00     0.023 A 
ATOM     64  C   UNL A   1      40.715  33.131  35.458  1.00  0.00     0.012 A 
ATOM     65  C   UNL A   1      39.156  31.455  36.290  1.00  0.00     0.148 A 
ATOM     66  C   UNL A   1      40.321  34.011  36.464  1.00  0.00     0.002 A 
ATOM     67  C   UNL A   1      38.748  32.349  37.272  1.00  0.00     0.091 A 
ATOM     68  F   UNL A   1      38.637  30.224  36.185  1.00  0.00    -0.205 F 
ATOM     69  C   UNL A   1      39.332  33.624  37.363  1.00  0.00     0.022 A 
BRANCH  67  70
ATOM     70  S   UNL A   1      37.446  31.975  38.452  1.00  0.00     0.127 S 
ATOM     71  O   UNL A   1      37.144  30.580  38.126  1.00  0.00    -0.237 OA
ATOM     72  O   UNL A   1      38.127  32.168  39.731  1.00  0.00    -0.237 OA
ATOM     73  O   UNL A   1      36.370  32.919  38.181  1.00  0.00    -0.744 OA
ENDBRANCH  67  70
ENDBRANCH  49  63
BRANCH  50  74
ATOM     74  C   UNL A   1      42.502  26.230  27.474  1.00  0.00     0.023 A 
ATOM     75  C   UNL A   1      43.292  26.744  26.427  1.00  0.00     0.012 A 
ATOM     76  C   UNL A   1      42.088  24.886  27.432  1.00  0.00     0.148 A 
ATOM     77  C   UNL A   1      43.658  25.935  25.351  1.00  0.00     0.002 A 
ATOM     78  C   UNL A   1      42.486  24.075  26.374  1.00  0.00     0.091 A 
ATOM     79  F   UNL A   1      41.333  24.425  28.439  1.00  0.00    -0.205 F 
ATOM     80  C   UNL A   1      43.263  24.601  25.329  1.00  0.00     0.022 A 
BRANCH  78  81
ATOM     81  S   UNL A   1      42.106  22.321  26.298  1.00  0.00     0.127 S 
ATOM     82  O   UNL A   1      40.647  22.335  26.226  1.00  0.00    -0.237 OA
ATOM     83  O   UNL A   1      42.781  21.923  25.062  1.00  0.00    -0.237 OA
ATOM     84  O   UNL A   1      42.668  21.740  27.509  1.00  0.00    -0.744 OA
ENDBRANCH  78  81
ENDBRANCH  50  74
BRANCH  62  85
ATOM     85  C   UNL A   1      45.066  26.828  33.952  1.00  0.00     0.023 A 
ATOM     86  C   UNL A   1      46.330  27.447  33.921  1.00  0.00     0.012 A 
ATOM     87  C   UNL A   1      44.858  25.704  34.774  1.00  0.00     0.148 A 
ATOM     88  C   UNL A   1      47.375  26.954  34.699  1.00  0.00     0.002 A 
ATOM     89  C   UNL A   1      45.895  25.238  35.572  1.00  0.00     0.091 A 
ATOM     90  F   UNL A   1      43.646  25.132  34.777  1.00  0.00    -0.205 F 
ATOM     91  C   UNL A   1      47.155  25.859  35.532  1.00  0.00     0.022 A 
BRANCH  89  92
ATOM     92  S   UNL A   1      45.690  23.886  36.737  1.00  0.00     0.127 S 
ATOM     93  O   UNL A   1      47.050  23.721  37.245  1.00  0.00    -0.237 OA
ATOM     94  O   UNL A   1      44.742  24.448  37.699  1.00  0.00    -0.237 OA
ATOM     95  O   UNL A   1      45.176  22.762  35.964  1.00  0.00    -0.744 OA
ENDBRANCH  89  92
ENDBRANCH  62  85
ENDBRANCH  36  37
ENDBRANCH  29  31
ENDBRANCH  28  29
ENDBRANCH  27  28
ENDBRANCH   1  27
TORSDOF 17
ENDMDL
