MODEL 1
REMARK VINA RESULT:     -11.0      0.000      0.000
REMARK SMILES O=C(Cc1ccc(S(=O)(=O)C[C@H]2CCCO2)cc1)OCCOC(=O)c1ccc(-c2c3nc(c(-c4cccc(S(=O)(=O)[O-])c4F)c4ccc([nH]4)c(-c4cccc(S(=O)(=O)[O-])c4F)c4nc(c(-c5cccc(S(=O)(=O)[O-])c5F)c5ccc2[nH]5)C=C4)C=C3)cc1
REMARK SMILES IDX 20 1 19 2 2 3 1 4 3 5 4 6 5 7 18 8 6 9 17 10 7 11 8 12 9 13
REMARK SMILES IDX 10 14 11 15 12 16 13 17 16 18 14 19 15 20 21 21 22 22 23 23
REMARK SMILES IDX 24 24 25 25 26 26 87 27 27 28 86 29 28 30 29 31 30 32 80 33
REMARK SMILES IDX 31 34 85 35 79 36 81 37 32 38 84 39 78 40 77 41 33 43 65 44
REMARK SMILES IDX 45 45 64 46 46 47 49 48 63 49 82 50 47 51 48 52 62 54 83 55
REMARK SMILES IDX 50 56 34 57 35 58 43 59 36 60 38 61 44 62 37 63 39 64 40 65
REMARK SMILES IDX 41 66 42 67 66 68 67 69 75 70 68 71 70 72 76 73 69 74 71 75
REMARK SMILES IDX 72 76 73 77 74 78 51 79 52 80 60 81 53 82 55 83 61 84 54 85
REMARK SMILES IDX 56 86 57 87 58 88 59 89
REMARK H PARENT 81 42 49 53
REMARK Flexibility Score: inf
ROOT
ATOM      1  C   UNL A   1      31.282  31.870  26.214  1.00  0.00     0.274 C 
ENDROOT
BRANCH   1   2
ATOM      2  O   UNL A   1      31.917  30.606  26.502  1.00  0.00    -0.462 OA
BRANCH   2   3
ATOM      3  C   UNL A   1      32.286  29.686  25.575  1.00  0.00     0.310 C 
ATOM      4  O   UNL A   1      31.663  29.603  24.517  1.00  0.00    -0.252 OA
BRANCH   3   5
ATOM      5  C   UNL A   1      33.415  28.737  25.897  1.00  0.00     0.158 C 
BRANCH   5   6
ATOM      6  C   UNL A   1      33.031  27.282  25.970  1.00  0.00    -0.037 A 
ATOM      7  C   UNL A   1      33.962  26.276  25.683  1.00  0.00     0.005 A 
ATOM      8  C   UNL A   1      31.761  26.923  26.451  1.00  0.00     0.005 A 
ATOM      9  C   UNL A   1      33.662  24.942  25.956  1.00  0.00     0.020 A 
ATOM     10  C   UNL A   1      31.447  25.587  26.701  1.00  0.00     0.020 A 
ATOM     11  C   UNL A   1      32.421  24.609  26.507  1.00  0.00     0.067 A 
BRANCH  11  12
ATOM     12  S   UNL A   1      32.136  22.940  27.038  1.00  0.00     0.180 S 
ATOM     13  O   UNL A   1      32.929  22.777  28.244  1.00  0.00    -0.224 OA
ATOM     14  O   UNL A   1      30.693  22.766  27.121  1.00  0.00    -0.224 OA
BRANCH  12  15
ATOM     15  C   UNL A   1      32.760  21.828  25.806  1.00  0.00     0.174 C 
BRANCH  15  16
ATOM     16  C   UNL A   1      31.919  21.606  24.559  1.00  0.00     0.133 C 
ATOM     17  C   UNL A   1      31.843  22.724  23.522  1.00  0.00     0.035 C 
ATOM     18  O   UNL A   1      32.329  20.418  23.863  1.00  0.00    -0.377 OA
ATOM     19  C   UNL A   1      32.417  22.101  22.267  1.00  0.00     0.031 C 
ATOM     20  C   UNL A   1      32.106  20.637  22.467  1.00  0.00     0.160 C 
ENDBRANCH  15  16
ENDBRANCH  12  15
ENDBRANCH  11  12
ENDBRANCH   5   6
ENDBRANCH   3   5
ENDBRANCH   2   3
ENDBRANCH   1   2
BRANCH   1  21
ATOM     21  C   UNL A   1      31.955  33.035  26.941  1.00  0.00     0.275 C 
BRANCH  21  22
ATOM     22  O   UNL A   1      33.064  32.576  27.732  1.00  0.00    -0.458 OA
BRANCH  22  23
ATOM     23  C   UNL A   1      34.133  33.411  27.776  1.00  0.00     0.338 C 
ATOM     24  O   UNL A   1      34.133  34.605  27.534  1.00  0.00    -0.246 OA
BRANCH  23  25
ATOM     25  C   UNL A   1      35.293  32.688  28.344  1.00  0.00     0.060 A 
ATOM     26  C   UNL A   1      35.097  31.370  28.777  1.00  0.00     0.016 A 
ATOM     27  C   UNL A   1      36.559  33.275  28.430  1.00  0.00     0.016 A 
ATOM     28  C   UNL A   1      36.164  30.640  29.302  1.00  0.00     0.010 A 
ATOM     29  C   UNL A   1      37.623  32.546  28.968  1.00  0.00     0.010 A 
ATOM     30  C   UNL A   1      37.430  31.230  29.420  1.00  0.00    -0.014 A 
BRANCH  30  31
ATOM     31  C   UNL A   1      38.535  30.506  30.093  1.00  0.00     0.031 A 
ATOM     32  C   UNL A   1      38.901  30.872  31.504  1.00  0.00     0.074 A 
ATOM     33  C   UNL A   1      39.234  29.562  29.439  1.00  0.00     0.049 A 
ATOM     34  N   UNL A   1      39.837  30.373  32.268  1.00  0.00    -0.248 NA
ATOM     35  C   UNL A   1      38.111  31.942  32.137  1.00  0.00     0.031 C 
ATOM     36  C   UNL A   1      38.997  29.136  28.062  1.00  0.00     0.029 A 
ATOM     37  N   UNL A   1      40.314  28.814  29.843  1.00  0.00    -0.354 N 
ATOM     38  C   UNL A   1      39.763  31.075  33.465  1.00  0.00     0.074 A 
ATOM     39  C   UNL A   1      38.697  32.043  33.323  1.00  0.00     0.031 C 
ATOM     40  C   UNL A   1      39.930  28.229  27.719  1.00  0.00     0.029 A 
ATOM     41  C   UNL A   1      40.836  28.019  28.848  1.00  0.00     0.049 A 
ATOM     42  H   UNL A   1      40.679  28.844  30.756  1.00  0.00     0.167 HD
ATOM     43  C   UNL A   1      40.502  30.915  34.587  1.00  0.00     0.034 A 
ATOM     44  C   UNL A   1      41.930  27.231  28.844  1.00  0.00     0.034 A 
ATOM     45  C   UNL A   1      41.553  29.946  34.739  1.00  0.00     0.049 A 
ATOM     46  C   UNL A   1      42.750  27.092  30.104  1.00  0.00     0.074 A 
ATOM     47  C   UNL A   1      42.302  29.663  35.868  1.00  0.00     0.029 A 
ATOM     48  N   UNL A   1      42.020  29.120  33.732  1.00  0.00    -0.354 N 
ATOM     49  N   UNL A   1      42.551  27.627  31.285  1.00  0.00    -0.248 NA
ATOM     50  C   UNL A   1      43.930  26.215  30.039  1.00  0.00     0.031 C 
ATOM     51  C   UNL A   1      43.243  28.684  35.535  1.00  0.00     0.029 A 
ATOM     52  C   UNL A   1      43.067  28.345  34.203  1.00  0.00     0.049 A 
ATOM     53  H   UNL A   1      41.662  29.088  32.815  1.00  0.00     0.167 HD
ATOM     54  C   UNL A   1      43.558  27.128  32.107  1.00  0.00     0.074 A 
ATOM     55  C   UNL A   1      44.350  26.226  31.298  1.00  0.00     0.031 C 
ATOM     56  C   UNL A   1      43.816  27.407  33.409  1.00  0.00     0.034 A 
BRANCH  43  57
ATOM     57  C   UNL A   1      40.178  31.786  35.768  1.00  0.00     0.023 A 
ATOM     58  C   UNL A   1      40.945  32.945  36.002  1.00  0.00     0.012 A 
ATOM     59  C   UNL A   1      39.067  31.509  36.587  1.00  0.00     0.148 A 
ATOM     60  C   UNL A   1      40.620  33.809  37.046  1.00  0.00     0.002 A 
ATOM     61  C   UNL A   1      38.728  32.395  37.603  1.00  0.00     0.091 A 
ATOM     62  F   UNL A   1      38.368  30.390  36.357  1.00  0.00    -0.205 F 
ATOM     63  C   UNL A   1      39.506  33.541  37.838  1.00  0.00     0.022 A 
BRANCH  61  64
ATOM     64  S   UNL A   1      37.275  32.175  38.636  1.00  0.00     0.127 S 
ATOM     65  O   UNL A   1      37.715  32.775  39.894  1.00  0.00    -0.237 OA
ATOM     66  O   UNL A   1      36.264  32.946  37.913  1.00  0.00    -0.237 OA
ATOM     67  O   UNL A   1      37.029  30.740  38.684  1.00  0.00    -0.744 OA
ENDBRANCH  61  64
ENDBRANCH  43  57
BRANCH  44  68
ATOM     68  C   UNL A   1      42.308  26.480  27.612  1.00  0.00     0.023 A 
ATOM     69  C   UNL A   1      42.977  27.150  26.569  1.00  0.00     0.012 A 
ATOM     70  C   UNL A   1      42.002  25.112  27.464  1.00  0.00     0.148 A 
ATOM     71  C   UNL A   1      43.296  26.483  25.386  1.00  0.00     0.002 A 
ATOM     72  C   UNL A   1      42.377  24.439  26.307  1.00  0.00     0.091 A 
ATOM     73  F   UNL A   1      41.347  24.496  28.458  1.00  0.00    -0.205 F 
ATOM     74  C   UNL A   1      43.005  25.127  25.258  1.00  0.00     0.022 A 
BRANCH  72  75
ATOM     75  S   UNL A   1      42.157  22.665  26.111  1.00  0.00     0.127 S 
ATOM     76  O   UNL A   1      42.816  22.421  24.831  1.00  0.00    -0.237 OA
ATOM     77  O   UNL A   1      42.863  22.138  27.281  1.00  0.00    -0.237 OA
ATOM     78  O   UNL A   1      40.718  22.436  26.135  1.00  0.00    -0.744 OA
ENDBRANCH  72  75
ENDBRANCH  44  68
BRANCH  56  79
ATOM     79  C   UNL A   1      44.994  26.725  34.059  1.00  0.00     0.023 A 
ATOM     80  C   UNL A   1      46.265  27.332  34.003  1.00  0.00     0.012 A 
ATOM     81  C   UNL A   1      44.829  25.536  34.798  1.00  0.00     0.148 A 
ATOM     82  C   UNL A   1      47.358  26.751  34.646  1.00  0.00     0.002 A 
ATOM     83  C   UNL A   1      45.914  24.988  35.474  1.00  0.00     0.091 A 
ATOM     84  F   UNL A   1      43.616  24.965  34.828  1.00  0.00    -0.205 F 
ATOM     85  C   UNL A   1      47.180  25.588  35.390  1.00  0.00     0.022 A 
BRANCH  83  86
ATOM     86  S   UNL A   1      45.759  23.545  36.534  1.00  0.00     0.127 S 
ATOM     87  O   UNL A   1      47.159  23.245  36.835  1.00  0.00    -0.237 OA
ATOM     88  O   UNL A   1      44.991  24.069  37.665  1.00  0.00    -0.237 OA
ATOM     89  O   UNL A   1      45.059  22.541  35.744  1.00  0.00    -0.744 OA
ENDBRANCH  83  86
ENDBRANCH  56  79
ENDBRANCH  30  31
ENDBRANCH  23  25
ENDBRANCH  22  23
ENDBRANCH  21  22
ENDBRANCH   1  21
TORSDOF 18
ENDMDL
MODEL 2
REMARK VINA RESULT:     -10.9      5.370      8.408
REMARK SMILES O=C(Cc1ccc(S(=O)(=O)C[C@H]2CCCO2)cc1)OCCOC(=O)c1ccc(-c2c3nc(c(-c4cccc(S(=O)(=O)[O-])c4F)c4ccc([nH]4)c(-c4cccc(S(=O)(=O)[O-])c4F)c4nc(c(-c5cccc(S(=O)(=O)[O-])c5F)c5ccc2[nH]5)C=C4)C=C3)cc1
REMARK SMILES IDX 20 1 19 2 2 3 1 4 3 5 4 6 5 7 18 8 6 9 17 10 7 11 8 12 9 13
REMARK SMILES IDX 10 14 11 15 12 16 13 17 16 18 14 19 15 20 21 21 22 22 23 23
REMARK SMILES IDX 24 24 25 25 26 26 87 27 27 28 86 29 28 30 29 31 30 32 80 33
REMARK SMILES IDX 31 34 85 35 79 36 81 37 32 38 84 39 78 40 77 41 33 43 65 44
REMARK SMILES IDX 45 45 64 46 46 47 49 48 63 49 82 50 47 51 48 52 62 54 83 55
REMARK SMILES IDX 50 56 34 57 35 58 43 59 36 60 38 61 44 62 37 63 39 64 40 65
REMARK SMILES IDX 41 66 42 67 66 68 67 69 75 70 68 71 70 72 76 73 69 74 71 75
REMARK SMILES IDX 72 76 73 77 74 78 51 79 52 80 60 81 53 82 55 83 61 84 54 85
REMARK SMILES IDX 56 86 57 87 58 88 59 89
REMARK H PARENT 81 42 49 53
REMARK Flexibility Score: inf
ROOT
ATOM      1  C   UNL A   1      35.278  20.382  25.005  1.00  0.00     0.274 C 
ENDROOT
BRANCH   1   2
ATOM      2  O   UNL A   1      34.933  21.782  25.055  1.00  0.00    -0.462 OA
BRANCH   2   3
ATOM      3  C   UNL A   1      33.827  22.295  25.651  1.00  0.00     0.310 C 
ATOM      4  O   UNL A   1      32.752  21.706  25.551  1.00  0.00    -0.252 OA
BRANCH   3   5
ATOM      5  C   UNL A   1      33.932  23.621  26.367  1.00  0.00     0.158 C 
BRANCH   5   6
ATOM      6  C   UNL A   1      33.423  24.810  25.596  1.00  0.00    -0.037 A 
ATOM      7  C   UNL A   1      34.123  25.303  24.486  1.00  0.00     0.005 A 
ATOM      8  C   UNL A   1      32.169  25.358  25.913  1.00  0.00     0.005 A 
ATOM      9  C   UNL A   1      33.540  26.262  23.658  1.00  0.00     0.020 A 
ATOM     10  C   UNL A   1      31.595  26.336  25.102  1.00  0.00     0.020 A 
ATOM     11  C   UNL A   1      32.259  26.740  23.945  1.00  0.00     0.067 A 
BRANCH  11  12
ATOM     12  S   UNL A   1      31.454  27.801  22.772  1.00  0.00     0.180 S 
ATOM     13  O   UNL A   1      32.340  28.942  22.611  1.00  0.00    -0.224 OA
ATOM     14  O   UNL A   1      31.147  26.984  21.607  1.00  0.00    -0.224 OA
BRANCH  12  15
ATOM     15  C   UNL A   1      29.928  28.377  23.467  1.00  0.00     0.174 C 
BRANCH  15  16
ATOM     16  C   UNL A   1      28.874  28.917  22.513  1.00  0.00     0.133 C 
ATOM     17  C   UNL A   1      27.644  29.607  23.098  1.00  0.00     0.035 C 
ATOM     18  O   UNL A   1      29.452  29.829  21.565  1.00  0.00    -0.377 OA
ATOM     19  C   UNL A   1      27.712  31.013  22.540  1.00  0.00     0.031 C 
ATOM     20  C   UNL A   1      28.460  30.807  21.245  1.00  0.00     0.160 C 
ENDBRANCH  15  16
ENDBRANCH  12  15
ENDBRANCH  11  12
ENDBRANCH   5   6
ENDBRANCH   3   5
ENDBRANCH   2   3
ENDBRANCH   1   2
BRANCH   1  21
ATOM     21  C   UNL A   1      36.777  20.160  24.793  1.00  0.00     0.275 C 
BRANCH  21  22
ATOM     22  O   UNL A   1      37.541  21.230  25.376  1.00  0.00    -0.458 OA
BRANCH  22  23
ATOM     23  C   UNL A   1      38.756  20.877  25.864  1.00  0.00     0.338 C 
ATOM     24  O   UNL A   1      39.280  19.780  25.787  1.00  0.00    -0.246 OA
BRANCH  23  25
ATOM     25  C   UNL A   1      39.451  22.086  26.362  1.00  0.00     0.060 A 
ATOM     26  C   UNL A   1      38.871  23.333  26.093  1.00  0.00     0.016 A 
ATOM     27  C   UNL A   1      40.634  22.005  27.101  1.00  0.00     0.016 A 
ATOM     28  C   UNL A   1      39.478  24.501  26.558  1.00  0.00     0.010 A 
ATOM     29  C   UNL A   1      41.246  23.178  27.555  1.00  0.00     0.010 A 
ATOM     30  C   UNL A   1      40.679  24.433  27.274  1.00  0.00    -0.014 A 
BRANCH  30  31
ATOM     31  C   UNL A   1      41.395  25.673  27.659  1.00  0.00     0.031 A 
ATOM     32  C   UNL A   1      40.659  26.742  28.415  1.00  0.00     0.074 A 
ATOM     33  C   UNL A   1      42.678  25.862  27.300  1.00  0.00     0.049 A 
ATOM     34  N   UNL A   1      41.093  27.902  28.836  1.00  0.00    -0.248 NA
ATOM     35  C   UNL A   1      39.248  26.474  28.736  1.00  0.00     0.031 C 
ATOM     36  C   UNL A   1      43.493  24.916  26.543  1.00  0.00     0.029 A 
ATOM     37  N   UNL A   1      43.509  26.939  27.500  1.00  0.00    -0.354 N 
ATOM     38  C   UNL A   1      40.010  28.509  29.458  1.00  0.00     0.074 A 
ATOM     39  C   UNL A   1      38.893  27.595  29.350  1.00  0.00     0.031 C 
ATOM     40  C   UNL A   1      44.697  25.469  26.307  1.00  0.00     0.029 A 
ATOM     41  C   UNL A   1      44.732  26.812  26.884  1.00  0.00     0.049 A 
ATOM     42  H   UNL A   1      43.251  27.727  28.031  1.00  0.00     0.167 HD
ATOM     43  C   UNL A   1      39.954  29.710  30.078  1.00  0.00     0.034 A 
ATOM     44  C   UNL A   1      45.754  27.686  26.783  1.00  0.00     0.034 A 
ATOM     45  C   UNL A   1      41.064  30.615  30.201  1.00  0.00     0.049 A 
ATOM     46  C   UNL A   1      45.652  29.029  27.466  1.00  0.00     0.074 A 
ATOM     47  C   UNL A   1      41.117  31.819  30.882  1.00  0.00     0.029 A 
ATOM     48  N   UNL A   1      42.304  30.433  29.615  1.00  0.00    -0.354 N 
ATOM     49  N   UNL A   1      44.684  29.510  28.208  1.00  0.00    -0.248 NA
ATOM     50  C   UNL A   1      46.801  29.939  27.323  1.00  0.00     0.031 C 
ATOM     51  C   UNL A   1      42.382  32.379  30.683  1.00  0.00     0.029 A 
ATOM     52  C   UNL A   1      43.123  31.515  29.894  1.00  0.00     0.049 A 
ATOM     53  H   UNL A   1      42.566  29.649  29.079  1.00  0.00     0.167 HD
ATOM     54  C   UNL A   1      45.119  30.759  28.643  1.00  0.00     0.074 A 
ATOM     55  C   UNL A   1      46.448  30.950  28.105  1.00  0.00     0.031 C 
ATOM     56  C   UNL A   1      44.467  31.674  29.403  1.00  0.00     0.034 A 
BRANCH  43  57
ATOM     57  C   UNL A   1      38.653  30.108  30.716  1.00  0.00     0.023 A 
ATOM     58  C   UNL A   1      38.414  29.774  32.064  1.00  0.00     0.012 A 
ATOM     59  C   UNL A   1      37.712  30.885  30.015  1.00  0.00     0.148 A 
ATOM     60  C   UNL A   1      37.249  30.195  32.702  1.00  0.00     0.002 A 
ATOM     61  C   UNL A   1      36.569  31.332  30.668  1.00  0.00     0.091 A 
ATOM     62  F   UNL A   1      37.952  31.171  28.728  1.00  0.00    -0.205 F 
ATOM     63  C   UNL A   1      36.333  30.983  32.008  1.00  0.00     0.022 A 
BRANCH  61  64
ATOM     64  S   UNL A   1      35.361  32.405  29.884  1.00  0.00     0.127 S 
ATOM     65  O   UNL A   1      34.857  31.548  28.813  1.00  0.00    -0.237 OA
ATOM     66  O   UNL A   1      34.412  32.645  30.972  1.00  0.00    -0.237 OA
ATOM     67  O   UNL A   1      36.096  33.583  29.445  1.00  0.00    -0.744 OA
ENDBRANCH  61  64
ENDBRANCH  43  57
BRANCH  44  68
ATOM     68  C   UNL A   1      46.985  27.315  26.026  1.00  0.00     0.023 A 
ATOM     69  C   UNL A   1      48.018  26.617  26.680  1.00  0.00     0.012 A 
ATOM     70  C   UNL A   1      47.140  27.656  24.667  1.00  0.00     0.148 A 
ATOM     71  C   UNL A   1      49.200  26.304  26.009  1.00  0.00     0.002 A 
ATOM     72  C   UNL A   1      48.294  27.287  23.987  1.00  0.00     0.091 A 
ATOM     73  F   UNL A   1      46.154  28.338  24.066  1.00  0.00    -0.205 F 
ATOM     74  C   UNL A   1      49.335  26.630  24.662  1.00  0.00     0.022 A 
BRANCH  72  75
ATOM     75  S   UNL A   1      48.498  27.552  22.221  1.00  0.00     0.127 S 
ATOM     76  O   UNL A   1      49.711  28.366  22.178  1.00  0.00    -0.237 OA
ATOM     77  O   UNL A   1      48.654  26.184  21.722  1.00  0.00    -0.237 OA
ATOM     78  O   UNL A   1      47.279  28.211  21.772  1.00  0.00    -0.744 OA
ENDBRANCH  72  75
ENDBRANCH  44  68
BRANCH  56  79
ATOM     79  C   UNL A   1      45.176  32.967  29.719  1.00  0.00     0.023 A 
ATOM     80  C   UNL A   1      46.003  33.045  30.858  1.00  0.00     0.012 A 
ATOM     81  C   UNL A   1      45.097  34.072  28.847  1.00  0.00     0.148 A 
ATOM     82  C   UNL A   1      46.716  34.210  31.139  1.00  0.00     0.002 A 
ATOM     83  C   UNL A   1      45.846  35.213  29.110  1.00  0.00     0.091 A 
ATOM     84  F   UNL A   1      44.293  33.986  27.777  1.00  0.00    -0.205 F 
ATOM     85  C   UNL A   1      46.647  35.289  30.260  1.00  0.00     0.022 A 
BRANCH  83  86
ATOM     86  S   UNL A   1      45.894  36.615  27.986  1.00  0.00     0.127 S 
ATOM     87  O   UNL A   1      44.939  37.530  28.610  1.00  0.00    -0.237 OA
ATOM     88  O   UNL A   1      47.292  37.039  28.075  1.00  0.00    -0.237 OA
ATOM     89  O   UNL A   1      45.504  36.096  26.681  1.00  0.00    -0.744 OA
ENDBRANCH  83  86
ENDBRANCH  56  79
ENDBRANCH  30  31
ENDBRANCH  23  25
ENDBRANCH  22  23
ENDBRANCH  21  22
ENDBRANCH   1  21
TORSDOF 18
ENDMDL
MODEL 3
REMARK VINA RESULT:     -10.9      5.276     10.913
REMARK SMILES O=C(Cc1ccc(S(=O)(=O)C[C@H]2CCCO2)cc1)OCCOC(=O)c1ccc(-c2c3nc(c(-c4cccc(S(=O)(=O)[O-])c4F)c4ccc([nH]4)c(-c4cccc(S(=O)(=O)[O-])c4F)c4nc(c(-c5cccc(S(=O)(=O)[O-])c5F)c5ccc2[nH]5)C=C4)C=C3)cc1
REMARK SMILES IDX 20 1 19 2 2 3 1 4 3 5 4 6 5 7 18 8 6 9 17 10 7 11 8 12 9 13
REMARK SMILES IDX 10 14 11 15 12 16 13 17 16 18 14 19 15 20 21 21 22 22 23 23
REMARK SMILES IDX 24 24 25 25 26 26 87 27 27 28 86 29 28 30 29 31 30 32 80 33
REMARK SMILES IDX 31 34 85 35 79 36 81 37 32 38 84 39 78 40 77 41 33 43 65 44
REMARK SMILES IDX 45 45 64 46 46 47 49 48 63 49 82 50 47 51 48 52 62 54 83 55
REMARK SMILES IDX 50 56 34 57 35 58 43 59 36 60 38 61 44 62 37 63 39 64 40 65
REMARK SMILES IDX 41 66 42 67 66 68 67 69 75 70 68 71 70 72 76 73 69 74 71 75
REMARK SMILES IDX 72 76 73 77 74 78 51 79 52 80 60 81 53 82 55 83 61 84 54 85
REMARK SMILES IDX 56 86 57 87 58 88 59 89
REMARK H PARENT 81 42 49 53
REMARK Flexibility Score: inf
ROOT
ATOM      1  C   UNL A   1      38.512  19.994  24.976  1.00  0.00     0.274 C 
ENDROOT
BRANCH   1   2
ATOM      2  O   UNL A   1      38.155  21.278  25.528  1.00  0.00    -0.462 OA
BRANCH   2   3
ATOM      3  C   UNL A   1      37.401  22.217  24.902  1.00  0.00     0.310 C 
ATOM      4  O   UNL A   1      36.906  21.967  23.804  1.00  0.00    -0.252 OA
BRANCH   3   5
ATOM      5  C   UNL A   1      37.248  23.576  25.542  1.00  0.00     0.158 C 
BRANCH   5   6
ATOM      6  C   UNL A   1      35.838  23.961  25.906  1.00  0.00    -0.037 A 
ATOM      7  C   UNL A   1      35.209  25.053  25.295  1.00  0.00     0.005 A 
ATOM      8  C   UNL A   1      35.099  23.144  26.777  1.00  0.00     0.005 A 
ATOM      9  C   UNL A   1      33.844  25.271  25.481  1.00  0.00     0.020 A 
ATOM     10  C   UNL A   1      33.740  23.374  26.985  1.00  0.00     0.020 A 
ATOM     11  C   UNL A   1      33.107  24.402  26.289  1.00  0.00     0.067 A 
BRANCH  11  12
ATOM     12  S   UNL A   1      31.341  24.572  26.349  1.00  0.00     0.180 S 
ATOM     13  O   UNL A   1      30.879  23.508  27.224  1.00  0.00    -0.224 OA
ATOM     14  O   UNL A   1      31.063  25.952  26.719  1.00  0.00    -0.224 OA
BRANCH  12  15
ATOM     15  C   UNL A   1      30.679  24.287  24.729  1.00  0.00     0.174 C 
BRANCH  15  16
ATOM     16  C   UNL A   1      31.086  23.009  24.011  1.00  0.00     0.133 C 
ATOM     17  C   UNL A   1      32.218  23.075  22.989  1.00  0.00     0.035 C 
ATOM     18  O   UNL A   1      31.429  21.976  24.948  1.00  0.00    -0.377 OA
ATOM     19  C   UNL A   1      33.271  22.142  23.547  1.00  0.00     0.031 C 
ATOM     20  C   UNL A   1      32.441  21.165  24.346  1.00  0.00     0.160 C 
ENDBRANCH  15  16
ENDBRANCH  12  15
ENDBRANCH  11  12
ENDBRANCH   5   6
ENDBRANCH   3   5
ENDBRANCH   2   3
ENDBRANCH   1   2
BRANCH   1  21
ATOM     21  C   UNL A   1      39.513  19.242  25.856  1.00  0.00     0.275 C 
BRANCH  21  22
ATOM     22  O   UNL A   1      40.859  19.460  25.404  1.00  0.00    -0.458 OA
BRANCH  22  23
ATOM     23  C   UNL A   1      41.792  19.570  26.383  1.00  0.00     0.338 C 
ATOM     24  O   UNL A   1      42.465  18.668  26.851  1.00  0.00    -0.246 OA
BRANCH  23  25
ATOM     25  C   UNL A   1      42.009  21.001  26.691  1.00  0.00     0.060 A 
ATOM     26  C   UNL A   1      41.976  21.913  25.628  1.00  0.00     0.016 A 
ATOM     27  C   UNL A   1      42.216  21.452  27.998  1.00  0.00     0.016 A 
ATOM     28  C   UNL A   1      42.156  23.276  25.870  1.00  0.00     0.010 A 
ATOM     29  C   UNL A   1      42.409  22.816  28.236  1.00  0.00     0.010 A 
ATOM     30  C   UNL A   1      42.394  23.734  27.172  1.00  0.00    -0.014 A 
BRANCH  30  31
ATOM     31  C   UNL A   1      42.714  25.161  27.419  1.00  0.00     0.031 A 
ATOM     32  C   UNL A   1      44.070  25.686  27.044  1.00  0.00     0.074 A 
ATOM     33  C   UNL A   1      41.818  25.971  28.011  1.00  0.00     0.049 A 
ATOM     34  N   UNL A   1      44.555  26.893  27.184  1.00  0.00    -0.248 NA
ATOM     35  C   UNL A   1      45.006  24.727  26.435  1.00  0.00     0.031 C 
ATOM     36  C   UNL A   1      40.480  25.578  28.448  1.00  0.00     0.029 A 
ATOM     37  N   UNL A   1      41.918  27.292  28.379  1.00  0.00    -0.354 N 
ATOM     38  C   UNL A   1      45.855  26.838  26.696  1.00  0.00     0.074 A 
ATOM     39  C   UNL A   1      46.089  25.475  26.267  1.00  0.00     0.031 C 
ATOM     40  C   UNL A   1      39.896  26.623  29.060  1.00  0.00     0.029 A 
ATOM     41  C   UNL A   1      40.822  27.755  29.070  1.00  0.00     0.049 A 
ATOM     42  H   UNL A   1      42.699  27.852  28.168  1.00  0.00     0.167 HD
ATOM     43  C   UNL A   1      46.764  27.834  26.598  1.00  0.00     0.034 A 
ATOM     44  C   UNL A   1      40.602  28.948  29.660  1.00  0.00     0.034 A 
ATOM     45  C   UNL A   1      46.533  29.192  27.010  1.00  0.00     0.049 A 
ATOM     46  C   UNL A   1      41.647  30.032  29.554  1.00  0.00     0.074 A 
ATOM     47  C   UNL A   1      47.373  30.284  26.874  1.00  0.00     0.029 A 
ATOM     48  N   UNL A   1      45.394  29.641  27.655  1.00  0.00    -0.354 N 
ATOM     49  N   UNL A   1      42.798  30.016  28.925  1.00  0.00    -0.248 NA
ATOM     50  C   UNL A   1      41.348  31.314  30.215  1.00  0.00     0.031 C 
ATOM     51  C   UNL A   1      46.752  31.388  27.466  1.00  0.00     0.029 A 
ATOM     52  C   UNL A   1      45.519  30.988  27.952  1.00  0.00     0.049 A 
ATOM     53  H   UNL A   1      44.612  29.084  27.872  1.00  0.00     0.167 HD
ATOM     54  C   UNL A   1      43.342  31.286  29.088  1.00  0.00     0.074 A 
ATOM     55  C   UNL A   1      42.384  32.058  29.850  1.00  0.00     0.031 C 
ATOM     56  C   UNL A   1      44.537  31.766  28.661  1.00  0.00     0.034 A 
BRANCH  43  57
ATOM     57  C   UNL A   1      48.096  27.508  25.981  1.00  0.00     0.023 A 
ATOM     58  C   UNL A   1      49.125  26.994  26.794  1.00  0.00     0.012 A 
ATOM     59  C   UNL A   1      48.297  27.623  24.593  1.00  0.00     0.148 A 
ATOM     60  C   UNL A   1      50.344  26.613  26.236  1.00  0.00     0.002 A 
ATOM     61  C   UNL A   1      49.502  27.208  24.039  1.00  0.00     0.091 A 
ATOM     62  F   UNL A   1      47.311  28.136  23.845  1.00  0.00    -0.205 F 
ATOM     63  C   UNL A   1      50.528  26.709  24.858  1.00  0.00     0.022 A 
BRANCH  61  64
ATOM     64  S   UNL A   1      49.814  27.229  22.270  1.00  0.00     0.127 S 
ATOM     65  O   UNL A   1      51.194  26.750  22.209  1.00  0.00    -0.237 OA
ATOM     66  O   UNL A   1      48.817  26.283  21.771  1.00  0.00    -0.237 OA
ATOM     67  O   UNL A   1      49.615  28.607  21.843  1.00  0.00    -0.744 OA
ENDBRANCH  61  64
ENDBRANCH  43  57
BRANCH  44  68
ATOM     68  C   UNL A   1      39.323  29.200  30.385  1.00  0.00     0.023 A 
ATOM     69  C   UNL A   1      39.061  28.517  31.588  1.00  0.00     0.012 A 
ATOM     70  C   UNL A   1      38.364  30.105  29.886  1.00  0.00     0.148 A 
ATOM     71  C   UNL A   1      37.851  28.698  32.259  1.00  0.00     0.002 A 
ATOM     72  C   UNL A   1      37.187  30.326  30.592  1.00  0.00     0.091 A 
ATOM     73  F   UNL A   1      38.622  30.732  28.729  1.00  0.00    -0.205 F 
ATOM     74  C   UNL A   1      36.918  29.607  31.767  1.00  0.00     0.022 A 
BRANCH  72  75
ATOM     75  S   UNL A   1      35.989  31.573  30.099  1.00  0.00     0.127 S 
ATOM     76  O   UNL A   1      35.358  30.942  28.942  1.00  0.00    -0.237 OA
ATOM     77  O   UNL A   1      35.141  31.669  31.290  1.00  0.00    -0.237 OA
ATOM     78  O   UNL A   1      36.758  32.778  29.821  1.00  0.00    -0.744 OA
ENDBRANCH  72  75
ENDBRANCH  44  68
BRANCH  56  79
ATOM     79  C   UNL A   1      44.885  33.196  28.990  1.00  0.00     0.023 A 
ATOM     80  C   UNL A   1      45.480  33.498  30.232  1.00  0.00     0.012 A 
ATOM     81  C   UNL A   1      44.705  34.225  28.043  1.00  0.00     0.148 A 
ATOM     82  C   UNL A   1      45.864  34.804  30.536  1.00  0.00     0.002 A 
ATOM     83  C   UNL A   1      45.133  35.515  28.337  1.00  0.00     0.091 A 
ATOM     84  F   UNL A   1      44.124  33.923  26.873  1.00  0.00    -0.205 F 
ATOM     85  C   UNL A   1      45.702  35.808  29.586  1.00  0.00     0.022 A 
BRANCH  83  86
ATOM     86  S   UNL A   1      45.051  36.853  27.140  1.00  0.00     0.127 S 
ATOM     87  O   UNL A   1      45.962  36.378  26.099  1.00  0.00    -0.237 OA
ATOM     88  O   UNL A   1      43.637  36.847  26.761  1.00  0.00    -0.237 OA
ATOM     89  O   UNL A   1      45.479  38.052  27.849  1.00  0.00    -0.744 OA
ENDBRANCH  83  86
ENDBRANCH  56  79
ENDBRANCH  30  31
ENDBRANCH  23  25
ENDBRANCH  22  23
ENDBRANCH  21  22
ENDBRANCH   1  21
TORSDOF 18
ENDMDL
