MODEL 1
REMARK VINA RESULT:     -10.6      0.000      0.000
REMARK SMILES CC(C)OC[C@H](O)CC1(C(=O)OCCOC(=O)c2ccc(-c3c4nc(c(-c5cccc(S(=O)(=O)[O-])c5F)c5ccc([nH]5)c(-c5cccc(S(=O)(=O)[O-])c5F)c5nc(c(-c6cccc(S(=O)(=O)[O-])c6F)c6ccc3[nH]6)C=C5)C=C4)cc2)CCCCC1
REMARK SMILES IDX 13 1 12 2 10 3 11 4 9 5 81 6 85 7 82 8 84 9 83 10 8 11 6 12
REMARK SMILES IDX 5 13 4 14 2 15 1 16 3 17 7 18 14 20 15 21 16 22 17 23 18 24
REMARK SMILES IDX 19 25 80 26 20 27 79 28 21 29 22 30 23 31 73 32 24 33 78 34
REMARK SMILES IDX 72 35 74 36 25 37 77 38 71 39 70 40 26 42 58 43 38 44 57 45
REMARK SMILES IDX 39 46 42 47 56 48 75 49 40 50 41 51 55 53 76 54 43 55 27 56
REMARK SMILES IDX 28 57 36 58 29 59 31 60 37 61 30 62 32 63 33 64 34 65 35 66
REMARK SMILES IDX 59 67 60 68 68 69 61 70 63 71 69 72 62 73 64 74 65 75 66 76
REMARK SMILES IDX 67 77 44 78 45 79 53 80 46 81 48 82 54 83 47 84 49 85 50 86
REMARK SMILES IDX 51 87 52 88
REMARK H PARENT 7 19 74 41 42 52
REMARK Flexibility Score: inf
ROOT
ATOM      1  C   UNL A   1      35.000  20.288  25.001  1.00  0.00     0.274 C 
ENDROOT
BRANCH   1   2
ATOM      2  O   UNL A   1      34.691  21.469  25.770  1.00  0.00    -0.462 OA
BRANCH   2   3
ATOM      3  C   UNL A   1      33.385  21.838  25.814  1.00  0.00     0.312 C 
ATOM      4  O   UNL A   1      32.463  21.046  25.982  1.00  0.00    -0.252 OA
BRANCH   3   5
ATOM      5  C   UNL A   1      33.154  23.337  25.523  1.00  0.00     0.071 C 
ATOM      6  C   UNL A   1      32.457  23.387  24.127  1.00  0.00     0.019 C 
ATOM      7  C   UNL A   1      34.449  24.179  25.483  1.00  0.00     0.019 C 
ATOM      8  C   UNL A   1      33.387  23.080  22.960  1.00  0.00     0.001 C 
ATOM      9  C   UNL A   1      35.350  23.934  24.268  1.00  0.00     0.001 C 
ATOM     10  C   UNL A   1      34.577  24.027  22.960  1.00  0.00     0.000 C 
BRANCH   5  11
ATOM     11  C   UNL A   1      32.094  23.871  26.554  1.00  0.00     0.053 C 
BRANCH  11  12
ATOM     12  C   UNL A   1      30.754  24.460  26.087  1.00  0.00     0.141 C 
BRANCH  12  13
ATOM     13  C   UNL A   1      30.693  26.013  26.126  1.00  0.00     0.192 C 
BRANCH  13  14
ATOM     14  O   UNL A   1      31.890  26.657  25.699  1.00  0.00    -0.376 OA
BRANCH  14  15
ATOM     15  C   UNL A   1      32.672  27.445  26.599  1.00  0.00     0.112 C 
ATOM     16  C   UNL A   1      33.709  28.378  25.983  1.00  0.00     0.038 C 
ATOM     17  C   UNL A   1      31.777  28.204  27.574  1.00  0.00     0.038 C 
ENDBRANCH  14  15
ENDBRANCH  13  14
ENDBRANCH  12  13
BRANCH  12  18
ATOM     18  O   UNL A   1      29.695  23.978  26.927  1.00  0.00    -0.391 OA
ATOM     19  H   UNL A   1      28.848  24.330  26.611  1.00  0.00     0.211 HD
ENDBRANCH  12  18
ENDBRANCH  11  12
ENDBRANCH   5  11
ENDBRANCH   3   5
ENDBRANCH   2   3
ENDBRANCH   1   2
BRANCH   1  20
ATOM     20  C   UNL A   1      36.502  20.157  24.790  1.00  0.00     0.275 C 
BRANCH  20  21
ATOM     21  O   UNL A   1      37.175  21.223  25.479  1.00  0.00    -0.458 OA
BRANCH  21  22
ATOM     22  C   UNL A   1      38.478  21.012  25.751  1.00  0.00     0.338 C 
ATOM     23  O   UNL A   1      39.132  20.000  25.515  1.00  0.00    -0.246 OA
BRANCH  22  24
ATOM     24  C   UNL A   1      39.056  22.203  26.384  1.00  0.00     0.060 A 
ATOM     25  C   UNL A   1      38.538  23.467  26.103  1.00  0.00     0.016 A 
ATOM     26  C   UNL A   1      40.205  22.075  27.165  1.00  0.00     0.016 A 
ATOM     27  C   UNL A   1      39.231  24.605  26.516  1.00  0.00     0.010 A 
ATOM     28  C   UNL A   1      40.836  23.220  27.660  1.00  0.00     0.010 A 
ATOM     29  C   UNL A   1      40.392  24.505  27.300  1.00  0.00    -0.014 A 
BRANCH  29  30
ATOM     30  C   UNL A   1      41.174  25.717  27.699  1.00  0.00     0.031 A 
ATOM     31  C   UNL A   1      40.540  26.780  28.567  1.00  0.00     0.074 A 
ATOM     32  C   UNL A   1      42.444  25.897  27.282  1.00  0.00     0.049 A 
ATOM     33  N   UNL A   1      40.939  28.004  28.801  1.00  0.00    -0.248 NA
ATOM     34  C   UNL A   1      39.278  26.429  29.241  1.00  0.00     0.031 C 
ATOM     35  C   UNL A   1      43.211  24.961  26.462  1.00  0.00     0.029 A 
ATOM     36  N   UNL A   1      43.313  26.945  27.485  1.00  0.00    -0.354 N 
ATOM     37  C   UNL A   1      39.930  28.600  29.550  1.00  0.00     0.074 A 
ATOM     38  C   UNL A   1      38.913  27.593  29.762  1.00  0.00     0.031 C 
ATOM     39  C   UNL A   1      44.444  25.451  26.265  1.00  0.00     0.029 A 
ATOM     40  C   UNL A   1      44.526  26.781  26.856  1.00  0.00     0.049 A 
ATOM     41  H   UNL A   1      43.089  27.734  28.028  1.00  0.00     0.167 HD
ATOM     42  C   UNL A   1      39.859  29.868  30.024  1.00  0.00     0.034 A 
ATOM     43  C   UNL A   1      45.575  27.619  26.720  1.00  0.00     0.034 A 
ATOM     44  C   UNL A   1      40.920  30.834  29.920  1.00  0.00     0.049 A 
ATOM     45  C   UNL A   1      45.498  28.999  27.307  1.00  0.00     0.074 A 
ATOM     46  C   UNL A   1      40.951  32.133  30.401  1.00  0.00     0.029 A 
ATOM     47  N   UNL A   1      42.151  30.600  29.329  1.00  0.00    -0.354 N 
ATOM     48  N   UNL A   1      44.532  29.547  28.001  1.00  0.00    -0.248 NA
ATOM     49  C   UNL A   1      46.657  29.878  27.090  1.00  0.00     0.031 C 
ATOM     50  C   UNL A   1      42.206  32.679  30.110  1.00  0.00     0.029 A 
ATOM     51  C   UNL A   1      42.956  31.721  29.449  1.00  0.00     0.049 A 
ATOM     52  H   UNL A   1      42.415  29.759  28.889  1.00  0.00     0.167 HD
ATOM     53  C   UNL A   1      44.963  30.834  28.303  1.00  0.00     0.074 A 
ATOM     54  C   UNL A   1      46.297  30.968  27.754  1.00  0.00     0.031 C 
ATOM     55  C   UNL A   1      44.300  31.825  28.946  1.00  0.00     0.034 A 
BRANCH  42  56
ATOM     56  C   UNL A   1      38.598  30.287  30.733  1.00  0.00     0.023 A 
ATOM     57  C   UNL A   1      38.448  30.028  32.109  1.00  0.00     0.012 A 
ATOM     58  C   UNL A   1      37.596  31.010  30.052  1.00  0.00     0.148 A 
ATOM     59  C   UNL A   1      37.311  30.461  32.792  1.00  0.00     0.002 A 
ATOM     60  C   UNL A   1      36.485  31.471  30.749  1.00  0.00     0.091 A 
ATOM     61  F   UNL A   1      37.742  31.226  28.737  1.00  0.00    -0.205 F 
ATOM     62  C   UNL A   1      36.337  31.191  32.116  1.00  0.00     0.022 A 
BRANCH  60  63
ATOM     63  S   UNL A   1      35.224  32.490  29.972  1.00  0.00     0.127 S 
ATOM     64  O   UNL A   1      34.304  32.724  31.083  1.00  0.00    -0.237 OA
ATOM     65  O   UNL A   1      35.986  33.669  29.555  1.00  0.00    -0.237 OA
ATOM     66  O   UNL A   1      34.699  31.695  28.871  1.00  0.00    -0.744 OA
ENDBRANCH  60  63
ENDBRANCH  42  56
BRANCH  43  67
ATOM     67  C   UNL A   1      46.793  27.154  25.997  1.00  0.00     0.023 A 
ATOM     68  C   UNL A   1      46.919  27.416  24.620  1.00  0.00     0.012 A 
ATOM     69  C   UNL A   1      47.856  26.528  26.676  1.00  0.00     0.148 A 
ATOM     70  C   UNL A   1      48.079  27.057  23.931  1.00  0.00     0.002 A 
ATOM     71  C   UNL A   1      49.035  26.237  26.000  1.00  0.00     0.091 A 
ATOM     72  F   UNL A   1      47.708  26.251  27.979  1.00  0.00    -0.205 F 
ATOM     73  C   UNL A   1      49.144  26.488  24.625  1.00  0.00     0.022 A 
BRANCH  71  74
ATOM     74  S   UNL A   1      50.501  25.674  26.874  1.00  0.00     0.127 S 
ATOM     75  O   UNL A   1      50.021  24.453  27.513  1.00  0.00    -0.237 OA
ATOM     76  O   UNL A   1      51.455  25.466  25.784  1.00  0.00    -0.237 OA
ATOM     77  O   UNL A   1      50.853  26.772  27.765  1.00  0.00    -0.744 OA
ENDBRANCH  71  74
ENDBRANCH  43  67
BRANCH  55  78
ATOM     78  C   UNL A   1      45.004  33.146  29.096  1.00  0.00     0.023 A 
ATOM     79  C   UNL A   1      45.785  33.382  30.245  1.00  0.00     0.012 A 
ATOM     80  C   UNL A   1      44.945  34.123  28.085  1.00  0.00     0.148 A 
ATOM     81  C   UNL A   1      46.479  34.582  30.396  1.00  0.00     0.002 A 
ATOM     82  C   UNL A   1      45.668  35.303  28.226  1.00  0.00     0.091 A 
ATOM     83  F   UNL A   1      44.177  33.890  27.010  1.00  0.00    -0.205 F 
ATOM     84  C   UNL A   1      46.428  35.537  29.383  1.00  0.00     0.022 A 
BRANCH  82  85
ATOM     85  S   UNL A   1      45.713  36.553  26.936  1.00  0.00     0.127 S 
ATOM     86  O   UNL A   1      44.314  36.972  26.876  1.00  0.00    -0.237 OA
ATOM     87  O   UNL A   1      46.624  37.553  27.495  1.00  0.00    -0.237 OA
ATOM     88  O   UNL A   1      46.221  35.877  25.751  1.00  0.00    -0.744 OA
ENDBRANCH  82  85
ENDBRANCH  55  78
ENDBRANCH  29  30
ENDBRANCH  22  24
ENDBRANCH  21  22
ENDBRANCH  20  21
ENDBRANCH   1  20
TORSDOF 20
ENDMDL
MODEL 2
REMARK VINA RESULT:     -10.5      1.228      2.874
REMARK SMILES CC(C)OC[C@H](O)CC1(C(=O)OCCOC(=O)c2ccc(-c3c4nc(c(-c5cccc(S(=O)(=O)[O-])c5F)c5ccc([nH]5)c(-c5cccc(S(=O)(=O)[O-])c5F)c5nc(c(-c6cccc(S(=O)(=O)[O-])c6F)c6ccc3[nH]6)C=C5)C=C4)cc2)CCCCC1
REMARK SMILES IDX 13 1 12 2 10 3 11 4 9 5 81 6 85 7 82 8 84 9 83 10 8 11 6 12
REMARK SMILES IDX 5 13 4 14 2 15 1 16 3 17 7 18 14 20 15 21 16 22 17 23 18 24
REMARK SMILES IDX 19 25 80 26 20 27 79 28 21 29 22 30 23 31 73 32 24 33 78 34
REMARK SMILES IDX 72 35 74 36 25 37 77 38 71 39 70 40 26 42 58 43 38 44 57 45
REMARK SMILES IDX 39 46 42 47 56 48 75 49 40 50 41 51 55 53 76 54 43 55 27 56
REMARK SMILES IDX 28 57 36 58 29 59 31 60 37 61 30 62 32 63 33 64 34 65 35 66
REMARK SMILES IDX 59 67 60 68 68 69 61 70 63 71 69 72 62 73 64 74 65 75 66 76
REMARK SMILES IDX 67 77 44 78 45 79 53 80 46 81 48 82 54 83 47 84 49 85 50 86
REMARK SMILES IDX 51 87 52 88
REMARK H PARENT 7 19 74 41 42 52
REMARK Flexibility Score: inf
ROOT
ATOM      1  C   UNL A   1      35.213  21.786  25.655  1.00  0.00     0.274 C 
ENDROOT
BRANCH   1   2
ATOM      2  O   UNL A   1      34.710  22.768  24.725  1.00  0.00    -0.462 OA
BRANCH   2   3
ATOM      3  C   UNL A   1      33.418  23.150  24.890  1.00  0.00     0.312 C 
ATOM      4  O   UNL A   1      32.926  23.424  25.979  1.00  0.00    -0.252 OA
BRANCH   3   5
ATOM      5  C   UNL A   1      32.588  23.106  23.588  1.00  0.00     0.071 C 
ATOM      6  C   UNL A   1      33.205  24.202  22.664  1.00  0.00     0.019 C 
ATOM      7  C   UNL A   1      31.082  23.390  23.789  1.00  0.00     0.019 C 
ATOM      8  C   UNL A   1      32.871  25.627  23.086  1.00  0.00     0.001 C 
ATOM      9  C   UNL A   1      30.731  24.841  24.134  1.00  0.00     0.001 C 
ATOM     10  C   UNL A   1      31.365  25.825  23.160  1.00  0.00     0.000 C 
BRANCH   5  11
ATOM     11  C   UNL A   1      32.875  21.733  22.879  1.00  0.00     0.053 C 
BRANCH  11  12
ATOM     12  C   UNL A   1      32.084  20.466  23.243  1.00  0.00     0.141 C 
BRANCH  12  13
ATOM     13  C   UNL A   1      32.776  19.568  24.307  1.00  0.00     0.192 C 
BRANCH  13  14
ATOM     14  O   UNL A   1      32.163  18.295  24.487  1.00  0.00    -0.376 OA
BRANCH  14  15
ATOM     15  C   UNL A   1      32.917  17.085  24.381  1.00  0.00     0.112 C 
ATOM     16  C   UNL A   1      34.402  17.219  24.066  1.00  0.00     0.038 C 
ATOM     17  C   UNL A   1      32.703  16.203  25.608  1.00  0.00     0.038 C 
ENDBRANCH  14  15
ENDBRANCH  13  14
ENDBRANCH  12  13
BRANCH  12  18
ATOM     18  O   UNL A   1      31.896  19.660  22.072  1.00  0.00    -0.391 OA
ATOM     19  H   UNL A   1      32.551  18.944  22.065  1.00  0.00     0.211 HD
ENDBRANCH  12  18
ENDBRANCH  11  12
ENDBRANCH   5  11
ENDBRANCH   3   5
ENDBRANCH   2   3
ENDBRANCH   1   2
BRANCH   1  20
ATOM     20  C   UNL A   1      36.175  20.829  24.965  1.00  0.00     0.275 C 
BRANCH  20  21
ATOM     21  O   UNL A   1      37.432  21.489  24.749  1.00  0.00    -0.458 OA
BRANCH  21  22
ATOM     22  C   UNL A   1      38.447  21.088  25.538  1.00  0.00     0.338 C 
ATOM     23  O   UNL A   1      38.859  19.941  25.694  1.00  0.00    -0.246 OA
BRANCH  22  24
ATOM     24  C   UNL A   1      39.041  22.246  26.218  1.00  0.00     0.060 A 
ATOM     25  C   UNL A   1      38.494  23.516  26.043  1.00  0.00     0.016 A 
ATOM     26  C   UNL A   1      40.228  22.086  26.932  1.00  0.00     0.016 A 
ATOM     27  C   UNL A   1      39.192  24.637  26.494  1.00  0.00     0.010 A 
ATOM     28  C   UNL A   1      40.868  23.207  27.468  1.00  0.00     0.010 A 
ATOM     29  C   UNL A   1      40.392  24.506  27.212  1.00  0.00    -0.014 A 
BRANCH  29  30
ATOM     30  C   UNL A   1      41.177  25.702  27.650  1.00  0.00     0.031 A 
ATOM     31  C   UNL A   1      40.535  26.757  28.520  1.00  0.00     0.074 A 
ATOM     32  C   UNL A   1      42.458  25.874  27.266  1.00  0.00     0.049 A 
ATOM     33  N   UNL A   1      40.941  27.973  28.784  1.00  0.00    -0.248 NA
ATOM     34  C   UNL A   1      39.253  26.409  29.158  1.00  0.00     0.031 C 
ATOM     35  C   UNL A   1      43.234  24.943  26.448  1.00  0.00     0.029 A 
ATOM     36  N   UNL A   1      43.334  26.908  27.506  1.00  0.00    -0.354 N 
ATOM     37  C   UNL A   1      39.922  28.568  29.519  1.00  0.00     0.074 A 
ATOM     38  C   UNL A   1      38.889  27.569  29.690  1.00  0.00     0.031 C 
ATOM     39  C   UNL A   1      44.477  25.422  26.289  1.00  0.00     0.029 A 
ATOM     40  C   UNL A   1      44.560  26.741  26.903  1.00  0.00     0.049 A 
ATOM     41  H   UNL A   1      43.106  27.692  28.057  1.00  0.00     0.167 HD
ATOM     42  C   UNL A   1      39.853  29.829  30.012  1.00  0.00     0.034 A 
ATOM     43  C   UNL A   1      45.620  27.569  26.805  1.00  0.00     0.034 A 
ATOM     44  C   UNL A   1      40.927  30.785  29.949  1.00  0.00     0.049 A 
ATOM     45  C   UNL A   1      45.545  28.941  27.413  1.00  0.00     0.074 A 
ATOM     46  C   UNL A   1      40.961  32.075  30.453  1.00  0.00     0.029 A 
ATOM     47  N   UNL A   1      42.169  30.546  29.383  1.00  0.00    -0.354 N 
ATOM     48  N   UNL A   1      44.569  29.488  28.094  1.00  0.00    -0.248 NA
ATOM     49  C   UNL A   1      46.718  29.810  27.238  1.00  0.00     0.031 C 
ATOM     50  C   UNL A   1      42.228  32.611  30.200  1.00  0.00     0.029 A 
ATOM     51  C   UNL A   1      42.983  31.656  29.540  1.00  0.00     0.049 A 
ATOM     52  H   UNL A   1      42.434  29.710  28.936  1.00  0.00     0.167 HD
ATOM     53  C   UNL A   1      45.007  30.765  28.427  1.00  0.00     0.074 A 
ATOM     54  C   UNL A   1      46.354  30.893  27.912  1.00  0.00     0.031 C 
ATOM     55  C   UNL A   1      44.340  31.753  29.070  1.00  0.00     0.034 A 
BRANCH  42  56
ATOM     56  C   UNL A   1      38.581  30.250  30.699  1.00  0.00     0.023 A 
ATOM     57  C   UNL A   1      38.406  29.991  32.072  1.00  0.00     0.012 A 
ATOM     58  C   UNL A   1      37.593  30.976  30.000  1.00  0.00     0.148 A 
ATOM     59  C   UNL A   1      37.257  30.425  32.734  1.00  0.00     0.002 A 
ATOM     60  C   UNL A   1      36.471  31.440  30.677  1.00  0.00     0.091 A 
ATOM     61  F   UNL A   1      37.764  31.192  28.688  1.00  0.00    -0.205 F 
ATOM     62  C   UNL A   1      36.297  31.159  32.041  1.00  0.00     0.022 A 
BRANCH  60  63
ATOM     63  S   UNL A   1      35.226  32.462  29.878  1.00  0.00     0.127 S 
ATOM     64  O   UNL A   1      34.292  32.705  30.975  1.00  0.00    -0.237 OA
ATOM     65  O   UNL A   1      36.001  33.636  29.468  1.00  0.00    -0.237 OA
ATOM     66  O   UNL A   1      34.713  31.666  28.772  1.00  0.00    -0.744 OA
ENDBRANCH  60  63
ENDBRANCH  42  56
BRANCH  43  67
ATOM     67  C   UNL A   1      46.850  27.103  26.103  1.00  0.00     0.023 A 
ATOM     68  C   UNL A   1      47.031  27.423  24.745  1.00  0.00     0.012 A 
ATOM     69  C   UNL A   1      47.871  26.416  26.788  1.00  0.00     0.148 A 
ATOM     70  C   UNL A   1      48.204  27.062  24.080  1.00  0.00     0.002 A 
ATOM     71  C   UNL A   1      49.065  26.123  26.140  1.00  0.00     0.091 A 
ATOM     72  F   UNL A   1      47.670  26.086  28.072  1.00  0.00    -0.205 F 
ATOM     73  C   UNL A   1      49.229  26.431  24.782  1.00  0.00     0.022 A 
BRANCH  71  74
ATOM     74  S   UNL A   1      50.483  25.479  27.036  1.00  0.00     0.127 S 
ATOM     75  O   UNL A   1      51.461  25.302  25.967  1.00  0.00    -0.237 OA
ATOM     76  O   UNL A   1      50.782  26.564  27.972  1.00  0.00    -0.237 OA
ATOM     77  O   UNL A   1      50.002  24.262  27.677  1.00  0.00    -0.744 OA
ENDBRANCH  71  74
ENDBRANCH  43  67
BRANCH  55  78
ATOM     78  C   UNL A   1      45.054  33.063  29.259  1.00  0.00     0.023 A 
ATOM     79  C   UNL A   1      45.824  33.265  30.422  1.00  0.00     0.012 A 
ATOM     80  C   UNL A   1      45.017  34.063  28.270  1.00  0.00     0.148 A 
ATOM     81  C   UNL A   1      46.527  34.455  30.608  1.00  0.00     0.002 A 
ATOM     82  C   UNL A   1      45.748  35.233  28.447  1.00  0.00     0.091 A 
ATOM     83  F   UNL A   1      44.259  33.862  27.181  1.00  0.00    -0.205 F 
ATOM     84  C   UNL A   1      46.498  35.433  29.617  1.00  0.00     0.022 A 
BRANCH  82  85
ATOM     85  S   UNL A   1      45.821  36.511  27.186  1.00  0.00     0.127 S 
ATOM     86  O   UNL A   1      44.426  36.943  27.116  1.00  0.00    -0.237 OA
ATOM     87  O   UNL A   1      46.732  37.491  27.780  1.00  0.00    -0.237 OA
ATOM     88  O   UNL A   1      46.339  35.858  25.992  1.00  0.00    -0.744 OA
ENDBRANCH  82  85
ENDBRANCH  55  78
ENDBRANCH  29  30
ENDBRANCH  22  24
ENDBRANCH  21  22
ENDBRANCH  20  21
ENDBRANCH   1  20
TORSDOF 20
ENDMDL
MODEL 3
REMARK VINA RESULT:     -10.4      5.371     10.030
REMARK SMILES CC(C)OC[C@H](O)CC1(C(=O)OCCOC(=O)c2ccc(-c3c4nc(c(-c5cccc(S(=O)(=O)[O-])c5F)c5ccc([nH]5)c(-c5cccc(S(=O)(=O)[O-])c5F)c5nc(c(-c6cccc(S(=O)(=O)[O-])c6F)c6ccc3[nH]6)C=C5)C=C4)cc2)CCCCC1
REMARK SMILES IDX 13 1 12 2 10 3 11 4 9 5 81 6 85 7 82 8 84 9 83 10 8 11 6 12
REMARK SMILES IDX 5 13 4 14 2 15 1 16 3 17 7 18 14 20 15 21 16 22 17 23 18 24
REMARK SMILES IDX 19 25 80 26 20 27 79 28 21 29 22 30 23 31 73 32 24 33 78 34
REMARK SMILES IDX 72 35 74 36 25 37 77 38 71 39 70 40 26 42 58 43 38 44 57 45
REMARK SMILES IDX 39 46 42 47 56 48 75 49 40 50 41 51 55 53 76 54 43 55 27 56
REMARK SMILES IDX 28 57 36 58 29 59 31 60 37 61 30 62 32 63 33 64 34 65 35 66
REMARK SMILES IDX 59 67 60 68 68 69 61 70 63 71 69 72 62 73 64 74 65 75 66 76
REMARK SMILES IDX 67 77 44 78 45 79 53 80 46 81 48 82 54 83 47 84 49 85 50 86
REMARK SMILES IDX 51 87 52 88
REMARK H PARENT 7 19 74 41 42 52
REMARK Flexibility Score: inf
ROOT
ATOM      1  C   UNL A   1      32.859  28.851  24.991  1.00  0.00     0.274 C 
ENDROOT
BRANCH   1   2
ATOM      2  O   UNL A   1      32.138  27.624  25.231  1.00  0.00    -0.462 OA
BRANCH   2   3
ATOM      3  C   UNL A   1      31.953  26.812  24.159  1.00  0.00     0.312 C 
ATOM      4  O   UNL A   1      32.734  26.747  23.215  1.00  0.00    -0.252 OA
BRANCH   3   5
ATOM      5  C   UNL A   1      30.610  26.050  24.183  1.00  0.00     0.071 C 
ATOM      6  C   UNL A   1      30.379  25.661  25.677  1.00  0.00     0.019 C 
ATOM      7  C   UNL A   1      30.592  24.774  23.310  1.00  0.00     0.019 C 
ATOM      8  C   UNL A   1      31.277  24.534  26.169  1.00  0.00     0.001 C 
ATOM      9  C   UNL A   1      31.429  23.606  23.843  1.00  0.00     0.001 C 
ATOM     10  C   UNL A   1      31.111  23.297  25.299  1.00  0.00     0.000 C 
BRANCH   5  11
ATOM     11  C   UNL A   1      29.470  27.070  23.820  1.00  0.00     0.053 C 
BRANCH  11  12
ATOM     12  C   UNL A   1      29.736  28.269  22.898  1.00  0.00     0.141 C 
BRANCH  12  13
ATOM     13  C   UNL A   1      28.450  28.997  22.413  1.00  0.00     0.192 C 
BRANCH  13  14
ATOM     14  O   UNL A   1      28.682  30.289  21.860  1.00  0.00    -0.376 OA
BRANCH  14  15
ATOM     15  C   UNL A   1      28.248  31.474  22.532  1.00  0.00     0.112 C 
ATOM     16  C   UNL A   1      28.943  31.821  23.844  1.00  0.00     0.038 C 
ATOM     17  C   UNL A   1      28.259  32.670  21.584  1.00  0.00     0.038 C 
ENDBRANCH  14  15
ENDBRANCH  13  14
ENDBRANCH  12  13
BRANCH  12  18
ATOM     18  O   UNL A   1      30.438  27.832  21.726  1.00  0.00    -0.391 OA
ATOM     19  H   UNL A   1      30.560  28.584  21.125  1.00  0.00     0.211 HD
ENDBRANCH  12  18
ENDBRANCH  11  12
ENDBRANCH   5  11
ENDBRANCH   3   5
ENDBRANCH   2   3
ENDBRANCH   1   2
BRANCH   1  20
ATOM     20  C   UNL A   1      32.109  30.042  25.571  1.00  0.00     0.275 C 
BRANCH  20  21
ATOM     21  O   UNL A   1      32.441  30.185  26.961  1.00  0.00    -0.458 OA
BRANCH  21  22
ATOM     22  C   UNL A   1      33.089  31.318  27.294  1.00  0.00     0.338 C 
ATOM     23  O   UNL A   1      32.642  32.461  27.279  1.00  0.00    -0.246 OA
BRANCH  22  24
ATOM     24  C   UNL A   1      34.461  31.005  27.713  1.00  0.00     0.060 A 
ATOM     25  C   UNL A   1      34.809  29.698  28.050  1.00  0.00     0.016 A 
ATOM     26  C   UNL A   1      35.375  32.043  27.893  1.00  0.00     0.016 A 
ATOM     27  C   UNL A   1      36.035  29.447  28.666  1.00  0.00     0.010 A 
ATOM     28  C   UNL A   1      36.640  31.766  28.418  1.00  0.00     0.010 A 
ATOM     29  C   UNL A   1      36.973  30.474  28.864  1.00  0.00    -0.014 A 
BRANCH  29  30
ATOM     30  C   UNL A   1      38.266  30.227  29.576  1.00  0.00     0.031 A 
ATOM     31  C   UNL A   1      39.327  29.354  28.946  1.00  0.00     0.074 A 
ATOM     32  C   UNL A   1      38.505  30.756  30.793  1.00  0.00     0.049 A 
ATOM     33  N   UNL A   1      40.382  28.806  29.494  1.00  0.00    -0.248 NA
ATOM     34  C   UNL A   1      39.168  29.034  27.516  1.00  0.00     0.031 C 
ATOM     35  C   UNL A   1      37.601  31.637  31.530  1.00  0.00     0.029 A 
ATOM     36  N   UNL A   1      39.586  30.617  31.634  1.00  0.00    -0.354 N 
ATOM     37  C   UNL A   1      40.945  27.994  28.515  1.00  0.00     0.074 A 
ATOM     38  C   UNL A   1      40.135  28.145  27.326  1.00  0.00     0.031 C 
ATOM     39  C   UNL A   1      38.176  31.994  32.689  1.00  0.00     0.029 A 
ATOM     40  C   UNL A   1      39.444  31.288  32.827  1.00  0.00     0.049 A 
ATOM     41  H   UNL A   1      40.385  30.090  31.403  1.00  0.00     0.167 HD
ATOM     42  C   UNL A   1      42.039  27.199  28.597  1.00  0.00     0.034 A 
ATOM     43  C   UNL A   1      40.214  31.301  33.934  1.00  0.00     0.034 A 
ATOM     44  C   UNL A   1      42.916  27.139  29.736  1.00  0.00     0.049 A 
ATOM     45  C   UNL A   1      41.457  30.459  33.979  1.00  0.00     0.074 A 
ATOM     46  C   UNL A   1      44.070  26.388  29.896  1.00  0.00     0.029 A 
ATOM     47  N   UNL A   1      42.763  27.883  30.894  1.00  0.00    -0.354 N 
ATOM     48  N   UNL A   1      41.966  29.690  33.049  1.00  0.00    -0.248 NA
ATOM     49  C   UNL A   1      42.232  30.486  35.229  1.00  0.00     0.031 C 
ATOM     50  C   UNL A   1      44.619  26.688  31.147  1.00  0.00     0.029 A 
ATOM     51  C   UNL A   1      43.808  27.625  31.766  1.00  0.00     0.049 A 
ATOM     52  H   UNL A   1      42.020  28.505  31.072  1.00  0.00     0.167 HD
ATOM     53  C   UNL A   1      43.118  29.139  33.598  1.00  0.00     0.074 A 
ATOM     54  C   UNL A   1      43.256  29.698  34.927  1.00  0.00     0.031 C 
ATOM     55  C   UNL A   1      43.964  28.227  33.064  1.00  0.00     0.034 A 
BRANCH  42  56
ATOM     56  C   UNL A   1      42.380  26.343  27.405  1.00  0.00     0.023 A 
ATOM     57  C   UNL A   1      43.137  26.883  26.348  1.00  0.00     0.012 A 
ATOM     58  C   UNL A   1      42.020  24.979  27.373  1.00  0.00     0.148 A 
ATOM     59  C   UNL A   1      43.509  26.086  25.264  1.00  0.00     0.002 A 
ATOM     60  C   UNL A   1      42.429  24.183  26.309  1.00  0.00     0.091 A 
ATOM     61  F   UNL A   1      41.279  24.488  28.376  1.00  0.00    -0.205 F 
ATOM     62  C   UNL A   1      43.167  24.736  25.251  1.00  0.00     0.022 A 
BRANCH  60  63
ATOM     63  S   UNL A   1      42.100  22.417  26.254  1.00  0.00     0.127 S 
ATOM     64  O   UNL A   1      42.823  22.017  25.049  1.00  0.00    -0.237 OA
ATOM     65  O   UNL A   1      42.698  21.947  27.506  1.00  0.00    -0.237 OA
ATOM     66  O   UNL A   1      40.651  22.288  26.196  1.00  0.00    -0.744 OA
ENDBRANCH  60  63
ENDBRANCH  42  56
BRANCH  43  67
ATOM     67  C   UNL A   1      39.821  32.159  35.089  1.00  0.00     0.023 A 
ATOM     68  C   UNL A   1      40.128  33.532  35.063  1.00  0.00     0.012 A 
ATOM     69  C   UNL A   1      39.083  31.641  36.170  1.00  0.00     0.148 A 
ATOM     70  C   UNL A   1      39.710  34.373  36.096  1.00  0.00     0.002 A 
ATOM     71  C   UNL A   1      38.610  32.496  37.159  1.00  0.00     0.091 A 
ATOM     72  F   UNL A   1      38.830  30.325  36.201  1.00  0.00    -0.205 F 
ATOM     73  C   UNL A   1      38.935  33.860  37.132  1.00  0.00     0.022 A 
BRANCH  71  74
ATOM     74  S   UNL A   1      37.458  31.927  38.416  1.00  0.00     0.127 S 
ATOM     75  O   UNL A   1      38.234  32.103  39.639  1.00  0.00    -0.237 OA
ATOM     76  O   UNL A   1      36.338  32.856  38.257  1.00  0.00    -0.237 OA
ATOM     77  O   UNL A   1      37.143  30.554  38.043  1.00  0.00    -0.744 OA
ENDBRANCH  71  74
ENDBRANCH  43  67
BRANCH  55  78
ATOM     78  C   UNL A   1      45.121  27.773  33.912  1.00  0.00     0.023 A 
ATOM     79  C   UNL A   1      46.329  28.497  33.871  1.00  0.00     0.012 A 
ATOM     80  C   UNL A   1      44.997  26.679  34.788  1.00  0.00     0.148 A 
ATOM     81  C   UNL A   1      47.407  28.123  34.673  1.00  0.00     0.002 A 
ATOM     82  C   UNL A   1      46.065  26.333  35.610  1.00  0.00     0.091 A 
ATOM     83  F   UNL A   1      43.848  25.988  34.795  1.00  0.00    -0.205 F 
ATOM     84  C   UNL A   1      47.271  27.049  35.549  1.00  0.00     0.022 A 
BRANCH  82  85
ATOM     85  S   UNL A   1      45.947  25.007  36.818  1.00  0.00     0.127 S 
ATOM     86  O   UNL A   1      45.174  25.641  37.884  1.00  0.00    -0.237 OA
ATOM     87  O   UNL A   1      45.225  23.970  36.079  1.00  0.00    -0.237 OA
ATOM     88  O   UNL A   1      47.319  24.657  37.154  1.00  0.00    -0.744 OA
ENDBRANCH  82  85
ENDBRANCH  55  78
ENDBRANCH  29  30
ENDBRANCH  22  24
ENDBRANCH  21  22
ENDBRANCH  20  21
ENDBRANCH   1  20
TORSDOF 20
ENDMDL
