MODEL 1
REMARK VINA RESULT:     -13.1      0.000      0.000
REMARK SMILES C[C@@H](C(=O)OCCOC(=O)c1ccc(-c2c3nc(c(-c4cccc(S(=O)(=O)[O-])c4F)c4ccc([nH]4)c(-c4cccc(S(=O)(=O)[O-])c4F)c4nc(c(-c5cccc(S(=O)(=O)[O-])c5F)c5ccc2[nH]5)C=C4)C=C3)cc1)[N@@H+]1CCc2n[nH]c(C(c3ccccc3)c3ccccc3)c2C1
REMARK SMILES IDX 6 1 5 2 3 3 4 4 2 5 1 6 74 7 75 8 95 9 76 11 94 12 77 13
REMARK SMILES IDX 80 14 78 15 79 16 81 18 82 19 83 20 87 21 84 22 86 23 85 24
REMARK SMILES IDX 88 25 89 26 93 27 90 28 92 29 91 30 7 31 8 32 9 33 10 34
REMARK SMILES IDX 11 35 12 36 73 37 13 38 72 39 14 40 15 41 16 42 66 43 17 44
REMARK SMILES IDX 71 45 65 46 67 47 18 48 70 49 64 50 63 51 19 53 51 54 31 55
REMARK SMILES IDX 50 56 32 57 35 58 49 59 68 60 33 61 34 62 48 64 69 65 36 66
REMARK SMILES IDX 20 67 21 68 29 69 22 70 24 71 30 72 23 73 25 74 26 75 27 76
REMARK SMILES IDX 28 77 52 78 53 79 61 80 54 81 56 82 62 83 55 84 57 85 58 86
REMARK SMILES IDX 59 87 60 88 37 89 38 90 46 91 39 92 41 93 47 94 40 95 42 96
REMARK SMILES IDX 43 97 44 98 45 99
REMARK H PARENT 74 10 79 17 67 52 35 63
REMARK Flexibility Score: inf
ROOT
ATOM      1  C   UNL A   1      35.414  21.839  26.358  1.00  0.00     0.274 C 
ENDROOT
BRANCH   1   2
ATOM      2  O   UNL A   1      33.973  21.661  26.170  1.00  0.00    -0.458 OA
BRANCH   2   3
ATOM      3  C   UNL A   1      33.145  22.529  26.839  1.00  0.00     0.364 C 
ATOM      4  O   UNL A   1      32.775  22.332  27.994  1.00  0.00    -0.245 OA
BRANCH   3   5
ATOM      5  C   UNL A   1      32.726  23.803  26.007  1.00  0.00     0.292 C 
ATOM      6  C   UNL A   1      31.462  24.452  26.561  1.00  0.00     0.088 C 
BRANCH   5   7
ATOM      7  N   UNL A   1      32.763  23.601  24.535  1.00  0.00    -0.319 N 
ATOM      8  C   UNL A   1      34.063  23.644  23.803  1.00  0.00     0.269 C 
ATOM      9  C   UNL A   1      31.759  24.336  23.815  1.00  0.00     0.303 C 
ATOM     10  H   UNL A   1      32.544  22.603  24.538  1.00  0.00     0.349 HD
ATOM     11  C   UNL A   1      34.027  24.232  22.316  1.00  0.00     0.120 C 
ATOM     12  C   UNL A   1      32.250  25.657  23.358  1.00  0.00     0.052 A 
ATOM     13  C   UNL A   1      33.106  25.424  22.255  1.00  0.00     0.077 A 
ATOM     14  C   UNL A   1      31.573  26.797  22.969  1.00  0.00     0.056 A 
ATOM     15  N   UNL A   1      32.479  25.848  21.139  1.00  0.00    -0.180 NA
ATOM     16  N   UNL A   1      31.391  26.516  21.633  1.00  0.00    -0.281 N 
ATOM     17  H   UNL A   1      30.595  26.761  21.108  1.00  0.00     0.190 HD
BRANCH  14  18
ATOM     18  C   UNL A   1      31.506  28.209  23.529  1.00  0.00     0.098 C 
BRANCH  18  19
ATOM     19  C   UNL A   1      30.095  28.841  23.431  1.00  0.00    -0.035 A 
ATOM     20  C   UNL A   1      28.971  28.042  23.163  1.00  0.00     0.005 A 
ATOM     21  C   UNL A   1      29.878  30.229  23.536  1.00  0.00     0.005 A 
ATOM     22  C   UNL A   1      27.699  28.618  23.020  1.00  0.00     0.000 A 
ATOM     23  C   UNL A   1      28.617  30.803  23.408  1.00  0.00     0.000 A 
ATOM     24  C   UNL A   1      27.524  29.996  23.144  1.00  0.00     0.000 A 
ENDBRANCH  18  19
BRANCH  18  25
ATOM     25  C   UNL A   1      32.109  28.289  24.935  1.00  0.00    -0.035 A 
ATOM     26  C   UNL A   1      33.452  28.649  25.137  1.00  0.00     0.005 A 
ATOM     27  C   UNL A   1      31.301  28.090  26.069  1.00  0.00     0.005 A 
ATOM     28  C   UNL A   1      33.956  28.863  26.420  1.00  0.00     0.000 A 
ATOM     29  C   UNL A   1      31.805  28.314  27.354  1.00  0.00     0.000 A 
ATOM     30  C   UNL A   1      33.127  28.716  27.526  1.00  0.00     0.000 A 
ENDBRANCH  18  25
ENDBRANCH  14  18
ENDBRANCH   5   7
ENDBRANCH   3   5
ENDBRANCH   2   3
ENDBRANCH   1   2
BRANCH   1  31
ATOM     31  C   UNL A   1      36.252  20.978  25.362  1.00  0.00     0.275 C 
BRANCH  31  32
ATOM     32  O   UNL A   1      37.462  21.664  24.946  1.00  0.00    -0.458 OA
BRANCH  32  33
ATOM     33  C   UNL A   1      38.604  21.383  25.653  1.00  0.00     0.338 C 
ATOM     34  O   UNL A   1      39.198  20.325  25.640  1.00  0.00    -0.246 OA
BRANCH  33  35
ATOM     35  C   UNL A   1      39.126  22.612  26.347  1.00  0.00     0.060 A 
ATOM     36  C   UNL A   1      40.219  22.541  27.216  1.00  0.00     0.016 A 
ATOM     37  C   UNL A   1      38.448  23.836  26.233  1.00  0.00     0.016 A 
ATOM     38  C   UNL A   1      40.583  23.637  28.001  1.00  0.00     0.010 A 
ATOM     39  C   UNL A   1      38.917  24.982  26.907  1.00  0.00     0.010 A 
ATOM     40  C   UNL A   1      40.020  24.902  27.769  1.00  0.00    -0.014 A 
BRANCH  40  41
ATOM     41  C   UNL A   1      40.769  26.123  28.208  1.00  0.00     0.031 A 
ATOM     42  C   UNL A   1      40.141  27.259  28.971  1.00  0.00     0.074 A 
ATOM     43  C   UNL A   1      42.061  26.221  27.823  1.00  0.00     0.049 A 
ATOM     44  N   UNL A   1      40.644  28.441  29.237  1.00  0.00    -0.248 NA
ATOM     45  C   UNL A   1      38.787  27.055  29.502  1.00  0.00     0.031 C 
ATOM     46  C   UNL A   1      42.786  25.204  27.053  1.00  0.00     0.029 A 
ATOM     47  N   UNL A   1      42.996  27.211  28.002  1.00  0.00    -0.354 N 
ATOM     48  C   UNL A   1      39.653  29.147  29.911  1.00  0.00     0.074 A 
ATOM     49  C   UNL A   1      38.526  28.243  30.043  1.00  0.00     0.031 C 
ATOM     50  C   UNL A   1      44.048  25.596  26.861  1.00  0.00     0.029 A 
ATOM     51  C   UNL A   1      44.195  26.946  27.375  1.00  0.00     0.049 A 
ATOM     52  H   UNL A   1      42.828  28.028  28.524  1.00  0.00     0.167 HD
ATOM     53  C   UNL A   1      39.683  30.426  30.367  1.00  0.00     0.034 A 
ATOM     54  C   UNL A   1      45.279  27.712  27.157  1.00  0.00     0.034 A 
ATOM     55  C   UNL A   1      40.825  31.304  30.259  1.00  0.00     0.049 A 
ATOM     56  C   UNL A   1      45.285  29.113  27.674  1.00  0.00     0.074 A 
ATOM     57  C   UNL A   1      40.956  32.608  30.709  1.00  0.00     0.029 A 
ATOM     58  N   UNL A   1      42.035  30.972  29.664  1.00  0.00    -0.354 N 
ATOM     59  N   UNL A   1      44.350  29.743  28.340  1.00  0.00    -0.248 NA
ATOM     60  C   UNL A   1      46.492  29.907  27.419  1.00  0.00     0.031 C 
ATOM     61  C   UNL A   1      42.236  33.068  30.374  1.00  0.00     0.029 A 
ATOM     62  C   UNL A   1      42.913  32.044  29.734  1.00  0.00     0.049 A 
ATOM     63  H   UNL A   1      42.239  30.102  29.252  1.00  0.00     0.167 HD
ATOM     64  C   UNL A   1      44.857  31.007  28.596  1.00  0.00     0.074 A 
ATOM     65  C   UNL A   1      46.197  31.041  28.042  1.00  0.00     0.031 C 
ATOM     66  C   UNL A   1      44.257  32.053  29.214  1.00  0.00     0.034 A 
BRANCH  53  67
ATOM     67  C   UNL A   1      38.448  30.971  31.046  1.00  0.00     0.023 A 
ATOM     68  C   UNL A   1      38.361  30.964  32.452  1.00  0.00     0.012 A 
ATOM     69  C   UNL A   1      37.414  31.573  30.297  1.00  0.00     0.148 A 
ATOM     70  C   UNL A   1      37.256  31.520  33.101  1.00  0.00     0.002 A 
ATOM     71  C   UNL A   1      36.333  32.157  30.952  1.00  0.00     0.091 A 
ATOM     72  F   UNL A   1      37.505  31.567  28.960  1.00  0.00    -0.205 F 
ATOM     73  C   UNL A   1      36.248  32.123  32.352  1.00  0.00     0.022 A 
BRANCH  71  74
ATOM     74  S   UNL A   1      35.021  33.023  30.078  1.00  0.00     0.127 S 
ATOM     75  O   UNL A   1      34.512  31.975  29.194  1.00  0.00    -0.237 OA
ATOM     76  O   UNL A   1      34.114  33.395  31.165  1.00  0.00    -0.237 OA
ATOM     77  O   UNL A   1      35.660  34.150  29.412  1.00  0.00    -0.744 OA
ENDBRANCH  71  74
ENDBRANCH  53  67
BRANCH  54  78
ATOM     78  C   UNL A   1      46.429  27.144  26.398  1.00  0.00     0.023 A 
ATOM     79  C   UNL A   1      46.476  27.286  25.000  1.00  0.00     0.012 A 
ATOM     80  C   UNL A   1      47.527  26.562  27.068  1.00  0.00     0.148 A 
ATOM     81  C   UNL A   1      47.591  26.854  24.281  1.00  0.00     0.002 A 
ATOM     82  C   UNL A   1      48.663  26.203  26.354  1.00  0.00     0.091 A 
ATOM     83  F   UNL A   1      47.458  26.419  28.399  1.00  0.00    -0.205 F 
ATOM     84  C   UNL A   1      48.691  26.333  24.958  1.00  0.00     0.022 A 
BRANCH  82  85
ATOM     85  S   UNL A   1      50.181  25.704  27.177  1.00  0.00     0.127 S 
ATOM     86  O   UNL A   1      50.262  26.671  28.268  1.00  0.00    -0.237 OA
ATOM     87  O   UNL A   1      49.874  24.334  27.590  1.00  0.00    -0.237 OA
ATOM     88  O   UNL A   1      51.219  25.797  26.159  1.00  0.00    -0.744 OA
ENDBRANCH  82  85
ENDBRANCH  54  78
BRANCH  66  89
ATOM     89  C   UNL A   1      45.061  33.318  29.340  1.00  0.00     0.023 A 
ATOM     90  C   UNL A   1      45.915  33.494  30.446  1.00  0.00     0.012 A 
ATOM     91  C   UNL A   1      44.991  34.317  28.350  1.00  0.00     0.148 A 
ATOM     92  C   UNL A   1      46.666  34.661  30.582  1.00  0.00     0.002 A 
ATOM     93  C   UNL A   1      45.775  35.458  28.470  1.00  0.00     0.091 A 
ATOM     94  F   UNL A   1      44.149  34.142  27.321  1.00  0.00    -0.205 F 
ATOM     95  C   UNL A   1      46.604  35.637  29.590  1.00  0.00     0.022 A 
BRANCH  93  96
ATOM     96  S   UNL A   1      45.815  36.729  27.203  1.00  0.00     0.127 S 
ATOM     97  O   UNL A   1      46.470  36.030  26.098  1.00  0.00    -0.237 OA
ATOM     98  O   UNL A   1      44.394  37.005  26.992  1.00  0.00    -0.237 OA
ATOM     99  O   UNL A   1      46.565  37.839  27.775  1.00  0.00    -0.744 OA
ENDBRANCH  93  96
ENDBRANCH  66  89
ENDBRANCH  40  41
ENDBRANCH  33  35
ENDBRANCH  32  33
ENDBRANCH  31  32
ENDBRANCH   1  31
TORSDOF 18
ENDMDL
MODEL 2
REMARK VINA RESULT:     -12.8      0.600      2.064
REMARK SMILES C[C@@H](C(=O)OCCOC(=O)c1ccc(-c2c3nc(c(-c4cccc(S(=O)(=O)[O-])c4F)c4ccc([nH]4)c(-c4cccc(S(=O)(=O)[O-])c4F)c4nc(c(-c5cccc(S(=O)(=O)[O-])c5F)c5ccc2[nH]5)C=C4)C=C3)cc1)[N@@H+]1CCc2n[nH]c(C(c3ccccc3)c3ccccc3)c2C1
REMARK SMILES IDX 6 1 5 2 3 3 4 4 2 5 1 6 74 7 75 8 95 9 76 11 94 12 77 13
REMARK SMILES IDX 80 14 78 15 79 16 81 18 82 19 83 20 87 21 84 22 86 23 85 24
REMARK SMILES IDX 88 25 89 26 93 27 90 28 92 29 91 30 7 31 8 32 9 33 10 34
REMARK SMILES IDX 11 35 12 36 73 37 13 38 72 39 14 40 15 41 16 42 66 43 17 44
REMARK SMILES IDX 71 45 65 46 67 47 18 48 70 49 64 50 63 51 19 53 51 54 31 55
REMARK SMILES IDX 50 56 32 57 35 58 49 59 68 60 33 61 34 62 48 64 69 65 36 66
REMARK SMILES IDX 20 67 21 68 29 69 22 70 24 71 30 72 23 73 25 74 26 75 27 76
REMARK SMILES IDX 28 77 52 78 53 79 61 80 54 81 56 82 62 83 55 84 57 85 58 86
REMARK SMILES IDX 59 87 60 88 37 89 38 90 46 91 39 92 41 93 47 94 40 95 42 96
REMARK SMILES IDX 43 97 44 98 45 99
REMARK H PARENT 74 10 79 17 67 52 35 63
REMARK Flexibility Score: inf
ROOT
ATOM      1  C   UNL A   1      35.576  20.448  25.150  1.00  0.00     0.274 C 
ENDROOT
BRANCH   1   2
ATOM      2  O   UNL A   1      35.440  21.621  26.014  1.00  0.00    -0.458 OA
BRANCH   2   3
ATOM      3  C   UNL A   1      34.223  21.812  26.622  1.00  0.00     0.364 C 
ATOM      4  O   UNL A   1      33.812  21.084  27.522  1.00  0.00    -0.245 OA
BRANCH   3   5
ATOM      5  C   UNL A   1      33.410  23.051  26.079  1.00  0.00     0.292 C 
ATOM      6  C   UNL A   1      32.046  23.173  26.752  1.00  0.00     0.088 C 
BRANCH   5   7
ATOM      7  N   UNL A   1      33.419  23.176  24.599  1.00  0.00    -0.319 N 
ATOM      8  C   UNL A   1      34.550  23.865  23.910  1.00  0.00     0.269 C 
ATOM      9  C   UNL A   1      32.163  23.594  24.036  1.00  0.00     0.303 C 
ATOM     10  H   UNL A   1      33.597  22.194  24.388  1.00  0.00     0.349 HD
ATOM     11  C   UNL A   1      34.191  24.677  22.579  1.00  0.00     0.120 C 
ATOM     12  C   UNL A   1      32.081  25.065  23.874  1.00  0.00     0.052 A 
ATOM     13  C   UNL A   1      32.883  25.406  22.759  1.00  0.00     0.077 A 
ATOM     14  C   UNL A   1      30.996  25.906  23.725  1.00  0.00     0.056 A 
ATOM     15  N   UNL A   1      32.067  25.767  21.749  1.00  0.00    -0.180 NA
ATOM     16  N   UNL A   1      30.843  25.850  22.357  1.00  0.00    -0.281 N 
ATOM     17  H   UNL A   1      29.979  25.866  21.885  1.00  0.00     0.190 HD
BRANCH  14  18
ATOM     18  C   UNL A   1      30.435  27.040  24.569  1.00  0.00     0.098 C 
BRANCH  18  19
ATOM     19  C   UNL A   1      31.504  27.739  25.443  1.00  0.00    -0.035 A 
ATOM     20  C   UNL A   1      31.366  27.785  26.841  1.00  0.00     0.005 A 
ATOM     21  C   UNL A   1      32.614  28.411  24.891  1.00  0.00     0.005 A 
ATOM     22  C   UNL A   1      32.305  28.465  27.632  1.00  0.00     0.000 A 
ATOM     23  C   UNL A   1      33.553  29.074  25.673  1.00  0.00     0.000 A 
ATOM     24  C   UNL A   1      33.398  29.107  27.048  1.00  0.00     0.000 A 
ENDBRANCH  18  19
BRANCH  18  25
ATOM     25  C   UNL A   1      29.606  28.015  23.727  1.00  0.00    -0.035 A 
ATOM     26  C   UNL A   1      28.245  27.785  23.465  1.00  0.00     0.005 A 
ATOM     27  C   UNL A   1      30.172  29.219  23.270  1.00  0.00     0.005 A 
ATOM     28  C   UNL A   1      27.462  28.745  22.825  1.00  0.00     0.000 A 
ATOM     29  C   UNL A   1      29.383  30.185  22.637  1.00  0.00     0.000 A 
ATOM     30  C   UNL A   1      28.026  29.953  22.430  1.00  0.00     0.000 A 
ENDBRANCH  18  25
ENDBRANCH  14  18
ENDBRANCH   5   7
ENDBRANCH   3   5
ENDBRANCH   2   3
ENDBRANCH   1   2
BRANCH   1  31
ATOM     31  C   UNL A   1      37.069  20.093  24.862  1.00  0.00     0.275 C 
BRANCH  31  32
ATOM     32  O   UNL A   1      37.942  21.234  25.073  1.00  0.00    -0.458 OA
BRANCH  32  33
ATOM     33  C   UNL A   1      39.069  21.016  25.825  1.00  0.00     0.338 C 
ATOM     34  O   UNL A   1      39.692  19.976  25.875  1.00  0.00    -0.246 OA
BRANCH  33  35
ATOM     35  C   UNL A   1      39.536  22.288  26.480  1.00  0.00     0.060 A 
ATOM     36  C   UNL A   1      40.575  22.279  27.415  1.00  0.00     0.016 A 
ATOM     37  C   UNL A   1      38.854  23.494  26.257  1.00  0.00     0.016 A 
ATOM     38  C   UNL A   1      40.880  23.421  28.158  1.00  0.00     0.010 A 
ATOM     39  C   UNL A   1      39.269  24.682  26.894  1.00  0.00     0.010 A 
ATOM     40  C   UNL A   1      40.319  24.664  27.824  1.00  0.00    -0.014 A 
BRANCH  40  41
ATOM     41  C   UNL A   1      41.028  25.917  28.238  1.00  0.00     0.031 A 
ATOM     42  C   UNL A   1      40.373  27.032  29.010  1.00  0.00     0.074 A 
ATOM     43  C   UNL A   1      42.306  26.065  27.822  1.00  0.00     0.049 A 
ATOM     44  N   UNL A   1      40.834  28.234  29.258  1.00  0.00    -0.248 NA
ATOM     45  C   UNL A   1      39.042  26.775  29.575  1.00  0.00     0.031 C 
ATOM     46  C   UNL A   1      43.053  25.073  27.039  1.00  0.00     0.029 A 
ATOM     47  N   UNL A   1      43.204  27.093  27.973  1.00  0.00    -0.354 N 
ATOM     48  C   UNL A   1      39.831  28.903  29.953  1.00  0.00     0.074 A 
ATOM     49  C   UNL A   1      38.745  27.955  30.116  1.00  0.00     0.031 C 
ATOM     50  C   UNL A   1      44.293  25.515  26.816  1.00  0.00     0.029 A 
ATOM     51  C   UNL A   1      44.397  26.873  27.319  1.00  0.00     0.049 A 
ATOM     52  H   UNL A   1      43.015  27.906  28.495  1.00  0.00     0.167 HD
ATOM     53  C   UNL A   1      39.820  30.185  30.401  1.00  0.00     0.034 A 
ATOM     54  C   UNL A   1      45.444  27.682  27.071  1.00  0.00     0.034 A 
ATOM     55  C   UNL A   1      40.922  31.108  30.262  1.00  0.00     0.049 A 
ATOM     56  C   UNL A   1      45.404  29.084  27.581  1.00  0.00     0.074 A 
ATOM     57  C   UNL A   1      41.010  32.419  30.702  1.00  0.00     0.029 A 
ATOM     58  N   UNL A   1      42.130  30.822  29.639  1.00  0.00    -0.354 N 
ATOM     59  N   UNL A   1      44.460  29.680  28.266  1.00  0.00    -0.248 NA
ATOM     60  C   UNL A   1      46.571  29.926  27.293  1.00  0.00     0.031 C 
ATOM     61  C   UNL A   1      42.262  32.929  30.334  1.00  0.00     0.029 A 
ATOM     62  C   UNL A   1      42.965  31.929  29.682  1.00  0.00     0.049 A 
ATOM     63  H   UNL A   1      42.359  29.959  29.226  1.00  0.00     0.167 HD
ATOM     64  C   UNL A   1      44.922  30.966  28.504  1.00  0.00     0.074 A 
ATOM     65  C   UNL A   1      46.246  31.050  27.917  1.00  0.00     0.031 C 
ATOM     66  C   UNL A   1      44.294  31.989  29.131  1.00  0.00     0.034 A 
BRANCH  53  67
ATOM     67  C   UNL A   1      38.580  30.684  31.107  1.00  0.00     0.023 A 
ATOM     68  C   UNL A   1      38.494  30.607  32.511  1.00  0.00     0.012 A 
ATOM     69  C   UNL A   1      37.539  31.312  30.389  1.00  0.00     0.148 A 
ATOM     70  C   UNL A   1      37.385  31.119  33.187  1.00  0.00     0.002 A 
ATOM     71  C   UNL A   1      36.453  31.851  31.073  1.00  0.00     0.091 A 
ATOM     72  F   UNL A   1      37.629  31.372  29.054  1.00  0.00    -0.205 F 
ATOM     73  C   UNL A   1      36.370  31.748  32.470  1.00  0.00     0.022 A 
BRANCH  71  74
ATOM     74  S   UNL A   1      35.131  32.746  30.243  1.00  0.00     0.127 S 
ATOM     75  O   UNL A   1      35.849  33.899  29.701  1.00  0.00    -0.237 OA
ATOM     76  O   UNL A   1      34.682  31.782  29.239  1.00  0.00    -0.237 OA
ATOM     77  O   UNL A   1      34.146  33.049  31.273  1.00  0.00    -0.744 OA
ENDBRANCH  71  74
ENDBRANCH  53  67
BRANCH  54  78
ATOM     78  C   UNL A   1      46.598  27.156  26.288  1.00  0.00     0.023 A 
ATOM     79  C   UNL A   1      46.672  27.411  24.907  1.00  0.00     0.012 A 
ATOM     80  C   UNL A   1      47.673  26.502  26.926  1.00  0.00     0.148 A 
ATOM     81  C   UNL A   1      47.793  27.018  24.174  1.00  0.00     0.002 A 
ATOM     82  C   UNL A   1      48.815  26.181  26.205  1.00  0.00     0.091 A 
ATOM     83  F   UNL A   1      47.577  26.251  28.240  1.00  0.00    -0.205 F 
ATOM     84  C   UNL A   1      48.871  26.423  24.824  1.00  0.00     0.022 A 
BRANCH  82  85
ATOM     85  S   UNL A   1      50.310  25.589  27.009  1.00  0.00     0.127 S 
ATOM     86  O   UNL A   1      50.589  26.667  27.953  1.00  0.00    -0.237 OA
ATOM     87  O   UNL A   1      49.858  24.337  27.618  1.00  0.00    -0.237 OA
ATOM     88  O   UNL A   1      51.279  25.409  25.936  1.00  0.00    -0.744 OA
ENDBRANCH  82  85
ENDBRANCH  54  78
BRANCH  66  89
ATOM     89  C   UNL A   1      45.049  33.287  29.231  1.00  0.00     0.023 A 
ATOM     90  C   UNL A   1      45.851  33.542  30.361  1.00  0.00     0.012 A 
ATOM     91  C   UNL A   1      44.986  34.239  28.195  1.00  0.00     0.148 A 
ATOM     92  C   UNL A   1      46.555  34.739  30.473  1.00  0.00     0.002 A 
ATOM     93  C   UNL A   1      45.725  35.411  28.294  1.00  0.00     0.091 A 
ATOM     94  F   UNL A   1      44.194  33.988  27.142  1.00  0.00    -0.205 F 
ATOM     95  C   UNL A   1      46.501  35.668  29.437  1.00  0.00     0.022 A 
BRANCH  93  96
ATOM     96  S   UNL A   1      45.774  36.626  26.973  1.00  0.00     0.127 S 
ATOM     97  O   UNL A   1      46.310  35.840  25.863  1.00  0.00    -0.237 OA
ATOM     98  O   UNL A   1      44.364  36.993  26.835  1.00  0.00    -0.237 OA
ATOM     99  O   UNL A   1      46.631  37.701  27.453  1.00  0.00    -0.744 OA
ENDBRANCH  93  96
ENDBRANCH  66  89
ENDBRANCH  40  41
ENDBRANCH  33  35
ENDBRANCH  32  33
ENDBRANCH  31  32
ENDBRANCH   1  31
TORSDOF 18
ENDMDL
MODEL 3
REMARK VINA RESULT:     -12.3      1.552      2.343
REMARK SMILES C[C@@H](C(=O)OCCOC(=O)c1ccc(-c2c3nc(c(-c4cccc(S(=O)(=O)[O-])c4F)c4ccc([nH]4)c(-c4cccc(S(=O)(=O)[O-])c4F)c4nc(c(-c5cccc(S(=O)(=O)[O-])c5F)c5ccc2[nH]5)C=C4)C=C3)cc1)[N@@H+]1CCc2n[nH]c(C(c3ccccc3)c3ccccc3)c2C1
REMARK SMILES IDX 6 1 5 2 3 3 4 4 2 5 1 6 74 7 75 8 95 9 76 11 94 12 77 13
REMARK SMILES IDX 80 14 78 15 79 16 81 18 82 19 83 20 87 21 84 22 86 23 85 24
REMARK SMILES IDX 88 25 89 26 93 27 90 28 92 29 91 30 7 31 8 32 9 33 10 34
REMARK SMILES IDX 11 35 12 36 73 37 13 38 72 39 14 40 15 41 16 42 66 43 17 44
REMARK SMILES IDX 71 45 65 46 67 47 18 48 70 49 64 50 63 51 19 53 51 54 31 55
REMARK SMILES IDX 50 56 32 57 35 58 49 59 68 60 33 61 34 62 48 64 69 65 36 66
REMARK SMILES IDX 20 67 21 68 29 69 22 70 24 71 30 72 23 73 25 74 26 75 27 76
REMARK SMILES IDX 28 77 52 78 53 79 61 80 54 81 56 82 62 83 55 84 57 85 58 86
REMARK SMILES IDX 59 87 60 88 37 89 38 90 46 91 39 92 41 93 47 94 40 95 42 96
REMARK SMILES IDX 43 97 44 98 45 99
REMARK H PARENT 74 10 79 17 67 52 35 63
REMARK Flexibility Score: inf
ROOT
ATOM      1  C   UNL A   1      36.021  22.224  25.777  1.00  0.00     0.274 C 
ENDROOT
BRANCH   1   2
ATOM      2  O   UNL A   1      35.202  22.784  24.701  1.00  0.00    -0.458 OA
BRANCH   2   3
ATOM      3  C   UNL A   1      33.991  22.181  24.460  1.00  0.00     0.364 C 
ATOM      4  O   UNL A   1      33.366  22.345  23.416  1.00  0.00    -0.245 OA
BRANCH   3   5
ATOM      5  C   UNL A   1      33.482  21.251  25.630  1.00  0.00     0.292 C 
ATOM      6  C   UNL A   1      33.366  19.796  25.186  1.00  0.00     0.088 C 
BRANCH   5   7
ATOM      7  N   UNL A   1      32.320  21.799  26.375  1.00  0.00    -0.319 N 
ATOM      8  C   UNL A   1      30.960  21.788  25.759  1.00  0.00     0.269 C 
ATOM      9  C   UNL A   1      32.571  23.066  27.007  1.00  0.00     0.303 C 
ATOM     10  H   UNL A   1      32.252  21.057  27.072  1.00  0.00     0.349 HD
ATOM     11  C   UNL A   1      29.995  23.009  26.131  1.00  0.00     0.120 C 
ATOM     12  C   UNL A   1      32.194  24.210  26.145  1.00  0.00     0.052 A 
ATOM     13  C   UNL A   1      30.782  24.295  26.161  1.00  0.00     0.077 A 
ATOM     14  C   UNL A   1      32.569  25.539  26.177  1.00  0.00     0.056 A 
ATOM     15  N   UNL A   1      30.434  25.385  26.874  1.00  0.00    -0.180 NA
ATOM     16  N   UNL A   1      31.630  26.026  27.059  1.00  0.00    -0.281 N 
ATOM     17  H   UNL A   1      31.793  26.732  27.725  1.00  0.00     0.190 HD
BRANCH  14  18
ATOM     18  C   UNL A   1      33.324  26.430  25.203  1.00  0.00     0.098 C 
BRANCH  18  19
ATOM     19  C   UNL A   1      32.831  26.296  23.741  1.00  0.00    -0.035 A 
ATOM     20  C   UNL A   1      31.505  26.612  23.402  1.00  0.00     0.005 A 
ATOM     21  C   UNL A   1      33.650  25.796  22.709  1.00  0.00     0.005 A 
ATOM     22  C   UNL A   1      31.040  26.439  22.089  1.00  0.00     0.000 A 
ATOM     23  C   UNL A   1      33.197  25.637  21.403  1.00  0.00     0.000 A 
ATOM     24  C   UNL A   1      31.886  25.954  21.092  1.00  0.00     0.000 A 
ENDBRANCH  18  19
BRANCH  18  25
ATOM     25  C   UNL A   1      33.381  27.881  25.693  1.00  0.00    -0.035 A 
ATOM     26  C   UNL A   1      32.378  28.808  25.361  1.00  0.00     0.005 A 
ATOM     27  C   UNL A   1      34.403  28.297  26.566  1.00  0.00     0.005 A 
ATOM     28  C   UNL A   1      32.359  30.082  25.927  1.00  0.00     0.000 A 
ATOM     29  C   UNL A   1      34.376  29.572  27.140  1.00  0.00     0.000 A 
ATOM     30  C   UNL A   1      33.346  30.457  26.832  1.00  0.00     0.000 A 
ENDBRANCH  18  25
ENDBRANCH  14  18
ENDBRANCH   5   7
ENDBRANCH   3   5
ENDBRANCH   2   3
ENDBRANCH   1   2
BRANCH   1  31
ATOM     31  C   UNL A   1      36.872  21.005  25.300  1.00  0.00     0.275 C 
BRANCH  31  32
ATOM     32  O   UNL A   1      38.235  21.393  24.985  1.00  0.00    -0.458 OA
BRANCH  32  33
ATOM     33  C   UNL A   1      39.181  21.163  25.953  1.00  0.00     0.338 C 
ATOM     34  O   UNL A   1      39.687  20.089  26.203  1.00  0.00    -0.246 OA
BRANCH  33  35
ATOM     35  C   UNL A   1      39.633  22.454  26.583  1.00  0.00     0.060 A 
ATOM     36  C   UNL A   1      40.605  22.464  27.588  1.00  0.00     0.016 A 
ATOM     37  C   UNL A   1      38.998  23.663  26.262  1.00  0.00     0.016 A 
ATOM     38  C   UNL A   1      40.887  23.632  28.300  1.00  0.00     0.010 A 
ATOM     39  C   UNL A   1      39.398  24.869  26.873  1.00  0.00     0.010 A 
ATOM     40  C   UNL A   1      40.381  24.870  27.873  1.00  0.00    -0.014 A 
BRANCH  40  41
ATOM     41  C   UNL A   1      41.091  26.125  28.281  1.00  0.00     0.031 A 
ATOM     42  C   UNL A   1      40.458  27.212  29.108  1.00  0.00     0.074 A 
ATOM     43  C   UNL A   1      42.345  26.301  27.809  1.00  0.00     0.049 A 
ATOM     44  N   UNL A   1      40.912  28.416  29.360  1.00  0.00    -0.248 NA
ATOM     45  C   UNL A   1      39.159  26.924  29.730  1.00  0.00     0.031 C 
ATOM     46  C   UNL A   1      43.068  25.338  26.970  1.00  0.00     0.029 A 
ATOM     47  N   UNL A   1      43.235  27.339  27.940  1.00  0.00    -0.354 N 
ATOM     48  C   UNL A   1      39.935  29.055  30.116  1.00  0.00     0.074 A 
ATOM     49  C   UNL A   1      38.871  28.087  30.310  1.00  0.00     0.031 C 
ATOM     50  C   UNL A   1      44.290  25.803  26.698  1.00  0.00     0.029 A 
ATOM     51  C   UNL A   1      44.398  27.152  27.225  1.00  0.00     0.049 A 
ATOM     52  H   UNL A   1      43.059  28.138  28.488  1.00  0.00     0.167 HD
ATOM     53  C   UNL A   1      39.926  30.326  30.593  1.00  0.00     0.034 A 
ATOM     54  C   UNL A   1      45.420  27.981  26.946  1.00  0.00     0.034 A 
ATOM     55  C   UNL A   1      41.008  31.269  30.421  1.00  0.00     0.049 A 
ATOM     56  C   UNL A   1      45.385  29.372  27.487  1.00  0.00     0.074 A 
ATOM     57  C   UNL A   1      41.098  32.572  30.886  1.00  0.00     0.029 A 
ATOM     58  N   UNL A   1      42.188  31.015  29.736  1.00  0.00    -0.354 N 
ATOM     59  N   UNL A   1      44.467  29.938  28.229  1.00  0.00    -0.248 NA
ATOM     60  C   UNL A   1      46.525  30.237  27.163  1.00  0.00     0.031 C 
ATOM     61  C   UNL A   1      42.323  33.108  30.470  1.00  0.00     0.029 A 
ATOM     62  C   UNL A   1      43.008  32.133  29.764  1.00  0.00     0.049 A 
ATOM     63  H   UNL A   1      42.410  30.164  29.294  1.00  0.00     0.167 HD
ATOM     64  C   UNL A   1      44.921  31.225  28.473  1.00  0.00     0.074 A 
ATOM     65  C   UNL A   1      46.214  31.343  27.826  1.00  0.00     0.031 C 
ATOM     66  C   UNL A   1      44.309  32.226  29.151  1.00  0.00     0.034 A 
BRANCH  53  67
ATOM     67  C   UNL A   1      38.714  30.791  31.367  1.00  0.00     0.023 A 
ATOM     68  C   UNL A   1      38.706  30.704  32.773  1.00  0.00     0.012 A 
ATOM     69  C   UNL A   1      37.622  31.398  30.710  1.00  0.00     0.148 A 
ATOM     70  C   UNL A   1      37.622  31.185  33.510  1.00  0.00     0.002 A 
ATOM     71  C   UNL A   1      36.561  31.907  31.454  1.00  0.00     0.091 A 
ATOM     72  F   UNL A   1      37.639  31.468  29.372  1.00  0.00    -0.205 F 
ATOM     73  C   UNL A   1      36.556  31.794  32.853  1.00  0.00     0.022 A 
BRANCH  71  74
ATOM     74  S   UNL A   1      35.176  32.776  30.703  1.00  0.00     0.127 S 
ATOM     75  O   UNL A   1      34.188  32.743  31.780  1.00  0.00    -0.237 OA
ATOM     76  O   UNL A   1      35.743  34.098  30.438  1.00  0.00    -0.237 OA
ATOM     77  O   UNL A   1      34.828  32.016  29.510  1.00  0.00    -0.744 OA
ENDBRANCH  71  74
ENDBRANCH  53  67
BRANCH  54  78
ATOM     78  C   UNL A   1      46.543  27.490  26.098  1.00  0.00     0.023 A 
ATOM     79  C   UNL A   1      46.569  27.810  24.728  1.00  0.00     0.012 A 
ATOM     80  C   UNL A   1      47.638  26.803  26.664  1.00  0.00     0.148 A 
ATOM     81  C   UNL A   1      47.661  27.450  23.938  1.00  0.00     0.002 A 
ATOM     82  C   UNL A   1      48.752  26.513  25.888  1.00  0.00     0.091 A 
ATOM     83  F   UNL A   1      47.587  26.490  27.968  1.00  0.00    -0.205 F 
ATOM     84  C   UNL A   1      48.759  26.821  24.520  1.00  0.00     0.022 A 
BRANCH  82  85
ATOM     85  S   UNL A   1      50.271  25.879  26.610  1.00  0.00     0.127 S 
ATOM     86  O   UNL A   1      51.142  25.789  25.441  1.00  0.00    -0.237 OA
ATOM     87  O   UNL A   1      50.625  26.933  27.562  1.00  0.00    -0.237 OA
ATOM     88  O   UNL A   1      49.903  24.616  27.235  1.00  0.00    -0.744 OA
ENDBRANCH  82  85
ENDBRANCH  54  78
BRANCH  66  89
ATOM     89  C   UNL A   1      45.049  33.533  29.244  1.00  0.00     0.023 A 
ATOM     90  C   UNL A   1      45.813  33.821  30.392  1.00  0.00     0.012 A 
ATOM     91  C   UNL A   1      45.009  34.459  28.185  1.00  0.00     0.148 A 
ATOM     92  C   UNL A   1      46.503  35.027  30.498  1.00  0.00     0.002 A 
ATOM     93  C   UNL A   1      45.735  35.640  28.279  1.00  0.00     0.091 A 
ATOM     94  F   UNL A   1      44.252  34.178  27.115  1.00  0.00    -0.205 F 
ATOM     95  C   UNL A   1      46.473  35.931  29.439  1.00  0.00     0.022 A 
BRANCH  93  96
ATOM     96  S   UNL A   1      45.814  36.826  26.932  1.00  0.00     0.127 S 
ATOM     97  O   UNL A   1      44.425  37.277  26.849  1.00  0.00    -0.237 OA
ATOM     98  O   UNL A   1      46.749  37.825  27.451  1.00  0.00    -0.237 OA
ATOM     99  O   UNL A   1      46.304  36.085  25.779  1.00  0.00    -0.744 OA
ENDBRANCH  93  96
ENDBRANCH  66  89
ENDBRANCH  40  41
ENDBRANCH  33  35
ENDBRANCH  32  33
ENDBRANCH  31  32
ENDBRANCH   1  31
TORSDOF 18
ENDMDL
