MODEL 1
REMARK VINA RESULT:     -13.2      0.000      0.000
REMARK SMILES O=C(C[C@]12CSc3[nH]c(=O)sc3[C@H]1c1cc(Cl)ccc1OC2=O)OCCOC(=O)c1ccc(-c2c3nc(c(-c4cccc(S(=O)(=O)[O-])c4F)c4ccc([nH]4)c(-c4cccc(S(=O)(=O)[O-])c4F)c4nc(c(-c5cccc(S(=O)(=O)[O-])c5F)c5ccc2[nH]5)C=C4)C=C3)cc1
REMARK SMILES IDX 26 1 25 2 24 3 2 4 1 5 3 6 4 7 5 8 13 9 22 10 6 11 12 12
REMARK SMILES IDX 14 13 21 14 23 15 7 16 11 17 15 18 20 19 8 20 9 21 16 22
REMARK SMILES IDX 19 23 10 25 17 26 18 27 27 28 28 29 29 30 30 31 31 32 92 33
REMARK SMILES IDX 32 34 91 35 33 36 34 37 35 38 85 39 36 40 90 41 84 42 86 43
REMARK SMILES IDX 37 44 89 45 83 46 82 47 38 49 70 50 50 51 69 52 51 53 54 54
REMARK SMILES IDX 68 55 87 56 52 57 53 58 67 60 88 61 55 62 39 63 40 64 48 65
REMARK SMILES IDX 41 66 43 67 49 68 42 69 44 70 45 71 46 72 47 73 71 74 72 75
REMARK SMILES IDX 80 76 73 77 75 78 81 79 74 80 76 81 77 82 78 83 79 84 56 85
REMARK SMILES IDX 57 86 65 87 58 88 60 89 66 90 59 91 61 92 62 93 63 94 64 95
REMARK H PARENT 8 24 86 48 54 59
REMARK Flexibility Score: inf
ROOT
ATOM      1  C   UNL A   1      33.532  30.346  26.475  1.00  0.00     0.275 C 
ENDROOT
BRANCH   1   2
ATOM      2  C   UNL A   1      33.416  28.944  25.842  1.00  0.00     0.274 C 
BRANCH   2   3
ATOM      3  O   UNL A   1      33.146  28.968  24.441  1.00  0.00    -0.462 OA
BRANCH   3   4
ATOM      4  C   UNL A   1      33.669  28.065  23.592  1.00  0.00     0.307 C 
ATOM      5  O   UNL A   1      33.894  28.391  22.433  1.00  0.00    -0.252 OA
BRANCH   4   6
ATOM      6  C   UNL A   1      33.833  26.637  24.043  1.00  0.00     0.143 C 
BRANCH   6   7
ATOM      7  C   UNL A   1      33.037  25.369  23.662  1.00  0.00     0.100 C 
ATOM      8  C   UNL A   1      31.641  25.891  23.251  1.00  0.00     0.097 C 
ATOM      9  C   UNL A   1      33.247  24.495  24.976  1.00  0.00     0.085 C 
ATOM     10  C   UNL A   1      33.342  24.325  22.574  1.00  0.00     0.319 C 
ATOM     11  S   UNL A   1      30.576  26.231  24.645  1.00  0.00    -0.106 SA
ATOM     12  C   UNL A   1      31.945  24.029  25.562  1.00  0.00     0.049 A 
ATOM     13  C   UNL A   1      34.634  23.747  24.882  1.00  0.00     0.006 A 
ATOM     14  O   UNL A   1      34.625  23.906  22.434  1.00  0.00    -0.426 OA
ATOM     15  O   UNL A   1      32.489  23.758  21.896  1.00  0.00    -0.251 OA
ATOM     16  C   UNL A   1      30.819  24.775  25.494  1.00  0.00     0.090 A 
ATOM     17  S   UNL A   1      31.748  22.791  26.771  1.00  0.00    -0.077 S 
ATOM     18  C   UNL A   1      35.512  23.613  25.978  1.00  0.00     0.028 A 
ATOM     19  C   UNL A   1      35.262  23.611  23.630  1.00  0.00     0.134 A 
ATOM     20  N   UNL A   1      29.814  24.394  26.313  1.00  0.00    -0.307 N 
ATOM     21  C   UNL A   1      30.078  23.335  27.140  1.00  0.00     0.305 A 
ATOM     22  C   UNL A   1      36.918  23.507  25.789  1.00  0.00     0.041 A 
ATOM     23  C   UNL A   1      36.629  23.337  23.439  1.00  0.00     0.049 A 
ATOM     24  H   UNL A   1      28.943  24.852  26.316  1.00  0.00     0.171 HD
ATOM     25  O   UNL A   1      29.357  22.833  27.964  1.00  0.00    -0.257 OA
ATOM     26  Cl  UNL A   1      38.000  23.760  27.112  1.00  0.00    -0.084 Cl
ATOM     27  C   UNL A   1      37.478  23.352  24.526  1.00  0.00     0.024 A 
ENDBRANCH   6   7
ENDBRANCH   4   6
ENDBRANCH   3   4
ENDBRANCH   2   3
ENDBRANCH   1   2
BRANCH   1  28
ATOM     28  O   UNL A   1      34.367  30.358  27.657  1.00  0.00    -0.458 OA
BRANCH  28  29
ATOM     29  C   UNL A   1      35.339  31.306  27.773  1.00  0.00     0.338 C 
ATOM     30  O   UNL A   1      35.196  32.491  27.538  1.00  0.00    -0.246 OA
BRANCH  29  31
ATOM     31  C   UNL A   1      36.485  30.716  28.531  1.00  0.00     0.060 A 
ATOM     32  C   UNL A   1      37.484  31.485  29.128  1.00  0.00     0.016 A 
ATOM     33  C   UNL A   1      36.659  29.336  28.459  1.00  0.00     0.016 A 
ATOM     34  C   UNL A   1      38.742  30.930  29.383  1.00  0.00     0.010 A 
ATOM     35  C   UNL A   1      37.895  28.768  28.773  1.00  0.00     0.010 A 
ATOM     36  C   UNL A   1      38.983  29.578  29.108  1.00  0.00    -0.014 A 
BRANCH  36  37
ATOM     37  C   UNL A   1      40.344  29.020  29.316  1.00  0.00     0.031 A 
ATOM     38  C   UNL A   1      40.688  28.827  30.761  1.00  0.00     0.074 A 
ATOM     39  C   UNL A   1      41.142  28.605  28.295  1.00  0.00     0.049 A 
ATOM     40  N   UNL A   1      41.723  29.255  31.413  1.00  0.00    -0.248 NA
ATOM     41  C   UNL A   1      39.652  28.228  31.629  1.00  0.00     0.031 C 
ATOM     42  C   UNL A   1      40.803  28.636  26.869  1.00  0.00     0.029 A 
ATOM     43  N   UNL A   1      42.346  27.938  28.283  1.00  0.00    -0.354 N 
ATOM     44  C   UNL A   1      41.573  28.747  32.708  1.00  0.00     0.074 A 
ATOM     45  C   UNL A   1      40.208  28.323  32.836  1.00  0.00     0.031 C 
ATOM     46  C   UNL A   1      41.588  27.779  26.187  1.00  0.00     0.029 A 
ATOM     47  C   UNL A   1      42.557  27.209  27.097  1.00  0.00     0.049 A 
ATOM     48  H   UNL A   1      42.993  27.967  29.025  1.00  0.00     0.167 HD
ATOM     49  C   UNL A   1      42.644  28.384  33.463  1.00  0.00     0.034 A 
ATOM     50  C   UNL A   1      43.388  26.148  26.898  1.00  0.00     0.034 A 
ATOM     51  C   UNL A   1      43.863  28.954  32.978  1.00  0.00     0.049 A 
ATOM     52  C   UNL A   1      44.408  26.205  27.960  1.00  0.00     0.074 A 
ATOM     53  C   UNL A   1      44.509  30.166  33.034  1.00  0.00     0.029 A 
ATOM     54  N   UNL A   1      44.427  28.222  31.971  1.00  0.00    -0.354 N 
ATOM     55  N   UNL A   1      45.310  27.140  28.041  1.00  0.00    -0.248 NA
ATOM     56  C   UNL A   1      44.232  25.385  29.151  1.00  0.00     0.031 C 
ATOM     57  C   UNL A   1      45.389  30.193  31.914  1.00  0.00     0.029 A 
ATOM     58  C   UNL A   1      45.280  28.984  31.229  1.00  0.00     0.049 A 
ATOM     59  H   UNL A   1      44.241  27.270  31.804  1.00  0.00     0.167 HD
ATOM     60  C   UNL A   1      45.464  27.320  29.401  1.00  0.00     0.074 A 
ATOM     61  C   UNL A   1      44.935  26.112  30.022  1.00  0.00     0.031 C 
ATOM     62  C   UNL A   1      45.686  28.562  29.910  1.00  0.00     0.034 A 
BRANCH  49  63
ATOM     63  C   UNL A   1      42.672  27.117  34.295  1.00  0.00     0.023 A 
ATOM     64  C   UNL A   1      42.281  27.187  35.649  1.00  0.00     0.012 A 
ATOM     65  C   UNL A   1      43.348  25.942  33.886  1.00  0.00     0.148 A 
ATOM     66  C   UNL A   1      42.530  26.131  36.537  1.00  0.00     0.002 A 
ATOM     67  C   UNL A   1      43.527  24.867  34.748  1.00  0.00     0.091 A 
ATOM     68  F   UNL A   1      43.957  25.912  32.695  1.00  0.00    -0.205 F 
ATOM     69  C   UNL A   1      43.135  24.962  36.083  1.00  0.00     0.022 A 
BRANCH  67  70
ATOM     70  S   UNL A   1      44.291  23.335  34.200  1.00  0.00     0.127 S 
ATOM     71  O   UNL A   1      44.200  22.514  35.404  1.00  0.00    -0.237 OA
ATOM     72  O   UNL A   1      43.406  22.936  33.105  1.00  0.00    -0.237 OA
ATOM     73  O   UNL A   1      45.636  23.703  33.776  1.00  0.00    -0.744 OA
ENDBRANCH  67  70
ENDBRANCH  49  63
BRANCH  50  74
ATOM     74  C   UNL A   1      43.253  24.926  26.044  1.00  0.00     0.023 A 
ATOM     75  C   UNL A   1      44.175  24.717  24.988  1.00  0.00     0.012 A 
ATOM     76  C   UNL A   1      42.461  23.825  26.434  1.00  0.00     0.148 A 
ATOM     77  C   UNL A   1      44.367  23.448  24.419  1.00  0.00     0.002 A 
ATOM     78  C   UNL A   1      42.646  22.568  25.858  1.00  0.00     0.091 A 
ATOM     79  F   UNL A   1      41.590  23.974  27.438  1.00  0.00    -0.205 F 
ATOM     80  C   UNL A   1      43.616  22.370  24.869  1.00  0.00     0.022 A 
BRANCH  78  81
ATOM     81  S   UNL A   1      41.713  21.128  26.400  1.00  0.00     0.127 S 
ATOM     82  O   UNL A   1      40.334  21.534  26.127  1.00  0.00    -0.237 OA
ATOM     83  O   UNL A   1      42.229  20.084  25.520  1.00  0.00    -0.237 OA
ATOM     84  O   UNL A   1      42.018  20.970  27.817  1.00  0.00    -0.744 OA
ENDBRANCH  78  81
ENDBRANCH  50  74
BRANCH  62  85
ATOM     85  C   UNL A   1      46.221  29.618  28.993  1.00  0.00     0.023 A 
ATOM     86  C   UNL A   1      47.582  29.717  28.643  1.00  0.00     0.012 A 
ATOM     87  C   UNL A   1      45.279  30.434  28.349  1.00  0.00     0.148 A 
ATOM     88  C   UNL A   1      47.990  30.612  27.649  1.00  0.00     0.002 A 
ATOM     89  C   UNL A   1      45.682  31.290  27.337  1.00  0.00     0.091 A 
ATOM     90  F   UNL A   1      43.993  30.316  28.711  1.00  0.00    -0.205 F 
ATOM     91  C   UNL A   1      47.037  31.382  26.982  1.00  0.00     0.022 A 
BRANCH  89  92
ATOM     92  S   UNL A   1      44.498  32.242  26.386  1.00  0.00     0.127 S 
ATOM     93  O   UNL A   1      45.321  32.738  25.285  1.00  0.00    -0.237 OA
ATOM     94  O   UNL A   1      43.519  31.221  26.010  1.00  0.00    -0.237 OA
ATOM     95  O   UNL A   1      43.982  33.267  27.284  1.00  0.00    -0.744 OA
ENDBRANCH  89  92
ENDBRANCH  62  85
ENDBRANCH  36  37
ENDBRANCH  29  31
ENDBRANCH  28  29
ENDBRANCH   1  28
TORSDOF 15
ENDMDL
MODEL 2
REMARK VINA RESULT:     -13.0      2.310      2.885
REMARK SMILES O=C(C[C@]12CSc3[nH]c(=O)sc3[C@H]1c1cc(Cl)ccc1OC2=O)OCCOC(=O)c1ccc(-c2c3nc(c(-c4cccc(S(=O)(=O)[O-])c4F)c4ccc([nH]4)c(-c4cccc(S(=O)(=O)[O-])c4F)c4nc(c(-c5cccc(S(=O)(=O)[O-])c5F)c5ccc2[nH]5)C=C4)C=C3)cc1
REMARK SMILES IDX 26 1 25 2 24 3 2 4 1 5 3 6 4 7 5 8 13 9 22 10 6 11 12 12
REMARK SMILES IDX 14 13 21 14 23 15 7 16 11 17 15 18 20 19 8 20 9 21 16 22
REMARK SMILES IDX 19 23 10 25 17 26 18 27 27 28 28 29 29 30 30 31 31 32 92 33
REMARK SMILES IDX 32 34 91 35 33 36 34 37 35 38 85 39 36 40 90 41 84 42 86 43
REMARK SMILES IDX 37 44 89 45 83 46 82 47 38 49 70 50 50 51 69 52 51 53 54 54
REMARK SMILES IDX 68 55 87 56 52 57 53 58 67 60 88 61 55 62 39 63 40 64 48 65
REMARK SMILES IDX 41 66 43 67 49 68 42 69 44 70 45 71 46 72 47 73 71 74 72 75
REMARK SMILES IDX 80 76 73 77 75 78 81 79 74 80 76 81 77 82 78 83 79 84 56 85
REMARK SMILES IDX 57 86 65 87 58 88 60 89 66 90 59 91 61 92 62 93 63 94 64 95
REMARK H PARENT 8 24 86 48 54 59
REMARK Flexibility Score: inf
ROOT
ATOM      1  C   UNL A   1      32.686  29.100  25.585  1.00  0.00     0.275 C 
ENDROOT
BRANCH   1   2
ATOM      2  C   UNL A   1      33.103  29.382  24.126  1.00  0.00     0.274 C 
BRANCH   2   3
ATOM      3  O   UNL A   1      32.675  28.381  23.203  1.00  0.00    -0.462 OA
BRANCH   3   4
ATOM      4  C   UNL A   1      33.518  27.465  22.694  1.00  0.00     0.307 C 
ATOM      5  O   UNL A   1      34.000  27.646  21.582  1.00  0.00    -0.252 OA
BRANCH   4   6
ATOM      6  C   UNL A   1      33.739  26.174  23.437  1.00  0.00     0.143 C 
BRANCH   6   7
ATOM      7  C   UNL A   1      33.044  24.802  23.288  1.00  0.00     0.100 C 
ATOM      8  C   UNL A   1      31.624  25.135  22.778  1.00  0.00     0.097 C 
ATOM      9  C   UNL A   1      33.288  24.200  24.742  1.00  0.00     0.085 C 
ATOM     10  C   UNL A   1      33.446  23.602  22.413  1.00  0.00     0.319 C 
ATOM     11  S   UNL A   1      30.508  25.643  24.078  1.00  0.00    -0.106 SA
ATOM     12  C   UNL A   1      32.012  23.753  25.393  1.00  0.00     0.049 A 
ATOM     13  C   UNL A   1      34.727  23.553  24.797  1.00  0.00     0.006 A 
ATOM     14  O   UNL A   1      34.759  23.262  22.361  1.00  0.00    -0.426 OA
ATOM     15  O   UNL A   1      32.651  22.859  21.843  1.00  0.00    -0.251 OA
ATOM     16  C   UNL A   1      30.837  24.388  25.181  1.00  0.00     0.090 A 
ATOM     17  S   UNL A   1      31.878  22.745  26.807  1.00  0.00    -0.077 S 
ATOM     18  C   UNL A   1      35.589  23.686  25.906  1.00  0.00     0.028 A 
ATOM     19  C   UNL A   1      35.390  23.238  23.597  1.00  0.00     0.134 A 
ATOM     20  N   UNL A   1      29.845  24.089  26.049  1.00  0.00    -0.307 N 
ATOM     21  C   UNL A   1      30.166  23.221  27.057  1.00  0.00     0.305 A 
ATOM     22  C   UNL A   1      37.003  23.653  25.750  1.00  0.00     0.041 A 
ATOM     23  C   UNL A   1      36.777  23.036  23.469  1.00  0.00     0.049 A 
ATOM     24  H   UNL A   1      28.943  24.474  25.960  1.00  0.00     0.171 HD
ATOM     25  O   UNL A   1      29.466  22.826  27.954  1.00  0.00    -0.257 OA
ATOM     26  Cl  UNL A   1      38.036  24.223  27.013  1.00  0.00    -0.084 Cl
ATOM     27  C   UNL A   1      37.599  23.312  24.542  1.00  0.00     0.024 A 
ENDBRANCH   6   7
ENDBRANCH   4   6
ENDBRANCH   3   4
ENDBRANCH   2   3
ENDBRANCH   1   2
BRANCH   1  28
ATOM     28  O   UNL A   1      33.745  29.374  26.532  1.00  0.00    -0.458 OA
BRANCH  28  29
ATOM     29  C   UNL A   1      33.830  30.612  27.094  1.00  0.00     0.338 C 
ATOM     30  O   UNL A   1      32.937  31.439  27.108  1.00  0.00    -0.246 OA
BRANCH  29  31
ATOM     31  C   UNL A   1      35.054  30.659  27.950  1.00  0.00     0.060 A 
ATOM     32  C   UNL A   1      35.903  31.764  28.012  1.00  0.00     0.016 A 
ATOM     33  C   UNL A   1      35.462  29.471  28.550  1.00  0.00     0.016 A 
ATOM     34  C   UNL A   1      37.235  31.608  28.406  1.00  0.00     0.010 A 
ATOM     35  C   UNL A   1      36.776  29.329  29.003  1.00  0.00     0.010 A 
ATOM     36  C   UNL A   1      37.706  30.352  28.811  1.00  0.00    -0.014 A 
BRANCH  36  37
ATOM     37  C   UNL A   1      39.141  30.186  29.157  1.00  0.00     0.031 A 
ATOM     38  C   UNL A   1      39.490  30.737  30.506  1.00  0.00     0.074 A 
ATOM     39  C   UNL A   1      40.017  29.489  28.385  1.00  0.00     0.049 A 
ATOM     40  N   UNL A   1      40.422  31.580  30.822  1.00  0.00    -0.248 NA
ATOM     41  C   UNL A   1      38.563  30.440  31.619  1.00  0.00     0.031 C 
ATOM     42  C   UNL A   1      39.701  28.806  27.126  1.00  0.00     0.029 A 
ATOM     43  N   UNL A   1      41.321  29.100  28.596  1.00  0.00    -0.354 N 
ATOM     44  C   UNL A   1      40.343  31.705  32.213  1.00  0.00     0.074 A 
ATOM     45  C   UNL A   1      39.073  31.167  32.611  1.00  0.00     0.031 C 
ATOM     46  C   UNL A   1      40.638  27.875  26.856  1.00  0.00     0.029 A 
ATOM     47  C   UNL A   1      41.678  27.955  27.858  1.00  0.00     0.049 A 
ATOM     48  H   UNL A   1      41.940  29.573  29.198  1.00  0.00     0.167 HD
ATOM     49  C   UNL A   1      41.449  31.912  32.978  1.00  0.00     0.034 A 
ATOM     50  C   UNL A   1      42.687  27.075  28.106  1.00  0.00     0.034 A 
ATOM     51  C   UNL A   1      42.554  32.390  32.206  1.00  0.00     0.049 A 
ATOM     52  C   UNL A   1      43.663  27.780  28.956  1.00  0.00     0.074 A 
ATOM     53  C   UNL A   1      42.973  33.580  31.663  1.00  0.00     0.029 A 
ATOM     54  N   UNL A   1      43.257  31.383  31.605  1.00  0.00    -0.354 N 
ATOM     55  N   UNL A   1      44.383  28.783  28.543  1.00  0.00    -0.248 NA
ATOM     56  C   UNL A   1      43.616  27.580  30.399  1.00  0.00     0.031 C 
ATOM     57  C   UNL A   1      43.854  33.237  30.596  1.00  0.00     0.029 A 
ATOM     58  C   UNL A   1      43.972  31.849  30.543  1.00  0.00     0.049 A 
ATOM     59  H   UNL A   1      43.246  30.444  31.901  1.00  0.00     0.167 HD
ATOM     60  C   UNL A   1      44.480  29.589  29.660  1.00  0.00     0.074 A 
ATOM     61  C   UNL A   1      44.164  28.731  30.795  1.00  0.00     0.031 C 
ATOM     62  C   UNL A   1      44.469  30.944  29.535  1.00  0.00     0.034 A 
BRANCH  49  63
ATOM     63  C   UNL A   1      41.688  31.191  34.290  1.00  0.00     0.023 A 
ATOM     64  C   UNL A   1      42.042  31.951  35.425  1.00  0.00     0.012 A 
ATOM     65  C   UNL A   1      41.874  29.790  34.375  1.00  0.00     0.148 A 
ATOM     66  C   UNL A   1      42.532  31.340  36.588  1.00  0.00     0.002 A 
ATOM     67  C   UNL A   1      42.287  29.181  35.554  1.00  0.00     0.091 A 
ATOM     68  F   UNL A   1      41.794  29.044  33.267  1.00  0.00    -0.205 F 
ATOM     69  C   UNL A   1      42.635  29.954  36.662  1.00  0.00     0.022 A 
BRANCH  67  70
ATOM     70  S   UNL A   1      42.423  27.394  35.695  1.00  0.00     0.127 S 
ATOM     71  O   UNL A   1      43.495  27.105  34.748  1.00  0.00    -0.237 OA
ATOM     72  O   UNL A   1      42.777  27.233  37.105  1.00  0.00    -0.237 OA
ATOM     73  O   UNL A   1      41.105  26.877  35.349  1.00  0.00    -0.744 OA
ENDBRANCH  67  70
ENDBRANCH  49  63
BRANCH  50  74
ATOM     74  C   UNL A   1      42.787  25.594  27.910  1.00  0.00     0.023 A 
ATOM     75  C   UNL A   1      41.726  24.766  28.351  1.00  0.00     0.012 A 
ATOM     76  C   UNL A   1      43.728  25.020  27.029  1.00  0.00     0.148 A 
ATOM     77  C   UNL A   1      41.556  23.462  27.861  1.00  0.00     0.002 A 
ATOM     78  C   UNL A   1      43.563  23.719  26.552  1.00  0.00     0.091 A 
ATOM     79  F   UNL A   1      44.737  25.771  26.574  1.00  0.00    -0.205 F 
ATOM     80  C   UNL A   1      42.465  22.946  26.946  1.00  0.00     0.022 A 
BRANCH  78  81
ATOM     81  S   UNL A   1      44.698  22.993  25.358  1.00  0.00     0.127 S 
ATOM     82  O   UNL A   1      43.952  21.819  24.901  1.00  0.00    -0.237 OA
ATOM     83  O   UNL A   1      44.822  24.061  24.372  1.00  0.00    -0.237 OA
ATOM     84  O   UNL A   1      45.908  22.676  26.106  1.00  0.00    -0.744 OA
ENDBRANCH  78  81
ENDBRANCH  50  74
BRANCH  62  85
ATOM     85  C   UNL A   1      44.823  31.535  28.205  1.00  0.00     0.023 A 
ATOM     86  C   UNL A   1      43.864  31.849  27.222  1.00  0.00     0.012 A 
ATOM     87  C   UNL A   1      46.158  31.924  28.020  1.00  0.00     0.148 A 
ATOM     88  C   UNL A   1      44.237  32.558  26.076  1.00  0.00     0.002 A 
ATOM     89  C   UNL A   1      46.515  32.661  26.902  1.00  0.00     0.091 A 
ATOM     90  F   UNL A   1      47.044  31.604  28.973  1.00  0.00    -0.205 F 
ATOM     91  C   UNL A   1      45.557  32.981  25.927  1.00  0.00     0.022 A 
BRANCH  89  92
ATOM     92  S   UNL A   1      48.174  33.306  26.695  1.00  0.00     0.127 S 
ATOM     93  O   UNL A   1      48.376  34.033  27.946  1.00  0.00    -0.237 OA
ATOM     94  O   UNL A   1      48.962  32.080  26.562  1.00  0.00    -0.237 OA
ATOM     95  O   UNL A   1      48.144  34.134  25.496  1.00  0.00    -0.744 OA
ENDBRANCH  89  92
ENDBRANCH  62  85
ENDBRANCH  36  37
ENDBRANCH  29  31
ENDBRANCH  28  29
ENDBRANCH   1  28
TORSDOF 15
ENDMDL
MODEL 3
REMARK VINA RESULT:     -12.8      1.827      2.563
REMARK SMILES O=C(C[C@]12CSc3[nH]c(=O)sc3[C@H]1c1cc(Cl)ccc1OC2=O)OCCOC(=O)c1ccc(-c2c3nc(c(-c4cccc(S(=O)(=O)[O-])c4F)c4ccc([nH]4)c(-c4cccc(S(=O)(=O)[O-])c4F)c4nc(c(-c5cccc(S(=O)(=O)[O-])c5F)c5ccc2[nH]5)C=C4)C=C3)cc1
REMARK SMILES IDX 26 1 25 2 24 3 2 4 1 5 3 6 4 7 5 8 13 9 22 10 6 11 12 12
REMARK SMILES IDX 14 13 21 14 23 15 7 16 11 17 15 18 20 19 8 20 9 21 16 22
REMARK SMILES IDX 19 23 10 25 17 26 18 27 27 28 28 29 29 30 30 31 31 32 92 33
REMARK SMILES IDX 32 34 91 35 33 36 34 37 35 38 85 39 36 40 90 41 84 42 86 43
REMARK SMILES IDX 37 44 89 45 83 46 82 47 38 49 70 50 50 51 69 52 51 53 54 54
REMARK SMILES IDX 68 55 87 56 52 57 53 58 67 60 88 61 55 62 39 63 40 64 48 65
REMARK SMILES IDX 41 66 43 67 49 68 42 69 44 70 45 71 46 72 47 73 71 74 72 75
REMARK SMILES IDX 80 76 73 77 75 78 81 79 74 80 76 81 77 82 78 83 79 84 56 85
REMARK SMILES IDX 57 86 65 87 58 88 60 89 66 90 59 91 61 92 62 93 63 94 64 95
REMARK H PARENT 8 24 86 48 54 59
REMARK Flexibility Score: inf
ROOT
ATOM      1  C   UNL A   1      33.298  30.475  27.212  1.00  0.00     0.275 C 
ENDROOT
BRANCH   1   2
ATOM      2  C   UNL A   1      32.745  29.075  26.876  1.00  0.00     0.274 C 
BRANCH   2   3
ATOM      3  O   UNL A   1      33.751  28.135  26.501  1.00  0.00    -0.462 OA
BRANCH   3   4
ATOM      4  C   UNL A   1      33.452  26.908  26.040  1.00  0.00     0.307 C 
ATOM      5  O   UNL A   1      32.872  26.115  26.774  1.00  0.00    -0.252 OA
BRANCH   4   6
ATOM      6  C   UNL A   1      33.959  26.483  24.687  1.00  0.00     0.143 C 
BRANCH   6   7
ATOM      7  C   UNL A   1      33.276  26.530  23.301  1.00  0.00     0.100 C 
ATOM      8  C   UNL A   1      33.861  27.787  22.618  1.00  0.00     0.097 C 
ATOM      9  C   UNL A   1      31.746  26.452  23.735  1.00  0.00     0.085 C 
ATOM     10  C   UNL A   1      33.306  25.486  22.172  1.00  0.00     0.319 C 
ATOM     11  S   UNL A   1      33.075  29.305  23.140  1.00  0.00    -0.106 SA
ATOM     12  C   UNL A   1      30.936  27.577  23.159  1.00  0.00     0.049 A 
ATOM     13  C   UNL A   1      31.352  24.941  23.965  1.00  0.00     0.006 A 
ATOM     14  O   UNL A   1      33.173  24.178  22.508  1.00  0.00    -0.426 OA
ATOM     15  O   UNL A   1      33.328  25.758  20.974  1.00  0.00    -0.251 OA
ATOM     16  C   UNL A   1      31.455  28.809  22.962  1.00  0.00     0.090 A 
ATOM     17  S   UNL A   1      29.196  27.665  23.105  1.00  0.00    -0.077 S 
ATOM     18  C   UNL A   1      30.538  24.512  25.035  1.00  0.00     0.028 A 
ATOM     19  C   UNL A   1      32.162  23.925  23.424  1.00  0.00     0.134 A 
ATOM     20  N   UNL A   1      30.558  29.794  22.736  1.00  0.00    -0.307 N 
ATOM     21  C   UNL A   1      29.238  29.431  22.783  1.00  0.00     0.305 A 
ATOM     22  C   UNL A   1      30.670  23.206  25.586  1.00  0.00     0.041 A 
ATOM     23  C   UNL A   1      32.173  22.586  23.855  1.00  0.00     0.049 A 
ATOM     24  H   UNL A   1      30.836  30.719  22.549  1.00  0.00     0.171 HD
ATOM     25  O   UNL A   1      28.266  30.127  22.639  1.00  0.00    -0.257 OA
ATOM     26  Cl  UNL A   1      29.986  22.834  27.128  1.00  0.00    -0.084 Cl
ATOM     27  C   UNL A   1      31.471  22.238  24.991  1.00  0.00     0.024 A 
ENDBRANCH   6   7
ENDBRANCH   4   6
ENDBRANCH   3   4
ENDBRANCH   2   3
ENDBRANCH   1   2
BRANCH   1  28
ATOM     28  O   UNL A   1      34.743  30.533  27.160  1.00  0.00    -0.458 OA
BRANCH  28  29
ATOM     29  C   UNL A   1      35.394  31.504  27.860  1.00  0.00     0.338 C 
ATOM     30  O   UNL A   1      34.976  32.630  28.053  1.00  0.00    -0.246 OA
BRANCH  29  31
ATOM     31  C   UNL A   1      36.525  30.872  28.604  1.00  0.00     0.060 A 
ATOM     32  C   UNL A   1      37.536  31.604  29.227  1.00  0.00     0.016 A 
ATOM     33  C   UNL A   1      36.674  29.492  28.494  1.00  0.00     0.016 A 
ATOM     34  C   UNL A   1      38.782  31.019  29.470  1.00  0.00     0.010 A 
ATOM     35  C   UNL A   1      37.898  28.892  28.796  1.00  0.00     0.010 A 
ATOM     36  C   UNL A   1      38.999  29.671  29.157  1.00  0.00    -0.014 A 
BRANCH  36  37
ATOM     37  C   UNL A   1      40.349  29.082  29.354  1.00  0.00     0.031 A 
ATOM     38  C   UNL A   1      40.703  28.887  30.797  1.00  0.00     0.074 A 
ATOM     39  C   UNL A   1      41.126  28.644  28.328  1.00  0.00     0.049 A 
ATOM     40  N   UNL A   1      41.754  29.293  31.436  1.00  0.00    -0.248 NA
ATOM     41  C   UNL A   1      39.662  28.317  31.678  1.00  0.00     0.031 C 
ATOM     42  C   UNL A   1      40.774  28.677  26.904  1.00  0.00     0.029 A 
ATOM     43  N   UNL A   1      42.315  27.948  28.306  1.00  0.00    -0.354 N 
ATOM     44  C   UNL A   1      41.605  28.794  32.735  1.00  0.00     0.074 A 
ATOM     45  C   UNL A   1      40.231  28.403  32.878  1.00  0.00     0.031 C 
ATOM     46  C   UNL A   1      41.532  27.798  26.219  1.00  0.00     0.029 A 
ATOM     47  C   UNL A   1      42.496  27.209  27.121  1.00  0.00     0.049 A 
ATOM     48  H   UNL A   1      42.969  27.965  29.042  1.00  0.00     0.167 HD
ATOM     49  C   UNL A   1      42.675  28.409  33.481  1.00  0.00     0.034 A 
ATOM     50  C   UNL A   1      43.299  26.129  26.919  1.00  0.00     0.034 A 
ATOM     51  C   UNL A   1      43.902  28.949  32.982  1.00  0.00     0.049 A 
ATOM     52  C   UNL A   1      44.331  26.166  27.971  1.00  0.00     0.074 A 
ATOM     53  C   UNL A   1      44.577  30.145  33.025  1.00  0.00     0.029 A 
ATOM     54  N   UNL A   1      44.439  28.199  31.972  1.00  0.00    -0.354 N 
ATOM     55  N   UNL A   1      45.255  27.079  28.038  1.00  0.00    -0.248 NA
ATOM     56  C   UNL A   1      44.148  25.355  29.167  1.00  0.00     0.031 C 
ATOM     57  C   UNL A   1      45.446  30.146  31.897  1.00  0.00     0.029 A 
ATOM     58  C   UNL A   1      45.301  28.937  31.218  1.00  0.00     0.049 A 
ATOM     59  H   UNL A   1      44.229  27.251  31.812  1.00  0.00     0.167 HD
ATOM     60  C   UNL A   1      45.428  27.262  29.396  1.00  0.00     0.074 A 
ATOM     61  C   UNL A   1      44.877  26.069  30.027  1.00  0.00     0.031 C 
ATOM     62  C   UNL A   1      45.685  28.500  29.898  1.00  0.00     0.034 A 
BRANCH  49  63
ATOM     63  C   UNL A   1      42.681  27.145  34.318  1.00  0.00     0.023 A 
ATOM     64  C   UNL A   1      42.274  27.225  35.667  1.00  0.00     0.012 A 
ATOM     65  C   UNL A   1      43.351  25.963  33.922  1.00  0.00     0.148 A 
ATOM     66  C   UNL A   1      42.503  26.170  36.562  1.00  0.00     0.002 A 
ATOM     67  C   UNL A   1      43.510  24.890  34.790  1.00  0.00     0.091 A 
ATOM     68  F   UNL A   1      43.974  25.922  32.739  1.00  0.00    -0.205 F 
ATOM     69  C   UNL A   1      43.102  24.994  36.121  1.00  0.00     0.022 A 
BRANCH  67  70
ATOM     70  S   UNL A   1      44.266  23.349  34.258  1.00  0.00     0.127 S 
ATOM     71  O   UNL A   1      43.423  22.984  33.123  1.00  0.00    -0.237 OA
ATOM     72  O   UNL A   1      45.620  23.785  33.913  1.00  0.00    -0.237 OA
ATOM     73  O   UNL A   1      44.202  22.465  35.415  1.00  0.00    -0.744 OA
ENDBRANCH  67  70
ENDBRANCH  49  63
BRANCH  50  74
ATOM     74  C   UNL A   1      43.128  24.907  26.071  1.00  0.00     0.023 A 
ATOM     75  C   UNL A   1      44.075  24.633  25.055  1.00  0.00     0.012 A 
ATOM     76  C   UNL A   1      42.258  23.858  26.441  1.00  0.00     0.148 A 
ATOM     77  C   UNL A   1      44.215  23.349  24.505  1.00  0.00     0.002 A 
ATOM     78  C   UNL A   1      42.393  22.585  25.884  1.00  0.00     0.091 A 
ATOM     79  F   UNL A   1      41.359  24.068  27.409  1.00  0.00    -0.205 F 
ATOM     80  C   UNL A   1      43.386  22.320  24.935  1.00  0.00     0.022 A 
BRANCH  78  81
ATOM     81  S   UNL A   1      41.359  21.207  26.403  1.00  0.00     0.127 S 
ATOM     82  O   UNL A   1      40.026  21.652  25.993  1.00  0.00    -0.237 OA
ATOM     83  O   UNL A   1      41.905  20.106  25.616  1.00  0.00    -0.237 OA
ATOM     84  O   UNL A   1      41.534  21.103  27.846  1.00  0.00    -0.744 OA
ENDBRANCH  78  81
ENDBRANCH  50  74
BRANCH  62  85
ATOM     85  C   UNL A   1      46.235  29.539  28.970  1.00  0.00     0.023 A 
ATOM     86  C   UNL A   1      47.594  29.605  28.607  1.00  0.00     0.012 A 
ATOM     87  C   UNL A   1      45.306  30.374  28.331  1.00  0.00     0.148 A 
ATOM     88  C   UNL A   1      48.013  30.486  27.605  1.00  0.00     0.002 A 
ATOM     89  C   UNL A   1      45.719  31.216  27.311  1.00  0.00     0.091 A 
ATOM     90  F   UNL A   1      44.021  30.288  28.706  1.00  0.00    -0.205 F 
ATOM     91  C   UNL A   1      47.072  31.275  26.944  1.00  0.00     0.022 A 
BRANCH  89  92
ATOM     92  S   UNL A   1      44.548  32.191  26.368  1.00  0.00     0.127 S 
ATOM     93  O   UNL A   1      43.558  31.187  25.982  1.00  0.00    -0.237 OA
ATOM     94  O   UNL A   1      44.086  33.158  27.363  1.00  0.00    -0.237 OA
ATOM     95  O   UNL A   1      45.299  32.776  25.264  1.00  0.00    -0.744 OA
ENDBRANCH  89  92
ENDBRANCH  62  85
ENDBRANCH  36  37
ENDBRANCH  29  31
ENDBRANCH  28  29
ENDBRANCH   1  28
TORSDOF 15
ENDMDL
