MODEL 1
REMARK VINA RESULT:     -10.9      0.000      0.000
REMARK SMILES COc1cc2nc(SCC(=O)OCCOC(=O)c3ccc(-c4c5nc(c(-c6cccc(S(=O)(=O)[O-])c6F)c6ccc([nH]6)c(-c6cccc(S(=O)(=O)[O-])c6F)c6nc(c(-c7cccc(S(=O)(=O)[O-])c7F)c7ccc4[nH]7)C=C6)C=C5)cc3)nc(O)c2cc1OC
REMARK SMILES IDX 13 1 12 2 10 3 11 4 9 5 8 6 7 7 3 8 4 9 86 10 5 11 85 12
REMARK SMILES IDX 6 13 84 14 82 15 81 16 2 17 1 18 87 19 88 20 83 21 14 23
REMARK SMILES IDX 15 24 16 25 17 26 18 27 19 28 80 29 20 30 79 31 21 32 22 33
REMARK SMILES IDX 23 34 73 35 24 36 78 37 72 38 74 39 25 40 77 41 71 42 70 43
REMARK SMILES IDX 26 45 58 46 38 47 57 48 39 49 42 50 56 51 75 52 40 53 41 54
REMARK SMILES IDX 55 56 76 57 43 58 27 59 28 60 36 61 29 62 31 63 37 64 30 65
REMARK SMILES IDX 32 66 33 67 34 68 35 69 59 70 60 71 68 72 61 73 63 74 69 75
REMARK SMILES IDX 62 76 64 77 65 78 66 79 67 80 44 81 45 82 53 83 46 84 48 85
REMARK SMILES IDX 54 86 47 87 49 88 50 89 51 90 52 91
REMARK H PARENT 83 22 74 44 42 55
REMARK Flexibility Score: inf
ROOT
ATOM      1  C   UNL A   1      31.778  29.111  26.184  1.00  0.00     0.274 C 
ENDROOT
BRANCH   1   2
ATOM      2  O   UNL A   1      32.202  28.752  24.852  1.00  0.00    -0.461 OA
BRANCH   2   3
ATOM      3  C   UNL A   1      33.373  28.070  24.766  1.00  0.00     0.316 C 
ATOM      4  O   UNL A   1      33.843  27.406  25.689  1.00  0.00    -0.251 OA
BRANCH   3   5
ATOM      5  C   UNL A   1      34.110  28.192  23.452  1.00  0.00     0.200 C 
BRANCH   5   6
ATOM      6  S   UNL A   1      33.339  27.408  22.019  1.00  0.00    -0.074 SA
BRANCH   6   7
ATOM      7  C   UNL A   1      33.006  25.767  22.619  1.00  0.00     0.192 A 
ATOM      8  C   UNL A   1      34.957  21.794  24.296  1.00  0.00     0.162 A 
ATOM      9  C   UNL A   1      35.043  23.143  23.937  1.00  0.00     0.079 A 
ATOM     10  C   UNL A   1      33.742  21.106  24.190  1.00  0.00     0.161 A 
ATOM     11  C   UNL A   1      33.946  23.843  23.462  1.00  0.00     0.083 A 
ATOM     12  C   UNL A   1      32.612  21.826  23.801  1.00  0.00     0.066 A 
ATOM     13  N   UNL A   1      34.096  25.108  23.049  1.00  0.00    -0.222 NA
ATOM     14  C   UNL A   1      32.718  23.195  23.444  1.00  0.00     0.066 A 
ATOM     15  C   UNL A   1      31.661  24.015  23.071  1.00  0.00     0.223 A 
ATOM     16  N   UNL A   1      31.754  25.290  22.652  1.00  0.00    -0.187 NA
BRANCH   8  17
ATOM     17  O   UNL A   1      36.111  21.257  24.811  1.00  0.00    -0.493 OA
ATOM     18  C   UNL A   1      37.210  22.159  24.777  1.00  0.00     0.278 C 
ENDBRANCH   8  17
BRANCH  10  19
ATOM     19  O   UNL A   1      33.723  19.780  24.524  1.00  0.00    -0.493 OA
ATOM     20  C   UNL A   1      32.510  19.083  24.250  1.00  0.00     0.278 C 
ENDBRANCH  10  19
BRANCH  15  21
ATOM     21  O   UNL A   1      30.383  23.546  23.166  1.00  0.00    -0.493 OA
ATOM     22  H   UNL A   1      29.772  23.709  22.475  1.00  0.00     0.295 HD
ENDBRANCH  15  21
ENDBRANCH   6   7
ENDBRANCH   5   6
ENDBRANCH   3   5
ENDBRANCH   2   3
ENDBRANCH   1   2
BRANCH   1  23
ATOM     23  C   UNL A   1      32.026  30.590  26.461  1.00  0.00     0.275 C 
BRANCH  23  24
ATOM     24  O   UNL A   1      33.436  30.831  26.590  1.00  0.00    -0.458 OA
BRANCH  24  25
ATOM     25  C   UNL A   1      33.778  31.813  27.450  1.00  0.00     0.338 C 
ATOM     26  O   UNL A   1      33.216  32.884  27.616  1.00  0.00    -0.246 OA
BRANCH  25  27
ATOM     27  C   UNL A   1      35.006  31.424  28.158  1.00  0.00     0.060 A 
ATOM     28  C   UNL A   1      35.104  30.128  28.662  1.00  0.00     0.016 A 
ATOM     29  C   UNL A   1      36.097  32.296  28.225  1.00  0.00     0.016 A 
ATOM     30  C   UNL A   1      36.296  29.712  29.257  1.00  0.00     0.010 A 
ATOM     31  C   UNL A   1      37.306  31.860  28.764  1.00  0.00     0.010 A 
ATOM     32  C   UNL A   1      37.408  30.570  29.302  1.00  0.00    -0.014 A 
BRANCH  32  33
ATOM     33  C   UNL A   1      38.677  30.108  29.911  1.00  0.00     0.031 A 
ATOM     34  C   UNL A   1      39.089  30.594  31.270  1.00  0.00     0.074 A 
ATOM     35  C   UNL A   1      39.469  29.256  29.233  1.00  0.00     0.049 A 
ATOM     36  N   UNL A   1      40.076  30.180  32.020  1.00  0.00    -0.248 NA
ATOM     37  C   UNL A   1      38.304  31.690  31.859  1.00  0.00     0.031 C 
ATOM     38  C   UNL A   1      39.228  28.783  27.868  1.00  0.00     0.029 A 
ATOM     39  N   UNL A   1      40.637  28.638  29.599  1.00  0.00    -0.354 N 
ATOM     40  C   UNL A   1      40.033  30.964  33.166  1.00  0.00     0.074 A 
ATOM     41  C   UNL A   1      38.949  31.905  32.997  1.00  0.00     0.031 C 
ATOM     42  C   UNL A   1      40.209  27.935  27.520  1.00  0.00     0.029 A 
ATOM     43  C   UNL A   1      41.139  27.796  28.638  1.00  0.00     0.049 A 
ATOM     44  H   UNL A   1      41.075  28.786  30.469  1.00  0.00     0.167 HD
ATOM     45  C   UNL A   1      40.802  30.878  34.276  1.00  0.00     0.034 A 
ATOM     46  C   UNL A   1      42.208  26.975  28.666  1.00  0.00     0.034 A 
ATOM     47  C   UNL A   1      41.853  29.918  34.458  1.00  0.00     0.049 A 
ATOM     48  C   UNL A   1      43.018  26.858  29.927  1.00  0.00     0.074 A 
ATOM     49  C   UNL A   1      42.616  29.683  35.588  1.00  0.00     0.029 A 
ATOM     50  N   UNL A   1      42.299  29.043  33.481  1.00  0.00    -0.354 N 
ATOM     51  N   UNL A   1      42.840  27.465  31.076  1.00  0.00    -0.248 NA
ATOM     52  C   UNL A   1      44.146  25.914  29.914  1.00  0.00     0.031 C 
ATOM     53  C   UNL A   1      43.530  28.667  35.291  1.00  0.00     0.029 A 
ATOM     54  C   UNL A   1      43.334  28.271  33.977  1.00  0.00     0.049 A 
ATOM     55  H   UNL A   1      41.934  28.981  32.569  1.00  0.00     0.167 HD
ATOM     56  C   UNL A   1      43.812  26.956  31.930  1.00  0.00     0.074 A 
ATOM     57  C   UNL A   1      44.573  25.987  31.170  1.00  0.00     0.031 C 
ATOM     58  C   UNL A   1      44.052  27.274  33.225  1.00  0.00     0.034 A 
BRANCH  45  59
ATOM     59  C   UNL A   1      40.473  31.796  35.418  1.00  0.00     0.023 A 
ATOM     60  C   UNL A   1      41.331  32.883  35.685  1.00  0.00     0.012 A 
ATOM     61  C   UNL A   1      39.304  31.627  36.183  1.00  0.00     0.148 A 
ATOM     62  C   UNL A   1      41.040  33.779  36.711  1.00  0.00     0.002 A 
ATOM     63  C   UNL A   1      39.007  32.542  37.188  1.00  0.00     0.091 A 
ATOM     64  F   UNL A   1      38.518  30.573  35.925  1.00  0.00    -0.205 F 
ATOM     65  C   UNL A   1      39.876  33.614  37.456  1.00  0.00     0.022 A 
BRANCH  63  66
ATOM     66  S   UNL A   1      37.510  32.445  38.174  1.00  0.00     0.127 S 
ATOM     67  O   UNL A   1      36.525  33.041  37.272  1.00  0.00    -0.237 OA
ATOM     68  O   UNL A   1      37.363  31.003  38.371  1.00  0.00    -0.237 OA
ATOM     69  O   UNL A   1      37.780  33.200  39.389  1.00  0.00    -0.744 OA
ENDBRANCH  63  66
ENDBRANCH  45  59
BRANCH  46  70
ATOM     70  C   UNL A   1      42.480  26.107  27.490  1.00  0.00     0.023 A 
ATOM     71  C   UNL A   1      43.258  26.616  26.433  1.00  0.00     0.012 A 
ATOM     72  C   UNL A   1      42.057  24.764  27.456  1.00  0.00     0.148 A 
ATOM     73  C   UNL A   1      43.609  25.803  25.356  1.00  0.00     0.002 A 
ATOM     74  C   UNL A   1      42.436  23.952  26.394  1.00  0.00     0.091 A 
ATOM     75  F   UNL A   1      41.326  24.306  28.481  1.00  0.00    -0.205 F 
ATOM     76  C   UNL A   1      43.205  24.472  25.340  1.00  0.00     0.022 A 
BRANCH  74  77
ATOM     77  S   UNL A   1      42.044  22.201  26.319  1.00  0.00     0.127 S 
ATOM     78  O   UNL A   1      40.593  22.226  26.140  1.00  0.00    -0.237 OA
ATOM     79  O   UNL A   1      42.802  21.781  25.142  1.00  0.00    -0.237 OA
ATOM     80  O   UNL A   1      42.501  21.636  27.581  1.00  0.00    -0.744 OA
ENDBRANCH  74  77
ENDBRANCH  46  70
BRANCH  58  81
ATOM     81  C   UNL A   1      45.181  26.575  33.932  1.00  0.00     0.023 A 
ATOM     82  C   UNL A   1      46.479  27.112  33.851  1.00  0.00     0.012 A 
ATOM     83  C   UNL A   1      44.930  25.481  34.783  1.00  0.00     0.148 A 
ATOM     84  C   UNL A   1      47.516  26.566  34.607  1.00  0.00     0.002 A 
ATOM     85  C   UNL A   1      45.961  24.964  35.558  1.00  0.00     0.091 A 
ATOM     86  F   UNL A   1      43.686  24.982  34.831  1.00  0.00    -0.205 F 
ATOM     87  C   UNL A   1      47.255  25.503  35.468  1.00  0.00     0.022 A 
BRANCH  85  88
ATOM     88  S   UNL A   1      45.703  23.650  36.757  1.00  0.00     0.127 S 
ATOM     89  O   UNL A   1      44.723  24.256  37.655  1.00  0.00    -0.237 OA
ATOM     90  O   UNL A   1      45.181  22.567  35.922  1.00  0.00    -0.237 OA
ATOM     91  O   UNL A   1      47.008  23.382  37.347  1.00  0.00    -0.744 OA
ENDBRANCH  85  88
ENDBRANCH  58  81
ENDBRANCH  32  33
ENDBRANCH  25  27
ENDBRANCH  24  25
ENDBRANCH  23  24
ENDBRANCH   1  23
TORSDOF 19
ENDMDL
MODEL 2
REMARK VINA RESULT:     -10.2      3.074      8.811
REMARK SMILES COc1cc2nc(SCC(=O)OCCOC(=O)c3ccc(-c4c5nc(c(-c6cccc(S(=O)(=O)[O-])c6F)c6ccc([nH]6)c(-c6cccc(S(=O)(=O)[O-])c6F)c6nc(c(-c7cccc(S(=O)(=O)[O-])c7F)c7ccc4[nH]7)C=C6)C=C5)cc3)nc(O)c2cc1OC
REMARK SMILES IDX 13 1 12 2 10 3 11 4 9 5 8 6 7 7 3 8 4 9 86 10 5 11 85 12
REMARK SMILES IDX 6 13 84 14 82 15 81 16 2 17 1 18 87 19 88 20 83 21 14 23
REMARK SMILES IDX 15 24 16 25 17 26 18 27 19 28 80 29 20 30 79 31 21 32 22 33
REMARK SMILES IDX 23 34 73 35 24 36 78 37 72 38 74 39 25 40 77 41 71 42 70 43
REMARK SMILES IDX 26 45 58 46 38 47 57 48 39 49 42 50 56 51 75 52 40 53 41 54
REMARK SMILES IDX 55 56 76 57 43 58 27 59 28 60 36 61 29 62 31 63 37 64 30 65
REMARK SMILES IDX 32 66 33 67 34 68 35 69 59 70 60 71 68 72 61 73 63 74 69 75
REMARK SMILES IDX 62 76 64 77 65 78 66 79 67 80 44 81 45 82 53 83 46 84 48 85
REMARK SMILES IDX 54 86 47 87 49 88 50 89 51 90 52 91
REMARK H PARENT 83 22 74 44 42 55
REMARK Flexibility Score: inf
ROOT
ATOM      1  C   UNL A   1      42.637  21.865  25.986  1.00  0.00     0.274 C 
ENDROOT
BRANCH   1   2
ATOM      2  O   UNL A   1      41.213  21.737  25.787  1.00  0.00    -0.461 OA
BRANCH   2   3
ATOM      3  C   UNL A   1      40.430  22.174  26.806  1.00  0.00     0.316 C 
ATOM      4  O   UNL A   1      40.756  22.109  27.991  1.00  0.00    -0.251 OA
BRANCH   3   5
ATOM      5  C   UNL A   1      39.084  22.736  26.408  1.00  0.00     0.200 C 
BRANCH   5   6
ATOM      6  S   UNL A   1      38.132  21.775  25.211  1.00  0.00    -0.074 SA
BRANCH   6   7
ATOM      7  C   UNL A   1      36.456  22.200  25.630  1.00  0.00     0.192 A 
ATOM      8  C   UNL A   1      33.264  25.694  25.725  1.00  0.00     0.162 A 
ATOM      9  C   UNL A   1      34.498  25.174  25.321  1.00  0.00     0.079 A 
ATOM     10  C   UNL A   1      32.378  24.916  26.481  1.00  0.00     0.161 A 
ATOM     11  C   UNL A   1      34.891  23.887  25.652  1.00  0.00     0.083 A 
ATOM     12  C   UNL A   1      32.726  23.590  26.740  1.00  0.00     0.066 A 
ATOM     13  N   UNL A   1      36.116  23.463  25.317  1.00  0.00    -0.222 NA
ATOM     14  C   UNL A   1      33.980  23.078  26.319  1.00  0.00     0.066 A 
ATOM     15  C   UNL A   1      34.419  21.773  26.495  1.00  0.00     0.223 A 
ATOM     16  N   UNL A   1      35.634  21.294  26.175  1.00  0.00    -0.187 NA
BRANCH   8  17
ATOM     17  O   UNL A   1      32.988  26.957  25.265  1.00  0.00    -0.493 OA
ATOM     18  C   UNL A   1      33.735  27.303  24.104  1.00  0.00     0.278 C 
ENDBRANCH   8  17
BRANCH  10  19
ATOM     19  O   UNL A   1      31.200  25.486  26.877  1.00  0.00    -0.493 OA
ATOM     20  C   UNL A   1      30.112  25.375  25.962  1.00  0.00     0.278 C 
ENDBRANCH  10  19
BRANCH  15  21
ATOM     21  O   UNL A   1      33.559  20.838  26.992  1.00  0.00    -0.493 OA
ATOM     22  H   UNL A   1      32.758  20.652  26.543  1.00  0.00     0.295 HD
ENDBRANCH  15  21
ENDBRANCH   6   7
ENDBRANCH   5   6
ENDBRANCH   3   5
ENDBRANCH   2   3
ENDBRANCH   1   2
BRANCH   1  23
ATOM     23  C   UNL A   1      43.294  22.586  24.814  1.00  0.00     0.275 C 
BRANCH  23  24
ATOM     24  O   UNL A   1      42.840  23.947  24.764  1.00  0.00    -0.458 OA
BRANCH  24  25
ATOM     25  C   UNL A   1      43.775  24.880  25.049  1.00  0.00     0.338 C 
ATOM     26  O   UNL A   1      44.906  24.960  24.596  1.00  0.00    -0.246 OA
BRANCH  25  27
ATOM     27  C   UNL A   1      43.240  25.799  26.063  1.00  0.00     0.060 A 
ATOM     28  C   UNL A   1      42.394  25.290  27.047  1.00  0.00     0.016 A 
ATOM     29  C   UNL A   1      43.661  27.132  26.108  1.00  0.00     0.016 A 
ATOM     30  C   UNL A   1      41.949  26.129  28.069  1.00  0.00     0.010 A 
ATOM     31  C   UNL A   1      43.265  27.952  27.164  1.00  0.00     0.010 A 
ATOM     32  C   UNL A   1      42.389  27.461  28.141  1.00  0.00    -0.014 A 
BRANCH  32  33
ATOM     33  C   UNL A   1      41.933  28.334  29.248  1.00  0.00     0.031 A 
ATOM     34  C   UNL A   1      40.582  28.986  29.193  1.00  0.00     0.074 A 
ATOM     35  C   UNL A   1      42.742  28.552  30.301  1.00  0.00     0.049 A 
ATOM     36  N   UNL A   1      39.956  29.647  30.131  1.00  0.00    -0.248 NA
ATOM     37  C   UNL A   1      39.842  28.896  27.924  1.00  0.00     0.031 C 
ATOM     38  C   UNL A   1      44.113  28.054  30.431  1.00  0.00     0.029 A 
ATOM     39  N   UNL A   1      42.529  29.250  31.463  1.00  0.00    -0.354 N 
ATOM     40  C   UNL A   1      38.753  30.053  29.568  1.00  0.00     0.074 A 
ATOM     41  C   UNL A   1      38.753  29.601  28.194  1.00  0.00     0.031 C 
ATOM     42  C   UNL A   1      44.611  28.448  31.614  1.00  0.00     0.029 A 
ATOM     43  C   UNL A   1      43.593  29.214  32.330  1.00  0.00     0.049 A 
ATOM     44  H   UNL A   1      41.692  29.732  31.655  1.00  0.00     0.167 HD
ATOM     45  C   UNL A   1      37.725  30.708  30.154  1.00  0.00     0.034 A 
ATOM     46  C   UNL A   1      43.723  29.710  33.576  1.00  0.00     0.034 A 
ATOM     47  C   UNL A   1      37.711  31.124  31.528  1.00  0.00     0.049 A 
ATOM     48  C   UNL A   1      42.551  30.391  34.227  1.00  0.00     0.074 A 
ATOM     49  C   UNL A   1      36.675  31.698  32.242  1.00  0.00     0.029 A 
ATOM     50  N   UNL A   1      38.789  31.023  32.393  1.00  0.00    -0.354 N 
ATOM     51  N   UNL A   1      41.348  30.591  33.747  1.00  0.00    -0.248 NA
ATOM     52  C   UNL A   1      42.737  30.873  35.604  1.00  0.00     0.031 C 
ATOM     53  C   UNL A   1      37.129  31.950  33.541  1.00  0.00     0.029 A 
ATOM     54  C   UNL A   1      38.448  31.532  33.632  1.00  0.00     0.049 A 
ATOM     55  H   UNL A   1      39.668  30.644  32.159  1.00  0.00     0.167 HD
ATOM     56  C   UNL A   1      40.624  31.193  34.769  1.00  0.00     0.074 A 
ATOM     57  C   UNL A   1      41.522  31.322  35.899  1.00  0.00     0.031 C 
ATOM     58  C   UNL A   1      39.335  31.610  34.765  1.00  0.00     0.034 A 
BRANCH  45  59
ATOM     59  C   UNL A   1      36.491  30.938  29.330  1.00  0.00     0.023 A 
ATOM     60  C   UNL A   1      35.836  29.827  28.762  1.00  0.00     0.012 A 
ATOM     61  C   UNL A   1      35.948  32.226  29.166  1.00  0.00     0.148 A 
ATOM     62  C   UNL A   1      34.667  29.995  28.023  1.00  0.00     0.002 A 
ATOM     63  C   UNL A   1      34.765  32.381  28.450  1.00  0.00     0.091 A 
ATOM     64  F   UNL A   1      36.601  33.268  29.695  1.00  0.00    -0.205 F 
ATOM     65  C   UNL A   1      34.127  31.269  27.875  1.00  0.00     0.022 A 
BRANCH  63  66
ATOM     66  S   UNL A   1      33.963  33.975  28.240  1.00  0.00     0.127 S 
ATOM     67  O   UNL A   1      34.868  34.638  27.303  1.00  0.00    -0.237 OA
ATOM     68  O   UNL A   1      32.668  33.596  27.674  1.00  0.00    -0.237 OA
ATOM     69  O   UNL A   1      33.895  34.568  29.568  1.00  0.00    -0.744 OA
ENDBRANCH  63  66
ENDBRANCH  45  59
BRANCH  46  70
ATOM     70  C   UNL A   1      44.983  29.456  34.325  1.00  0.00     0.023 A 
ATOM     71  C   UNL A   1      45.110  28.259  35.056  1.00  0.00     0.012 A 
ATOM     72  C   UNL A   1      46.077  30.338  34.241  1.00  0.00     0.148 A 
ATOM     73  C   UNL A   1      46.307  27.945  35.697  1.00  0.00     0.002 A 
ATOM     74  C   UNL A   1      47.277  30.003  34.857  1.00  0.00     0.091 A 
ATOM     75  F   UNL A   1      45.928  31.463  33.530  1.00  0.00    -0.205 F 
ATOM     76  C   UNL A   1      47.392  28.812  35.591  1.00  0.00     0.022 A 
BRANCH  74  77
ATOM     77  S   UNL A   1      48.759  31.006  34.710  1.00  0.00     0.127 S 
ATOM     78  O   UNL A   1      48.227  32.357  34.886  1.00  0.00    -0.237 OA
ATOM     79  O   UNL A   1      49.562  30.509  35.827  1.00  0.00    -0.237 OA
ATOM     80  O   UNL A   1      49.302  30.723  33.388  1.00  0.00    -0.744 OA
ENDBRANCH  74  77
ENDBRANCH  46  70
BRANCH  58  81
ATOM     81  C   UNL A   1      38.787  32.244  36.013  1.00  0.00     0.023 A 
ATOM     82  C   UNL A   1      38.802  33.646  36.135  1.00  0.00     0.012 A 
ATOM     83  C   UNL A   1      38.134  31.466  36.990  1.00  0.00     0.148 A 
ATOM     84  C   UNL A   1      38.177  34.267  37.215  1.00  0.00     0.002 A 
ATOM     85  C   UNL A   1      37.485  32.094  38.045  1.00  0.00     0.091 A 
ATOM     86  F   UNL A   1      38.146  30.132  36.855  1.00  0.00    -0.205 F 
ATOM     87  C   UNL A   1      37.508  33.493  38.161  1.00  0.00     0.022 A 
BRANCH  85  88
ATOM     88  S   UNL A   1      36.528  31.187  39.267  1.00  0.00     0.127 S 
ATOM     89  O   UNL A   1      37.502  31.022  40.344  1.00  0.00    -0.237 OA
ATOM     90  O   UNL A   1      35.441  32.121  39.565  1.00  0.00    -0.237 OA
ATOM     91  O   UNL A   1      36.105  29.956  38.614  1.00  0.00    -0.744 OA
ENDBRANCH  85  88
ENDBRANCH  58  81
ENDBRANCH  32  33
ENDBRANCH  25  27
ENDBRANCH  24  25
ENDBRANCH  23  24
ENDBRANCH   1  23
TORSDOF 19
ENDMDL
MODEL 3
REMARK VINA RESULT:     -10.2      2.434      7.862
REMARK SMILES COc1cc2nc(SCC(=O)OCCOC(=O)c3ccc(-c4c5nc(c(-c6cccc(S(=O)(=O)[O-])c6F)c6ccc([nH]6)c(-c6cccc(S(=O)(=O)[O-])c6F)c6nc(c(-c7cccc(S(=O)(=O)[O-])c7F)c7ccc4[nH]7)C=C6)C=C5)cc3)nc(O)c2cc1OC
REMARK SMILES IDX 13 1 12 2 10 3 11 4 9 5 8 6 7 7 3 8 4 9 86 10 5 11 85 12
REMARK SMILES IDX 6 13 84 14 82 15 81 16 2 17 1 18 87 19 88 20 83 21 14 23
REMARK SMILES IDX 15 24 16 25 17 26 18 27 19 28 80 29 20 30 79 31 21 32 22 33
REMARK SMILES IDX 23 34 73 35 24 36 78 37 72 38 74 39 25 40 77 41 71 42 70 43
REMARK SMILES IDX 26 45 58 46 38 47 57 48 39 49 42 50 56 51 75 52 40 53 41 54
REMARK SMILES IDX 55 56 76 57 43 58 27 59 28 60 36 61 29 62 31 63 37 64 30 65
REMARK SMILES IDX 32 66 33 67 34 68 35 69 59 70 60 71 68 72 61 73 63 74 69 75
REMARK SMILES IDX 62 76 64 77 65 78 66 79 67 80 44 81 45 82 53 83 46 84 48 85
REMARK SMILES IDX 54 86 47 87 49 88 50 89 51 90 52 91
REMARK H PARENT 83 22 74 44 42 55
REMARK Flexibility Score: inf
ROOT
ATOM      1  C   UNL A   1      32.217  29.321  26.332  1.00  0.00     0.274 C 
ENDROOT
BRANCH   1   2
ATOM      2  O   UNL A   1      31.391  29.624  25.187  1.00  0.00    -0.461 OA
BRANCH   2   3
ATOM      3  C   UNL A   1      31.265  28.632  24.268  1.00  0.00     0.316 C 
ATOM      4  O   UNL A   1      30.691  27.568  24.491  1.00  0.00    -0.251 OA
BRANCH   3   5
ATOM      5  C   UNL A   1      31.908  28.894  22.925  1.00  0.00     0.200 C 
BRANCH   5   6
ATOM      6  S   UNL A   1      33.668  28.515  22.787  1.00  0.00    -0.074 SA
BRANCH   6   7
ATOM      7  C   UNL A   1      33.681  26.738  22.861  1.00  0.00     0.192 A 
ATOM      8  C   UNL A   1      34.482  22.993  25.643  1.00  0.00     0.162 A 
ATOM      9  C   UNL A   1      34.292  24.368  25.465  1.00  0.00     0.079 A 
ATOM     10  C   UNL A   1      34.416  22.119  24.551  1.00  0.00     0.161 A 
ATOM     11  C   UNL A   1      34.041  24.913  24.216  1.00  0.00     0.083 A 
ATOM     12  C   UNL A   1      34.073  22.648  23.306  1.00  0.00     0.066 A 
ATOM     13  N   UNL A   1      33.952  26.242  24.082  1.00  0.00    -0.222 NA
ATOM     14  C   UNL A   1      33.880  24.044  23.145  1.00  0.00     0.066 A 
ATOM     15  C   UNL A   1      33.509  24.677  21.966  1.00  0.00     0.223 A 
ATOM     16  N   UNL A   1      33.401  26.004  21.776  1.00  0.00    -0.187 NA
BRANCH   8  17
ATOM     17  O   UNL A   1      34.656  22.596  26.945  1.00  0.00    -0.493 OA
ATOM     18  C   UNL A   1      33.433  22.491  27.665  1.00  0.00     0.278 C 
ENDBRANCH   8  17
BRANCH  10  19
ATOM     19  O   UNL A   1      34.643  20.789  24.777  1.00  0.00    -0.493 OA
ATOM     20  C   UNL A   1      33.483  19.979  24.953  1.00  0.00     0.278 C 
ENDBRANCH  10  19
BRANCH  15  21
ATOM     21  O   UNL A   1      33.165  23.924  20.882  1.00  0.00    -0.493 OA
ATOM     22  H   UNL A   1      33.795  23.355  20.487  1.00  0.00     0.295 HD
ENDBRANCH  15  21
ENDBRANCH   6   7
ENDBRANCH   5   6
ENDBRANCH   3   5
ENDBRANCH   2   3
ENDBRANCH   1   2
BRANCH   1  23
ATOM     23  C   UNL A   1      32.880  30.579  26.882  1.00  0.00     0.275 C 
BRANCH  23  24
ATOM     24  O   UNL A   1      34.132  30.239  27.498  1.00  0.00    -0.458 OA
BRANCH  24  25
ATOM     25  C   UNL A   1      34.934  31.284  27.793  1.00  0.00     0.338 C 
ATOM     26  O   UNL A   1      34.739  32.463  27.544  1.00  0.00    -0.246 OA
BRANCH  25  27
ATOM     27  C   UNL A   1      36.156  30.783  28.438  1.00  0.00     0.060 A 
ATOM     28  C   UNL A   1      36.067  29.653  29.250  1.00  0.00     0.016 A 
ATOM     29  C   UNL A   1      37.399  31.359  28.155  1.00  0.00     0.016 A 
ATOM     30  C   UNL A   1      37.230  29.111  29.798  1.00  0.00     0.010 A 
ATOM     31  C   UNL A   1      38.564  30.779  28.653  1.00  0.00     0.010 A 
ATOM     32  C   UNL A   1      38.487  29.662  29.495  1.00  0.00    -0.014 A 
BRANCH  32  33
ATOM     33  C   UNL A   1      39.716  29.060  30.060  1.00  0.00     0.031 A 
ATOM     34  C   UNL A   1      40.390  27.913  29.364  1.00  0.00     0.074 A 
ATOM     35  C   UNL A   1      40.223  29.538  31.213  1.00  0.00     0.049 A 
ATOM     36  N   UNL A   1      41.549  27.368  29.624  1.00  0.00    -0.248 NA
ATOM     37  C   UNL A   1      39.669  27.290  28.243  1.00  0.00     0.031 C 
ATOM     38  C   UNL A   1      39.611  30.584  32.034  1.00  0.00     0.029 A 
ATOM     39  N   UNL A   1      41.367  29.204  31.892  1.00  0.00    -0.354 N 
ATOM     40  C   UNL A   1      41.697  26.339  28.702  1.00  0.00     0.074 A 
ATOM     41  C   UNL A   1      40.493  26.309  27.903  1.00  0.00     0.031 C 
ATOM     42  C   UNL A   1      40.397  30.819  33.098  1.00  0.00     0.029 A 
ATOM     43  C   UNL A   1      41.570  29.951  33.027  1.00  0.00     0.049 A 
ATOM     44  H   UNL A   1      41.983  28.496  31.595  1.00  0.00     0.167 HD
ATOM     45  C   UNL A   1      42.758  25.522  28.513  1.00  0.00     0.034 A 
ATOM     46  C   UNL A   1      42.602  29.961  33.894  1.00  0.00     0.034 A 
ATOM     47  C   UNL A   1      43.969  25.579  29.283  1.00  0.00     0.049 A 
ATOM     48  C   UNL A   1      43.793  29.081  33.637  1.00  0.00     0.074 A 
ATOM     49  C   UNL A   1      45.139  24.866  29.097  1.00  0.00     0.029 A 
ATOM     50  N   UNL A   1      44.160  26.386  30.392  1.00  0.00    -0.354 N 
ATOM     51  N   UNL A   1      44.002  28.253  32.642  1.00  0.00    -0.248 NA
ATOM     52  C   UNL A   1      44.908  29.166  34.591  1.00  0.00     0.031 C 
ATOM     53  C   UNL A   1      46.039  25.238  30.101  1.00  0.00     0.029 A 
ATOM     54  C   UNL A   1      45.426  26.183  30.910  1.00  0.00     0.049 A 
ATOM     55  H   UNL A   1      43.492  27.011  30.758  1.00  0.00     0.167 HD
ATOM     56  C   UNL A   1      45.280  27.742  32.832  1.00  0.00     0.074 A 
ATOM     57  C   UNL A   1      45.803  28.357  34.035  1.00  0.00     0.031 C 
ATOM     58  C   UNL A   1      45.953  26.837  32.080  1.00  0.00     0.034 A 
BRANCH  45  59
ATOM     59  C   UNL A   1      42.689  24.551  27.369  1.00  0.00     0.023 A 
ATOM     60  C   UNL A   1      43.225  24.932  26.122  1.00  0.00     0.012 A 
ATOM     61  C   UNL A   1      42.156  23.260  27.534  1.00  0.00     0.148 A 
ATOM     62  C   UNL A   1      43.215  24.045  25.047  1.00  0.00     0.002 A 
ATOM     63  C   UNL A   1      42.175  22.372  26.463  1.00  0.00     0.091 A 
ATOM     64  F   UNL A   1      41.631  22.931  28.722  1.00  0.00    -0.205 F 
ATOM     65  C   UNL A   1      42.699  22.764  25.219  1.00  0.00     0.022 A 
BRANCH  63  66
ATOM     66  S   UNL A   1      41.576  20.684  26.595  1.00  0.00     0.127 S 
ATOM     67  O   UNL A   1      40.131  20.875  26.485  1.00  0.00    -0.237 OA
ATOM     68  O   UNL A   1      42.197  20.045  25.434  1.00  0.00    -0.237 OA
ATOM     69  O   UNL A   1      42.045  20.191  27.883  1.00  0.00    -0.744 OA
ENDBRANCH  63  66
ENDBRANCH  45  59
BRANCH  46  70
ATOM     70  C   UNL A   1      42.593  30.940  35.013  1.00  0.00     0.023 A 
ATOM     71  C   UNL A   1      42.179  30.512  36.289  1.00  0.00     0.012 A 
ATOM     72  C   UNL A   1      43.074  32.252  34.843  1.00  0.00     0.148 A 
ATOM     73  C   UNL A   1      42.242  31.376  37.381  1.00  0.00     0.002 A 
ATOM     74  C   UNL A   1      43.162  33.098  35.942  1.00  0.00     0.091 A 
ATOM     75  F   UNL A   1      43.469  32.627  33.620  1.00  0.00    -0.205 F 
ATOM     76  C   UNL A   1      42.740  32.665  37.210  1.00  0.00     0.022 A 
BRANCH  74  77
ATOM     77  S   UNL A   1      43.869  34.746  35.848  1.00  0.00     0.127 S 
ATOM     78  O   UNL A   1      43.626  35.255  37.197  1.00  0.00    -0.237 OA
ATOM     79  O   UNL A   1      45.268  34.449  35.545  1.00  0.00    -0.237 OA
ATOM     80  O   UNL A   1      43.141  35.432  34.789  1.00  0.00    -0.744 OA
ENDBRANCH  74  77
ENDBRANCH  46  70
BRANCH  58  81
ATOM     81  C   UNL A   1      47.339  26.443  32.511  1.00  0.00     0.023 A 
ATOM     82  C   UNL A   1      48.430  27.249  32.137  1.00  0.00     0.012 A 
ATOM     83  C   UNL A   1      47.538  25.367  33.397  1.00  0.00     0.148 A 
ATOM     84  C   UNL A   1      49.705  26.987  32.636  1.00  0.00     0.002 A 
ATOM     85  C   UNL A   1      48.805  25.132  33.917  1.00  0.00     0.091 A 
ATOM     86  F   UNL A   1      46.483  24.608  33.728  1.00  0.00    -0.205 F 
ATOM     87  C   UNL A   1      49.890  25.939  33.536  1.00  0.00     0.022 A 
BRANCH  85  88
ATOM     88  S   UNL A   1      49.125  23.859  35.145  1.00  0.00     0.127 S 
ATOM     89  O   UNL A   1      48.618  22.665  34.473  1.00  0.00    -0.237 OA
ATOM     90  O   UNL A   1      50.582  23.914  35.275  1.00  0.00    -0.237 OA
ATOM     91  O   UNL A   1      48.396  24.259  36.340  1.00  0.00    -0.744 OA
ENDBRANCH  85  88
ENDBRANCH  58  81
ENDBRANCH  32  33
ENDBRANCH  25  27
ENDBRANCH  24  25
ENDBRANCH  23  24
ENDBRANCH   1  23
TORSDOF 19
ENDMDL
