MODEL 1
REMARK VINA RESULT:     -10.9      0.000      0.000
REMARK SMILES CCCc1cc(OCC(=O)OCCOC(=O)c2ccc(-c3c4nc(c(-c5cccc(S(=O)(=O)[O-])c5F)c5ccc([nH]5)c(-c5cccc(S(=O)(=O)[O-])c5F)c5nc(c(-c6cccc(S(=O)(=O)[O-])c6F)c6ccc3[nH]6)C=C5)C=C4)cc2)nc(Nc2ccc(C#N)cc2)n1
REMARK SMILES IDX 12 1 11 2 9 3 10 4 8 5 7 6 6 7 4 8 5 9 91 10 81 11 80 12
REMARK SMILES IDX 3 13 2 14 1 15 82 16 83 18 84 19 90 20 85 21 89 22 86 23
REMARK SMILES IDX 87 24 88 25 13 26 14 27 15 28 16 29 17 30 18 31 79 32 19 33
REMARK SMILES IDX 78 34 20 35 21 36 22 37 72 38 23 39 77 40 71 41 73 42 24 43
REMARK SMILES IDX 76 44 70 45 69 46 25 48 57 49 37 50 56 51 38 52 41 53 55 54
REMARK SMILES IDX 74 55 39 56 40 57 54 59 75 60 42 61 26 62 27 63 35 64 28 65
REMARK SMILES IDX 30 66 36 67 29 68 31 69 32 70 33 71 34 72 58 73 59 74 67 75
REMARK SMILES IDX 60 76 62 77 68 78 61 79 63 80 64 81 65 82 66 83 43 84 44 85
REMARK SMILES IDX 52 86 45 87 47 88 53 89 46 90 48 91 49 92 50 93 51 94
REMARK H PARENT 82 17 73 47 41 58
REMARK Flexibility Score: inf
ROOT
ATOM      1  C   UNL A   1      33.122  31.581  27.112  1.00  0.00     0.274 C 
ENDROOT
BRANCH   1   2
ATOM      2  O   UNL A   1      32.186  30.504  26.827  1.00  0.00    -0.460 OA
BRANCH   2   3
ATOM      3  C   UNL A   1      32.727  29.270  26.634  1.00  0.00     0.344 C 
ATOM      4  O   UNL A   1      33.560  29.017  25.765  1.00  0.00    -0.248 OA
BRANCH   3   5
ATOM      5  C   UNL A   1      32.276  28.195  27.650  1.00  0.00     0.353 C 
BRANCH   5   6
ATOM      6  O   UNL A   1      31.263  27.250  27.397  1.00  0.00    -0.466 OA
BRANCH   6   7
ATOM      7  C   UNL A   1      31.244  26.468  26.279  1.00  0.00     0.218 A 
ATOM      8  C   UNL A   1      31.526  24.501  25.016  1.00  0.00     0.050 A 
ATOM      9  C   UNL A   1      31.968  25.313  26.041  1.00  0.00     0.092 A 
ATOM     10  N   UNL A   1      30.595  24.946  24.179  1.00  0.00    -0.218 NA
ATOM     11  C   UNL A   1      30.105  26.176  24.328  1.00  0.00     0.230 A 
ATOM     12  N   UNL A   1      30.370  26.950  25.377  1.00  0.00    -0.177 NA
BRANCH   8  13
ATOM     13  C   UNL A   1      32.010  23.126  24.639  1.00  0.00     0.056 C 
BRANCH  13  14
ATOM     14  C   UNL A   1      31.857  22.678  23.196  1.00  0.00     0.003 C 
ATOM     15  C   UNL A   1      33.047  22.990  22.300  1.00  0.00     0.004 C 
ENDBRANCH  13  14
ENDBRANCH   8  13
BRANCH  11  16
ATOM     16  N   UNL A   1      29.354  26.675  23.267  1.00  0.00    -0.324 N 
ATOM     17  H   UNL A   1      28.964  26.032  22.632  1.00  0.00     0.170 HD
BRANCH  16  18
ATOM     18  C   UNL A   1      29.121  28.040  23.053  1.00  0.00     0.041 A 
ATOM     19  C   UNL A   1      30.081  28.842  22.433  1.00  0.00     0.027 A 
ATOM     20  C   UNL A   1      27.840  28.579  23.272  1.00  0.00     0.027 A 
ATOM     21  C   UNL A   1      29.774  30.160  22.070  1.00  0.00     0.021 A 
ATOM     22  C   UNL A   1      27.528  29.889  22.916  1.00  0.00     0.021 A 
ATOM     23  C   UNL A   1      28.502  30.689  22.323  1.00  0.00     0.052 A 
BRANCH  23  24
ATOM     24  C   UNL A   1      28.196  32.048  21.996  1.00  0.00     0.099 C 
ATOM     25  N   UNL A   1      27.934  33.137  21.684  1.00  0.00    -0.192 NA
ENDBRANCH  23  24
ENDBRANCH  16  18
ENDBRANCH  11  16
ENDBRANCH   6   7
ENDBRANCH   5   6
ENDBRANCH   3   5
ENDBRANCH   2   3
ENDBRANCH   1   2
BRANCH   1  26
ATOM     26  C   UNL A   1      32.426  32.913  27.478  1.00  0.00     0.275 C 
BRANCH  26  27
ATOM     27  O   UNL A   1      33.337  34.045  27.574  1.00  0.00    -0.458 OA
BRANCH  27  28
ATOM     28  C   UNL A   1      33.423  34.478  28.844  1.00  0.00     0.338 C 
ATOM     29  O   UNL A   1      32.577  35.197  29.357  1.00  0.00    -0.246 OA
BRANCH  28  30
ATOM     30  C   UNL A   1      34.568  34.135  29.697  1.00  0.00     0.060 A 
ATOM     31  C   UNL A   1      35.818  34.409  29.117  1.00  0.00     0.016 A 
ATOM     32  C   UNL A   1      34.443  33.093  30.619  1.00  0.00     0.016 A 
ATOM     33  C   UNL A   1      36.899  33.556  29.323  1.00  0.00     0.010 A 
ATOM     34  C   UNL A   1      35.552  32.271  30.879  1.00  0.00     0.010 A 
ATOM     35  C   UNL A   1      36.775  32.474  30.207  1.00  0.00    -0.014 A 
BRANCH  35  36
ATOM     36  C   UNL A   1      38.006  31.801  30.677  1.00  0.00     0.031 A 
ATOM     37  C   UNL A   1      38.727  30.711  29.942  1.00  0.00     0.074 A 
ATOM     38  C   UNL A   1      38.416  32.196  31.895  1.00  0.00     0.049 A 
ATOM     39  N   UNL A   1      39.776  30.027  30.326  1.00  0.00    -0.248 NA
ATOM     40  C   UNL A   1      38.219  30.331  28.619  1.00  0.00     0.031 C 
ATOM     41  C   UNL A   1      37.751  33.233  32.693  1.00  0.00     0.029 A 
ATOM     42  N   UNL A   1      39.430  31.753  32.694  1.00  0.00    -0.354 N 
ATOM     43  C   UNL A   1      40.043  29.112  29.313  1.00  0.00     0.074 A 
ATOM     44  C   UNL A   1      39.042  29.340  28.286  1.00  0.00     0.031 C 
ATOM     45  C   UNL A   1      38.336  33.306  33.890  1.00  0.00     0.029 A 
ATOM     46  C   UNL A   1      39.380  32.295  33.954  1.00  0.00     0.049 A 
ATOM     47  H   UNL A   1      40.121  31.117  32.399  1.00  0.00     0.167 HD
ATOM     48  C   UNL A   1      41.024  28.172  29.261  1.00  0.00     0.034 A 
ATOM     49  C   UNL A   1      40.055  31.980  35.069  1.00  0.00     0.034 A 
ATOM     50  C   UNL A   1      41.988  27.958  30.318  1.00  0.00     0.049 A 
ATOM     51  C   UNL A   1      41.117  30.938  34.991  1.00  0.00     0.074 A 
ATOM     52  C   UNL A   1      43.075  27.098  30.334  1.00  0.00     0.029 A 
ATOM     53  N   UNL A   1      41.957  28.572  31.564  1.00  0.00    -0.354 N 
ATOM     54  N   UNL A   1      41.452  30.184  33.975  1.00  0.00    -0.248 NA
ATOM     55  C   UNL A   1      41.931  30.744  36.193  1.00  0.00     0.031 C 
ATOM     56  C   UNL A   1      43.654  27.143  31.609  1.00  0.00     0.029 A 
ATOM     57  C   UNL A   1      42.978  28.085  32.367  1.00  0.00     0.049 A 
ATOM     58  H   UNL A   1      41.305  29.256  31.837  1.00  0.00     0.167 HD
ATOM     59  C   UNL A   1      42.540  29.440  34.401  1.00  0.00     0.074 A 
ATOM     60  C   UNL A   1      42.815  29.854  35.765  1.00  0.00     0.031 C 
ATOM     61  C   UNL A   1      43.247  28.502  33.723  1.00  0.00     0.034 A 
BRANCH  48  62
ATOM     62  C   UNL A   1      41.109  27.286  28.035  1.00  0.00     0.023 A 
ATOM     63  C   UNL A   1      41.814  27.718  26.891  1.00  0.00     0.012 A 
ATOM     64  C   UNL A   1      40.550  25.989  28.039  1.00  0.00     0.148 A 
ATOM     65  C   UNL A   1      41.916  26.901  25.762  1.00  0.00     0.002 A 
ATOM     66  C   UNL A   1      40.696  25.162  26.928  1.00  0.00     0.091 A 
ATOM     67  F   UNL A   1      39.880  25.585  29.127  1.00  0.00    -0.205 F 
ATOM     68  C   UNL A   1      41.364  25.623  25.783  1.00  0.00     0.022 A 
BRANCH  66  69
ATOM     69  S   UNL A   1      40.095  23.468  26.890  1.00  0.00     0.127 S 
ATOM     70  O   UNL A   1      40.788  22.937  25.717  1.00  0.00    -0.237 OA
ATOM     71  O   UNL A   1      40.571  22.942  28.169  1.00  0.00    -0.237 OA
ATOM     72  O   UNL A   1      38.646  23.559  26.773  1.00  0.00    -0.744 OA
ENDBRANCH  66  69
ENDBRANCH  48  62
BRANCH  49  73
ATOM     73  C   UNL A   1      39.721  32.702  36.320  1.00  0.00     0.023 A 
ATOM     74  C   UNL A   1      40.266  33.975  36.555  1.00  0.00     0.012 A 
ATOM     75  C   UNL A   1      38.744  32.187  37.196  1.00  0.00     0.148 A 
ATOM     76  C   UNL A   1      39.855  34.721  37.657  1.00  0.00     0.002 A 
ATOM     77  C   UNL A   1      38.297  32.960  38.257  1.00  0.00     0.091 A 
ATOM     78  F   UNL A   1      38.227  30.979  36.930  1.00  0.00    -0.205 F 
ATOM     79  C   UNL A   1      38.863  34.221  38.499  1.00  0.00     0.022 A 
BRANCH  77  80
ATOM     80  S   UNL A   1      36.915  32.466  39.293  1.00  0.00     0.127 S 
ATOM     81  O   UNL A   1      37.230  31.065  39.558  1.00  0.00    -0.237 OA
ATOM     82  O   UNL A   1      37.068  33.362  40.439  1.00  0.00    -0.237 OA
ATOM     83  O   UNL A   1      35.718  32.702  38.499  1.00  0.00    -0.744 OA
ENDBRANCH  77  80
ENDBRANCH  49  73
BRANCH  61  84
ATOM     84  C   UNL A   1      44.416  27.883  34.443  1.00  0.00     0.023 A 
ATOM     85  C   UNL A   1      45.683  28.499  34.409  1.00  0.00     0.012 A 
ATOM     86  C   UNL A   1      44.248  26.689  35.173  1.00  0.00     0.148 A 
ATOM     87  C   UNL A   1      46.776  27.911  35.047  1.00  0.00     0.002 A 
ATOM     88  C   UNL A   1      45.327  26.141  35.854  1.00  0.00     0.091 A 
ATOM     89  F   UNL A   1      43.042  26.104  35.173  1.00  0.00    -0.205 F 
ATOM     90  C   UNL A   1      46.595  26.739  35.778  1.00  0.00     0.022 A 
BRANCH  88  91
ATOM     91  S   UNL A   1      45.168  24.687  36.897  1.00  0.00     0.127 S 
ATOM     92  O   UNL A   1      46.555  24.235  36.990  1.00  0.00    -0.237 OA
ATOM     93  O   UNL A   1      44.628  25.255  38.132  1.00  0.00    -0.237 OA
ATOM     94  O   UNL A   1      44.265  23.784  36.198  1.00  0.00    -0.744 OA
ENDBRANCH  88  91
ENDBRANCH  61  84
ENDBRANCH  35  36
ENDBRANCH  28  30
ENDBRANCH  27  28
ENDBRANCH  26  27
ENDBRANCH   1  26
TORSDOF 21
ENDMDL
MODEL 2
REMARK VINA RESULT:     -10.5      1.382      1.713
REMARK SMILES CCCc1cc(OCC(=O)OCCOC(=O)c2ccc(-c3c4nc(c(-c5cccc(S(=O)(=O)[O-])c5F)c5ccc([nH]5)c(-c5cccc(S(=O)(=O)[O-])c5F)c5nc(c(-c6cccc(S(=O)(=O)[O-])c6F)c6ccc3[nH]6)C=C5)C=C4)cc2)nc(Nc2ccc(C#N)cc2)n1
REMARK SMILES IDX 12 1 11 2 9 3 10 4 8 5 7 6 6 7 4 8 5 9 91 10 81 11 80 12
REMARK SMILES IDX 3 13 2 14 1 15 82 16 83 18 84 19 90 20 85 21 89 22 86 23
REMARK SMILES IDX 87 24 88 25 13 26 14 27 15 28 16 29 17 30 18 31 79 32 19 33
REMARK SMILES IDX 78 34 20 35 21 36 22 37 72 38 23 39 77 40 71 41 73 42 24 43
REMARK SMILES IDX 76 44 70 45 69 46 25 48 57 49 37 50 56 51 38 52 41 53 55 54
REMARK SMILES IDX 74 55 39 56 40 57 54 59 75 60 42 61 26 62 27 63 35 64 28 65
REMARK SMILES IDX 30 66 36 67 29 68 31 69 32 70 33 71 34 72 58 73 59 74 67 75
REMARK SMILES IDX 60 76 62 77 68 78 61 79 63 80 64 81 65 82 66 83 43 84 44 85
REMARK SMILES IDX 52 86 45 87 47 88 53 89 46 90 48 91 49 92 50 93 51 94
REMARK H PARENT 82 17 73 47 41 58
REMARK Flexibility Score: inf
ROOT
ATOM      1  C   UNL A   1      33.279  31.330  26.777  1.00  0.00     0.274 C 
ENDROOT
BRANCH   1   2
ATOM      2  O   UNL A   1      32.256  30.325  27.031  1.00  0.00    -0.460 OA
BRANCH   2   3
ATOM      3  C   UNL A   1      32.703  29.071  27.312  1.00  0.00     0.344 C 
ATOM      4  O   UNL A   1      33.891  28.753  27.315  1.00  0.00    -0.248 OA
BRANCH   3   5
ATOM      5  C   UNL A   1      31.601  28.062  27.711  1.00  0.00     0.353 C 
BRANCH   5   6
ATOM      6  O   UNL A   1      31.585  26.713  27.307  1.00  0.00    -0.466 OA
BRANCH   6   7
ATOM      7  C   UNL A   1      31.687  26.333  26.000  1.00  0.00     0.218 A 
ATOM      8  C   UNL A   1      32.466  25.063  24.176  1.00  0.00     0.050 A 
ATOM      9  C   UNL A   1      32.732  25.658  25.393  1.00  0.00     0.092 A 
ATOM     10  N   UNL A   1      31.329  25.336  23.545  1.00  0.00    -0.218 NA
ATOM     11  C   UNL A   1      30.462  26.192  24.085  1.00  0.00     0.230 A 
ATOM     12  N   UNL A   1      30.580  26.679  25.317  1.00  0.00    -0.177 NA
BRANCH   8  13
ATOM     13  C   UNL A   1      33.347  24.143  23.374  1.00  0.00     0.056 C 
BRANCH  13  14
ATOM     14  C   UNL A   1      32.688  23.061  22.537  1.00  0.00     0.003 C 
ATOM     15  C   UNL A   1      32.244  21.831  23.316  1.00  0.00     0.004 C 
ENDBRANCH  13  14
ENDBRANCH   8  13
BRANCH  11  16
ATOM     16  N   UNL A   1      29.440  26.644  23.254  1.00  0.00    -0.324 N 
ATOM     17  H   UNL A   1      28.868  25.974  22.815  1.00  0.00     0.170 HD
BRANCH  16  18
ATOM     18  C   UNL A   1      29.181  27.999  23.006  1.00  0.00     0.041 A 
ATOM     19  C   UNL A   1      30.139  28.811  22.396  1.00  0.00     0.027 A 
ATOM     20  C   UNL A   1      27.882  28.511  23.180  1.00  0.00     0.027 A 
ATOM     21  C   UNL A   1      29.811  30.115  21.999  1.00  0.00     0.021 A 
ATOM     22  C   UNL A   1      27.550  29.805  22.790  1.00  0.00     0.021 A 
ATOM     23  C   UNL A   1      28.521  30.617  22.207  1.00  0.00     0.052 A 
BRANCH  23  24
ATOM     24  C   UNL A   1      28.192  31.962  21.844  1.00  0.00     0.099 C 
ATOM     25  N   UNL A   1      27.900  33.037  21.510  1.00  0.00    -0.192 NA
ENDBRANCH  23  24
ENDBRANCH  16  18
ENDBRANCH  11  16
ENDBRANCH   6   7
ENDBRANCH   5   6
ENDBRANCH   3   5
ENDBRANCH   2   3
ENDBRANCH   1   2
BRANCH   1  26
ATOM     26  C   UNL A   1      33.650  32.152  28.034  1.00  0.00     0.275 C 
BRANCH  26  27
ATOM     27  O   UNL A   1      33.364  33.574  27.912  1.00  0.00    -0.458 OA
BRANCH  27  28
ATOM     28  C   UNL A   1      33.491  34.188  29.101  1.00  0.00     0.338 C 
ATOM     29  O   UNL A   1      32.683  35.008  29.512  1.00  0.00    -0.246 OA
BRANCH  28  30
ATOM     30  C   UNL A   1      34.639  33.930  29.981  1.00  0.00     0.060 A 
ATOM     31  C   UNL A   1      35.886  34.187  29.387  1.00  0.00     0.016 A 
ATOM     32  C   UNL A   1      34.529  32.955  30.975  1.00  0.00     0.016 A 
ATOM     33  C   UNL A   1      36.982  33.373  29.658  1.00  0.00     0.010 A 
ATOM     34  C   UNL A   1      35.653  32.176  31.298  1.00  0.00     0.010 A 
ATOM     35  C   UNL A   1      36.875  32.354  30.617  1.00  0.00    -0.014 A 
BRANCH  35  36
ATOM     36  C   UNL A   1      38.117  31.742  31.139  1.00  0.00     0.031 A 
ATOM     37  C   UNL A   1      38.873  30.629  30.477  1.00  0.00     0.074 A 
ATOM     38  C   UNL A   1      38.502  32.218  32.336  1.00  0.00     0.049 A 
ATOM     39  N   UNL A   1      39.935  29.996  30.911  1.00  0.00    -0.248 NA
ATOM     40  C   UNL A   1      38.391  30.160  29.172  1.00  0.00     0.031 C 
ATOM     41  C   UNL A   1      37.802  33.282  33.064  1.00  0.00     0.029 A 
ATOM     42  N   UNL A   1      39.518  31.849  33.169  1.00  0.00    -0.354 N 
ATOM     43  C   UNL A   1      40.237  29.031  29.956  1.00  0.00     0.074 A 
ATOM     44  C   UNL A   1      39.242  29.172  28.907  1.00  0.00     0.031 C 
ATOM     45  C   UNL A   1      38.371  33.440  34.261  1.00  0.00     0.029 A 
ATOM     46  C   UNL A   1      39.439  32.462  34.395  1.00  0.00     0.049 A 
ATOM     47  H   UNL A   1      40.228  31.214  32.920  1.00  0.00     0.167 HD
ATOM     48  C   UNL A   1      41.241  28.115  29.970  1.00  0.00     0.034 A 
ATOM     49  C   UNL A   1      40.109  32.229  35.534  1.00  0.00     0.034 A 
ATOM     50  C   UNL A   1      42.198  27.987  31.048  1.00  0.00     0.049 A 
ATOM     51  C   UNL A   1      41.197  31.212  35.528  1.00  0.00     0.074 A 
ATOM     52  C   UNL A   1      43.305  27.158  31.126  1.00  0.00     0.029 A 
ATOM     53  N   UNL A   1      42.136  28.672  32.254  1.00  0.00    -0.354 N 
ATOM     54  N   UNL A   1      41.562  30.409  34.561  1.00  0.00    -0.248 NA
ATOM     55  C   UNL A   1      42.001  31.110  36.748  1.00  0.00     0.031 C 
ATOM     56  C   UNL A   1      43.868  27.292  32.402  1.00  0.00     0.029 A 
ATOM     57  C   UNL A   1      43.159  28.259  33.096  1.00  0.00     0.049 A 
ATOM     58  H   UNL A   1      41.464  29.354  32.480  1.00  0.00     0.167 HD
ATOM     59  C   UNL A   1      42.664  29.719  35.042  1.00  0.00     0.074 A 
ATOM     60  C   UNL A   1      42.912  30.219  36.382  1.00  0.00     0.031 C 
ATOM     61  C   UNL A   1      43.402  28.762  34.427  1.00  0.00     0.034 A 
BRANCH  48  62
ATOM     62  C   UNL A   1      41.362  27.161  28.799  1.00  0.00     0.023 A 
ATOM     63  C   UNL A   1      40.480  26.066  28.677  1.00  0.00     0.012 A 
ATOM     64  C   UNL A   1      42.306  27.388  27.774  1.00  0.00     0.148 A 
ATOM     65  C   UNL A   1      40.569  25.191  27.592  1.00  0.00     0.002 A 
ATOM     66  C   UNL A   1      42.359  26.540  26.671  1.00  0.00     0.091 A 
ATOM     67  F   UNL A   1      43.143  28.429  27.895  1.00  0.00    -0.205 F 
ATOM     68  C   UNL A   1      41.502  25.431  26.587  1.00  0.00     0.022 A 
BRANCH  66  69
ATOM     69  S   UNL A   1      43.469  26.815  25.283  1.00  0.00     0.127 S 
ATOM     70  O   UNL A   1      44.643  27.373  25.953  1.00  0.00    -0.237 OA
ATOM     71  O   UNL A   1      43.652  25.461  24.761  1.00  0.00    -0.237 OA
ATOM     72  O   UNL A   1      42.771  27.723  24.385  1.00  0.00    -0.744 OA
ENDBRANCH  66  69
ENDBRANCH  48  62
BRANCH  49  73
ATOM     73  C   UNL A   1      39.741  33.015  36.736  1.00  0.00     0.023 A 
ATOM     74  C   UNL A   1      40.158  34.352  36.847  1.00  0.00     0.012 A 
ATOM     75  C   UNL A   1      38.853  32.477  37.689  1.00  0.00     0.148 A 
ATOM     76  C   UNL A   1      39.708  35.141  37.904  1.00  0.00     0.002 A 
ATOM     77  C   UNL A   1      38.362  33.286  38.704  1.00  0.00     0.091 A 
ATOM     78  F   UNL A   1      38.456  31.205  37.541  1.00  0.00    -0.205 F 
ATOM     79  C   UNL A   1      38.801  34.613  38.822  1.00  0.00     0.022 A 
BRANCH  77  80
ATOM     80  S   UNL A   1      37.074  32.742  39.831  1.00  0.00     0.127 S 
ATOM     81  O   UNL A   1      37.075  33.814  40.821  1.00  0.00    -0.237 OA
ATOM     82  O   UNL A   1      35.904  32.711  38.953  1.00  0.00    -0.237 OA
ATOM     83  O   UNL A   1      37.496  31.436  40.317  1.00  0.00    -0.744 OA
ENDBRANCH  77  80
ENDBRANCH  49  73
BRANCH  61  84
ATOM     84  C   UNL A   1      44.577  28.216  35.195  1.00  0.00     0.023 A 
ATOM     85  C   UNL A   1      45.863  28.765  35.018  1.00  0.00     0.012 A 
ATOM     86  C   UNL A   1      44.398  27.161  36.111  1.00  0.00     0.148 A 
ATOM     87  C   UNL A   1      46.960  28.239  35.701  1.00  0.00     0.002 A 
ATOM     88  C   UNL A   1      45.484  26.682  36.833  1.00  0.00     0.091 A 
ATOM     89  F   UNL A   1      43.173  26.634  36.249  1.00  0.00    -0.205 F 
ATOM     90  C   UNL A   1      46.768  27.207  36.617  1.00  0.00     0.022 A 
BRANCH  88  91
ATOM     91  S   UNL A   1      45.317  25.420  38.100  1.00  0.00     0.127 S 
ATOM     92  O   UNL A   1      44.232  25.960  38.916  1.00  0.00    -0.237 OA
ATOM     93  O   UNL A   1      44.960  24.241  37.310  1.00  0.00    -0.237 OA
ATOM     94  O   UNL A   1      46.612  25.338  38.762  1.00  0.00    -0.744 OA
ENDBRANCH  88  91
ENDBRANCH  61  84
ENDBRANCH  35  36
ENDBRANCH  28  30
ENDBRANCH  27  28
ENDBRANCH  26  27
ENDBRANCH   1  26
TORSDOF 21
ENDMDL
MODEL 3
REMARK VINA RESULT:     -10.5      2.324      4.274
REMARK SMILES CCCc1cc(OCC(=O)OCCOC(=O)c2ccc(-c3c4nc(c(-c5cccc(S(=O)(=O)[O-])c5F)c5ccc([nH]5)c(-c5cccc(S(=O)(=O)[O-])c5F)c5nc(c(-c6cccc(S(=O)(=O)[O-])c6F)c6ccc3[nH]6)C=C5)C=C4)cc2)nc(Nc2ccc(C#N)cc2)n1
REMARK SMILES IDX 12 1 11 2 9 3 10 4 8 5 7 6 6 7 4 8 5 9 91 10 81 11 80 12
REMARK SMILES IDX 3 13 2 14 1 15 82 16 83 18 84 19 90 20 85 21 89 22 86 23
REMARK SMILES IDX 87 24 88 25 13 26 14 27 15 28 16 29 17 30 18 31 79 32 19 33
REMARK SMILES IDX 78 34 20 35 21 36 22 37 72 38 23 39 77 40 71 41 73 42 24 43
REMARK SMILES IDX 76 44 70 45 69 46 25 48 57 49 37 50 56 51 38 52 41 53 55 54
REMARK SMILES IDX 74 55 39 56 40 57 54 59 75 60 42 61 26 62 27 63 35 64 28 65
REMARK SMILES IDX 30 66 36 67 29 68 31 69 32 70 33 71 34 72 58 73 59 74 67 75
REMARK SMILES IDX 60 76 62 77 68 78 61 79 63 80 64 81 65 82 66 83 43 84 44 85
REMARK SMILES IDX 52 86 45 87 47 88 53 89 46 90 48 91 49 92 50 93 51 94
REMARK H PARENT 82 17 73 47 41 58
REMARK Flexibility Score: inf
ROOT
ATOM      1  C   UNL A   1      32.315  31.078  26.677  1.00  0.00     0.274 C 
ENDROOT
BRANCH   1   2
ATOM      2  O   UNL A   1      32.457  29.672  27.026  1.00  0.00    -0.460 OA
BRANCH   2   3
ATOM      3  C   UNL A   1      31.726  28.792  26.289  1.00  0.00     0.344 C 
ATOM      4  O   UNL A   1      31.360  29.006  25.135  1.00  0.00    -0.248 OA
BRANCH   3   5
ATOM      5  C   UNL A   1      31.440  27.441  26.984  1.00  0.00     0.353 C 
BRANCH   5   6
ATOM      6  O   UNL A   1      31.027  26.278  26.305  1.00  0.00    -0.466 OA
BRANCH   6   7
ATOM      7  C   UNL A   1      31.899  25.303  25.914  1.00  0.00     0.218 A 
ATOM      8  C   UNL A   1      34.000  24.292  25.587  1.00  0.00     0.050 A 
ATOM      9  C   UNL A   1      33.239  25.442  25.595  1.00  0.00     0.092 A 
ATOM     10  N   UNL A   1      33.403  23.107  25.662  1.00  0.00    -0.218 NA
ATOM     11  C   UNL A   1      32.074  23.039  25.730  1.00  0.00     0.230 A 
ATOM     12  N   UNL A   1      31.292  24.102  25.897  1.00  0.00    -0.177 NA
BRANCH   8  13
ATOM     13  C   UNL A   1      35.493  24.160  25.436  1.00  0.00     0.056 C 
BRANCH  13  14
ATOM     14  C   UNL A   1      36.090  22.766  25.363  1.00  0.00     0.003 C 
ATOM     15  C   UNL A   1      36.607  22.363  23.989  1.00  0.00     0.004 C 
ENDBRANCH  13  14
ENDBRANCH   8  13
BRANCH  11  16
ATOM     16  N   UNL A   1      31.507  21.784  25.523  1.00  0.00    -0.324 N 
ATOM     17  H   UNL A   1      30.562  21.656  25.769  1.00  0.00     0.170 HD
BRANCH  16  18
ATOM     18  C   UNL A   1      32.204  20.695  24.983  1.00  0.00     0.041 A 
ATOM     19  C   UNL A   1      32.867  19.788  25.812  1.00  0.00     0.027 A 
ATOM     20  C   UNL A   1      32.076  20.384  23.617  1.00  0.00     0.027 A 
ATOM     21  C   UNL A   1      33.414  18.613  25.278  1.00  0.00     0.021 A 
ATOM     22  C   UNL A   1      32.619  19.220  23.080  1.00  0.00     0.021 A 
ATOM     23  C   UNL A   1      33.302  18.334  23.910  1.00  0.00     0.052 A 
BRANCH  23  24
ATOM     24  C   UNL A   1      33.897  17.159  23.352  1.00  0.00     0.099 C 
ATOM     25  N   UNL A   1      34.421  16.231  22.886  1.00  0.00    -0.192 NA
ENDBRANCH  23  24
ENDBRANCH  16  18
ENDBRANCH  11  16
ENDBRANCH   6   7
ENDBRANCH   5   6
ENDBRANCH   3   5
ENDBRANCH   2   3
ENDBRANCH   1   2
BRANCH   1  26
ATOM     26  C   UNL A   1      33.190  32.013  27.545  1.00  0.00     0.275 C 
BRANCH  26  27
ATOM     27  O   UNL A   1      33.007  33.427  27.253  1.00  0.00    -0.458 OA
BRANCH  27  28
ATOM     28  C   UNL A   1      33.236  34.172  28.348  1.00  0.00     0.338 C 
ATOM     29  O   UNL A   1      32.530  35.118  28.665  1.00  0.00    -0.246 OA
BRANCH  28  30
ATOM     30  C   UNL A   1      34.381  33.909  29.230  1.00  0.00     0.060 A 
ATOM     31  C   UNL A   1      35.631  34.098  28.619  1.00  0.00     0.016 A 
ATOM     32  C   UNL A   1      34.245  32.980  30.264  1.00  0.00     0.016 A 
ATOM     33  C   UNL A   1      36.701  33.257  28.915  1.00  0.00     0.010 A 
ATOM     34  C   UNL A   1      35.344  32.176  30.611  1.00  0.00     0.010 A 
ATOM     35  C   UNL A   1      36.566  32.283  29.915  1.00  0.00    -0.014 A 
BRANCH  35  36
ATOM     36  C   UNL A   1      37.790  31.649  30.453  1.00  0.00     0.031 A 
ATOM     37  C   UNL A   1      38.587  30.587  29.758  1.00  0.00     0.074 A 
ATOM     38  C   UNL A   1      38.116  32.052  31.694  1.00  0.00     0.049 A 
ATOM     39  N   UNL A   1      39.635  29.936  30.199  1.00  0.00    -0.248 NA
ATOM     40  C   UNL A   1      38.169  30.197  28.406  1.00  0.00     0.031 C 
ATOM     41  C   UNL A   1      37.372  33.062  32.456  1.00  0.00     0.029 A 
ATOM     42  N   UNL A   1      39.097  31.639  32.549  1.00  0.00    -0.354 N 
ATOM     43  C   UNL A   1      39.990  29.036  29.200  1.00  0.00     0.074 A 
ATOM     44  C   UNL A   1      39.043  29.235  28.118  1.00  0.00     0.031 C 
ATOM     45  C   UNL A   1      37.885  33.148  33.684  1.00  0.00     0.029 A 
ATOM     46  C   UNL A   1      38.956  32.172  33.805  1.00  0.00     0.049 A 
ATOM     47  H   UNL A   1      39.825  31.026  32.292  1.00  0.00     0.167 HD
ATOM     48  C   UNL A   1      41.003  28.129  29.202  1.00  0.00     0.034 A 
ATOM     49  C   UNL A   1      39.577  31.874  34.956  1.00  0.00     0.034 A 
ATOM     50  C   UNL A   1      41.912  27.941  30.312  1.00  0.00     0.049 A 
ATOM     51  C   UNL A   1      40.676  30.868  34.936  1.00  0.00     0.074 A 
ATOM     52  C   UNL A   1      43.023  27.118  30.388  1.00  0.00     0.029 A 
ATOM     53  N   UNL A   1      41.789  28.548  31.556  1.00  0.00    -0.354 N 
ATOM     54  N   UNL A   1      41.093  30.130  33.939  1.00  0.00    -0.248 NA
ATOM     55  C   UNL A   1      41.425  30.695  36.183  1.00  0.00     0.031 C 
ATOM     56  C   UNL A   1      43.527  27.176  31.694  1.00  0.00     0.029 A 
ATOM     57  C   UNL A   1      42.777  28.091  32.415  1.00  0.00     0.049 A 
ATOM     58  H   UNL A   1      41.099  29.208  31.793  1.00  0.00     0.167 HD
ATOM     59  C   UNL A   1      42.179  29.421  34.424  1.00  0.00     0.074 A 
ATOM     60  C   UNL A   1      42.361  29.836  35.803  1.00  0.00     0.031 C 
ATOM     61  C   UNL A   1      42.955  28.510  33.785  1.00  0.00     0.034 A 
BRANCH  48  62
ATOM     62  C   UNL A   1      41.187  27.252  27.980  1.00  0.00     0.023 A 
ATOM     63  C   UNL A   1      41.779  27.775  26.810  1.00  0.00     0.012 A 
ATOM     64  C   UNL A   1      40.841  25.883  28.012  1.00  0.00     0.148 A 
ATOM     65  C   UNL A   1      41.972  26.971  25.684  1.00  0.00     0.002 A 
ATOM     66  C   UNL A   1      41.080  25.076  26.903  1.00  0.00     0.091 A 
ATOM     67  F   UNL A   1      40.278  25.392  29.125  1.00  0.00    -0.205 F 
ATOM     68  C   UNL A   1      41.630  25.622  25.733  1.00  0.00     0.022 A 
BRANCH  66  69
ATOM     69  S   UNL A   1      40.753  23.308  26.897  1.00  0.00     0.127 S 
ATOM     70  O   UNL A   1      41.275  22.909  28.204  1.00  0.00    -0.237 OA
ATOM     71  O   UNL A   1      39.295  23.264  26.785  1.00  0.00    -0.237 OA
ATOM     72  O   UNL A   1      41.467  22.771  25.748  1.00  0.00    -0.744 OA
ENDBRANCH  66  69
ENDBRANCH  48  62
BRANCH  49  73
ATOM     73  C   UNL A   1      39.148  32.579  36.188  1.00  0.00     0.023 A 
ATOM     74  C   UNL A   1      38.225  31.969  37.053  1.00  0.00     0.012 A 
ATOM     75  C   UNL A   1      39.774  33.783  36.570  1.00  0.00     0.148 A 
ATOM     76  C   UNL A   1      37.916  32.557  38.277  1.00  0.00     0.002 A 
ATOM     77  C   UNL A   1      39.507  34.331  37.815  1.00  0.00     0.091 A 
ATOM     78  F   UNL A   1      40.668  34.327  35.731  1.00  0.00    -0.205 F 
ATOM     79  C   UNL A   1      38.566  33.728  38.664  1.00  0.00     0.022 A 
BRANCH  77  80
ATOM     80  S   UNL A   1      40.411  35.741  38.460  1.00  0.00     0.127 S 
ATOM     81  O   UNL A   1      39.662  36.859  37.892  1.00  0.00    -0.237 OA
ATOM     82  O   UNL A   1      40.254  35.561  39.904  1.00  0.00    -0.237 OA
ATOM     83  O   UNL A   1      41.778  35.592  37.981  1.00  0.00    -0.744 OA
ENDBRANCH  77  80
ENDBRANCH  49  73
BRANCH  61  84
ATOM     84  C   UNL A   1      44.100  27.926  34.570  1.00  0.00     0.023 A 
ATOM     85  C   UNL A   1      45.346  28.583  34.609  1.00  0.00     0.012 A 
ATOM     86  C   UNL A   1      43.930  26.725  35.286  1.00  0.00     0.148 A 
ATOM     87  C   UNL A   1      46.420  28.028  35.306  1.00  0.00     0.002 A 
ATOM     88  C   UNL A   1      44.986  26.210  36.027  1.00  0.00     0.091 A 
ATOM     89  F   UNL A   1      42.746  26.102  35.218  1.00  0.00    -0.205 F 
ATOM     90  C   UNL A   1      46.236  26.848  36.024  1.00  0.00     0.022 A 
BRANCH  88  91
ATOM     91  S   UNL A   1      44.815  24.748  37.057  1.00  0.00     0.127 S 
ATOM     92  O   UNL A   1      46.160  24.620  37.616  1.00  0.00    -0.237 OA
ATOM     93  O   UNL A   1      43.792  25.168  38.016  1.00  0.00    -0.237 OA
ATOM     94  O   UNL A   1      44.407  23.671  36.166  1.00  0.00    -0.744 OA
ENDBRANCH  88  91
ENDBRANCH  61  84
ENDBRANCH  35  36
ENDBRANCH  28  30
ENDBRANCH  27  28
ENDBRANCH  26  27
ENDBRANCH   1  26
TORSDOF 21
ENDMDL
