MODEL 1
REMARK VINA RESULT:     -11.9      0.000      0.000
REMARK SMILES C[C@@H]1C[C@](Nc2ccccc2F)(C(=O)OCCOC(=O)c2ccc(-c3c4nc(c(-c5cccc(S(=O)(=O)[O-])c5F)c5ccc([nH]5)c(-c5cccc(S(=O)(=O)[O-])c5F)c5nc(c(-c6cccc(S(=O)(=O)[O-])c6F)c6ccc3[nH]6)C=C5)C=C4)cc2)CS1
REMARK SMILES IDX 17 1 16 2 15 3 13 4 14 5 4 6 1 7 2 8 3 9 85 10 84 11 5 12
REMARK SMILES IDX 6 14 7 15 11 16 8 17 10 18 12 19 9 20 18 21 19 22 20 23
REMARK SMILES IDX 21 24 22 25 83 26 23 27 82 28 24 29 25 30 26 31 76 32 27 33
REMARK SMILES IDX 81 34 75 35 77 36 28 37 80 38 74 39 73 40 29 42 61 43 41 44
REMARK SMILES IDX 60 45 42 46 45 47 59 48 78 49 43 50 44 51 58 53 79 54 46 55
REMARK SMILES IDX 30 56 31 57 39 58 32 59 34 60 40 61 33 62 35 63 36 64 37 65
REMARK SMILES IDX 38 66 62 67 63 68 71 69 64 70 66 71 72 72 65 73 67 74 68 75
REMARK SMILES IDX 69 76 70 77 47 78 48 79 56 80 49 81 51 82 57 83 50 84 52 85
REMARK SMILES IDX 53 86 54 87 55 88
REMARK H PARENT 5 13 77 41 45 52
REMARK Flexibility Score: inf
ROOT
ATOM      1  C   UNL A   1      37.416  21.014  24.701  1.00  0.00     0.275 C 
ENDROOT
BRANCH   1   2
ATOM      2  C   UNL A   1      36.144  20.226  24.986  1.00  0.00     0.274 C 
BRANCH   2   3
ATOM      3  O   UNL A   1      34.987  20.950  24.519  1.00  0.00    -0.460 OA
BRANCH   3   4
ATOM      4  C   UNL A   1      33.986  21.119  25.422  1.00  0.00     0.332 C 
ATOM      5  O   UNL A   1      34.141  21.087  26.642  1.00  0.00    -0.249 OA
BRANCH   4   6
ATOM      6  C   UNL A   1      32.593  21.410  24.781  1.00  0.00     0.146 C 
ATOM      7  C   UNL A   1      30.704  24.616  25.760  1.00  0.00     0.019 C 
ATOM      8  C   UNL A   1      31.032  23.375  24.942  1.00  0.00     0.046 C 
ATOM      9  C   UNL A   1      31.868  22.381  25.734  1.00  0.00     0.055 C 
ATOM     10  S   UNL A   1      32.096  23.761  23.530  1.00  0.00    -0.156 SA
ATOM     11  C   UNL A   1      32.756  22.069  23.401  1.00  0.00     0.110 C 
BRANCH   6  12
ATOM     12  N   UNL A   1      31.925  20.072  24.715  1.00  0.00    -0.367 N 
ATOM     13  H   UNL A   1      30.957  20.052  24.890  1.00  0.00     0.161 HD
BRANCH  12  14
ATOM     14  C   UNL A   1      32.534  18.860  24.434  1.00  0.00     0.071 A 
ATOM     15  C   UNL A   1      32.827  18.542  23.099  1.00  0.00     0.029 A 
ATOM     16  C   UNL A   1      32.856  17.905  25.407  1.00  0.00     0.146 A 
ATOM     17  C   UNL A   1      33.411  17.319  22.752  1.00  0.00     0.002 A 
ATOM     18  C   UNL A   1      33.434  16.681  25.071  1.00  0.00     0.041 A 
ATOM     19  F   UNL A   1      32.540  18.107  26.694  1.00  0.00    -0.205 F 
ATOM     20  C   UNL A   1      33.713  16.386  23.740  1.00  0.00     0.003 A 
ENDBRANCH  12  14
ENDBRANCH   6  12
ENDBRANCH   4   6
ENDBRANCH   3   4
ENDBRANCH   2   3
ENDBRANCH   1   2
BRANCH   1  21
ATOM     21  O   UNL A   1      37.806  21.740  25.879  1.00  0.00    -0.458 OA
BRANCH  21  22
ATOM     22  C   UNL A   1      39.104  21.608  26.230  1.00  0.00     0.338 C 
ATOM     23  O   UNL A   1      39.814  20.628  26.082  1.00  0.00    -0.246 OA
BRANCH  22  24
ATOM     24  C   UNL A   1      39.591  22.853  26.848  1.00  0.00     0.060 A 
ATOM     25  C   UNL A   1      39.048  24.089  26.494  1.00  0.00     0.016 A 
ATOM     26  C   UNL A   1      40.694  22.782  27.696  1.00  0.00     0.016 A 
ATOM     27  C   UNL A   1      39.684  25.263  26.899  1.00  0.00     0.010 A 
ATOM     28  C   UNL A   1      41.261  23.957  28.186  1.00  0.00     0.010 A 
ATOM     29  C   UNL A   1      40.792  25.211  27.758  1.00  0.00    -0.014 A 
BRANCH  29  30
ATOM     30  C   UNL A   1      41.482  26.445  28.222  1.00  0.00     0.031 A 
ATOM     31  C   UNL A   1      40.710  27.511  28.957  1.00  0.00     0.074 A 
ATOM     32  C   UNL A   1      42.779  26.653  27.919  1.00  0.00     0.049 A 
ATOM     33  N   UNL A   1      41.051  28.746  29.214  1.00  0.00    -0.248 NA
ATOM     34  C   UNL A   1      39.370  27.144  29.443  1.00  0.00     0.031 C 
ATOM     35  C   UNL A   1      43.643  25.708  27.212  1.00  0.00     0.029 A 
ATOM     36  N   UNL A   1      43.586  27.743  28.138  1.00  0.00    -0.354 N 
ATOM     37  C   UNL A   1      39.939  29.330  29.811  1.00  0.00     0.074 A 
ATOM     38  C   UNL A   1      38.921  28.305  29.901  1.00  0.00     0.031 C 
ATOM     39  C   UNL A   1      44.856  26.253  27.055  1.00  0.00     0.029 A 
ATOM     40  C   UNL A   1      44.835  27.617  27.576  1.00  0.00     0.049 A 
ATOM     41  H   UNL A   1      43.299  28.536  28.647  1.00  0.00     0.167 HD
ATOM     42  C   UNL A   1      39.784  30.601  30.250  1.00  0.00     0.034 A 
ATOM     43  C   UNL A   1      45.837  28.509  27.442  1.00  0.00     0.034 A 
ATOM     44  C   UNL A   1      40.830  31.588  30.249  1.00  0.00     0.049 A 
ATOM     45  C   UNL A   1      45.657  29.902  27.968  1.00  0.00     0.074 A 
ATOM     46  C   UNL A   1      40.797  32.876  30.755  1.00  0.00     0.029 A 
ATOM     47  N   UNL A   1      42.099  31.396  29.726  1.00  0.00    -0.354 N 
ATOM     48  N   UNL A   1      44.624  30.419  28.585  1.00  0.00    -0.248 NA
ATOM     49  C   UNL A   1      46.778  30.835  27.784  1.00  0.00     0.031 C 
ATOM     50  C   UNL A   1      42.047  33.463  30.538  1.00  0.00     0.029 A 
ATOM     51  C   UNL A   1      42.858  32.542  29.894  1.00  0.00     0.049 A 
ATOM     52  H   UNL A   1      42.416  30.568  29.299  1.00  0.00     0.167 HD
ATOM     53  C   UNL A   1      44.964  31.738  28.862  1.00  0.00     0.074 A 
ATOM     54  C   UNL A   1      46.317  31.929  28.377  1.00  0.00     0.031 C 
ATOM     55  C   UNL A   1      44.215  32.708  29.439  1.00  0.00     0.034 A 
BRANCH  42  56
ATOM     56  C   UNL A   1      38.445  30.994  30.810  1.00  0.00     0.023 A 
ATOM     57  C   UNL A   1      38.173  30.787  32.177  1.00  0.00     0.012 A 
ATOM     58  C   UNL A   1      37.484  31.632  30.003  1.00  0.00     0.148 A 
ATOM     59  C   UNL A   1      36.957  31.190  32.727  1.00  0.00     0.002 A 
ATOM     60  C   UNL A   1      36.286  32.062  30.565  1.00  0.00     0.091 A 
ATOM     61  F   UNL A   1      37.747  31.794  28.698  1.00  0.00    -0.205 F 
ATOM     62  C   UNL A   1      36.019  31.837  31.925  1.00  0.00     0.022 A 
BRANCH  60  63
ATOM     63  S   UNL A   1      35.059  32.965  29.613  1.00  0.00     0.127 S 
ATOM     64  O   UNL A   1      34.673  31.975  28.610  1.00  0.00    -0.237 OA
ATOM     65  O   UNL A   1      34.029  33.251  30.614  1.00  0.00    -0.237 OA
ATOM     66  O   UNL A   1      35.747  34.146  29.109  1.00  0.00    -0.744 OA
ENDBRANCH  60  63
ENDBRANCH  42  56
BRANCH  43  67
ATOM     67  C   UNL A   1      47.101  28.074  26.783  1.00  0.00     0.023 A 
ATOM     68  C   UNL A   1      48.088  27.430  27.550  1.00  0.00     0.012 A 
ATOM     69  C   UNL A   1      47.270  28.181  25.388  1.00  0.00     0.148 A 
ATOM     70  C   UNL A   1      49.221  26.892  26.938  1.00  0.00     0.002 A 
ATOM     71  C   UNL A   1      48.369  27.588  24.778  1.00  0.00     0.091 A 
ATOM     72  F   UNL A   1      46.326  28.817  24.681  1.00  0.00    -0.205 F 
ATOM     73  C   UNL A   1      49.351  26.953  25.553  1.00  0.00     0.022 A 
BRANCH  71  74
ATOM     74  S   UNL A   1      48.527  27.468  22.992  1.00  0.00     0.127 S 
ATOM     75  O   UNL A   1      49.844  28.058  22.768  1.00  0.00    -0.237 OA
ATOM     76  O   UNL A   1      48.455  26.022  22.779  1.00  0.00    -0.237 OA
ATOM     77  O   UNL A   1      47.399  28.208  22.446  1.00  0.00    -0.744 OA
ENDBRANCH  71  74
ENDBRANCH  43  67
BRANCH  55  78
ATOM     78  C   UNL A   1      44.822  34.077  29.565  1.00  0.00     0.023 A 
ATOM     79  C   UNL A   1      45.527  34.406  30.740  1.00  0.00     0.012 A 
ATOM     80  C   UNL A   1      44.783  34.996  28.499  1.00  0.00     0.148 A 
ATOM     81  C   UNL A   1      46.174  35.636  30.857  1.00  0.00     0.002 A 
ATOM     82  C   UNL A   1      45.461  36.205  28.608  1.00  0.00     0.091 A 
ATOM     83  F   UNL A   1      44.086  34.674  27.399  1.00  0.00    -0.205 F 
ATOM     84  C   UNL A   1      46.152  36.530  29.787  1.00  0.00     0.022 A 
BRANCH  82  85
ATOM     85  S   UNL A   1      45.546  37.369  27.242  1.00  0.00     0.127 S 
ATOM     86  O   UNL A   1      44.134  37.658  27.006  1.00  0.00    -0.237 OA
ATOM     87  O   UNL A   1      46.307  38.480  27.816  1.00  0.00    -0.237 OA
ATOM     88  O   UNL A   1      46.238  36.663  26.171  1.00  0.00    -0.744 OA
ENDBRANCH  82  85
ENDBRANCH  55  78
ENDBRANCH  29  30
ENDBRANCH  22  24
ENDBRANCH  21  22
ENDBRANCH   1  21
TORSDOF 16
ENDMDL
MODEL 2
REMARK VINA RESULT:     -11.8      2.300      3.697
REMARK SMILES C[C@@H]1C[C@](Nc2ccccc2F)(C(=O)OCCOC(=O)c2ccc(-c3c4nc(c(-c5cccc(S(=O)(=O)[O-])c5F)c5ccc([nH]5)c(-c5cccc(S(=O)(=O)[O-])c5F)c5nc(c(-c6cccc(S(=O)(=O)[O-])c6F)c6ccc3[nH]6)C=C5)C=C4)cc2)CS1
REMARK SMILES IDX 17 1 16 2 15 3 13 4 14 5 4 6 1 7 2 8 3 9 85 10 84 11 5 12
REMARK SMILES IDX 6 14 7 15 11 16 8 17 10 18 12 19 9 20 18 21 19 22 20 23
REMARK SMILES IDX 21 24 22 25 83 26 23 27 82 28 24 29 25 30 26 31 76 32 27 33
REMARK SMILES IDX 81 34 75 35 77 36 28 37 80 38 74 39 73 40 29 42 61 43 41 44
REMARK SMILES IDX 60 45 42 46 45 47 59 48 78 49 43 50 44 51 58 53 79 54 46 55
REMARK SMILES IDX 30 56 31 57 39 58 32 59 34 60 40 61 33 62 35 63 36 64 37 65
REMARK SMILES IDX 38 66 62 67 63 68 71 69 64 70 66 71 72 72 65 73 67 74 68 75
REMARK SMILES IDX 69 76 70 77 47 78 48 79 56 80 49 81 51 82 57 83 50 84 52 85
REMARK SMILES IDX 53 86 54 87 55 88
REMARK H PARENT 5 13 77 41 45 52
REMARK Flexibility Score: inf
ROOT
ATOM      1  C   UNL A   1      35.959  20.769  25.119  1.00  0.00     0.275 C 
ENDROOT
BRANCH   1   2
ATOM      2  C   UNL A   1      34.669  21.494  24.759  1.00  0.00     0.274 C 
BRANCH   2   3
ATOM      3  O   UNL A   1      34.822  22.916  24.941  1.00  0.00    -0.460 OA
BRANCH   3   4
ATOM      4  C   UNL A   1      33.988  23.494  25.845  1.00  0.00     0.332 C 
ATOM      5  O   UNL A   1      34.101  23.377  27.065  1.00  0.00    -0.249 OA
BRANCH   4   6
ATOM      6  C   UNL A   1      32.872  24.379  25.208  1.00  0.00     0.146 C 
ATOM      7  C   UNL A   1      32.890  24.984  21.407  1.00  0.00     0.019 C 
ATOM      8  C   UNL A   1      32.330  24.963  22.822  1.00  0.00     0.046 C 
ATOM      9  C   UNL A   1      33.434  24.892  23.866  1.00  0.00     0.055 C 
ATOM     10  S   UNL A   1      31.372  23.463  23.146  1.00  0.00    -0.156 SA
ATOM     11  C   UNL A   1      31.602  23.551  24.950  1.00  0.00     0.110 C 
BRANCH   6  12
ATOM     12  N   UNL A   1      32.661  25.483  26.196  1.00  0.00    -0.367 N 
ATOM     13  H   UNL A   1      32.469  25.217  27.123  1.00  0.00     0.161 HD
BRANCH  12  14
ATOM     14  C   UNL A   1      32.706  26.843  25.934  1.00  0.00     0.071 A 
ATOM     15  C   UNL A   1      33.874  27.555  26.248  1.00  0.00     0.029 A 
ATOM     16  C   UNL A   1      31.637  27.570  25.395  1.00  0.00     0.146 A 
ATOM     17  C   UNL A   1      33.966  28.935  26.037  1.00  0.00     0.002 A 
ATOM     18  C   UNL A   1      31.717  28.946  25.184  1.00  0.00     0.041 A 
ATOM     19  F   UNL A   1      30.465  26.972  25.138  1.00  0.00    -0.205 F 
ATOM     20  C   UNL A   1      32.884  29.632  25.506  1.00  0.00     0.003 A 
ENDBRANCH  12  14
ENDBRANCH   6  12
ENDBRANCH   4   6
ENDBRANCH   3   4
ENDBRANCH   2   3
ENDBRANCH   1   2
BRANCH   1  21
ATOM     21  O   UNL A   1      37.076  21.654  24.933  1.00  0.00    -0.458 OA
BRANCH  21  22
ATOM     22  C   UNL A   1      38.218  21.273  25.546  1.00  0.00     0.338 C 
ATOM     23  O   UNL A   1      38.701  20.155  25.580  1.00  0.00    -0.246 OA
BRANCH  22  24
ATOM     24  C   UNL A   1      38.846  22.428  26.210  1.00  0.00     0.060 A 
ATOM     25  C   UNL A   1      38.326  23.714  26.056  1.00  0.00     0.016 A 
ATOM     26  C   UNL A   1      40.048  22.227  26.887  1.00  0.00     0.016 A 
ATOM     27  C   UNL A   1      39.070  24.814  26.482  1.00  0.00     0.010 A 
ATOM     28  C   UNL A   1      40.735  23.323  27.407  1.00  0.00     0.010 A 
ATOM     29  C   UNL A   1      40.279  24.632  27.171  1.00  0.00    -0.014 A 
BRANCH  29  30
ATOM     30  C   UNL A   1      41.087  25.785  27.653  1.00  0.00     0.031 A 
ATOM     31  C   UNL A   1      40.442  26.865  28.483  1.00  0.00     0.074 A 
ATOM     32  C   UNL A   1      42.378  25.910  27.286  1.00  0.00     0.049 A 
ATOM     33  N   UNL A   1      40.891  28.056  28.779  1.00  0.00    -0.248 NA
ATOM     34  C   UNL A   1      39.106  26.575  29.028  1.00  0.00     0.031 C 
ATOM     35  C   UNL A   1      43.126  24.941  26.485  1.00  0.00     0.029 A 
ATOM     36  N   UNL A   1      43.278  26.922  27.511  1.00  0.00    -0.354 N 
ATOM     37  C   UNL A   1      39.863  28.689  29.467  1.00  0.00     0.074 A 
ATOM     38  C   UNL A   1      38.774  27.741  29.566  1.00  0.00     0.031 C 
ATOM     39  C   UNL A   1      44.368  25.400  26.285  1.00  0.00     0.029 A 
ATOM     40  C   UNL A   1      44.482  26.732  26.872  1.00  0.00     0.049 A 
ATOM     41  H   UNL A   1      43.082  27.707  28.073  1.00  0.00     0.167 HD
ATOM     42  C   UNL A   1      39.832  29.943  29.976  1.00  0.00     0.034 A 
ATOM     43  C   UNL A   1      45.541  27.552  26.723  1.00  0.00     0.034 A 
ATOM     44  C   UNL A   1      40.950  30.848  29.962  1.00  0.00     0.049 A 
ATOM     45  C   UNL A   1      45.500  28.925  27.326  1.00  0.00     0.074 A 
ATOM     46  C   UNL A   1      41.045  32.106  30.531  1.00  0.00     0.029 A 
ATOM     47  N   UNL A   1      42.170  30.588  29.358  1.00  0.00    -0.354 N 
ATOM     48  N   UNL A   1      44.545  29.486  28.026  1.00  0.00    -0.248 NA
ATOM     49  C   UNL A   1      46.679  29.780  27.122  1.00  0.00     0.031 C 
ATOM     50  C   UNL A   1      42.324  32.608  30.270  1.00  0.00     0.029 A 
ATOM     51  C   UNL A   1      43.024  31.663  29.536  1.00  0.00     0.049 A 
ATOM     52  H   UNL A   1      42.397  29.762  28.873  1.00  0.00     0.167 HD
ATOM     53  C   UNL A   1      45.002  30.758  28.346  1.00  0.00     0.074 A 
ATOM     54  C   UNL A   1      46.338  30.872  27.794  1.00  0.00     0.031 C 
ATOM     55  C   UNL A   1      44.363  31.750  29.012  1.00  0.00     0.034 A 
BRANCH  42  56
ATOM     56  C   UNL A   1      38.560  30.406  30.631  1.00  0.00     0.023 A 
ATOM     57  C   UNL A   1      38.386  30.228  32.017  1.00  0.00     0.012 A 
ATOM     58  C   UNL A   1      37.570  31.080  29.890  1.00  0.00     0.148 A 
ATOM     59  C   UNL A   1      37.236  30.695  32.653  1.00  0.00     0.002 A 
ATOM     60  C   UNL A   1      36.441  31.573  30.536  1.00  0.00     0.091 A 
ATOM     61  F   UNL A   1      37.738  31.214  28.566  1.00  0.00    -0.205 F 
ATOM     62  C   UNL A   1      36.270  31.376  31.916  1.00  0.00     0.022 A 
BRANCH  60  63
ATOM     63  S   UNL A   1      35.187  32.522  29.668  1.00  0.00     0.127 S 
ATOM     64  O   UNL A   1      34.693  31.546  28.698  1.00  0.00    -0.237 OA
ATOM     65  O   UNL A   1      34.241  32.851  30.736  1.00  0.00    -0.237 OA
ATOM     66  O   UNL A   1      35.884  33.673  29.111  1.00  0.00    -0.744 OA
ENDBRANCH  60  63
ENDBRANCH  42  56
BRANCH  43  67
ATOM     67  C   UNL A   1      46.730  27.058  25.972  1.00  0.00     0.023 A 
ATOM     68  C   UNL A   1      46.825  27.314  24.592  1.00  0.00     0.012 A 
ATOM     69  C   UNL A   1      47.815  26.454  26.639  1.00  0.00     0.148 A 
ATOM     70  C   UNL A   1      47.984  26.984  23.889  1.00  0.00     0.002 A 
ATOM     71  C   UNL A   1      48.990  26.187  25.947  1.00  0.00     0.091 A 
ATOM     72  F   UNL A   1      47.694  26.201  27.950  1.00  0.00    -0.205 F 
ATOM     73  C   UNL A   1      49.071  26.440  24.569  1.00  0.00     0.022 A 
BRANCH  71  74
ATOM     74  S   UNL A   1      50.492  25.651  26.774  1.00  0.00     0.127 S 
ATOM     75  O   UNL A   1      50.786  26.795  27.632  1.00  0.00    -0.237 OA
ATOM     76  O   UNL A   1      50.038  24.451  27.478  1.00  0.00    -0.237 OA
ATOM     77  O   UNL A   1      51.454  25.391  25.711  1.00  0.00    -0.744 OA
ENDBRANCH  71  74
ENDBRANCH  43  67
BRANCH  55  78
ATOM     78  C   UNL A   1      45.082  33.061  29.168  1.00  0.00     0.023 A 
ATOM     79  C   UNL A   1      45.927  33.248  30.280  1.00  0.00     0.012 A 
ATOM     80  C   UNL A   1      45.003  34.061  28.182  1.00  0.00     0.148 A 
ATOM     81  C   UNL A   1      46.673  34.419  30.414  1.00  0.00     0.002 A 
ATOM     82  C   UNL A   1      45.777  35.211  28.303  1.00  0.00     0.091 A 
ATOM     83  F   UNL A   1      44.174  33.875  27.144  1.00  0.00    -0.205 F 
ATOM     84  C   UNL A   1      46.608  35.393  29.420  1.00  0.00     0.022 A 
BRANCH  82  85
ATOM     85  S   UNL A   1      45.808  36.470  27.022  1.00  0.00     0.127 S 
ATOM     86  O   UNL A   1      46.298  35.715  25.871  1.00  0.00    -0.237 OA
ATOM     87  O   UNL A   1      44.403  36.871  26.933  1.00  0.00    -0.237 OA
ATOM     88  O   UNL A   1      46.695  37.513  27.522  1.00  0.00    -0.744 OA
ENDBRANCH  82  85
ENDBRANCH  55  78
ENDBRANCH  29  30
ENDBRANCH  22  24
ENDBRANCH  21  22
ENDBRANCH   1  21
TORSDOF 16
ENDMDL
MODEL 3
REMARK VINA RESULT:     -11.8      5.531     10.420
REMARK SMILES C[C@@H]1C[C@](Nc2ccccc2F)(C(=O)OCCOC(=O)c2ccc(-c3c4nc(c(-c5cccc(S(=O)(=O)[O-])c5F)c5ccc([nH]5)c(-c5cccc(S(=O)(=O)[O-])c5F)c5nc(c(-c6cccc(S(=O)(=O)[O-])c6F)c6ccc3[nH]6)C=C5)C=C4)cc2)CS1
REMARK SMILES IDX 17 1 16 2 15 3 13 4 14 5 4 6 1 7 2 8 3 9 85 10 84 11 5 12
REMARK SMILES IDX 6 14 7 15 11 16 8 17 10 18 12 19 9 20 18 21 19 22 20 23
REMARK SMILES IDX 21 24 22 25 83 26 23 27 82 28 24 29 25 30 26 31 76 32 27 33
REMARK SMILES IDX 81 34 75 35 77 36 28 37 80 38 74 39 73 40 29 42 61 43 41 44
REMARK SMILES IDX 60 45 42 46 45 47 59 48 78 49 43 50 44 51 58 53 79 54 46 55
REMARK SMILES IDX 30 56 31 57 39 58 32 59 34 60 40 61 33 62 35 63 36 64 37 65
REMARK SMILES IDX 38 66 62 67 63 68 71 69 64 70 66 71 72 72 65 73 67 74 68 75
REMARK SMILES IDX 69 76 70 77 47 78 48 79 56 80 49 81 51 82 57 83 50 84 52 85
REMARK SMILES IDX 53 86 54 87 55 88
REMARK H PARENT 5 13 77 41 45 52
REMARK Flexibility Score: inf
ROOT
ATOM      1  C   UNL A   1      31.499  29.683  25.981  1.00  0.00     0.275 C 
ENDROOT
BRANCH   1   2
ATOM      2  C   UNL A   1      31.584  28.440  26.856  1.00  0.00     0.274 C 
BRANCH   2   3
ATOM      3  O   UNL A   1      32.167  27.344  26.121  1.00  0.00    -0.460 OA
BRANCH   3   4
ATOM      4  C   UNL A   1      31.392  26.236  25.990  1.00  0.00     0.332 C 
ATOM      5  O   UNL A   1      30.337  26.052  26.597  1.00  0.00    -0.249 OA
BRANCH   4   6
ATOM      6  C   UNL A   1      31.928  25.203  24.950  1.00  0.00     0.146 C 
ATOM      7  C   UNL A   1      35.633  24.166  25.067  1.00  0.00     0.019 C 
ATOM      8  C   UNL A   1      34.164  24.086  24.672  1.00  0.00     0.046 C 
ATOM      9  C   UNL A   1      33.453  25.416  24.869  1.00  0.00     0.055 C 
ATOM     10  S   UNL A   1      33.236  22.969  25.750  1.00  0.00    -0.156 SA
ATOM     11  C   UNL A   1      31.634  23.765  25.410  1.00  0.00     0.110 C 
BRANCH   6  12
ATOM     12  N   UNL A   1      31.235  25.563  23.673  1.00  0.00    -0.367 N 
ATOM     13  H   UNL A   1      31.107  24.839  23.020  1.00  0.00     0.161 HD
BRANCH  12  14
ATOM     14  C   UNL A   1      30.757  26.814  23.319  1.00  0.00     0.071 A 
ATOM     15  C   UNL A   1      29.396  27.099  23.511  1.00  0.00     0.029 A 
ATOM     16  C   UNL A   1      31.549  27.819  22.749  1.00  0.00     0.146 A 
ATOM     17  C   UNL A   1      28.851  28.333  23.142  1.00  0.00     0.002 A 
ATOM     18  C   UNL A   1      31.014  29.051  22.374  1.00  0.00     0.041 A 
ATOM     19  F   UNL A   1      32.841  27.595  22.469  1.00  0.00    -0.205 F 
ATOM     20  C   UNL A   1      29.661  29.311  22.570  1.00  0.00     0.003 A 
ENDBRANCH  12  14
ENDBRANCH   6  12
ENDBRANCH   4   6
ENDBRANCH   3   4
ENDBRANCH   2   3
ENDBRANCH   1   2
BRANCH   1  21
ATOM     21  O   UNL A   1      32.796  30.294  25.886  1.00  0.00    -0.458 OA
BRANCH  21  22
ATOM     22  C   UNL A   1      33.098  31.158  26.881  1.00  0.00     0.338 C 
ATOM     23  O   UNL A   1      32.399  32.056  27.316  1.00  0.00    -0.246 OA
BRANCH  22  24
ATOM     24  C   UNL A   1      34.444  30.875  27.407  1.00  0.00     0.060 A 
ATOM     25  C   UNL A   1      34.849  29.566  27.674  1.00  0.00     0.016 A 
ATOM     26  C   UNL A   1      35.256  31.952  27.758  1.00  0.00     0.016 A 
ATOM     27  C   UNL A   1      36.020  29.341  28.398  1.00  0.00     0.010 A 
ATOM     28  C   UNL A   1      36.478  31.716  28.385  1.00  0.00     0.010 A 
ATOM     29  C   UNL A   1      36.854  30.412  28.754  1.00  0.00    -0.014 A 
BRANCH  29  30
ATOM     30  C   UNL A   1      38.117  30.204  29.511  1.00  0.00     0.031 A 
ATOM     31  C   UNL A   1      39.196  29.314  28.949  1.00  0.00     0.074 A 
ATOM     32  C   UNL A   1      38.273  30.744  30.735  1.00  0.00     0.049 A 
ATOM     33  N   UNL A   1      40.239  28.803  29.548  1.00  0.00    -0.248 NA
ATOM     34  C   UNL A   1      39.069  28.928  27.534  1.00  0.00     0.031 C 
ATOM     35  C   UNL A   1      37.309  31.622  31.399  1.00  0.00     0.029 A 
ATOM     36  N   UNL A   1      39.285  30.605  31.653  1.00  0.00    -0.354 N 
ATOM     37  C   UNL A   1      40.842  27.968  28.615  1.00  0.00     0.074 A 
ATOM     38  C   UNL A   1      40.062  28.060  27.399  1.00  0.00     0.031 C 
ATOM     39  C   UNL A   1      37.772  31.945  32.614  1.00  0.00     0.029 A 
ATOM     40  C   UNL A   1      39.024  31.233  32.850  1.00  0.00     0.049 A 
ATOM     41  H   UNL A   1      40.113  30.104  31.474  1.00  0.00     0.167 HD
ATOM     42  C   UNL A   1      41.949  27.202  28.756  1.00  0.00     0.034 A 
ATOM     43  C   UNL A   1      39.684  31.202  34.025  1.00  0.00     0.034 A 
ATOM     44  C   UNL A   1      42.777  27.188  29.932  1.00  0.00     0.049 A 
ATOM     45  C   UNL A   1      40.928  30.374  34.149  1.00  0.00     0.074 A 
ATOM     46  C   UNL A   1      43.968  26.513  30.137  1.00  0.00     0.029 A 
ATOM     47  N   UNL A   1      42.509  27.889  31.097  1.00  0.00    -0.354 N 
ATOM     48  N   UNL A   1      41.520  29.640  33.239  1.00  0.00    -0.248 NA
ATOM     49  C   UNL A   1      41.599  30.368  35.457  1.00  0.00     0.031 C 
ATOM     50  C   UNL A   1      44.419  26.806  31.427  1.00  0.00     0.029 A 
ATOM     51  C   UNL A   1      43.508  27.661  32.027  1.00  0.00     0.049 A 
ATOM     52  H   UNL A   1      41.723  28.465  31.243  1.00  0.00     0.167 HD
ATOM     53  C   UNL A   1      42.630  29.082  33.860  1.00  0.00     0.074 A 
ATOM     54  C   UNL A   1      42.650  29.593  35.216  1.00  0.00     0.031 C 
ATOM     55  C   UNL A   1      43.534  28.204  33.361  1.00  0.00     0.034 A 
BRANCH  42  56
ATOM     56  C   UNL A   1      42.360  26.338  27.596  1.00  0.00     0.023 A 
ATOM     57  C   UNL A   1      43.211  26.863  26.603  1.00  0.00     0.012 A 
ATOM     58  C   UNL A   1      41.963  24.989  27.523  1.00  0.00     0.148 A 
ATOM     59  C   UNL A   1      43.645  26.064  25.546  1.00  0.00     0.002 A 
ATOM     60  C   UNL A   1      42.426  24.188  26.484  1.00  0.00     0.091 A 
ATOM     61  F   UNL A   1      41.128  24.514  28.459  1.00  0.00    -0.205 F 
ATOM     62  C   UNL A   1      43.262  24.726  25.492  1.00  0.00     0.022 A 
BRANCH  60  63
ATOM     63  S   UNL A   1      42.034  22.438  26.385  1.00  0.00     0.127 S 
ATOM     64  O   UNL A   1      40.578  22.465  26.267  1.00  0.00    -0.237 OA
ATOM     65  O   UNL A   1      42.736  22.024  25.168  1.00  0.00    -0.237 OA
ATOM     66  O   UNL A   1      42.562  21.850  27.609  1.00  0.00    -0.744 OA
ENDBRANCH  60  63
ENDBRANCH  42  56
BRANCH  43  67
ATOM     67  C   UNL A   1      39.158  32.006  35.164  1.00  0.00     0.023 A 
ATOM     68  C   UNL A   1      38.315  31.392  36.107  1.00  0.00     0.012 A 
ATOM     69  C   UNL A   1      39.590  33.330  35.382  1.00  0.00     0.148 A 
ATOM     70  C   UNL A   1      37.916  32.079  37.254  1.00  0.00     0.002 A 
ATOM     71  C   UNL A   1      39.242  33.986  36.557  1.00  0.00     0.091 A 
ATOM     72  F   UNL A   1      40.377  33.902  34.460  1.00  0.00    -0.205 F 
ATOM     73  C   UNL A   1      38.394  33.366  37.488  1.00  0.00     0.022 A 
BRANCH  71  74
ATOM     74  S   UNL A   1      39.951  35.571  37.020  1.00  0.00     0.127 S 
ATOM     75  O   UNL A   1      39.281  35.839  38.290  1.00  0.00    -0.237 OA
ATOM     76  O   UNL A   1      41.373  35.244  37.129  1.00  0.00    -0.237 OA
ATOM     77  O   UNL A   1      39.629  36.479  35.928  1.00  0.00    -0.744 OA
ENDBRANCH  71  74
ENDBRANCH  43  67
BRANCH  55  78
ATOM     78  C   UNL A   1      44.616  27.716  34.284  1.00  0.00     0.023 A 
ATOM     79  C   UNL A   1      45.789  28.483  34.428  1.00  0.00     0.012 A 
ATOM     80  C   UNL A   1      44.439  26.565  35.074  1.00  0.00     0.148 A 
ATOM     81  C   UNL A   1      46.776  28.104  35.337  1.00  0.00     0.002 A 
ATOM     82  C   UNL A   1      45.410  26.212  36.004  1.00  0.00     0.091 A 
ATOM     83  F   UNL A   1      43.327  25.834  34.904  1.00  0.00    -0.205 F 
ATOM     84  C   UNL A   1      46.581  26.977  36.134  1.00  0.00     0.022 A 
BRANCH  82  85
ATOM     85  S   UNL A   1      45.191  24.823  37.123  1.00  0.00     0.127 S 
ATOM     86  O   UNL A   1      46.510  24.726  37.743  1.00  0.00    -0.237 OA
ATOM     87  O   UNL A   1      44.132  25.296  38.016  1.00  0.00    -0.237 OA
ATOM     88  O   UNL A   1      44.802  23.701  36.279  1.00  0.00    -0.744 OA
ENDBRANCH  82  85
ENDBRANCH  55  78
ENDBRANCH  29  30
ENDBRANCH  22  24
ENDBRANCH  21  22
ENDBRANCH   1  21
TORSDOF 16
ENDMDL
