MODEL 1
REMARK VINA RESULT:     -11.8      0.000      0.000
REMARK SMILES C[C@H](Oc1ccc(Cl)cc1Cl)C(=O)NNC(=O)[C@H]1CCCC[C@H]1C(=O)OCCOC(=O)c1ccc(-c2c3nc(c(-c4cccc(S(=O)(=O)[O-])c4F)c4ccc([nH]4)c(-c4cccc(S(=O)(=O)[O-])c4F)c4nc(c(-c5cccc(S(=O)(=O)[O-])c5F)c5ccc2[nH]5)C=C4)C=C3)cc1
REMARK SMILES IDX 27 1 26 2 24 3 25 4 23 5 18 6 19 7 20 8 22 9 21 10 16 11
REMARK SMILES IDX 15 12 17 14 14 15 12 16 13 17 2 19 1 20 3 21 4 22 5 23 10 24
REMARK SMILES IDX 6 25 9 26 11 27 7 28 8 29 28 30 29 31 30 32 31 33 32 34
REMARK SMILES IDX 33 35 94 36 34 37 93 38 35 39 36 40 37 41 87 42 38 43 92 44
REMARK SMILES IDX 86 45 88 46 39 47 91 48 85 49 84 50 40 52 72 53 52 54 71 55
REMARK SMILES IDX 53 56 56 57 70 58 89 59 54 60 55 61 69 63 90 64 57 65 41 66
REMARK SMILES IDX 42 67 50 68 43 69 45 70 51 71 44 72 46 73 47 74 48 75 49 76
REMARK SMILES IDX 73 77 74 78 82 79 75 80 77 81 83 82 76 83 78 84 79 85 80 86
REMARK SMILES IDX 81 87 58 88 59 89 67 90 60 91 62 92 68 93 61 94 63 95 64 96
REMARK SMILES IDX 65 97 66 98
REMARK H PARENT 15 13 14 18 88 51 56 62
REMARK Flexibility Score: inf
ROOT
ATOM      1  C   UNL A   1      37.904  20.281  24.999  1.00  0.00     0.274 C 
ENDROOT
BRANCH   1   2
ATOM      2  O   UNL A   1      36.883  19.266  25.011  1.00  0.00    -0.462 OA
BRANCH   2   3
ATOM      3  C   UNL A   1      35.609  19.689  24.965  1.00  0.00     0.309 C 
ATOM      4  O   UNL A   1      35.276  20.870  24.935  1.00  0.00    -0.252 OA
BRANCH   3   5
ATOM      5  C   UNL A   1      34.569  18.583  24.968  1.00  0.00     0.111 C 
ATOM      6  C   UNL A   1      33.073  18.848  25.247  1.00  0.00     0.094 C 
ATOM      7  C   UNL A   1      32.399  17.498  25.577  1.00  0.00     0.014 C 
ATOM      8  C   UNL A   1      32.738  16.334  24.629  1.00  0.00     0.001 C 
ATOM      9  C   UNL A   1      34.776  17.593  23.828  1.00  0.00     0.016 C 
ATOM     10  C   UNL A   1      34.212  16.237  24.252  1.00  0.00     0.001 C 
BRANCH   6  11
ATOM     11  C   UNL A   1      32.333  19.834  24.315  1.00  0.00     0.242 C 
ATOM     12  N   UNL A   1      31.827  21.045  24.679  1.00  0.00    -0.267 N 
ATOM     13  H   UNL A   1      31.477  21.593  23.940  1.00  0.00     0.191 HD
ATOM     14  O   UNL A   1      32.192  19.576  23.113  1.00  0.00    -0.273 OA
BRANCH  12  15
ATOM     15  N   UNL A   1      31.731  21.614  25.927  1.00  0.00    -0.264 N 
ATOM     16  C   UNL A   1      32.225  22.863  26.228  1.00  0.00     0.279 C 
ATOM     17  O   UNL A   1      32.127  23.291  27.382  1.00  0.00    -0.269 OA
ATOM     18  H   UNL A   1      31.287  21.102  26.641  1.00  0.00     0.191 HD
BRANCH  16  19
ATOM     19  C   UNL A   1      32.876  23.711  25.121  1.00  0.00     0.260 C 
ATOM     20  C   UNL A   1      33.266  25.084  25.654  1.00  0.00     0.064 C 
BRANCH  19  21
ATOM     21  O   UNL A   1      31.925  23.831  24.060  1.00  0.00    -0.479 OA
BRANCH  21  22
ATOM     22  C   UNL A   1      31.263  25.006  23.853  1.00  0.00     0.139 A 
ATOM     23  C   UNL A   1      30.159  25.436  24.591  1.00  0.00     0.049 A 
ATOM     24  C   UNL A   1      31.708  25.791  22.774  1.00  0.00     0.084 A 
ATOM     25  C   UNL A   1      29.509  26.628  24.251  1.00  0.00     0.024 A 
ATOM     26  C   UNL A   1      31.063  26.981  22.435  1.00  0.00     0.045 A 
ATOM     27  Cl  UNL A   1      33.082  25.317  21.834  1.00  0.00    -0.080 Cl
ATOM     28  C   UNL A   1      29.959  27.390  23.175  1.00  0.00     0.042 A 
ATOM     29  Cl  UNL A   1      29.139  28.843  22.755  1.00  0.00    -0.084 Cl
ENDBRANCH  21  22
ENDBRANCH  19  21
ENDBRANCH  16  19
ENDBRANCH  12  15
ENDBRANCH   6  11
ENDBRANCH   3   5
ENDBRANCH   2   3
ENDBRANCH   1   2
BRANCH   1  30
ATOM     30  C   UNL A   1      39.269  19.689  25.355  1.00  0.00     0.275 C 
BRANCH  30  31
ATOM     31  O   UNL A   1      39.657  20.016  26.705  1.00  0.00    -0.458 OA
BRANCH  31  32
ATOM     32  C   UNL A   1      40.975  20.254  26.887  1.00  0.00     0.338 C 
ATOM     33  O   UNL A   1      41.904  19.480  26.709  1.00  0.00    -0.246 OA
BRANCH  32  34
ATOM     34  C   UNL A   1      41.195  21.663  27.240  1.00  0.00     0.060 A 
ATOM     35  C   UNL A   1      40.834  22.635  26.304  1.00  0.00     0.016 A 
ATOM     36  C   UNL A   1      41.853  22.022  28.417  1.00  0.00     0.016 A 
ATOM     37  C   UNL A   1      41.136  23.973  26.532  1.00  0.00     0.010 A 
ATOM     38  C   UNL A   1      42.153  23.369  28.647  1.00  0.00     0.010 A 
ATOM     39  C   UNL A   1      41.809  24.350  27.700  1.00  0.00    -0.014 A 
BRANCH  39  40
ATOM     40  C   UNL A   1      42.183  25.770  27.904  1.00  0.00     0.031 A 
ATOM     41  C   UNL A   1      43.542  26.258  27.490  1.00  0.00     0.074 A 
ATOM     42  C   UNL A   1      41.298  26.617  28.462  1.00  0.00     0.049 A 
ATOM     43  N   UNL A   1      44.071  27.445  27.638  1.00  0.00    -0.248 NA
ATOM     44  C   UNL A   1      44.422  25.284  26.827  1.00  0.00     0.031 C 
ATOM     45  C   UNL A   1      39.948  26.257  28.898  1.00  0.00     0.029 A 
ATOM     46  N   UNL A   1      41.409  27.948  28.777  1.00  0.00    -0.354 N 
ATOM     47  C   UNL A   1      45.359  27.351  27.126  1.00  0.00     0.074 A 
ATOM     48  C   UNL A   1      45.531  25.992  26.659  1.00  0.00     0.031 C 
ATOM     49  C   UNL A   1      39.363  27.336  29.443  1.00  0.00     0.029 A 
ATOM     50  C   UNL A   1      40.306  28.451  29.425  1.00  0.00     0.049 A 
ATOM     51  H   UNL A   1      42.202  28.490  28.560  1.00  0.00     0.167 HD
ATOM     52  C   UNL A   1      46.308  28.315  27.043  1.00  0.00     0.034 A 
ATOM     53  C   UNL A   1      40.089  29.666  29.965  1.00  0.00     0.034 A 
ATOM     54  C   UNL A   1      46.117  29.675  27.468  1.00  0.00     0.049 A 
ATOM     55  C   UNL A   1      41.158  30.719  29.853  1.00  0.00     0.074 A 
ATOM     56  C   UNL A   1      47.000  30.738  27.375  1.00  0.00     0.029 A 
ATOM     57  N   UNL A   1      44.967  30.163  28.070  1.00  0.00    -0.354 N 
ATOM     58  N   UNL A   1      42.330  30.645  29.268  1.00  0.00    -0.248 NA
ATOM     59  C   UNL A   1      40.868  32.030  30.452  1.00  0.00     0.031 C 
ATOM     60  C   UNL A   1      46.386  31.866  27.931  1.00  0.00     0.029 A 
ATOM     61  C   UNL A   1      45.118  31.508  28.360  1.00  0.00     0.049 A 
ATOM     62  H   UNL A   1      44.161  29.632  28.262  1.00  0.00     0.167 HD
ATOM     63  C   UNL A   1      42.905  31.903  29.407  1.00  0.00     0.074 A 
ATOM     64  C   UNL A   1      41.943  32.727  30.109  1.00  0.00     0.031 C 
ATOM     65  C   UNL A   1      44.129  32.330  29.009  1.00  0.00     0.034 A 
BRANCH  52  66
ATOM     66  C   UNL A   1      47.633  27.941  26.437  1.00  0.00     0.023 A 
ATOM     67  C   UNL A   1      48.710  27.600  27.280  1.00  0.00     0.012 A 
ATOM     68  C   UNL A   1      47.796  27.867  25.040  1.00  0.00     0.148 A 
ATOM     69  C   UNL A   1      49.937  27.213  26.740  1.00  0.00     0.002 A 
ATOM     70  C   UNL A   1      49.010  27.447  24.511  1.00  0.00     0.091 A 
ATOM     71  F   UNL A   1      46.766  28.221  24.257  1.00  0.00    -0.205 F 
ATOM     72  C   UNL A   1      50.083  27.126  25.358  1.00  0.00     0.022 A 
BRANCH  70  73
ATOM     73  S   UNL A   1      49.271  27.242  22.744  1.00  0.00     0.127 S 
ATOM     74  O   UNL A   1      50.709  26.991  22.686  1.00  0.00    -0.237 OA
ATOM     75  O   UNL A   1      48.437  26.077  22.440  1.00  0.00    -0.237 OA
ATOM     76  O   UNL A   1      48.821  28.483  22.129  1.00  0.00    -0.744 OA
ENDBRANCH  70  73
ENDBRANCH  52  66
BRANCH  53  77
ATOM     77  C   UNL A   1      38.787  29.958  30.629  1.00  0.00     0.023 A 
ATOM     78  C   UNL A   1      38.557  29.493  31.937  1.00  0.00     0.012 A 
ATOM     79  C   UNL A   1      37.797  30.728  29.989  1.00  0.00     0.148 A 
ATOM     80  C   UNL A   1      37.354  29.772  32.588  1.00  0.00     0.002 A 
ATOM     81  C   UNL A   1      36.625  31.050  30.664  1.00  0.00     0.091 A 
ATOM     82  F   UNL A   1      38.022  31.142  28.734  1.00  0.00    -0.205 F 
ATOM     83  C   UNL A   1      36.396  30.560  31.959  1.00  0.00     0.022 A 
BRANCH  81  84
ATOM     84  S   UNL A   1      35.405  32.172  29.971  1.00  0.00     0.127 S 
ATOM     85  O   UNL A   1      34.908  31.409  28.831  1.00  0.00    -0.237 OA
ATOM     86  O   UNL A   1      34.456  32.318  31.076  1.00  0.00    -0.237 OA
ATOM     87  O   UNL A   1      36.140  33.391  29.654  1.00  0.00    -0.744 OA
ENDBRANCH  81  84
ENDBRANCH  53  77
BRANCH  65  88
ATOM     88  C   UNL A   1      44.498  33.759  29.306  1.00  0.00     0.023 A 
ATOM     89  C   UNL A   1      45.012  34.091  30.575  1.00  0.00     0.012 A 
ATOM     90  C   UNL A   1      44.410  34.752  28.312  1.00  0.00     0.148 A 
ATOM     91  C   UNL A   1      45.411  35.397  30.856  1.00  0.00     0.002 A 
ATOM     92  C   UNL A   1      44.849  36.042  28.587  1.00  0.00     0.091 A 
ATOM     93  F   UNL A   1      43.897  34.420  27.118  1.00  0.00    -0.205 F 
ATOM     94  C   UNL A   1      45.342  36.369  29.861  1.00  0.00     0.022 A 
BRANCH  92  95
ATOM     95  S   UNL A   1      44.874  37.329  27.333  1.00  0.00     0.127 S 
ATOM     96  O   UNL A   1      43.474  37.367  26.915  1.00  0.00    -0.237 OA
ATOM     97  O   UNL A   1      45.315  38.501  28.092  1.00  0.00    -0.237 OA
ATOM     98  O   UNL A   1      45.822  36.878  26.323  1.00  0.00    -0.744 OA
ENDBRANCH  92  95
ENDBRANCH  65  88
ENDBRANCH  39  40
ENDBRANCH  32  34
ENDBRANCH  31  32
ENDBRANCH  30  31
ENDBRANCH   1  30
TORSDOF 19
ENDMDL
MODEL 2
REMARK VINA RESULT:     -11.8      4.952      9.989
REMARK SMILES C[C@H](Oc1ccc(Cl)cc1Cl)C(=O)NNC(=O)[C@H]1CCCC[C@H]1C(=O)OCCOC(=O)c1ccc(-c2c3nc(c(-c4cccc(S(=O)(=O)[O-])c4F)c4ccc([nH]4)c(-c4cccc(S(=O)(=O)[O-])c4F)c4nc(c(-c5cccc(S(=O)(=O)[O-])c5F)c5ccc2[nH]5)C=C4)C=C3)cc1
REMARK SMILES IDX 27 1 26 2 24 3 25 4 23 5 18 6 19 7 20 8 22 9 21 10 16 11
REMARK SMILES IDX 15 12 17 14 14 15 12 16 13 17 2 19 1 20 3 21 4 22 5 23 10 24
REMARK SMILES IDX 6 25 9 26 11 27 7 28 8 29 28 30 29 31 30 32 31 33 32 34
REMARK SMILES IDX 33 35 94 36 34 37 93 38 35 39 36 40 37 41 87 42 38 43 92 44
REMARK SMILES IDX 86 45 88 46 39 47 91 48 85 49 84 50 40 52 72 53 52 54 71 55
REMARK SMILES IDX 53 56 56 57 70 58 89 59 54 60 55 61 69 63 90 64 57 65 41 66
REMARK SMILES IDX 42 67 50 68 43 69 45 70 51 71 44 72 46 73 47 74 48 75 49 76
REMARK SMILES IDX 73 77 74 78 82 79 75 80 77 81 83 82 76 83 78 84 79 85 80 86
REMARK SMILES IDX 81 87 58 88 59 89 67 90 60 91 62 92 68 93 61 94 63 95 64 96
REMARK SMILES IDX 65 97 66 98
REMARK H PARENT 15 13 14 18 88 51 56 62
REMARK Flexibility Score: inf
ROOT
ATOM      1  C   UNL A   1      33.814  28.600  24.514  1.00  0.00     0.274 C 
ENDROOT
BRANCH   1   2
ATOM      2  O   UNL A   1      32.847  28.662  23.449  1.00  0.00    -0.462 OA
BRANCH   2   3
ATOM      3  C   UNL A   1      32.285  27.501  23.075  1.00  0.00     0.309 C 
ATOM      4  O   UNL A   1      32.907  26.555  22.601  1.00  0.00    -0.252 OA
BRANCH   3   5
ATOM      5  C   UNL A   1      30.780  27.431  23.263  1.00  0.00     0.111 C 
ATOM      6  C   UNL A   1      30.109  26.454  24.254  1.00  0.00     0.094 C 
ATOM      7  C   UNL A   1      28.610  26.358  23.894  1.00  0.00     0.014 C 
ATOM      8  C   UNL A   1      27.898  27.699  23.644  1.00  0.00     0.001 C 
ATOM      9  C   UNL A   1      30.137  28.813  23.293  1.00  0.00     0.016 C 
ATOM     10  C   UNL A   1      28.695  28.690  22.803  1.00  0.00     0.001 C 
BRANCH   6  11
ATOM     11  C   UNL A   1      30.506  26.558  25.744  1.00  0.00     0.242 C 
ATOM     12  N   UNL A   1      30.398  25.563  26.668  1.00  0.00    -0.267 N 
ATOM     13  H   UNL A   1      30.791  25.762  27.548  1.00  0.00     0.191 HD
ATOM     14  O   UNL A   1      31.009  27.598  26.188  1.00  0.00    -0.273 OA
BRANCH  12  15
ATOM     15  N   UNL A   1      29.819  24.321  26.552  1.00  0.00    -0.264 N 
ATOM     16  C   UNL A   1      30.526  23.184  26.236  1.00  0.00     0.279 C 
ATOM     17  O   UNL A   1      29.927  22.111  26.120  1.00  0.00    -0.269 OA
ATOM     18  H   UNL A   1      28.849  24.242  26.704  1.00  0.00     0.191 HD
BRANCH  16  19
ATOM     19  C   UNL A   1      32.051  23.264  26.047  1.00  0.00     0.260 C 
ATOM     20  C   UNL A   1      32.402  23.449  24.575  1.00  0.00     0.064 C 
BRANCH  19  21
ATOM     21  O   UNL A   1      32.609  22.049  26.552  1.00  0.00    -0.479 OA
BRANCH  21  22
ATOM     22  C   UNL A   1      33.852  21.643  26.163  1.00  0.00     0.139 A 
ATOM     23  C   UNL A   1      35.036  22.323  26.451  1.00  0.00     0.049 A 
ATOM     24  C   UNL A   1      33.908  20.486  25.365  1.00  0.00     0.084 A 
ATOM     25  C   UNL A   1      36.255  21.858  25.943  1.00  0.00     0.024 A 
ATOM     26  C   UNL A   1      35.122  20.018  24.859  1.00  0.00     0.045 A 
ATOM     27  Cl  UNL A   1      32.475  19.591  24.989  1.00  0.00    -0.080 Cl
ATOM     28  C   UNL A   1      36.291  20.713  25.148  1.00  0.00     0.042 A 
ATOM     29  Cl  UNL A   1      37.792  20.162  24.513  1.00  0.00    -0.084 Cl
ENDBRANCH  21  22
ENDBRANCH  19  21
ENDBRANCH  16  19
ENDBRANCH  12  15
ENDBRANCH   6  11
ENDBRANCH   3   5
ENDBRANCH   2   3
ENDBRANCH   1   2
BRANCH   1  30
ATOM     30  C   UNL A   1      33.465  29.589  25.628  1.00  0.00     0.275 C 
BRANCH  30  31
ATOM     31  O   UNL A   1      34.143  29.267  26.859  1.00  0.00    -0.458 OA
BRANCH  31  32
ATOM     32  C   UNL A   1      34.616  30.326  27.554  1.00  0.00     0.338 C 
ATOM     33  O   UNL A   1      34.042  31.378  27.792  1.00  0.00    -0.246 OA
BRANCH  32  34
ATOM     34  C   UNL A   1      35.934  30.015  28.122  1.00  0.00     0.060 A 
ATOM     35  C   UNL A   1      37.052  30.158  27.297  1.00  0.00     0.016 A 
ATOM     36  C   UNL A   1      36.064  29.477  29.404  1.00  0.00     0.016 A 
ATOM     37  C   UNL A   1      38.308  29.758  27.742  1.00  0.00     0.010 A 
ATOM     38  C   UNL A   1      37.327  29.078  29.852  1.00  0.00     0.010 A 
ATOM     39  C   UNL A   1      38.454  29.203  29.018  1.00  0.00    -0.014 A 
BRANCH  39  40
ATOM     40  C   UNL A   1      39.784  28.720  29.460  1.00  0.00     0.031 A 
ATOM     41  C   UNL A   1      40.519  29.434  30.558  1.00  0.00     0.074 A 
ATOM     42  C   UNL A   1      40.329  27.639  28.869  1.00  0.00     0.049 A 
ATOM     43  N   UNL A   1      41.710  29.197  31.041  1.00  0.00    -0.248 NA
ATOM     44  C   UNL A   1      39.823  30.563  31.195  1.00  0.00     0.031 C 
ATOM     45  C   UNL A   1      39.706  26.864  27.796  1.00  0.00     0.029 A 
ATOM     46  N   UNL A   1      41.537  27.021  29.074  1.00  0.00    -0.354 N 
ATOM     47  C   UNL A   1      41.927  30.172  32.008  1.00  0.00     0.074 A 
ATOM     48  C   UNL A   1      40.742  31.000  32.047  1.00  0.00     0.031 C 
ATOM     49  C   UNL A   1      40.546  25.884  27.422  1.00  0.00     0.029 A 
ATOM     50  C   UNL A   1      41.774  25.984  28.204  1.00  0.00     0.049 A 
ATOM     51  H   UNL A   1      42.171  27.294  29.776  1.00  0.00     0.167 HD
ATOM     52  C   UNL A   1      43.013  30.351  32.799  1.00  0.00     0.034 A 
ATOM     53  C   UNL A   1      42.870  25.217  28.038  1.00  0.00     0.034 A 
ATOM     54  C   UNL A   1      44.170  29.497  32.788  1.00  0.00     0.049 A 
ATOM     55  C   UNL A   1      44.059  25.434  28.934  1.00  0.00     0.074 A 
ATOM     56  C   UNL A   1      45.297  29.566  33.589  1.00  0.00     0.029 A 
ATOM     57  N   UNL A   1      44.354  28.423  31.931  1.00  0.00    -0.354 N 
ATOM     58  N   UNL A   1      44.204  26.291  29.917  1.00  0.00    -0.248 NA
ATOM     59  C   UNL A   1      45.225  24.565  28.717  1.00  0.00     0.031 C 
ATOM     60  C   UNL A   1      46.167  28.538  33.209  1.00  0.00     0.029 A 
ATOM     61  C   UNL A   1      45.577  27.823  32.178  1.00  0.00     0.049 A 
ATOM     62  H   UNL A   1      43.710  28.128  31.248  1.00  0.00     0.167 HD
ATOM     63  C   UNL A   1      45.465  26.048  30.450  1.00  0.00     0.074 A 
ATOM     64  C   UNL A   1      46.032  24.947  29.698  1.00  0.00     0.031 C 
ATOM     65  C   UNL A   1      46.105  26.693  31.458  1.00  0.00     0.034 A 
BRANCH  52  66
ATOM     66  C   UNL A   1      42.987  31.497  33.772  1.00  0.00     0.023 A 
ATOM     67  C   UNL A   1      43.462  32.761  33.368  1.00  0.00     0.012 A 
ATOM     68  C   UNL A   1      42.439  31.342  35.060  1.00  0.00     0.148 A 
ATOM     69  C   UNL A   1      43.412  33.848  34.241  1.00  0.00     0.002 A 
ATOM     70  C   UNL A   1      42.360  32.438  35.911  1.00  0.00     0.091 A 
ATOM     71  F   UNL A   1      42.016  30.124  35.433  1.00  0.00    -0.205 F 
ATOM     72  C   UNL A   1      42.853  33.690  35.506  1.00  0.00     0.022 A 
BRANCH  70  73
ATOM     73  S   UNL A   1      41.596  32.344  37.534  1.00  0.00     0.127 S 
ATOM     74  O   UNL A   1      41.707  33.727  37.993  1.00  0.00    -0.237 OA
ATOM     75  O   UNL A   1      40.233  31.918  37.212  1.00  0.00    -0.237 OA
ATOM     76  O   UNL A   1      42.373  31.367  38.284  1.00  0.00    -0.744 OA
ENDBRANCH  70  73
ENDBRANCH  52  66
BRANCH  53  77
ATOM     77  C   UNL A   1      42.873  24.148  27.000  1.00  0.00     0.023 A 
ATOM     78  C   UNL A   1      43.554  24.361  25.787  1.00  0.00     0.012 A 
ATOM     79  C   UNL A   1      42.243  22.908  27.226  1.00  0.00     0.148 A 
ATOM     80  C   UNL A   1      43.590  23.366  24.809  1.00  0.00     0.002 A 
ATOM     81  C   UNL A   1      42.330  21.902  26.270  1.00  0.00     0.091 A 
ATOM     82  F   UNL A   1      41.577  22.732  28.376  1.00  0.00    -0.205 F 
ATOM     83  C   UNL A   1      42.991  22.134  25.055  1.00  0.00     0.022 A 
BRANCH  81  84
ATOM     84  S   UNL A   1      41.701  20.246  26.573  1.00  0.00     0.127 S 
ATOM     85  O   UNL A   1      40.265  20.484  26.673  1.00  0.00    -0.237 OA
ATOM     86  O   UNL A   1      42.125  19.530  25.368  1.00  0.00    -0.237 OA
ATOM     87  O   UNL A   1      42.363  19.801  27.793  1.00  0.00    -0.744 OA
ENDBRANCH  81  84
ENDBRANCH  53  77
BRANCH  65  88
ATOM     88  C   UNL A   1      47.486  26.219  31.821  1.00  0.00     0.023 A 
ATOM     89  C   UNL A   1      48.599  26.734  31.129  1.00  0.00     0.012 A 
ATOM     90  C   UNL A   1      47.688  25.328  32.893  1.00  0.00     0.148 A 
ATOM     91  C   UNL A   1      49.892  26.352  31.483  1.00  0.00     0.002 A 
ATOM     92  C   UNL A   1      48.982  24.984  33.267  1.00  0.00     0.091 A 
ATOM     93  F   UNL A   1      46.615  24.831  33.525  1.00  0.00    -0.205 F 
ATOM     94  C   UNL A   1      50.085  25.487  32.558  1.00  0.00     0.022 A 
BRANCH  92  95
ATOM     95  S   UNL A   1      49.318  23.946  34.695  1.00  0.00     0.127 S 
ATOM     96  O   UNL A   1      50.765  24.087  34.834  1.00  0.00    -0.237 OA
ATOM     97  O   UNL A   1      48.538  24.597  35.750  1.00  0.00    -0.237 OA
ATOM     98  O   UNL A   1      48.845  22.616  34.336  1.00  0.00    -0.744 OA
ENDBRANCH  92  95
ENDBRANCH  65  88
ENDBRANCH  39  40
ENDBRANCH  32  34
ENDBRANCH  31  32
ENDBRANCH  30  31
ENDBRANCH   1  30
TORSDOF 19
ENDMDL
MODEL 3
REMARK VINA RESULT:     -11.6      1.843      2.534
REMARK SMILES C[C@H](Oc1ccc(Cl)cc1Cl)C(=O)NNC(=O)[C@H]1CCCC[C@H]1C(=O)OCCOC(=O)c1ccc(-c2c3nc(c(-c4cccc(S(=O)(=O)[O-])c4F)c4ccc([nH]4)c(-c4cccc(S(=O)(=O)[O-])c4F)c4nc(c(-c5cccc(S(=O)(=O)[O-])c5F)c5ccc2[nH]5)C=C4)C=C3)cc1
REMARK SMILES IDX 27 1 26 2 24 3 25 4 23 5 18 6 19 7 20 8 22 9 21 10 16 11
REMARK SMILES IDX 15 12 17 14 14 15 12 16 13 17 2 19 1 20 3 21 4 22 5 23 10 24
REMARK SMILES IDX 6 25 9 26 11 27 7 28 8 29 28 30 29 31 30 32 31 33 32 34
REMARK SMILES IDX 33 35 94 36 34 37 93 38 35 39 36 40 37 41 87 42 38 43 92 44
REMARK SMILES IDX 86 45 88 46 39 47 91 48 85 49 84 50 40 52 72 53 52 54 71 55
REMARK SMILES IDX 53 56 56 57 70 58 89 59 54 60 55 61 69 63 90 64 57 65 41 66
REMARK SMILES IDX 42 67 50 68 43 69 45 70 51 71 44 72 46 73 47 74 48 75 49 76
REMARK SMILES IDX 73 77 74 78 82 79 75 80 77 81 83 82 76 83 78 84 79 85 80 86
REMARK SMILES IDX 81 87 58 88 59 89 67 90 60 91 62 92 68 93 61 94 63 95 64 96
REMARK SMILES IDX 65 97 66 98
REMARK H PARENT 15 13 14 18 88 51 56 62
REMARK Flexibility Score: inf
ROOT
ATOM      1  C   UNL A   1      36.570  20.926  24.218  1.00  0.00     0.274 C 
ENDROOT
BRANCH   1   2
ATOM      2  O   UNL A   1      36.430  22.358  24.244  1.00  0.00    -0.462 OA
BRANCH   2   3
ATOM      3  C   UNL A   1      35.249  22.858  23.845  1.00  0.00     0.309 C 
ATOM      4  O   UNL A   1      35.055  23.371  22.747  1.00  0.00    -0.252 OA
BRANCH   3   5
ATOM      5  C   UNL A   1      34.135  22.764  24.873  1.00  0.00     0.111 C 
ATOM      6  C   UNL A   1      33.875  23.866  25.922  1.00  0.00     0.094 C 
ATOM      7  C   UNL A   1      32.975  23.273  27.029  1.00  0.00     0.014 C 
ATOM      8  C   UNL A   1      31.757  22.471  26.540  1.00  0.00     0.001 C 
ATOM      9  C   UNL A   1      32.843  22.221  24.273  1.00  0.00     0.016 C 
ATOM     10  C   UNL A   1      32.048  21.527  25.378  1.00  0.00     0.001 C 
BRANCH   6  11
ATOM     11  C   UNL A   1      33.568  25.290  25.406  1.00  0.00     0.242 C 
ATOM     12  N   UNL A   1      32.476  26.037  25.733  1.00  0.00    -0.267 N 
ATOM     13  H   UNL A   1      32.486  26.962  25.398  1.00  0.00     0.191 HD
ATOM     14  O   UNL A   1      34.365  25.872  24.660  1.00  0.00    -0.273 OA
BRANCH  12  15
ATOM     15  N   UNL A   1      31.363  25.688  26.460  1.00  0.00    -0.264 N 
ATOM     16  C   UNL A   1      30.106  25.578  25.911  1.00  0.00     0.279 C 
ATOM     17  O   UNL A   1      29.151  25.290  26.639  1.00  0.00    -0.269 OA
ATOM     18  H   UNL A   1      31.471  25.508  27.422  1.00  0.00     0.191 HD
BRANCH  16  19
ATOM     19  C   UNL A   1      29.913  25.799  24.400  1.00  0.00     0.260 C 
ATOM     20  C   UNL A   1      30.516  24.647  23.607  1.00  0.00     0.064 C 
BRANCH  19  21
ATOM     21  O   UNL A   1      30.549  27.035  24.065  1.00  0.00    -0.479 OA
BRANCH  21  22
ATOM     22  C   UNL A   1      29.864  28.007  23.397  1.00  0.00     0.139 A 
ATOM     23  C   UNL A   1      28.473  28.118  23.365  1.00  0.00     0.049 A 
ATOM     24  C   UNL A   1      30.636  28.912  22.647  1.00  0.00     0.084 A 
ATOM     25  C   UNL A   1      27.866  29.114  22.590  1.00  0.00     0.024 A 
ATOM     26  C   UNL A   1      30.034  29.908  21.876  1.00  0.00     0.045 A 
ATOM     27  Cl  UNL A   1      32.366  28.834  22.663  1.00  0.00    -0.080 Cl
ATOM     28  C   UNL A   1      28.647  29.998  21.848  1.00  0.00     0.042 A 
ATOM     29  Cl  UNL A   1      27.889  31.205  20.884  1.00  0.00    -0.084 Cl
ENDBRANCH  21  22
ENDBRANCH  19  21
ENDBRANCH  16  19
ENDBRANCH  12  15
ENDBRANCH   6  11
ENDBRANCH   3   5
ENDBRANCH   2   3
ENDBRANCH   1   2
BRANCH   1  30
ATOM     30  C   UNL A   1      37.747  20.475  25.086  1.00  0.00     0.275 C 
BRANCH  30  31
ATOM     31  O   UNL A   1      38.155  21.504  26.009  1.00  0.00    -0.458 OA
BRANCH  31  32
ATOM     32  C   UNL A   1      39.437  21.432  26.428  1.00  0.00     0.338 C 
ATOM     33  O   UNL A   1      40.200  20.481  26.333  1.00  0.00    -0.246 OA
BRANCH  32  34
ATOM     34  C   UNL A   1      39.881  22.734  26.942  1.00  0.00     0.060 A 
ATOM     35  C   UNL A   1      39.301  23.883  26.399  1.00  0.00     0.016 A 
ATOM     36  C   UNL A   1      40.932  22.835  27.855  1.00  0.00     0.016 A 
ATOM     37  C   UNL A   1      39.773  25.142  26.757  1.00  0.00     0.010 A 
ATOM     38  C   UNL A   1      41.403  24.101  28.217  1.00  0.00     0.010 A 
ATOM     39  C   UNL A   1      40.836  25.261  27.659  1.00  0.00    -0.014 A 
BRANCH  39  40
ATOM     40  C   UNL A   1      41.374  26.604  27.984  1.00  0.00     0.031 A 
ATOM     41  C   UNL A   1      42.785  26.960  27.615  1.00  0.00     0.074 A 
ATOM     42  C   UNL A   1      40.589  27.500  28.612  1.00  0.00     0.049 A 
ATOM     43  N   UNL A   1      43.450  28.058  27.864  1.00  0.00    -0.248 NA
ATOM     44  C   UNL A   1      43.551  25.948  26.871  1.00  0.00     0.031 C 
ATOM     45  C   UNL A   1      39.201  27.267  29.015  1.00  0.00     0.029 A 
ATOM     46  N   UNL A   1      40.854  28.776  29.040  1.00  0.00    -0.354 N 
ATOM     47  C   UNL A   1      44.723  27.856  27.347  1.00  0.00     0.074 A 
ATOM     48  C   UNL A   1      44.738  26.531  26.766  1.00  0.00     0.031 C 
ATOM     49  C   UNL A   1      38.742  28.358  29.650  1.00  0.00     0.029 A 
ATOM     50  C   UNL A   1      39.811  29.350  29.728  1.00  0.00     0.049 A 
ATOM     51  H   UNL A   1      41.707  29.236  28.871  1.00  0.00     0.167 HD
ATOM     52  C   UNL A   1      45.780  28.703  27.349  1.00  0.00     0.034 A 
ATOM     53  C   UNL A   1      39.734  30.532  30.370  1.00  0.00     0.034 A 
ATOM     54  C   UNL A   1      45.747  30.036  27.888  1.00  0.00     0.049 A 
ATOM     55  C   UNL A   1      40.921  31.456  30.350  1.00  0.00     0.074 A 
ATOM     56  C   UNL A   1      46.751  30.989  27.888  1.00  0.00     0.029 A 
ATOM     57  N   UNL A   1      44.657  30.604  28.528  1.00  0.00    -0.354 N 
ATOM     58  N   UNL A   1      42.082  31.293  29.762  1.00  0.00    -0.248 NA
ATOM     59  C   UNL A   1      40.782  32.736  31.059  1.00  0.00     0.031 C 
ATOM     60  C   UNL A   1      46.270  32.131  28.537  1.00  0.00     0.029 A 
ATOM     61  C   UNL A   1      44.963  31.892  28.933  1.00  0.00     0.049 A 
ATOM     62  H   UNL A   1      43.791  30.159  28.674  1.00  0.00     0.167 HD
ATOM     63  C   UNL A   1      42.801  32.457  30.008  1.00  0.00     0.074 A 
ATOM     64  C   UNL A   1      41.935  33.327  30.777  1.00  0.00     0.031 C 
ATOM     65  C   UNL A   1      44.072  32.768  29.650  1.00  0.00     0.034 A 
BRANCH  52  66
ATOM     66  C   UNL A   1      47.058  28.228  26.714  1.00  0.00     0.023 A 
ATOM     67  C   UNL A   1      48.113  27.776  27.532  1.00  0.00     0.012 A 
ATOM     68  C   UNL A   1      47.194  28.168  25.313  1.00  0.00     0.148 A 
ATOM     69  C   UNL A   1      49.293  27.294  26.964  1.00  0.00     0.002 A 
ATOM     70  C   UNL A   1      48.358  27.654  24.756  1.00  0.00     0.091 A 
ATOM     71  F   UNL A   1      46.187  28.627  24.554  1.00  0.00    -0.205 F 
ATOM     72  C   UNL A   1      49.411  27.223  25.579  1.00  0.00     0.022 A 
BRANCH  70  73
ATOM     73  S   UNL A   1      48.574  27.463  22.982  1.00  0.00     0.127 S 
ATOM     74  O   UNL A   1      48.443  26.016  22.823  1.00  0.00    -0.237 OA
ATOM     75  O   UNL A   1      47.453  28.237  22.447  1.00  0.00    -0.237 OA
ATOM     76  O   UNL A   1      49.887  28.014  22.679  1.00  0.00    -0.744 OA
ENDBRANCH  70  73
ENDBRANCH  52  66
BRANCH  53  77
ATOM     77  C   UNL A   1      38.469  30.919  31.056  1.00  0.00     0.023 A 
ATOM     78  C   UNL A   1      38.320  30.667  32.432  1.00  0.00     0.012 A 
ATOM     79  C   UNL A   1      37.432  31.573  30.361  1.00  0.00     0.148 A 
ATOM     80  C   UNL A   1      37.154  31.040  33.101  1.00  0.00     0.002 A 
ATOM     81  C   UNL A   1      36.296  31.991  31.045  1.00  0.00     0.091 A 
ATOM     82  F   UNL A   1      37.578  31.782  29.045  1.00  0.00    -0.205 F 
ATOM     83  C   UNL A   1      36.149  31.713  32.412  1.00  0.00     0.022 A 
BRANCH  81  84
ATOM     84  S   UNL A   1      35.022  32.983  30.256  1.00  0.00     0.127 S 
ATOM     85  O   UNL A   1      34.496  32.058  29.258  1.00  0.00    -0.237 OA
ATOM     86  O   UNL A   1      34.116  33.266  31.371  1.00  0.00    -0.237 OA
ATOM     87  O   UNL A   1      35.714  34.158  29.740  1.00  0.00    -0.744 OA
ENDBRANCH  81  84
ENDBRANCH  53  77
BRANCH  65  88
ATOM     88  C   UNL A   1      44.604  34.112  30.069  1.00  0.00     0.023 A 
ATOM     89  C   UNL A   1      45.305  34.230  31.284  1.00  0.00     0.012 A 
ATOM     90  C   UNL A   1      44.479  35.235  29.228  1.00  0.00     0.148 A 
ATOM     91  C   UNL A   1      45.854  35.453  31.668  1.00  0.00     0.002 A 
ATOM     92  C   UNL A   1      45.065  36.440  29.598  1.00  0.00     0.091 A 
ATOM     93  F   UNL A   1      43.789  35.107  28.086  1.00  0.00    -0.205 F 
ATOM     94  C   UNL A   1      45.746  36.553  30.821  1.00  0.00     0.022 A 
BRANCH  92  95
ATOM     95  S   UNL A   1      45.045  37.880  28.524  1.00  0.00     0.127 S 
ATOM     96  O   UNL A   1      45.570  37.330  27.276  1.00  0.00    -0.237 OA
ATOM     97  O   UNL A   1      43.623  38.226  28.486  1.00  0.00    -0.237 OA
ATOM     98  O   UNL A   1      45.886  38.873  29.179  1.00  0.00    -0.744 OA
ENDBRANCH  92  95
ENDBRANCH  65  88
ENDBRANCH  39  40
ENDBRANCH  32  34
ENDBRANCH  31  32
ENDBRANCH  30  31
ENDBRANCH   1  30
TORSDOF 19
ENDMDL
