MODEL 1
REMARK VINA RESULT:     -11.0      0.000      0.000
REMARK SMILES Cn1cc(C(=O)NCCc2ccccc2)c(C(=O)OCCOC(=O)c2ccc(-c3c4nc(c(-c5cccc(S(=O)(=O)[O-])c5F)c5ccc([nH]5)c(-c5cccc(S(=O)(=O)[O-])c5F)c5nc(c(-c6cccc(S(=O)(=O)[O-])c6F)c6ccc3[nH]6)C=C5)C=C4)cc2)n1
REMARK SMILES IDX 20 1 19 2 17 3 18 4 16 5 1 6 2 7 3 8 88 9 4 10 5 11 6 12
REMARK SMILES IDX 7 13 8 15 9 16 10 17 11 18 15 19 12 20 14 21 13 22 21 23
REMARK SMILES IDX 22 24 23 25 24 26 25 27 26 28 87 29 27 30 86 31 28 32 29 33
REMARK SMILES IDX 30 34 80 35 31 36 85 37 79 38 81 39 32 40 84 41 78 42 77 43
REMARK SMILES IDX 33 45 65 46 45 47 64 48 46 49 49 50 63 51 82 52 47 53 48 54
REMARK SMILES IDX 62 56 83 57 50 58 34 59 35 60 43 61 36 62 38 63 44 64 37 65
REMARK SMILES IDX 39 66 40 67 41 68 42 69 66 70 67 71 75 72 68 73 70 74 76 75
REMARK SMILES IDX 69 76 71 77 72 78 73 79 74 80 51 81 52 82 60 83 53 84 55 85
REMARK SMILES IDX 61 86 54 87 56 88 57 89 58 90 59 91
REMARK H PARENT 7 14 81 44 49 55
REMARK Flexibility Score: inf
ROOT
ATOM      1  C   UNL A   1      31.712  28.487  24.806  1.00  0.00     0.275 C 
ENDROOT
BRANCH   1   2
ATOM      2  O   UNL A   1      32.873  27.705  25.134  1.00  0.00    -0.457 OA
BRANCH   2   3
ATOM      3  C   UNL A   1      32.673  26.380  25.423  1.00  0.00     0.359 C 
ATOM      4  O   UNL A   1      31.653  25.926  25.907  1.00  0.00    -0.244 OA
BRANCH   3   5
ATOM      5  C   UNL A   1      33.801  25.556  24.948  1.00  0.00     0.183 A 
ATOM      6  C   UNL A   1      36.651  23.713  25.781  1.00  0.00     0.173 C 
ATOM      7  N   UNL A   1      35.530  24.341  25.123  1.00  0.00    -0.274 N 
ATOM      8  C   UNL A   1      35.033  24.056  23.887  1.00  0.00     0.123 A 
ATOM      9  N   UNL A   1      34.850  25.299  25.755  1.00  0.00    -0.165 NA
ATOM     10  C   UNL A   1      33.979  24.928  23.673  1.00  0.00     0.092 A 
BRANCH  10  11
ATOM     11  C   UNL A   1      33.184  25.192  22.488  1.00  0.00     0.255 C 
ATOM     12  O   UNL A   1      33.597  25.890  21.563  1.00  0.00    -0.269 OA
ATOM     13  N   UNL A   1      31.972  24.589  22.290  1.00  0.00    -0.352 N 
ATOM     14  H   UNL A   1      31.587  24.773  21.402  1.00  0.00     0.163 HD
BRANCH  13  15
ATOM     15  C   UNL A   1      31.134  23.736  23.115  1.00  0.00     0.121 C 
BRANCH  15  16
ATOM     16  C   UNL A   1      31.579  22.269  23.027  1.00  0.00     0.057 C 
BRANCH  16  17
ATOM     17  C   UNL A   1      32.285  21.856  24.302  1.00  0.00    -0.046 A 
ATOM     18  C   UNL A   1      31.986  22.498  25.511  1.00  0.00     0.004 A 
ATOM     19  C   UNL A   1      33.319  20.909  24.271  1.00  0.00     0.004 A 
ATOM     20  C   UNL A   1      32.731  22.223  26.658  1.00  0.00     0.000 A 
ATOM     21  C   UNL A   1      34.072  20.648  25.415  1.00  0.00     0.000 A 
ATOM     22  C   UNL A   1      33.783  21.310  26.606  1.00  0.00     0.000 A 
ENDBRANCH  16  17
ENDBRANCH  15  16
ENDBRANCH  13  15
ENDBRANCH  10  11
ENDBRANCH   3   5
ENDBRANCH   2   3
ENDBRANCH   1   2
BRANCH   1  23
ATOM     23  C   UNL A   1      31.733  29.800  25.593  1.00  0.00     0.275 C 
BRANCH  23  24
ATOM     24  O   UNL A   1      33.087  30.242  25.807  1.00  0.00    -0.458 OA
BRANCH  24  25
ATOM     25  C   UNL A   1      33.250  31.133  26.813  1.00  0.00     0.338 C 
ATOM     26  O   UNL A   1      32.433  31.936  27.233  1.00  0.00    -0.246 OA
BRANCH  25  27
ATOM     27  C   UNL A   1      34.554  30.908  27.455  1.00  0.00     0.060 A 
ATOM     28  C   UNL A   1      34.880  29.596  27.791  1.00  0.00     0.016 A 
ATOM     29  C   UNL A   1      35.409  31.954  27.792  1.00  0.00     0.016 A 
ATOM     30  C   UNL A   1      36.051  29.310  28.483  1.00  0.00     0.010 A 
ATOM     31  C   UNL A   1      36.596  31.669  28.480  1.00  0.00     0.010 A 
ATOM     32  C   UNL A   1      36.916  30.347  28.844  1.00  0.00    -0.014 A 
BRANCH  32  33
ATOM     33  C   UNL A   1      38.128  30.040  29.644  1.00  0.00     0.031 A 
ATOM     34  C   UNL A   1      39.178  29.121  29.088  1.00  0.00     0.074 A 
ATOM     35  C   UNL A   1      38.291  30.599  30.859  1.00  0.00     0.049 A 
ATOM     36  N   UNL A   1      40.270  28.675  29.654  1.00  0.00    -0.248 NA
ATOM     37  C   UNL A   1      38.974  28.634  27.713  1.00  0.00     0.031 C 
ATOM     38  C   UNL A   1      37.352  31.523  31.496  1.00  0.00     0.029 A 
ATOM     39  N   UNL A   1      39.297  30.457  31.782  1.00  0.00    -0.354 N 
ATOM     40  C   UNL A   1      40.856  27.820  28.730  1.00  0.00     0.074 A 
ATOM     41  C   UNL A   1      40.004  27.813  27.560  1.00  0.00     0.031 C 
ATOM     42  C   UNL A   1      37.819  31.855  32.710  1.00  0.00     0.029 A 
ATOM     43  C   UNL A   1      39.067  31.139  32.954  1.00  0.00     0.049 A 
ATOM     44  H   UNL A   1      40.106  29.920  31.620  1.00  0.00     0.167 HD
ATOM     45  C   UNL A   1      42.006  27.114  28.842  1.00  0.00     0.034 A 
ATOM     46  C   UNL A   1      39.769  31.163  34.104  1.00  0.00     0.034 A 
ATOM     47  C   UNL A   1      42.876  27.164  29.986  1.00  0.00     0.049 A 
ATOM     48  C   UNL A   1      41.043  30.368  34.198  1.00  0.00     0.074 A 
ATOM     49  C   UNL A   1      44.084  26.516  30.176  1.00  0.00     0.029 A 
ATOM     50  N   UNL A   1      42.633  27.903  31.133  1.00  0.00    -0.354 N 
ATOM     51  N   UNL A   1      41.629  29.635  33.282  1.00  0.00    -0.248 NA
ATOM     52  C   UNL A   1      41.768  30.421  35.477  1.00  0.00     0.031 C 
ATOM     53  C   UNL A   1      44.568  26.857  31.443  1.00  0.00     0.029 A 
ATOM     54  C   UNL A   1      43.666  27.726  32.037  1.00  0.00     0.049 A 
ATOM     55  H   UNL A   1      41.843  28.469  31.283  1.00  0.00     0.167 HD
ATOM     56  C   UNL A   1      42.801  29.163  33.862  1.00  0.00     0.074 A 
ATOM     57  C   UNL A   1      42.855  29.714  35.200  1.00  0.00     0.031 C 
ATOM     58  C   UNL A   1      43.736  28.330  33.342  1.00  0.00     0.034 A 
BRANCH  45  59
ATOM     59  C   UNL A   1      42.412  26.246  27.682  1.00  0.00     0.023 A 
ATOM     60  C   UNL A   1      43.284  26.758  26.701  1.00  0.00     0.012 A 
ATOM     61  C   UNL A   1      41.986  24.905  27.600  1.00  0.00     0.148 A 
ATOM     62  C   UNL A   1      43.710  25.956  25.643  1.00  0.00     0.002 A 
ATOM     63  C   UNL A   1      42.445  24.101  26.563  1.00  0.00     0.091 A 
ATOM     64  F   UNL A   1      41.139  24.445  28.531  1.00  0.00    -0.205 F 
ATOM     65  C   UNL A   1      43.300  24.626  25.580  1.00  0.00     0.022 A 
BRANCH  63  66
ATOM     66  S   UNL A   1      42.027  22.359  26.432  1.00  0.00     0.127 S 
ATOM     67  O   UNL A   1      40.571  22.412  26.307  1.00  0.00    -0.237 OA
ATOM     68  O   UNL A   1      42.730  21.965  25.210  1.00  0.00    -0.237 OA
ATOM     69  O   UNL A   1      42.529  21.734  27.648  1.00  0.00    -0.744 OA
ENDBRANCH  63  66
ENDBRANCH  45  59
BRANCH  46  70
ATOM     70  C   UNL A   1      39.296  31.991  35.249  1.00  0.00     0.023 A 
ATOM     71  C   UNL A   1      38.395  31.437  36.179  1.00  0.00     0.012 A 
ATOM     72  C   UNL A   1      39.750  33.311  35.437  1.00  0.00     0.148 A 
ATOM     73  C   UNL A   1      37.935  32.191  37.260  1.00  0.00     0.002 A 
ATOM     74  C   UNL A   1      39.329  34.038  36.546  1.00  0.00     0.091 A 
ATOM     75  F   UNL A   1      40.586  33.833  34.528  1.00  0.00    -0.205 F 
ATOM     76  C   UNL A   1      38.412  33.485  37.451  1.00  0.00     0.022 A 
BRANCH  74  77
ATOM     77  S   UNL A   1      40.000  35.661  36.926  1.00  0.00     0.127 S 
ATOM     78  O   UNL A   1      39.601  36.432  35.751  1.00  0.00    -0.237 OA
ATOM     79  O   UNL A   1      39.290  36.008  38.158  1.00  0.00    -0.237 OA
ATOM     80  O   UNL A   1      41.431  35.454  37.101  1.00  0.00    -0.744 OA
ENDBRANCH  74  77
ENDBRANCH  46  70
BRANCH  58  81
ATOM     81  C   UNL A   1      44.917  27.982  34.208  1.00  0.00     0.023 A 
ATOM     82  C   UNL A   1      46.055  28.811  34.194  1.00  0.00     0.012 A 
ATOM     83  C   UNL A   1      44.868  26.886  35.090  1.00  0.00     0.148 A 
ATOM     84  C   UNL A   1      47.139  28.538  35.028  1.00  0.00     0.002 A 
ATOM     85  C   UNL A   1      45.934  26.644  35.949  1.00  0.00     0.091 A 
ATOM     86  F   UNL A   1      43.783  26.096  35.073  1.00  0.00    -0.205 F 
ATOM     87  C   UNL A   1      47.073  27.465  35.913  1.00  0.00     0.022 A 
BRANCH  85  88
ATOM     88  S   UNL A   1      45.892  25.339  37.182  1.00  0.00     0.127 S 
ATOM     89  O   UNL A   1      44.703  25.694  37.954  1.00  0.00    -0.237 OA
ATOM     90  O   UNL A   1      45.747  24.136  36.361  1.00  0.00    -0.237 OA
ATOM     91  O   UNL A   1      47.158  25.427  37.897  1.00  0.00    -0.744 OA
ENDBRANCH  85  88
ENDBRANCH  58  81
ENDBRANCH  32  33
ENDBRANCH  25  27
ENDBRANCH  24  25
ENDBRANCH  23  24
ENDBRANCH   1  23
TORSDOF 18
ENDMDL
MODEL 2
REMARK VINA RESULT:     -10.9      5.258      9.806
REMARK SMILES Cn1cc(C(=O)NCCc2ccccc2)c(C(=O)OCCOC(=O)c2ccc(-c3c4nc(c(-c5cccc(S(=O)(=O)[O-])c5F)c5ccc([nH]5)c(-c5cccc(S(=O)(=O)[O-])c5F)c5nc(c(-c6cccc(S(=O)(=O)[O-])c6F)c6ccc3[nH]6)C=C5)C=C4)cc2)n1
REMARK SMILES IDX 20 1 19 2 17 3 18 4 16 5 1 6 2 7 3 8 88 9 4 10 5 11 6 12
REMARK SMILES IDX 7 13 8 15 9 16 10 17 11 18 15 19 12 20 14 21 13 22 21 23
REMARK SMILES IDX 22 24 23 25 24 26 25 27 26 28 87 29 27 30 86 31 28 32 29 33
REMARK SMILES IDX 30 34 80 35 31 36 85 37 79 38 81 39 32 40 84 41 78 42 77 43
REMARK SMILES IDX 33 45 65 46 45 47 64 48 46 49 49 50 63 51 82 52 47 53 48 54
REMARK SMILES IDX 62 56 83 57 50 58 34 59 35 60 43 61 36 62 38 63 44 64 37 65
REMARK SMILES IDX 39 66 40 67 41 68 42 69 66 70 67 71 75 72 68 73 70 74 76 75
REMARK SMILES IDX 69 76 71 77 72 78 73 79 74 80 51 81 52 82 60 83 53 84 55 85
REMARK SMILES IDX 61 86 54 87 56 88 57 89 58 90 59 91
REMARK H PARENT 7 14 81 44 49 55
REMARK Flexibility Score: inf
ROOT
ATOM      1  C   UNL A   1      36.408  22.554  23.746  1.00  0.00     0.275 C 
ENDROOT
BRANCH   1   2
ATOM      2  O   UNL A   1      35.046  22.766  24.155  1.00  0.00    -0.457 OA
BRANCH   2   3
ATOM      3  C   UNL A   1      34.791  23.867  24.930  1.00  0.00     0.359 C 
ATOM      4  O   UNL A   1      35.647  24.556  25.454  1.00  0.00    -0.244 OA
BRANCH   3   5
ATOM      5  C   UNL A   1      33.351  24.189  24.939  1.00  0.00     0.183 A 
ATOM      6  C   UNL A   1      30.751  26.073  23.561  1.00  0.00     0.173 C 
ATOM      7  N   UNL A   1      31.566  25.135  24.294  1.00  0.00    -0.274 N 
ATOM      8  C   UNL A   1      31.144  24.039  24.986  1.00  0.00     0.123 A 
ATOM      9  N   UNL A   1      32.891  25.292  24.315  1.00  0.00    -0.165 NA
ATOM     10  C   UNL A   1      32.273  23.464  25.544  1.00  0.00     0.092 A 
BRANCH  10  11
ATOM     11  C   UNL A   1      32.420  22.380  26.498  1.00  0.00     0.255 C 
ATOM     12  O   UNL A   1      32.559  22.582  27.703  1.00  0.00    -0.269 OA
ATOM     13  N   UNL A   1      32.305  21.071  26.119  1.00  0.00    -0.352 N 
ATOM     14  H   UNL A   1      32.322  20.443  26.877  1.00  0.00     0.163 HD
BRANCH  13  15
ATOM     15  C   UNL A   1      32.165  20.413  24.831  1.00  0.00     0.121 C 
BRANCH  15  16
ATOM     16  C   UNL A   1      33.501  19.822  24.361  1.00  0.00     0.057 C 
BRANCH  16  17
ATOM     17  C   UNL A   1      33.592  18.358  24.740  1.00  0.00    -0.046 A 
ATOM     18  C   UNL A   1      34.747  17.624  24.439  1.00  0.00     0.004 A 
ATOM     19  C   UNL A   1      32.488  17.695  25.296  1.00  0.00     0.004 A 
ATOM     20  C   UNL A   1      34.783  16.247  24.657  1.00  0.00     0.000 A 
ATOM     21  C   UNL A   1      32.521  16.315  25.497  1.00  0.00     0.000 A 
ATOM     22  C   UNL A   1      33.666  15.591  25.171  1.00  0.00     0.000 A 
ENDBRANCH  16  17
ENDBRANCH  15  16
ENDBRANCH  13  15
ENDBRANCH  10  11
ENDBRANCH   3   5
ENDBRANCH   2   3
ENDBRANCH   1   2
BRANCH   1  23
ATOM     23  C   UNL A   1      36.940  21.261  24.370  1.00  0.00     0.275 C 
BRANCH  23  24
ATOM     24  O   UNL A   1      37.347  21.484  25.734  1.00  0.00    -0.458 OA
BRANCH  24  25
ATOM     25  C   UNL A   1      38.640  21.188  26.005  1.00  0.00     0.338 C 
ATOM     26  O   UNL A   1      39.230  20.149  25.760  1.00  0.00    -0.246 OA
BRANCH  25  27
ATOM     27  C   UNL A   1      39.310  22.383  26.537  1.00  0.00     0.060 A 
ATOM     28  C   UNL A   1      38.850  23.621  26.096  1.00  0.00     0.016 A 
ATOM     29  C   UNL A   1      40.412  22.304  27.385  1.00  0.00     0.016 A 
ATOM     30  C   UNL A   1      39.489  24.795  26.479  1.00  0.00     0.010 A 
ATOM     31  C   UNL A   1      41.052  23.485  27.783  1.00  0.00     0.010 A 
ATOM     32  C   UNL A   1      40.605  24.737  27.319  1.00  0.00    -0.014 A 
BRANCH  32  33
ATOM     33  C   UNL A   1      41.323  25.988  27.664  1.00  0.00     0.031 A 
ATOM     34  C   UNL A   1      40.621  27.061  28.448  1.00  0.00     0.074 A 
ATOM     35  C   UNL A   1      42.606  26.153  27.289  1.00  0.00     0.049 A 
ATOM     36  N   UNL A   1      41.049  28.249  28.789  1.00  0.00    -0.248 NA
ATOM     37  C   UNL A   1      39.255  26.761  28.909  1.00  0.00     0.031 C 
ATOM     38  C   UNL A   1      43.401  25.175  26.544  1.00  0.00     0.029 A 
ATOM     39  N   UNL A   1      43.463  27.211  27.468  1.00  0.00    -0.354 N 
ATOM     40  C   UNL A   1      39.994  28.856  29.457  1.00  0.00     0.074 A 
ATOM     41  C   UNL A   1      38.904  27.905  29.482  1.00  0.00     0.031 C 
ATOM     42  C   UNL A   1      44.622  25.683  26.318  1.00  0.00     0.029 A 
ATOM     43  C   UNL A   1      44.686  27.035  26.866  1.00  0.00     0.049 A 
ATOM     44  H   UNL A   1      43.225  28.018  27.979  1.00  0.00     0.167 HD
ATOM     45  C   UNL A   1      39.941  30.092  30.010  1.00  0.00     0.034 A 
ATOM     46  C   UNL A   1      45.732  27.877  26.746  1.00  0.00     0.034 A 
ATOM     47  C   UNL A   1      41.044  31.016  30.028  1.00  0.00     0.049 A 
ATOM     48  C   UNL A   1      45.644  29.243  27.371  1.00  0.00     0.074 A 
ATOM     49  C   UNL A   1      41.101  32.274  30.600  1.00  0.00     0.029 A 
ATOM     50  N   UNL A   1      42.282  30.782  29.450  1.00  0.00    -0.354 N 
ATOM     51  N   UNL A   1      44.671  29.767  28.077  1.00  0.00    -0.248 NA
ATOM     52  C   UNL A   1      46.808  30.127  27.205  1.00  0.00     0.031 C 
ATOM     53  C   UNL A   1      42.372  32.806  30.359  1.00  0.00     0.029 A 
ATOM     54  C   UNL A   1      43.109  31.873  29.648  1.00  0.00     0.049 A 
ATOM     55  H   UNL A   1      42.534  29.961  28.969  1.00  0.00     0.167 HD
ATOM     56  C   UNL A   1      45.114  31.028  28.460  1.00  0.00     0.074 A 
ATOM     57  C   UNL A   1      46.454  31.178  27.931  1.00  0.00     0.031 C 
ATOM     58  C   UNL A   1      44.462  31.983  29.167  1.00  0.00     0.034 A 
BRANCH  45  59
ATOM     59  C   UNL A   1      38.658  30.510  30.673  1.00  0.00     0.023 A 
ATOM     60  C   UNL A   1      38.484  30.291  32.054  1.00  0.00     0.012 A 
ATOM     61  C   UNL A   1      37.654  31.179  29.945  1.00  0.00     0.148 A 
ATOM     62  C   UNL A   1      37.320  30.714  32.697  1.00  0.00     0.002 A 
ATOM     63  C   UNL A   1      36.514  31.630  30.600  1.00  0.00     0.091 A 
ATOM     64  F   UNL A   1      37.830  31.356  28.628  1.00  0.00    -0.205 F 
ATOM     65  C   UNL A   1      36.342  31.391  31.974  1.00  0.00     0.022 A 
BRANCH  63  66
ATOM     66  S   UNL A   1      35.228  32.571  29.770  1.00  0.00     0.127 S 
ATOM     67  O   UNL A   1      34.726  31.597  28.803  1.00  0.00    -0.237 OA
ATOM     68  O   UNL A   1      34.308  32.870  30.869  1.00  0.00    -0.237 OA
ATOM     69  O   UNL A   1      35.890  33.736  29.200  1.00  0.00    -0.744 OA
ENDBRANCH  63  66
ENDBRANCH  45  59
BRANCH  46  70
ATOM     70  C   UNL A   1      46.962  27.440  26.027  1.00  0.00     0.023 A 
ATOM     71  C   UNL A   1      47.937  26.691  26.714  1.00  0.00     0.012 A 
ATOM     72  C   UNL A   1      47.163  27.740  24.666  1.00  0.00     0.148 A 
ATOM     73  C   UNL A   1      49.099  26.270  26.066  1.00  0.00     0.002 A 
ATOM     74  C   UNL A   1      48.297  27.272  24.012  1.00  0.00     0.091 A 
ATOM     75  F   UNL A   1      46.239  28.478  24.033  1.00  0.00    -0.205 F 
ATOM     76  C   UNL A   1      49.273  26.549  24.713  1.00  0.00     0.022 A 
BRANCH  74  77
ATOM     77  S   UNL A   1      48.527  27.481  22.242  1.00  0.00     0.127 S 
ATOM     78  O   UNL A   1      47.317  28.209  21.868  1.00  0.00    -0.237 OA
ATOM     79  O   UNL A   1      49.761  28.266  22.181  1.00  0.00    -0.237 OA
ATOM     80  O   UNL A   1      48.653  26.132  21.709  1.00  0.00    -0.744 OA
ENDBRANCH  74  77
ENDBRANCH  46  70
BRANCH  58  81
ATOM     81  C   UNL A   1      45.194  33.270  29.438  1.00  0.00     0.023 A 
ATOM     82  C   UNL A   1      45.996  33.383  30.591  1.00  0.00     0.012 A 
ATOM     83  C   UNL A   1      45.154  34.333  28.515  1.00  0.00     0.148 A 
ATOM     84  C   UNL A   1      46.726  34.546  30.834  1.00  0.00     0.002 A 
ATOM     85  C   UNL A   1      45.917  35.472  28.742  1.00  0.00     0.091 A 
ATOM     86  F   UNL A   1      44.368  34.214  27.434  1.00  0.00    -0.205 F 
ATOM     87  C   UNL A   1      46.697  35.583  29.905  1.00  0.00     0.022 A 
BRANCH  85  88
ATOM     88  S   UNL A   1      46.008  36.815  27.553  1.00  0.00     0.127 S 
ATOM     89  O   UNL A   1      44.595  37.062  27.272  1.00  0.00    -0.237 OA
ATOM     90  O   UNL A   1      46.669  37.871  28.322  1.00  0.00    -0.237 OA
ATOM     91  O   UNL A   1      46.794  36.306  26.438  1.00  0.00    -0.744 OA
ENDBRANCH  85  88
ENDBRANCH  58  81
ENDBRANCH  32  33
ENDBRANCH  25  27
ENDBRANCH  24  25
ENDBRANCH  23  24
ENDBRANCH   1  23
TORSDOF 18
ENDMDL
MODEL 3
REMARK VINA RESULT:     -10.6      1.709      2.469
REMARK SMILES Cn1cc(C(=O)NCCc2ccccc2)c(C(=O)OCCOC(=O)c2ccc(-c3c4nc(c(-c5cccc(S(=O)(=O)[O-])c5F)c5ccc([nH]5)c(-c5cccc(S(=O)(=O)[O-])c5F)c5nc(c(-c6cccc(S(=O)(=O)[O-])c6F)c6ccc3[nH]6)C=C5)C=C4)cc2)n1
REMARK SMILES IDX 20 1 19 2 17 3 18 4 16 5 1 6 2 7 3 8 88 9 4 10 5 11 6 12
REMARK SMILES IDX 7 13 8 15 9 16 10 17 11 18 15 19 12 20 14 21 13 22 21 23
REMARK SMILES IDX 22 24 23 25 24 26 25 27 26 28 87 29 27 30 86 31 28 32 29 33
REMARK SMILES IDX 30 34 80 35 31 36 85 37 79 38 81 39 32 40 84 41 78 42 77 43
REMARK SMILES IDX 33 45 65 46 45 47 64 48 46 49 49 50 63 51 82 52 47 53 48 54
REMARK SMILES IDX 62 56 83 57 50 58 34 59 35 60 43 61 36 62 38 63 44 64 37 65
REMARK SMILES IDX 39 66 40 67 41 68 42 69 66 70 67 71 75 72 68 73 70 74 76 75
REMARK SMILES IDX 69 76 71 77 72 78 73 79 74 80 51 81 52 82 60 83 53 84 55 85
REMARK SMILES IDX 61 86 54 87 56 88 57 89 58 90 59 91
REMARK H PARENT 7 14 81 44 49 55
REMARK Flexibility Score: inf
ROOT
ATOM      1  C   UNL A   1      31.768  29.022  27.215  1.00  0.00     0.275 C 
ENDROOT
BRANCH   1   2
ATOM      2  O   UNL A   1      31.581  28.161  26.080  1.00  0.00    -0.457 OA
BRANCH   2   3
ATOM      3  C   UNL A   1      32.570  27.248  25.818  1.00  0.00     0.359 C 
ATOM      4  O   UNL A   1      33.605  27.152  26.450  1.00  0.00    -0.244 OA
BRANCH   3   5
ATOM      5  C   UNL A   1      32.160  26.309  24.756  1.00  0.00     0.183 A 
ATOM      6  C   UNL A   1      32.410  25.379  21.397  1.00  0.00     0.173 C 
ATOM      7  N   UNL A   1      32.134  25.465  22.811  1.00  0.00    -0.274 N 
ATOM      8  C   UNL A   1      31.660  24.477  23.621  1.00  0.00     0.123 A 
ATOM      9  N   UNL A   1      32.372  26.607  23.458  1.00  0.00    -0.165 NA
ATOM     10  C   UNL A   1      31.530  25.029  24.884  1.00  0.00     0.092 A 
BRANCH  10  11
ATOM     11  C   UNL A   1      30.933  24.504  26.098  1.00  0.00     0.255 C 
ATOM     12  O   UNL A   1      29.916  24.989  26.592  1.00  0.00    -0.269 OA
ATOM     13  N   UNL A   1      31.410  23.372  26.700  1.00  0.00    -0.352 N 
ATOM     14  H   UNL A   1      30.853  23.067  27.453  1.00  0.00     0.163 HD
BRANCH  13  15
ATOM     15  C   UNL A   1      32.568  22.527  26.462  1.00  0.00     0.121 C 
BRANCH  15  16
ATOM     16  C   UNL A   1      33.854  23.189  26.975  1.00  0.00     0.057 C 
BRANCH  16  17
ATOM     17  C   UNL A   1      35.017  22.854  26.064  1.00  0.00    -0.046 A 
ATOM     18  C   UNL A   1      35.301  21.519  25.749  1.00  0.00     0.004 A 
ATOM     19  C   UNL A   1      35.885  23.860  25.615  1.00  0.00     0.004 A 
ATOM     20  C   UNL A   1      36.451  21.194  25.030  1.00  0.00     0.000 A 
ATOM     21  C   UNL A   1      37.043  23.531  24.910  1.00  0.00     0.000 A 
ATOM     22  C   UNL A   1      37.329  22.198  24.623  1.00  0.00     0.000 A 
ENDBRANCH  16  17
ENDBRANCH  15  16
ENDBRANCH  13  15
ENDBRANCH  10  11
ENDBRANCH   3   5
ENDBRANCH   2   3
ENDBRANCH   1   2
BRANCH   1  23
ATOM     23  C   UNL A   1      31.864  30.477  26.750  1.00  0.00     0.275 C 
BRANCH  23  24
ATOM     24  O   UNL A   1      33.239  30.854  26.541  1.00  0.00    -0.458 OA
BRANCH  24  25
ATOM     25  C   UNL A   1      33.696  31.839  27.349  1.00  0.00     0.338 C 
ATOM     26  O   UNL A   1      33.105  32.848  27.697  1.00  0.00    -0.246 OA
BRANCH  25  27
ATOM     27  C   UNL A   1      35.010  31.455  27.887  1.00  0.00     0.060 A 
ATOM     28  C   UNL A   1      35.160  30.142  28.324  1.00  0.00     0.016 A 
ATOM     29  C   UNL A   1      36.050  32.369  28.035  1.00  0.00     0.016 A 
ATOM     30  C   UNL A   1      36.339  29.725  28.931  1.00  0.00     0.010 A 
ATOM     31  C   UNL A   1      37.245  31.950  28.635  1.00  0.00     0.010 A 
ATOM     32  C   UNL A   1      37.391  30.630  29.102  1.00  0.00    -0.014 A 
BRANCH  32  33
ATOM     33  C   UNL A   1      38.618  30.195  29.814  1.00  0.00     0.031 A 
ATOM     34  C   UNL A   1      39.550  29.211  29.164  1.00  0.00     0.074 A 
ATOM     35  C   UNL A   1      38.902  30.696  31.032  1.00  0.00     0.049 A 
ATOM     36  N   UNL A   1      40.631  28.656  29.646  1.00  0.00    -0.248 NA
ATOM     37  C   UNL A   1      39.221  28.791  27.792  1.00  0.00     0.031 C 
ATOM     38  C   UNL A   1      38.087  31.673  31.754  1.00  0.00     0.029 A 
ATOM     39  N   UNL A   1      39.948  30.438  31.884  1.00  0.00    -0.354 N 
ATOM     40  C   UNL A   1      41.084  27.787  28.662  1.00  0.00     0.074 A 
ATOM     41  C   UNL A   1      40.166  27.892  27.550  1.00  0.00     0.031 C 
ATOM     42  C   UNL A   1      38.654  31.923  32.945  1.00  0.00     0.029 A 
ATOM     43  C   UNL A   1      39.849  31.096  33.087  1.00  0.00     0.049 A 
ATOM     44  H   UNL A   1      40.696  29.841  31.655  1.00  0.00     0.167 HD
ATOM     45  C   UNL A   1      42.174  26.984  28.680  1.00  0.00     0.034 A 
ATOM     46  C   UNL A   1      40.619  31.021  34.190  1.00  0.00     0.034 A 
ATOM     47  C   UNL A   1      43.114  26.921  29.767  1.00  0.00     0.049 A 
ATOM     48  C   UNL A   1      41.824  30.120  34.179  1.00  0.00     0.074 A 
ATOM     49  C   UNL A   1      44.271  26.168  29.860  1.00  0.00     0.029 A 
ATOM     50  N   UNL A   1      43.006  27.638  30.948  1.00  0.00    -0.354 N 
ATOM     51  N   UNL A   1      42.288  29.373  33.206  1.00  0.00    -0.248 NA
ATOM     52  C   UNL A   1      42.628  30.068  35.411  1.00  0.00     0.031 C 
ATOM     53  C   UNL A   1      44.860  26.423  31.104  1.00  0.00     0.029 A 
ATOM     54  C   UNL A   1      44.074  27.344  31.779  1.00  0.00     0.049 A 
ATOM     55  H   UNL A   1      42.278  28.263  31.165  1.00  0.00     0.167 HD
ATOM     56  C   UNL A   1      43.448  28.784  33.696  1.00  0.00     0.074 A 
ATOM     57  C   UNL A   1      43.631  29.282  35.044  1.00  0.00     0.031 C 
ATOM     58  C   UNL A   1      44.274  27.895  33.094  1.00  0.00     0.034 A 
BRANCH  45  59
ATOM     59  C   UNL A   1      42.433  26.126  27.472  1.00  0.00     0.023 A 
ATOM     60  C   UNL A   1      43.126  26.665  26.370  1.00  0.00     0.012 A 
ATOM     61  C   UNL A   1      42.052  24.769  27.454  1.00  0.00     0.148 A 
ATOM     62  C   UNL A   1      43.417  25.873  25.259  1.00  0.00     0.002 A 
ATOM     63  C   UNL A   1      42.378  23.977  26.360  1.00  0.00     0.091 A 
ATOM     64  F   UNL A   1      41.373  24.282  28.503  1.00  0.00    -0.205 F 
ATOM     65  C   UNL A   1      43.053  24.529  25.258  1.00  0.00     0.022 A 
BRANCH  63  66
ATOM     66  S   UNL A   1      42.013  22.219  26.293  1.00  0.00     0.127 S 
ATOM     67  O   UNL A   1      40.554  22.224  26.189  1.00  0.00    -0.237 OA
ATOM     68  O   UNL A   1      42.710  21.806  25.074  1.00  0.00    -0.237 OA
ATOM     69  O   UNL A   1      42.551  21.652  27.521  1.00  0.00    -0.744 OA
ENDBRANCH  63  66
ENDBRANCH  45  59
BRANCH  46  70
ATOM     70  C   UNL A   1      40.290  31.846  35.387  1.00  0.00     0.023 A 
ATOM     71  C   UNL A   1      41.011  33.031  35.632  1.00  0.00     0.012 A 
ATOM     72  C   UNL A   1      39.255  31.479  36.269  1.00  0.00     0.148 A 
ATOM     73  C   UNL A   1      40.724  33.821  36.746  1.00  0.00     0.002 A 
ATOM     74  C   UNL A   1      38.938  32.299  37.347  1.00  0.00     0.091 A 
ATOM     75  F   UNL A   1      38.596  30.334  36.038  1.00  0.00    -0.205 F 
ATOM     76  C   UNL A   1      39.680  33.463  37.595  1.00  0.00     0.022 A 
BRANCH  74  77
ATOM     77  S   UNL A   1      37.525  31.970  38.407  1.00  0.00     0.127 S 
ATOM     78  O   UNL A   1      38.098  32.161  39.736  1.00  0.00    -0.237 OA
ATOM     79  O   UNL A   1      36.578  33.006  37.991  1.00  0.00    -0.237 OA
ATOM     80  O   UNL A   1      37.106  30.614  38.079  1.00  0.00    -0.744 OA
ENDBRANCH  74  77
ENDBRANCH  46  70
BRANCH  58  81
ATOM     81  C   UNL A   1      45.472  27.419  33.872  1.00  0.00     0.023 A 
ATOM     82  C   UNL A   1      46.678  28.142  33.799  1.00  0.00     0.012 A 
ATOM     83  C   UNL A   1      45.380  26.309  34.733  1.00  0.00     0.148 A 
ATOM     84  C   UNL A   1      47.784  27.751  34.553  1.00  0.00     0.002 A 
ATOM     85  C   UNL A   1      46.472  25.950  35.515  1.00  0.00     0.091 A 
ATOM     86  F   UNL A   1      44.228  25.621  34.772  1.00  0.00    -0.205 F 
ATOM     87  C   UNL A   1      47.678  26.665  35.419  1.00  0.00     0.022 A 
BRANCH  85  88
ATOM     88  S   UNL A   1      46.391  24.622  36.721  1.00  0.00     0.127 S 
ATOM     89  O   UNL A   1      47.800  24.446  37.068  1.00  0.00    -0.237 OA
ATOM     90  O   UNL A   1      45.571  25.211  37.781  1.00  0.00    -0.237 OA
ATOM     91  O   UNL A   1      45.766  23.500  36.034  1.00  0.00    -0.744 OA
ENDBRANCH  85  88
ENDBRANCH  58  81
ENDBRANCH  32  33
ENDBRANCH  25  27
ENDBRANCH  24  25
ENDBRANCH  23  24
ENDBRANCH   1  23
TORSDOF 18
ENDMDL
