MODEL 1
REMARK VINA RESULT:     -10.8      0.000      0.000
REMARK SMILES Cc1c(CC(=O)N[C@H](CO)C(=O)OCCOC(=O)c2ccc(-c3c4nc(c(-c5cccc(S(=O)(=O)[O-])c5F)c5ccc([nH]5)c(-c5cccc(S(=O)(=O)[O-])c5F)c5nc(c(-c6cccc(S(=O)(=O)[O-])c6F)c6ccc3[nH]6)C=C5)C=C4)cc2)cc(-c2ccc(S(C)(=O)=O)cc2)n1-c1cccc(F)c1
REMARK SMILES IDX 14 1 13 2 11 3 12 4 8 5 7 6 5 7 6 8 4 10 3 11 1 12 2 13
REMARK SMILES IDX 94 14 82 15 83 16 95 17 96 18 101 19 97 20 99 21 98 22
REMARK SMILES IDX 100 23 84 24 85 25 93 26 86 27 92 28 87 29 88 30 89 31 90 32
REMARK SMILES IDX 91 33 9 34 10 35 15 37 16 38 17 39 18 40 19 41 20 42 81 43
REMARK SMILES IDX 21 44 80 45 22 46 23 47 24 48 74 49 25 50 79 51 73 52 75 53
REMARK SMILES IDX 26 54 78 55 72 56 71 57 27 59 59 60 39 61 58 62 40 63 43 64
REMARK SMILES IDX 57 65 76 66 41 67 42 68 56 70 77 71 44 72 28 73 29 74 37 75
REMARK SMILES IDX 30 76 32 77 38 78 31 79 33 80 34 81 35 82 36 83 60 84 61 85
REMARK SMILES IDX 69 86 62 87 64 88 70 89 63 90 65 91 66 92 67 93 68 94 45 95
REMARK SMILES IDX 46 96 54 97 47 98 49 99 55 100 48 101 50 102 51 103 52 104
REMARK SMILES IDX 53 105
REMARK H PARENT 7 9 10 36 75 58 43 69
REMARK Flexibility Score: inf
ROOT
ATOM      1  C   UNL A   1      32.089  28.809  27.206  1.00  0.00     0.274 C 
ENDROOT
BRANCH   1   2
ATOM      2  O   UNL A   1      31.147  28.232  26.254  1.00  0.00    -0.460 OA
BRANCH   2   3
ATOM      3  C   UNL A   1      31.713  27.359  25.369  1.00  0.00     0.331 C 
ATOM      4  O   UNL A   1      32.513  26.483  25.703  1.00  0.00    -0.250 OA
BRANCH   3   5
ATOM      5  C   UNL A   1      31.401  27.604  23.876  1.00  0.00     0.218 C 
BRANCH   5   6
ATOM      6  N   UNL A   1      32.587  28.124  23.153  1.00  0.00    -0.341 N 
ATOM      7  C   UNL A   1      33.527  27.495  22.389  1.00  0.00     0.225 C 
ATOM      8  O   UNL A   1      34.517  28.153  22.053  1.00  0.00    -0.275 OA
ATOM      9  H   UNL A   1      32.720  29.096  23.239  1.00  0.00     0.164 HD
BRANCH   7  10
ATOM     10  C   UNL A   1      33.348  26.056  21.911  1.00  0.00     0.137 C 
BRANCH  10  11
ATOM     11  C   UNL A   1      33.728  25.036  22.941  1.00  0.00    -0.017 A 
ATOM     12  C   UNL A   1      31.583  23.581  22.965  1.00  0.00     0.065 C 
ATOM     13  C   UNL A   1      32.992  23.924  23.333  1.00  0.00     0.024 A 
ATOM     14  N   UNL A   1      33.786  23.147  24.175  1.00  0.00    -0.313 N 
ATOM     15  C   UNL A   1      34.930  25.012  23.702  1.00  0.00     0.033 A 
ATOM     16  C   UNL A   1      35.025  23.781  24.332  1.00  0.00     0.053 A 
BRANCH  14  17
ATOM     17  C   UNL A   1      33.438  21.884  24.731  1.00  0.00     0.049 A 
ATOM     18  C   UNL A   1      33.442  21.716  26.124  1.00  0.00     0.027 A 
ATOM     19  C   UNL A   1      33.199  20.792  23.892  1.00  0.00     0.065 A 
ATOM     20  C   UNL A   1      33.217  20.455  26.675  1.00  0.00     0.005 A 
ATOM     21  C   UNL A   1      32.983  19.542  24.459  1.00  0.00     0.125 A 
ATOM     22  C   UNL A   1      32.992  19.363  25.838  1.00  0.00     0.039 A 
ATOM     23  F   UNL A   1      32.791  18.484  23.660  1.00  0.00    -0.207 F 
ENDBRANCH  14  17
BRANCH  16  24
ATOM     24  C   UNL A   1      36.236  23.141  24.889  1.00  0.00    -0.001 A 
ATOM     25  C   UNL A   1      36.988  23.796  25.884  1.00  0.00     0.011 A 
ATOM     26  C   UNL A   1      36.654  21.876  24.462  1.00  0.00     0.011 A 
ATOM     27  C   UNL A   1      38.183  23.255  26.363  1.00  0.00     0.021 A 
ATOM     28  C   UNL A   1      37.845  21.317  24.952  1.00  0.00     0.021 A 
ATOM     29  C   UNL A   1      38.622  22.029  25.872  1.00  0.00     0.067 A 
BRANCH  29  30
ATOM     30  S   UNL A   1      40.166  21.355  26.449  1.00  0.00     0.175 S 
ATOM     31  C   UNL A   1      41.399  22.384  25.695  1.00  0.00     0.163 C 
ATOM     32  O   UNL A   1      40.222  21.610  27.889  1.00  0.00    -0.224 OA
ATOM     33  O   UNL A   1      40.321  20.050  25.879  1.00  0.00    -0.224 OA
ENDBRANCH  29  30
ENDBRANCH  16  24
ENDBRANCH  10  11
ENDBRANCH   7  10
ENDBRANCH   5   6
BRANCH   5  34
ATOM     34  C   UNL A   1      30.107  28.266  23.402  1.00  0.00     0.193 C 
BRANCH  34  35
ATOM     35  O   UNL A   1      30.293  29.380  22.557  1.00  0.00    -0.394 OA
ATOM     36  H   UNL A   1      30.935  29.157  21.865  1.00  0.00     0.210 HD
ENDBRANCH  34  35
ENDBRANCH   5  34
ENDBRANCH   3   5
ENDBRANCH   2   3
ENDBRANCH   1   2
BRANCH   1  37
ATOM     37  C   UNL A   1      32.446  30.297  26.943  1.00  0.00     0.275 C 
BRANCH  37  38
ATOM     38  O   UNL A   1      33.863  30.685  26.868  1.00  0.00    -0.458 OA
BRANCH  38  39
ATOM     39  C   UNL A   1      34.807  29.770  27.261  1.00  0.00     0.338 C 
ATOM     40  O   UNL A   1      34.771  28.606  26.888  1.00  0.00    -0.246 OA
BRANCH  39  41
ATOM     41  C   UNL A   1      35.952  30.376  28.100  1.00  0.00     0.060 A 
ATOM     42  C   UNL A   1      36.477  29.650  29.160  1.00  0.00     0.016 A 
ATOM     43  C   UNL A   1      36.414  31.710  28.024  1.00  0.00     0.016 A 
ATOM     44  C   UNL A   1      37.475  30.213  30.044  1.00  0.00     0.010 A 
ATOM     45  C   UNL A   1      37.379  32.304  28.981  1.00  0.00     0.010 A 
ATOM     46  C   UNL A   1      37.972  31.577  30.034  1.00  0.00    -0.014 A 
BRANCH  46  47
ATOM     47  C   UNL A   1      38.623  32.145  31.460  1.00  0.00     0.031 A 
ATOM     48  C   UNL A   1      39.699  33.028  30.923  1.00  0.00     0.074 A 
ATOM     49  C   UNL A   1      38.642  32.020  32.870  1.00  0.00     0.049 A 
ATOM     50  N   UNL A   1      40.548  32.535  30.062  1.00  0.00    -0.248 NA
ATOM     51  C   UNL A   1      39.645  34.492  30.926  1.00  0.00     0.031 C 
ATOM     52  C   UNL A   1      37.950  31.018  33.704  1.00  0.00     0.029 A 
ATOM     53  N   UNL A   1      39.298  32.761  33.940  1.00  0.00    -0.354 N 
ATOM     54  C   UNL A   1      41.400  33.549  29.742  1.00  0.00     0.074 A 
ATOM     55  C   UNL A   1      40.626  34.746  30.049  1.00  0.00     0.031 C 
ATOM     56  C   UNL A   1      38.055  31.278  35.045  1.00  0.00     0.029 A 
ATOM     57  C   UNL A   1      38.878  32.461  35.312  1.00  0.00     0.049 A 
ATOM     58  H   UNL A   1      39.992  33.434  33.749  1.00  0.00     0.167 HD
ATOM     59  C   UNL A   1      42.710  33.277  30.022  1.00  0.00     0.034 A 
ATOM     60  C   UNL A   1      39.215  33.026  36.561  1.00  0.00     0.034 A 
ATOM     61  C   UNL A   1      43.157  33.957  31.206  1.00  0.00     0.049 A 
ATOM     62  C   UNL A   1      40.546  33.610  36.361  1.00  0.00     0.074 A 
ATOM     63  C   UNL A   1      42.939  35.236  31.684  1.00  0.00     0.029 A 
ATOM     64  N   UNL A   1      43.502  33.181  32.291  1.00  0.00    -0.354 N 
ATOM     65  N   UNL A   1      41.618  32.877  36.415  1.00  0.00    -0.248 NA
ATOM     66  C   UNL A   1      40.768  35.046  36.244  1.00  0.00     0.031 C 
ATOM     67  C   UNL A   1      42.626  35.059  33.045  1.00  0.00     0.029 A 
ATOM     68  C   UNL A   1      43.117  33.829  33.452  1.00  0.00     0.049 A 
ATOM     69  H   UNL A   1      43.949  32.306  32.249  1.00  0.00     0.167 HD
ATOM     70  C   UNL A   1      42.526  33.652  35.763  1.00  0.00     0.074 A 
ATOM     71  C   UNL A   1      42.068  35.018  35.941  1.00  0.00     0.031 C 
ATOM     72  C   UNL A   1      43.113  33.084  34.683  1.00  0.00     0.034 A 
BRANCH  59  73
ATOM     73  C   UNL A   1      43.142  31.897  29.561  1.00  0.00     0.023 A 
ATOM     74  C   UNL A   1      43.165  30.882  30.532  1.00  0.00     0.012 A 
ATOM     75  C   UNL A   1      43.762  31.652  28.305  1.00  0.00     0.148 A 
ATOM     76  C   UNL A   1      43.844  29.684  30.290  1.00  0.00     0.002 A 
ATOM     77  C   UNL A   1      44.531  30.507  28.116  1.00  0.00     0.091 A 
ATOM     78  F   UNL A   1      43.627  32.561  27.327  1.00  0.00    -0.205 F 
ATOM     79  C   UNL A   1      44.559  29.513  29.104  1.00  0.00     0.022 A 
BRANCH  77  80
ATOM     80  S   UNL A   1      45.692  30.336  26.745  1.00  0.00     0.127 S 
ATOM     81  O   UNL A   1      46.992  30.317  27.425  1.00  0.00    -0.237 OA
ATOM     82  O   UNL A   1      45.305  29.061  26.149  1.00  0.00    -0.237 OA
ATOM     83  O   UNL A   1      45.506  31.505  25.893  1.00  0.00    -0.744 OA
ENDBRANCH  77  80
ENDBRANCH  59  73
BRANCH  60  84
ATOM     84  C   UNL A   1      38.921  33.133  38.129  1.00  0.00     0.023 A 
ATOM     85  C   UNL A   1      39.427  34.285  38.852  1.00  0.00     0.012 A 
ATOM     86  C   UNL A   1      37.869  32.469  38.801  1.00  0.00     0.148 A 
ATOM     87  C   UNL A   1      38.868  34.808  40.038  1.00  0.00     0.002 A 
ATOM     88  C   UNL A   1      37.324  32.985  40.019  1.00  0.00     0.091 A 
ATOM     89  F   UNL A   1      37.329  31.393  38.219  1.00  0.00    -0.205 F 
ATOM     90  C   UNL A   1      37.800  34.164  40.616  1.00  0.00     0.022 A 
BRANCH  88  91
ATOM     91  S   UNL A   1      35.906  32.253  40.876  1.00  0.00     0.127 S 
ATOM     92  O   UNL A   1      36.462  31.017  41.431  1.00  0.00    -0.237 OA
ATOM     93  O   UNL A   1      35.599  33.275  41.876  1.00  0.00    -0.237 OA
ATOM     94  O   UNL A   1      34.901  32.049  39.844  1.00  0.00    -0.744 OA
ENDBRANCH  88  91
ENDBRANCH  60  84
BRANCH  72  95
ATOM     95  C   UNL A   1      43.548  31.642  34.798  1.00  0.00     0.023 A 
ATOM     96  C   UNL A   1      44.726  31.189  35.431  1.00  0.00     0.012 A 
ATOM     97  C   UNL A   1      42.703  30.685  34.220  1.00  0.00     0.148 A 
ATOM     98  C   UNL A   1      45.053  29.828  35.465  1.00  0.00     0.002 A 
ATOM     99  C   UNL A   1      42.998  29.330  34.300  1.00  0.00     0.091 A 
ATOM    100  F   UNL A   1      41.608  31.124  33.579  1.00  0.00    -0.205 F 
ATOM    101  C   UNL A   1      44.178  28.894  34.916  1.00  0.00     0.022 A 
BRANCH  99 102
ATOM    102  S   UNL A   1      41.857  28.116  33.643  1.00  0.00     0.127 S 
ATOM    103  O   UNL A   1      41.136  28.893  32.636  1.00  0.00    -0.237 OA
ATOM    104  O   UNL A   1      42.741  27.085  33.104  1.00  0.00    -0.237 OA
ATOM    105  O   UNL A   1      41.056  27.681  34.783  1.00  0.00    -0.744 OA
ENDBRANCH  99 102
ENDBRANCH  72  95
ENDBRANCH  46  47
ENDBRANCH  39  41
ENDBRANCH  38  39
ENDBRANCH  37  38
ENDBRANCH   1  37
TORSDOF 22
ENDMDL
MODEL 2
REMARK VINA RESULT:     -10.7      3.753      7.790
REMARK SMILES Cc1c(CC(=O)N[C@H](CO)C(=O)OCCOC(=O)c2ccc(-c3c4nc(c(-c5cccc(S(=O)(=O)[O-])c5F)c5ccc([nH]5)c(-c5cccc(S(=O)(=O)[O-])c5F)c5nc(c(-c6cccc(S(=O)(=O)[O-])c6F)c6ccc3[nH]6)C=C5)C=C4)cc2)cc(-c2ccc(S(C)(=O)=O)cc2)n1-c1cccc(F)c1
REMARK SMILES IDX 14 1 13 2 11 3 12 4 8 5 7 6 5 7 6 8 4 10 3 11 1 12 2 13
REMARK SMILES IDX 94 14 82 15 83 16 95 17 96 18 101 19 97 20 99 21 98 22
REMARK SMILES IDX 100 23 84 24 85 25 93 26 86 27 92 28 87 29 88 30 89 31 90 32
REMARK SMILES IDX 91 33 9 34 10 35 15 37 16 38 17 39 18 40 19 41 20 42 81 43
REMARK SMILES IDX 21 44 80 45 22 46 23 47 24 48 74 49 25 50 79 51 73 52 75 53
REMARK SMILES IDX 26 54 78 55 72 56 71 57 27 59 59 60 39 61 58 62 40 63 43 64
REMARK SMILES IDX 57 65 76 66 41 67 42 68 56 70 77 71 44 72 28 73 29 74 37 75
REMARK SMILES IDX 30 76 32 77 38 78 31 79 33 80 34 81 35 82 36 83 60 84 61 85
REMARK SMILES IDX 69 86 62 87 64 88 70 89 63 90 65 91 66 92 67 93 68 94 45 95
REMARK SMILES IDX 46 96 54 97 47 98 49 99 55 100 48 101 50 102 51 103 52 104
REMARK SMILES IDX 53 105
REMARK H PARENT 7 9 10 36 75 58 43 69
REMARK Flexibility Score: inf
ROOT
ATOM      1  C   UNL A   1      31.671  28.012  27.495  1.00  0.00     0.274 C 
ENDROOT
BRANCH   1   2
ATOM      2  O   UNL A   1      30.953  27.346  26.415  1.00  0.00    -0.460 OA
BRANCH   2   3
ATOM      3  C   UNL A   1      31.763  26.714  25.514  1.00  0.00     0.331 C 
ATOM      4  O   UNL A   1      32.856  26.230  25.813  1.00  0.00    -0.250 OA
BRANCH   3   5
ATOM      5  C   UNL A   1      31.299  26.747  24.042  1.00  0.00     0.218 C 
BRANCH   5   6
ATOM      6  N   UNL A   1      32.252  27.498  23.189  1.00  0.00    -0.341 N 
ATOM      7  C   UNL A   1      33.200  27.075  22.304  1.00  0.00     0.225 C 
ATOM      8  O   UNL A   1      33.983  27.923  21.863  1.00  0.00    -0.275 OA
ATOM      9  H   UNL A   1      32.190  28.477  23.278  1.00  0.00     0.164 HD
BRANCH   7  10
ATOM     10  C   UNL A   1      33.267  25.627  21.822  1.00  0.00     0.137 C 
BRANCH  10  11
ATOM     11  C   UNL A   1      33.701  24.666  22.887  1.00  0.00    -0.017 A 
ATOM     12  C   UNL A   1      31.600  23.156  23.033  1.00  0.00     0.065 C 
ATOM     13  C   UNL A   1      33.007  23.554  23.348  1.00  0.00     0.024 A 
ATOM     14  N   UNL A   1      33.844  22.838  24.202  1.00  0.00    -0.313 N 
ATOM     15  C   UNL A   1      34.922  24.709  23.616  1.00  0.00     0.033 A 
ATOM     16  C   UNL A   1      35.068  23.512  24.298  1.00  0.00     0.053 A 
BRANCH  14  17
ATOM     17  C   UNL A   1      33.546  21.593  24.824  1.00  0.00     0.049 A 
ATOM     18  C   UNL A   1      33.464  21.519  26.222  1.00  0.00     0.027 A 
ATOM     19  C   UNL A   1      33.441  20.433  24.051  1.00  0.00     0.065 A 
ATOM     20  C   UNL A   1      33.289  20.285  26.847  1.00  0.00     0.005 A 
ATOM     21  C   UNL A   1      33.273  19.211  24.692  1.00  0.00     0.125 A 
ATOM     22  C   UNL A   1      33.198  19.125  26.078  1.00  0.00     0.039 A 
ATOM     23  F   UNL A   1      33.211  18.090  23.959  1.00  0.00    -0.207 F 
ENDBRANCH  14  17
BRANCH  16  24
ATOM     24  C   UNL A   1      36.310  22.931  24.851  1.00  0.00    -0.001 A 
ATOM     25  C   UNL A   1      37.045  23.631  25.827  1.00  0.00     0.011 A 
ATOM     26  C   UNL A   1      36.776  21.678  24.439  1.00  0.00     0.011 A 
ATOM     27  C   UNL A   1      38.267  23.148  26.302  1.00  0.00     0.021 A 
ATOM     28  C   UNL A   1      37.994  21.176  24.924  1.00  0.00     0.021 A 
ATOM     29  C   UNL A   1      38.751  21.933  25.824  1.00  0.00     0.067 A 
BRANCH  29  30
ATOM     30  S   UNL A   1      40.327  21.333  26.393  1.00  0.00     0.175 S 
ATOM     31  C   UNL A   1      40.327  19.616  25.946  1.00  0.00     0.163 C 
ATOM     32  O   UNL A   1      41.346  21.986  25.570  1.00  0.00    -0.224 OA
ATOM     33  O   UNL A   1      40.330  21.381  27.824  1.00  0.00    -0.224 OA
ENDBRANCH  29  30
ENDBRANCH  16  24
ENDBRANCH  10  11
ENDBRANCH   7  10
ENDBRANCH   5   6
BRANCH   5  34
ATOM     34  C   UNL A   1      29.846  27.006  23.640  1.00  0.00     0.193 C 
BRANCH  34  35
ATOM     35  O   UNL A   1      28.904  26.176  24.282  1.00  0.00    -0.394 OA
ATOM     36  H   UNL A   1      28.396  26.697  24.922  1.00  0.00     0.210 HD
ENDBRANCH  34  35
ENDBRANCH   5  34
ENDBRANCH   3   5
ENDBRANCH   2   3
ENDBRANCH   1   2
BRANCH   1  37
ATOM     37  C   UNL A   1      31.657  29.563  27.423  1.00  0.00     0.275 C 
BRANCH  37  38
ATOM     38  O   UNL A   1      32.932  30.290  27.518  1.00  0.00    -0.458 OA
BRANCH  38  39
ATOM     39  C   UNL A   1      33.999  29.826  26.790  1.00  0.00     0.338 C 
ATOM     40  O   UNL A   1      33.895  29.538  25.606  1.00  0.00    -0.246 OA
BRANCH  39  41
ATOM     41  C   UNL A   1      35.330  29.818  27.570  1.00  0.00     0.060 A 
ATOM     42  C   UNL A   1      36.526  29.949  26.878  1.00  0.00     0.016 A 
ATOM     43  C   UNL A   1      35.484  29.496  28.938  1.00  0.00     0.016 A 
ATOM     44  C   UNL A   1      37.805  29.842  27.546  1.00  0.00     0.010 A 
ATOM     45  C   UNL A   1      36.798  29.310  29.599  1.00  0.00     0.010 A 
ATOM     46  C   UNL A   1      38.030  29.491  28.937  1.00  0.00    -0.014 A 
BRANCH  46  47
ATOM     47  C   UNL A   1      39.523  28.852  29.313  1.00  0.00     0.031 A 
ATOM     48  C   UNL A   1      39.393  28.736  30.795  1.00  0.00     0.074 A 
ATOM     49  C   UNL A   1      40.814  28.529  28.830  1.00  0.00     0.049 A 
ATOM     50  N   UNL A   1      39.031  29.787  31.479  1.00  0.00    -0.248 NA
ATOM     51  C   UNL A   1      39.207  27.473  31.512  1.00  0.00     0.031 C 
ATOM     52  C   UNL A   1      41.387  28.820  27.500  1.00  0.00     0.029 A 
ATOM     53  N   UNL A   1      41.970  27.855  29.409  1.00  0.00    -0.354 N 
ATOM     54  C   UNL A   1      38.987  29.397  32.784  1.00  0.00     0.074 A 
ATOM     55  C   UNL A   1      38.802  27.954  32.695  1.00  0.00     0.031 C 
ATOM     56  C   UNL A   1      42.609  28.230  27.308  1.00  0.00     0.029 A 
ATOM     57  C   UNL A   1      43.062  27.503  28.496  1.00  0.00     0.049 A 
ATOM     58  H   UNL A   1      42.013  27.646  30.370  1.00  0.00     0.167 HD
ATOM     59  C   UNL A   1      39.822  30.109  33.600  1.00  0.00     0.034 A 
ATOM     60  C   UNL A   1      44.263  26.785  28.675  1.00  0.00     0.034 A 
ATOM     61  C   UNL A   1      40.998  29.361  33.947  1.00  0.00     0.049 A 
ATOM     62  C   UNL A   1      44.578  26.929  30.101  1.00  0.00     0.074 A 
ATOM     63  C   UNL A   1      41.192  28.035  34.291  1.00  0.00     0.029 A 
ATOM     64  N   UNL A   1      42.208  29.831  33.483  1.00  0.00    -0.354 N 
ATOM     65  N   UNL A   1      45.160  27.997  30.558  1.00  0.00    -0.248 NA
ATOM     66  C   UNL A   1      44.403  25.846  31.061  1.00  0.00     0.031 C 
ATOM     67  C   UNL A   1      42.305  27.629  33.531  1.00  0.00     0.029 A 
ATOM     68  C   UNL A   1      43.017  28.757  33.157  1.00  0.00     0.049 A 
ATOM     69  H   UNL A   1      42.457  30.779  33.398  1.00  0.00     0.167 HD
ATOM     70  C   UNL A   1      44.868  27.936  31.885  1.00  0.00     0.074 A 
ATOM     71  C   UNL A   1      44.681  26.526  32.175  1.00  0.00     0.031 C 
ATOM     72  C   UNL A   1      44.208  29.005  32.388  1.00  0.00     0.034 A 
BRANCH  59  73
ATOM     73  C   UNL A   1      39.744  31.606  33.368  1.00  0.00     0.023 A 
ATOM     74  C   UNL A   1      39.024  32.358  34.312  1.00  0.00     0.012 A 
ATOM     75  C   UNL A   1      40.119  32.229  32.146  1.00  0.00     0.148 A 
ATOM     76  C   UNL A   1      38.625  33.666  34.023  1.00  0.00     0.002 A 
ATOM     77  C   UNL A   1      39.621  33.488  31.820  1.00  0.00     0.091 A 
ATOM     78  F   UNL A   1      40.922  31.564  31.300  1.00  0.00    -0.205 F 
ATOM     79  C   UNL A   1      38.887  34.215  32.767  1.00  0.00     0.022 A 
BRANCH  77  80
ATOM     80  S   UNL A   1      39.678  34.147  30.141  1.00  0.00     0.127 S 
ATOM     81  O   UNL A   1      38.975  35.427  30.275  1.00  0.00    -0.237 OA
ATOM     82  O   UNL A   1      41.111  34.269  29.889  1.00  0.00    -0.237 OA
ATOM     83  O   UNL A   1      38.975  33.190  29.293  1.00  0.00    -0.744 OA
ENDBRANCH  77  80
ENDBRANCH  59  73
BRANCH  60  84
ATOM     84  C   UNL A   1      45.539  26.082  28.015  1.00  0.00     0.023 A 
ATOM     85  C   UNL A   1      45.419  24.705  27.573  1.00  0.00     0.012 A 
ATOM     86  C   UNL A   1      46.622  26.768  27.420  1.00  0.00     0.148 A 
ATOM     87  C   UNL A   1      46.196  24.109  26.555  1.00  0.00     0.002 A 
ATOM     88  C   UNL A   1      47.426  26.153  26.410  1.00  0.00     0.091 A 
ATOM     89  F   UNL A   1      46.821  28.047  27.759  1.00  0.00    -0.205 F 
ATOM     90  C   UNL A   1      47.194  24.843  25.958  1.00  0.00     0.022 A 
BRANCH  88  91
ATOM     91  S   UNL A   1      48.757  27.005  25.525  1.00  0.00     0.127 S 
ATOM     92  O   UNL A   1      49.641  27.444  26.607  1.00  0.00    -0.237 OA
ATOM     93  O   UNL A   1      49.307  25.929  24.700  1.00  0.00    -0.237 OA
ATOM     94  O   UNL A   1      48.104  28.089  24.806  1.00  0.00    -0.744 OA
ENDBRANCH  88  91
ENDBRANCH  60  84
BRANCH  72  95
ATOM     95  C   UNL A   1      44.658  30.379  31.949  1.00  0.00     0.023 A 
ATOM     96  C   UNL A   1      44.191  31.068  30.808  1.00  0.00     0.012 A 
ATOM     97  C   UNL A   1      45.622  31.008  32.749  1.00  0.00     0.148 A 
ATOM     98  C   UNL A   1      44.689  32.333  30.472  1.00  0.00     0.002 A 
ATOM     99  C   UNL A   1      46.077  32.284  32.447  1.00  0.00     0.091 A 
ATOM    100  F   UNL A   1      46.097  30.329  33.805  1.00  0.00    -0.205 F 
ATOM    101  C   UNL A   1      45.620  32.952  31.304  1.00  0.00     0.022 A 
BRANCH  99 102
ATOM    102  S   UNL A   1      47.234  33.112  33.534  1.00  0.00     0.127 S 
ATOM    103  O   UNL A   1      47.373  34.418  32.890  1.00  0.00    -0.237 OA
ATOM    104  O   UNL A   1      46.532  33.134  34.815  1.00  0.00    -0.237 OA
ATOM    105  O   UNL A   1      48.436  32.284  33.524  1.00  0.00    -0.744 OA
ENDBRANCH  99 102
ENDBRANCH  72  95
ENDBRANCH  46  47
ENDBRANCH  39  41
ENDBRANCH  38  39
ENDBRANCH  37  38
ENDBRANCH   1  37
TORSDOF 22
ENDMDL
MODEL 3
REMARK VINA RESULT:     -10.7      5.275     10.999
REMARK SMILES Cc1c(CC(=O)N[C@H](CO)C(=O)OCCOC(=O)c2ccc(-c3c4nc(c(-c5cccc(S(=O)(=O)[O-])c5F)c5ccc([nH]5)c(-c5cccc(S(=O)(=O)[O-])c5F)c5nc(c(-c6cccc(S(=O)(=O)[O-])c6F)c6ccc3[nH]6)C=C5)C=C4)cc2)cc(-c2ccc(S(C)(=O)=O)cc2)n1-c1cccc(F)c1
REMARK SMILES IDX 14 1 13 2 11 3 12 4 8 5 7 6 5 7 6 8 4 10 3 11 1 12 2 13
REMARK SMILES IDX 94 14 82 15 83 16 95 17 96 18 101 19 97 20 99 21 98 22
REMARK SMILES IDX 100 23 84 24 85 25 93 26 86 27 92 28 87 29 88 30 89 31 90 32
REMARK SMILES IDX 91 33 9 34 10 35 15 37 16 38 17 39 18 40 19 41 20 42 81 43
REMARK SMILES IDX 21 44 80 45 22 46 23 47 24 48 74 49 25 50 79 51 73 52 75 53
REMARK SMILES IDX 26 54 78 55 72 56 71 57 27 59 59 60 39 61 58 62 40 63 43 64
REMARK SMILES IDX 57 65 76 66 41 67 42 68 56 70 77 71 44 72 28 73 29 74 37 75
REMARK SMILES IDX 30 76 32 77 38 78 31 79 33 80 34 81 35 82 36 83 60 84 61 85
REMARK SMILES IDX 69 86 62 87 64 88 70 89 63 90 65 91 66 92 67 93 68 94 45 95
REMARK SMILES IDX 46 96 54 97 47 98 49 99 55 100 48 101 50 102 51 103 52 104
REMARK SMILES IDX 53 105
REMARK H PARENT 7 9 10 36 75 58 43 69
REMARK Flexibility Score: inf
ROOT
ATOM      1  C   UNL A   1      43.903  21.809  25.601  1.00  0.00     0.274 C 
ENDROOT
BRANCH   1   2
ATOM      2  O   UNL A   1      44.962  22.477  26.347  1.00  0.00    -0.460 OA
BRANCH   2   3
ATOM      3  C   UNL A   1      45.763  23.278  25.581  1.00  0.00     0.331 C 
ATOM      4  O   UNL A   1      46.350  22.880  24.574  1.00  0.00    -0.250 OA
BRANCH   3   5
ATOM      5  C   UNL A   1      46.010  24.705  26.117  1.00  0.00     0.218 C 
BRANCH   5   6
ATOM      6  N   UNL A   1      45.132  25.011  27.272  1.00  0.00    -0.341 N 
ATOM      7  C   UNL A   1      45.401  25.132  28.605  1.00  0.00     0.225 C 
ATOM      8  O   UNL A   1      44.436  25.214  29.373  1.00  0.00    -0.275 OA
ATOM      9  H   UNL A   1      44.185  25.150  27.037  1.00  0.00     0.164 HD
BRANCH   7  10
ATOM     10  C   UNL A   1      46.830  25.225  29.135  1.00  0.00     0.137 C 
BRANCH  10  11
ATOM     11  C   UNL A   1      47.479  26.549  28.864  1.00  0.00    -0.017 A 
ATOM     12  C   UNL A   1      49.841  25.765  28.141  1.00  0.00     0.065 C 
ATOM     13  C   UNL A   1      48.754  26.770  28.358  1.00  0.00     0.024 A 
ATOM     14  N   UNL A   1      48.888  28.131  28.088  1.00  0.00    -0.313 N 
ATOM     15  C   UNL A   1      46.895  27.832  29.061  1.00  0.00     0.033 A 
ATOM     16  C   UNL A   1      47.698  28.777  28.442  1.00  0.00     0.053 A 
BRANCH  14  17
ATOM     17  C   UNL A   1      50.013  28.762  27.485  1.00  0.00     0.049 A 
ATOM     18  C   UNL A   1      50.194  28.676  26.097  1.00  0.00     0.027 A 
ATOM     19  C   UNL A   1      50.983  29.373  28.285  1.00  0.00     0.065 A 
ATOM     20  C   UNL A   1      51.351  29.190  25.511  1.00  0.00     0.005 A 
ATOM     21  C   UNL A   1      52.132  29.874  27.684  1.00  0.00     0.125 A 
ATOM     22  C   UNL A   1      52.325  29.787  26.310  1.00  0.00     0.039 A 
ATOM     23  F   UNL A   1      53.084  30.425  28.449  1.00  0.00    -0.207 F 
ENDBRANCH  14  17
BRANCH  16  24
ATOM     24  C   UNL A   1      47.328  30.149  28.034  1.00  0.00    -0.001 A 
ATOM     25  C   UNL A   1      47.686  31.248  28.839  1.00  0.00     0.011 A 
ATOM     26  C   UNL A   1      46.635  30.394  26.843  1.00  0.00     0.011 A 
ATOM     27  C   UNL A   1      47.273  32.544  28.523  1.00  0.00     0.021 A 
ATOM     28  C   UNL A   1      46.231  31.696  26.510  1.00  0.00     0.021 A 
ATOM     29  C   UNL A   1      46.520  32.758  27.372  1.00  0.00     0.067 A 
BRANCH  29  30
ATOM     30  S   UNL A   1      45.956  34.402  26.987  1.00  0.00     0.175 S 
ATOM     31  C   UNL A   1      45.237  34.249  25.372  1.00  0.00     0.163 C 
ATOM     32  O   UNL A   1      44.861  34.696  27.913  1.00  0.00    -0.224 OA
ATOM     33  O   UNL A   1      47.105  35.244  26.843  1.00  0.00    -0.224 OA
ENDBRANCH  29  30
ENDBRANCH  16  24
ENDBRANCH  10  11
ENDBRANCH   7  10
ENDBRANCH   5   6
BRANCH   5  34
ATOM     34  C   UNL A   1      46.184  25.914  25.196  1.00  0.00     0.193 C 
BRANCH  34  35
ATOM     35  O   UNL A   1      44.985  26.584  24.876  1.00  0.00    -0.394 OA
ATOM     36  H   UNL A   1      45.181  27.346  24.309  1.00  0.00     0.210 HD
ENDBRANCH  34  35
ENDBRANCH   5  34
ENDBRANCH   3   5
ENDBRANCH   2   3
ENDBRANCH   1   2
BRANCH   1  37
ATOM     37  C   UNL A   1      42.539  21.736  26.339  1.00  0.00     0.275 C 
BRANCH  37  38
ATOM     38  O   UNL A   1      41.366  22.380  25.728  1.00  0.00    -0.458 OA
BRANCH  38  39
ATOM     39  C   UNL A   1      40.304  22.695  26.538  1.00  0.00     0.338 C 
ATOM     40  O   UNL A   1      39.365  21.927  26.697  1.00  0.00    -0.246 OA
BRANCH  39  41
ATOM     41  C   UNL A   1      40.471  24.028  27.297  1.00  0.00     0.060 A 
ATOM     42  C   UNL A   1      39.401  24.542  28.016  1.00  0.00     0.016 A 
ATOM     43  C   UNL A   1      41.572  24.908  27.186  1.00  0.00     0.016 A 
ATOM     44  C   UNL A   1      39.470  25.837  28.656  1.00  0.00     0.010 A 
ATOM     45  C   UNL A   1      41.604  26.267  27.780  1.00  0.00     0.010 A 
ATOM     46  C   UNL A   1      40.557  26.796  28.561  1.00  0.00    -0.014 A 
BRANCH  46  47
ATOM     47  C   UNL A   1      40.173  28.391  28.855  1.00  0.00     0.031 A 
ATOM     48  C   UNL A   1      41.543  28.977  28.942  1.00  0.00     0.074 A 
ATOM     49  C   UNL A   1      39.142  29.309  29.166  1.00  0.00     0.049 A 
ATOM     50  N   UNL A   1      42.408  28.437  29.757  1.00  0.00    -0.248 NA
ATOM     51  C   UNL A   1      42.150  29.815  27.906  1.00  0.00     0.031 C 
ATOM     52  C   UNL A   1      37.729  29.018  29.479  1.00  0.00     0.029 A 
ATOM     53  N   UNL A   1      39.086  30.760  29.291  1.00  0.00    -0.354 N 
ATOM     54  C   UNL A   1      43.556  29.159  29.628  1.00  0.00     0.074 A 
ATOM     55  C   UNL A   1      43.429  29.756  28.304  1.00  0.00     0.031 C 
ATOM     56  C   UNL A   1      36.962  30.150  29.579  1.00  0.00     0.029 A 
ATOM     57  C   UNL A   1      37.757  31.368  29.402  1.00  0.00     0.049 A 
ATOM     58  H   UNL A   1      39.905  31.307  29.300  1.00  0.00     0.167 HD
ATOM     59  C   UNL A   1      43.979  29.734  30.793  1.00  0.00     0.034 A 
ATOM     60  C   UNL A   1      37.319  32.710  29.446  1.00  0.00     0.034 A 
ATOM     61  C   UNL A   1      43.701  31.143  30.828  1.00  0.00     0.049 A 
ATOM     62  C   UNL A   1      38.465  33.461  29.970  1.00  0.00     0.074 A 
ATOM     63  C   UNL A   1      43.802  32.137  29.871  1.00  0.00     0.029 A 
ATOM     64  N   UNL A   1      42.794  31.587  31.767  1.00  0.00    -0.354 N 
ATOM     65  N   UNL A   1      38.711  33.510  31.245  1.00  0.00    -0.248 NA
ATOM     66  C   UNL A   1      39.301  34.312  29.133  1.00  0.00     0.031 C 
ATOM     67  C   UNL A   1      42.594  32.854  29.973  1.00  0.00     0.029 A 
ATOM     68  C   UNL A   1      42.048  32.618  31.224  1.00  0.00     0.049 A 
ATOM     69  H   UNL A   1      42.694  31.229  32.677  1.00  0.00     0.167 HD
ATOM     70  C   UNL A   1      40.019  33.883  31.269  1.00  0.00     0.074 A 
ATOM     71  C   UNL A   1      40.233  34.620  30.037  1.00  0.00     0.031 C 
ATOM     72  C   UNL A   1      40.857  33.039  31.914  1.00  0.00     0.034 A 
BRANCH  59  73
ATOM     73  C   UNL A   1      43.943  28.781  31.973  1.00  0.00     0.023 A 
ATOM     74  C   UNL A   1      44.838  27.699  31.943  1.00  0.00     0.012 A 
ATOM     75  C   UNL A   1      42.900  28.775  32.941  1.00  0.00     0.148 A 
ATOM     76  C   UNL A   1      44.664  26.609  32.800  1.00  0.00     0.002 A 
ATOM     77  C   UNL A   1      42.666  27.638  33.709  1.00  0.00     0.091 A 
ATOM     78  F   UNL A   1      42.127  29.864  33.066  1.00  0.00    -0.205 F 
ATOM     79  C   UNL A   1      43.559  26.559  33.651  1.00  0.00     0.022 A 
BRANCH  77  80
ATOM     80  S   UNL A   1      41.127  27.384  34.618  1.00  0.00     0.127 S 
ATOM     81  O   UNL A   1      41.235  25.985  35.046  1.00  0.00    -0.237 OA
ATOM     82  O   UNL A   1      41.227  28.357  35.702  1.00  0.00    -0.237 OA
ATOM     83  O   UNL A   1      40.041  27.613  33.671  1.00  0.00    -0.744 OA
ENDBRANCH  77  80
ENDBRANCH  59  73
BRANCH  60  84
ATOM     84  C   UNL A   1      36.102  33.745  29.398  1.00  0.00     0.023 A 
ATOM     85  C   UNL A   1      35.246  33.755  28.226  1.00  0.00     0.012 A 
ATOM     86  C   UNL A   1      35.505  34.344  30.531  1.00  0.00     0.148 A 
ATOM     87  C   UNL A   1      33.899  34.181  28.208  1.00  0.00     0.002 A 
ATOM     88  C   UNL A   1      34.151  34.803  30.502  1.00  0.00     0.091 A 
ATOM     89  F   UNL A   1      36.211  34.387  31.666  1.00  0.00    -0.205 F 
ATOM     90  C   UNL A   1      33.344  34.692  29.357  1.00  0.00     0.022 A 
BRANCH  88  91
ATOM     91  S   UNL A   1      33.285  35.476  31.944  1.00  0.00     0.127 S 
ATOM     92  O   UNL A   1      32.903  34.273  32.687  1.00  0.00    -0.237 OA
ATOM     93  O   UNL A   1      34.336  36.268  32.583  1.00  0.00    -0.237 OA
ATOM     94  O   UNL A   1      32.164  36.227  31.398  1.00  0.00    -0.744 OA
ENDBRANCH  88  91
ENDBRANCH  60  84
BRANCH  72  95
ATOM     95  C   UNL A   1      40.391  32.453  33.226  1.00  0.00     0.023 A 
ATOM     96  C   UNL A   1      39.450  31.409  33.369  1.00  0.00     0.012 A 
ATOM     97  C   UNL A   1      40.943  33.004  34.391  1.00  0.00     0.148 A 
ATOM     98  C   UNL A   1      39.065  30.949  34.634  1.00  0.00     0.002 A 
ATOM     99  C   UNL A   1      40.602  32.512  35.644  1.00  0.00     0.091 A 
ATOM    100  F   UNL A   1      41.800  34.027  34.251  1.00  0.00    -0.205 F 
ATOM    101  C   UNL A   1      39.656  31.488  35.774  1.00  0.00     0.022 A 
BRANCH  99 102
ATOM    102  S   UNL A   1      41.393  33.160  37.114  1.00  0.00     0.127 S 
ATOM    103  O   UNL A   1      40.968  34.560  37.093  1.00  0.00    -0.237 OA
ATOM    104  O   UNL A   1      40.809  32.360  38.187  1.00  0.00    -0.237 OA
ATOM    105  O   UNL A   1      42.822  32.942  36.914  1.00  0.00    -0.744 OA
ENDBRANCH  99 102
ENDBRANCH  72  95
ENDBRANCH  46  47
ENDBRANCH  39  41
ENDBRANCH  38  39
ENDBRANCH  37  38
ENDBRANCH   1  37
TORSDOF 22
ENDMDL
