MODEL 1
REMARK VINA RESULT:     -11.3      0.000      0.000
REMARK SMILES CCCC1CN(c2ccc(C(=O)NCC(=O)OCCOC(=O)c3ccc(-c4c5nc(c(-c6cccc(S(=O)(=O)[O-])c6F)c6ccc([nH]6)c(-c6cccc(S(=O)(=O)[O-])c6F)c6nc(c(-c7cccc(S(=O)(=O)[O-])c7F)c7ccc4[nH]7)C=C6)C=C5)cc3)cc2)C1
REMARK SMILES IDX 18 1 17 2 15 3 16 4 14 5 13 6 11 7 12 8 10 10 7 11 8 12
REMARK SMILES IDX 87 13 9 14 86 15 6 16 4 17 5 18 88 19 3 20 2 21 1 22 19 23
REMARK SMILES IDX 20 24 21 25 22 26 23 27 24 28 85 29 25 30 84 31 26 32 27 33
REMARK SMILES IDX 28 34 78 35 29 36 83 37 77 38 79 39 30 40 82 41 76 42 75 43
REMARK SMILES IDX 31 45 63 46 43 47 62 48 44 49 47 50 61 51 80 52 45 53 46 54
REMARK SMILES IDX 60 56 81 57 48 58 32 59 33 60 41 61 34 62 36 63 42 64 35 65
REMARK SMILES IDX 37 66 38 67 39 68 40 69 64 70 65 71 73 72 66 73 68 74 74 75
REMARK SMILES IDX 67 76 69 77 70 78 71 79 72 80 49 81 50 82 58 83 51 84 53 85
REMARK SMILES IDX 59 86 52 87 54 88 55 89 56 90 57 91
REMARK H PARENT 13 9 79 44 47 55
REMARK Flexibility Score: inf
ROOT
ATOM      1  C   UNL A   1      31.406  28.971  25.939  1.00  0.00     0.274 C 
ENDROOT
BRANCH   1   2
ATOM      2  O   UNL A   1      31.544  29.657  24.680  1.00  0.00    -0.461 OA
BRANCH   2   3
ATOM      3  C   UNL A   1      30.556  29.460  23.765  1.00  0.00     0.325 C 
ATOM      4  O   UNL A   1      29.533  30.129  23.688  1.00  0.00    -0.250 OA
BRANCH   3   5
ATOM      5  C   UNL A   1      30.928  28.389  22.736  1.00  0.00     0.239 C 
BRANCH   5   6
ATOM      6  N   UNL A   1      32.264  28.540  22.194  1.00  0.00    -0.341 N 
ATOM      7  C   UNL A   1      33.351  27.716  22.257  1.00  0.00     0.251 C 
ATOM      8  O   UNL A   1      34.381  28.047  21.673  1.00  0.00    -0.269 OA
ATOM      9  H   UNL A   1      32.413  29.376  21.698  1.00  0.00     0.164 HD
BRANCH   7  10
ATOM     10  C   UNL A   1      33.316  26.412  22.974  1.00  0.00     0.039 A 
ATOM     11  C   UNL A   1      33.250  23.857  24.162  1.00  0.00     0.037 A 
ATOM     12  C   UNL A   1      32.793  24.046  22.855  1.00  0.00     0.027 A 
ATOM     13  C   UNL A   1      33.754  24.953  24.865  1.00  0.00     0.027 A 
ATOM     14  C   UNL A   1      32.813  25.312  22.268  1.00  0.00     0.016 A 
ATOM     15  C   UNL A   1      33.820  26.215  24.263  1.00  0.00     0.016 A 
BRANCH  11  16
ATOM     16  N   UNL A   1      33.251  22.556  24.700  1.00  0.00    -0.371 N 
ATOM     17  C   UNL A   1      32.988  20.580  24.101  1.00  0.00     0.028 C 
ATOM     18  C   UNL A   1      32.096  21.703  24.640  1.00  0.00     0.122 C 
ATOM     19  C   UNL A   1      34.174  21.493  24.424  1.00  0.00     0.122 C 
BRANCH  17  20
ATOM     20  C   UNL A   1      32.929  19.247  24.835  1.00  0.00     0.007 C 
BRANCH  20  21
ATOM     21  C   UNL A   1      33.171  18.067  23.891  1.00  0.00    -0.003 C 
ATOM     22  C   UNL A   1      32.352  18.136  22.611  1.00  0.00     0.004 C 
ENDBRANCH  20  21
ENDBRANCH  17  20
ENDBRANCH  11  16
ENDBRANCH   7  10
ENDBRANCH   5   6
ENDBRANCH   3   5
ENDBRANCH   2   3
ENDBRANCH   1   2
BRANCH   1  23
ATOM     23  C   UNL A   1      32.192  29.694  27.038  1.00  0.00     0.275 C 
BRANCH  23  24
ATOM     24  O   UNL A   1      33.292  30.450  26.498  1.00  0.00    -0.458 OA
BRANCH  24  25
ATOM     25  C   UNL A   1      33.771  31.428  27.300  1.00  0.00     0.338 C 
ATOM     26  O   UNL A   1      33.179  32.427  27.682  1.00  0.00    -0.246 OA
BRANCH  25  27
ATOM     27  C   UNL A   1      35.100  31.061  27.801  1.00  0.00     0.060 A 
ATOM     28  C   UNL A   1      35.335  29.726  28.138  1.00  0.00     0.016 A 
ATOM     29  C   UNL A   1      36.065  32.035  28.052  1.00  0.00     0.016 A 
ATOM     30  C   UNL A   1      36.511  29.363  28.778  1.00  0.00     0.010 A 
ATOM     31  C   UNL A   1      37.270  31.660  28.657  1.00  0.00     0.010 A 
ATOM     32  C   UNL A   1      37.490  30.326  29.045  1.00  0.00    -0.014 A 
BRANCH  32  33
ATOM     33  C   UNL A   1      38.727  29.924  29.754  1.00  0.00     0.031 A 
ATOM     34  C   UNL A   1      39.668  28.937  29.126  1.00  0.00     0.074 A 
ATOM     35  C   UNL A   1      39.008  30.467  30.955  1.00  0.00     0.049 A 
ATOM     36  N   UNL A   1      40.755  28.407  29.622  1.00  0.00    -0.248 NA
ATOM     37  C   UNL A   1      39.345  28.483  27.763  1.00  0.00     0.031 C 
ATOM     38  C   UNL A   1      38.174  31.448  31.652  1.00  0.00     0.029 A 
ATOM     39  N   UNL A   1      40.067  30.266  31.803  1.00  0.00    -0.354 N 
ATOM     40  C   UNL A   1      41.213  27.514  28.662  1.00  0.00     0.074 A 
ATOM     41  C   UNL A   1      40.293  27.581  27.547  1.00  0.00     0.031 C 
ATOM     42  C   UNL A   1      38.754  31.766  32.818  1.00  0.00     0.029 A 
ATOM     43  C   UNL A   1      39.970  30.977  32.976  1.00  0.00     0.049 A 
ATOM     44  H   UNL A   1      40.821  29.670  31.593  1.00  0.00     0.167 HD
ATOM     45  C   UNL A   1      42.309  26.721  28.703  1.00  0.00     0.034 A 
ATOM     46  C   UNL A   1      40.761  30.973  34.067  1.00  0.00     0.034 A 
ATOM     47  C   UNL A   1      43.254  26.706  29.787  1.00  0.00     0.049 A 
ATOM     48  C   UNL A   1      41.979  30.094  34.077  1.00  0.00     0.074 A 
ATOM     49  C   UNL A   1      44.417  25.967  29.906  1.00  0.00     0.029 A 
ATOM     50  N   UNL A   1      43.147  27.472  30.937  1.00  0.00    -0.354 N 
ATOM     51  N   UNL A   1      42.435  29.308  33.132  1.00  0.00    -0.248 NA
ATOM     52  C   UNL A   1      42.800  30.109  35.296  1.00  0.00     0.031 C 
ATOM     53  C   UNL A   1      45.013  26.285  31.131  1.00  0.00     0.029 A 
ATOM     54  C   UNL A   1      44.223  27.225  31.773  1.00  0.00     0.049 A 
ATOM     55  H   UNL A   1      42.414  28.101  31.132  1.00  0.00     0.167 HD
ATOM     56  C   UNL A   1      43.604  28.748  33.632  1.00  0.00     0.074 A 
ATOM     57  C   UNL A   1      43.801  29.308  34.954  1.00  0.00     0.031 C 
ATOM     58  C   UNL A   1      44.426  27.834  33.062  1.00  0.00     0.034 A 
BRANCH  45  59
ATOM     59  C   UNL A   1      42.565  25.825  27.522  1.00  0.00     0.023 A 
ATOM     60  C   UNL A   1      43.309  26.311  26.428  1.00  0.00     0.012 A 
ATOM     61  C   UNL A   1      42.116  24.490  27.516  1.00  0.00     0.148 A 
ATOM     62  C   UNL A   1      43.582  25.489  25.335  1.00  0.00     0.002 A 
ATOM     63  C   UNL A   1      42.422  23.666  26.438  1.00  0.00     0.091 A 
ATOM     64  F   UNL A   1      41.385  24.055  28.552  1.00  0.00    -0.205 F 
ATOM     65  C   UNL A   1      43.147  24.165  25.344  1.00  0.00     0.022 A 
BRANCH  63  66
ATOM     66  S   UNL A   1      41.956  21.932  26.394  1.00  0.00     0.127 S 
ATOM     67  O   UNL A   1      40.517  22.016  26.149  1.00  0.00    -0.237 OA
ATOM     68  O   UNL A   1      42.738  21.425  25.266  1.00  0.00    -0.237 OA
ATOM     69  O   UNL A   1      42.345  21.386  27.688  1.00  0.00    -0.744 OA
ENDBRANCH  63  66
ENDBRANCH  45  59
BRANCH  46  70
ATOM     70  C   UNL A   1      40.431  31.859  35.218  1.00  0.00     0.023 A 
ATOM     71  C   UNL A   1      41.162  33.049  35.405  1.00  0.00     0.012 A 
ATOM     72  C   UNL A   1      39.365  31.565  36.089  1.00  0.00     0.148 A 
ATOM     73  C   UNL A   1      40.843  33.920  36.448  1.00  0.00     0.002 A 
ATOM     74  C   UNL A   1      39.016  32.465  37.089  1.00  0.00     0.091 A 
ATOM     75  F   UNL A   1      38.696  30.415  35.914  1.00  0.00    -0.205 F 
ATOM     76  C   UNL A   1      39.763  33.638  37.279  1.00  0.00     0.022 A 
BRANCH  74  77
ATOM     77  S   UNL A   1      37.545  32.237  38.096  1.00  0.00     0.127 S 
ATOM     78  O   UNL A   1      36.540  32.968  37.329  1.00  0.00    -0.237 OA
ATOM     79  O   UNL A   1      37.386  30.781  38.089  1.00  0.00    -0.237 OA
ATOM     80  O   UNL A   1      37.886  32.789  39.400  1.00  0.00    -0.744 OA
ENDBRANCH  74  77
ENDBRANCH  46  70
BRANCH  58  81
ATOM     81  C   UNL A   1      45.618  27.384  33.861  1.00  0.00     0.023 A 
ATOM     82  C   UNL A   1      46.821  28.112  33.772  1.00  0.00     0.012 A 
ATOM     83  C   UNL A   1      45.528  26.297  34.750  1.00  0.00     0.148 A 
ATOM     84  C   UNL A   1      47.925  27.749  34.540  1.00  0.00     0.002 A 
ATOM     85  C   UNL A   1      46.622  25.964  35.542  1.00  0.00     0.091 A 
ATOM     86  F   UNL A   1      44.381  25.603  34.802  1.00  0.00    -0.205 F 
ATOM     87  C   UNL A   1      47.823  26.684  35.433  1.00  0.00     0.022 A 
BRANCH  85  88
ATOM     88  S   UNL A   1      46.541  24.660  36.774  1.00  0.00     0.127 S 
ATOM     89  O   UNL A   1      47.663  25.001  37.646  1.00  0.00    -0.237 OA
ATOM     90  O   UNL A   1      45.220  24.868  37.370  1.00  0.00    -0.237 OA
ATOM     91  O   UNL A   1      46.673  23.411  36.034  1.00  0.00    -0.744 OA
ENDBRANCH  85  88
ENDBRANCH  58  81
ENDBRANCH  32  33
ENDBRANCH  25  27
ENDBRANCH  24  25
ENDBRANCH  23  24
ENDBRANCH   1  23
TORSDOF 19
ENDMDL
MODEL 2
REMARK VINA RESULT:     -11.3      5.278     10.275
REMARK SMILES CCCC1CN(c2ccc(C(=O)NCC(=O)OCCOC(=O)c3ccc(-c4c5nc(c(-c6cccc(S(=O)(=O)[O-])c6F)c6ccc([nH]6)c(-c6cccc(S(=O)(=O)[O-])c6F)c6nc(c(-c7cccc(S(=O)(=O)[O-])c7F)c7ccc4[nH]7)C=C6)C=C5)cc3)cc2)C1
REMARK SMILES IDX 18 1 17 2 15 3 16 4 14 5 13 6 11 7 12 8 10 10 7 11 8 12
REMARK SMILES IDX 87 13 9 14 86 15 6 16 4 17 5 18 88 19 3 20 2 21 1 22 19 23
REMARK SMILES IDX 20 24 21 25 22 26 23 27 24 28 85 29 25 30 84 31 26 32 27 33
REMARK SMILES IDX 28 34 78 35 29 36 83 37 77 38 79 39 30 40 82 41 76 42 75 43
REMARK SMILES IDX 31 45 63 46 43 47 62 48 44 49 47 50 61 51 80 52 45 53 46 54
REMARK SMILES IDX 60 56 81 57 48 58 32 59 33 60 41 61 34 62 36 63 42 64 35 65
REMARK SMILES IDX 37 66 38 67 39 68 40 69 64 70 65 71 73 72 66 73 68 74 74 75
REMARK SMILES IDX 67 76 69 77 70 78 71 79 72 80 49 81 50 82 58 83 51 84 53 85
REMARK SMILES IDX 59 86 52 87 54 88 55 89 56 90 57 91
REMARK H PARENT 13 9 79 44 47 55
REMARK Flexibility Score: inf
ROOT
ATOM      1  C   UNL A   1      35.331  20.875  24.492  1.00  0.00     0.274 C 
ENDROOT
BRANCH   1   2
ATOM      2  O   UNL A   1      34.237  20.342  25.262  1.00  0.00    -0.461 OA
BRANCH   2   3
ATOM      3  C   UNL A   1      33.051  21.004  25.177  1.00  0.00     0.325 C 
ATOM      4  O   UNL A   1      32.069  20.603  24.565  1.00  0.00    -0.250 OA
BRANCH   3   5
ATOM      5  C   UNL A   1      33.025  22.255  26.061  1.00  0.00     0.239 C 
BRANCH   5   6
ATOM      6  N   UNL A   1      31.862  22.336  26.923  1.00  0.00    -0.341 N 
ATOM      7  C   UNL A   1      30.761  23.142  26.864  1.00  0.00     0.251 C 
ATOM      8  O   UNL A   1      29.871  22.993  27.700  1.00  0.00    -0.269 OA
ATOM      9  H   UNL A   1      31.867  21.705  27.678  1.00  0.00     0.164 HD
BRANCH   7  10
ATOM     10  C   UNL A   1      30.585  24.163  25.796  1.00  0.00     0.039 A 
ATOM     11  C   UNL A   1      30.316  26.228  23.896  1.00  0.00     0.037 A 
ATOM     12  C   UNL A   1      30.315  26.515  25.265  1.00  0.00     0.027 A 
ATOM     13  C   UNL A   1      30.467  24.902  23.486  1.00  0.00     0.027 A 
ATOM     14  C   UNL A   1      30.436  25.493  26.208  1.00  0.00     0.016 A 
ATOM     15  C   UNL A   1      30.636  23.881  24.428  1.00  0.00     0.016 A 
BRANCH  11  16
ATOM     16  N   UNL A   1      30.234  27.292  22.979  1.00  0.00    -0.371 N 
ATOM     17  C   UNL A   1      29.733  29.312  22.917  1.00  0.00     0.028 C 
ATOM     18  C   UNL A   1      29.001  27.982  22.716  1.00  0.00     0.122 C 
ATOM     19  C   UNL A   1      31.024  28.489  22.952  1.00  0.00     0.122 C 
BRANCH  17  20
ATOM     20  C   UNL A   1      29.604  30.340  21.801  1.00  0.00     0.007 C 
BRANCH  20  21
ATOM     21  C   UNL A   1      28.622  31.456  22.166  1.00  0.00    -0.003 C 
ATOM     22  C   UNL A   1      28.655  31.834  23.639  1.00  0.00     0.004 C 
ENDBRANCH  20  21
ENDBRANCH  17  20
ENDBRANCH  11  16
ENDBRANCH   7  10
ENDBRANCH   5   6
ENDBRANCH   3   5
ENDBRANCH   2   3
ENDBRANCH   1   2
BRANCH   1  23
ATOM     23  C   UNL A   1      36.669  20.334  25.008  1.00  0.00     0.275 C 
BRANCH  23  24
ATOM     24  O   UNL A   1      37.638  21.385  25.185  1.00  0.00    -0.458 OA
BRANCH  24  25
ATOM     25  C   UNL A   1      38.741  21.043  25.888  1.00  0.00     0.338 C 
ATOM     26  O   UNL A   1      39.259  19.938  25.958  1.00  0.00    -0.246 OA
BRANCH  25  27
ATOM     27  C   UNL A   1      39.357  22.241  26.471  1.00  0.00     0.060 A 
ATOM     28  C   UNL A   1      38.831  23.488  26.128  1.00  0.00     0.016 A 
ATOM     29  C   UNL A   1      40.512  22.147  27.246  1.00  0.00     0.016 A 
ATOM     30  C   UNL A   1      39.486  24.651  26.509  1.00  0.00     0.010 A 
ATOM     31  C   UNL A   1      41.145  23.321  27.669  1.00  0.00     0.010 A 
ATOM     32  C   UNL A   1      40.649  24.579  27.282  1.00  0.00    -0.014 A 
BRANCH  32  33
ATOM     33  C   UNL A   1      41.348  25.831  27.657  1.00  0.00     0.031 A 
ATOM     34  C   UNL A   1      40.643  26.871  28.478  1.00  0.00     0.074 A 
ATOM     35  C   UNL A   1      42.626  26.015  27.273  1.00  0.00     0.049 A 
ATOM     36  N   UNL A   1      41.059  28.056  28.837  1.00  0.00    -0.248 NA
ATOM     37  C   UNL A   1      39.290  26.539  28.955  1.00  0.00     0.031 C 
ATOM     38  C   UNL A   1      43.416  25.064  26.488  1.00  0.00     0.029 A 
ATOM     39  N   UNL A   1      43.482  27.066  27.483  1.00  0.00    -0.354 N 
ATOM     40  C   UNL A   1      40.003  28.635  29.529  1.00  0.00     0.074 A 
ATOM     41  C   UNL A   1      38.928  27.667  29.550  1.00  0.00     0.031 C 
ATOM     42  C   UNL A   1      44.640  25.573  26.287  1.00  0.00     0.029 A 
ATOM     43  C   UNL A   1      44.707  26.903  26.880  1.00  0.00     0.049 A 
ATOM     44  H   UNL A   1      43.242  27.860  28.013  1.00  0.00     0.167 HD
ATOM     45  C   UNL A   1      39.942  29.859  30.105  1.00  0.00     0.034 A 
ATOM     46  C   UNL A   1      45.757  27.742  26.795  1.00  0.00     0.034 A 
ATOM     47  C   UNL A   1      41.036  30.791  30.135  1.00  0.00     0.049 A 
ATOM     48  C   UNL A   1      45.666  29.088  27.457  1.00  0.00     0.074 A 
ATOM     49  C   UNL A   1      41.087  32.040  30.728  1.00  0.00     0.029 A 
ATOM     50  N   UNL A   1      42.275  30.573  29.554  1.00  0.00    -0.354 N 
ATOM     51  N   UNL A   1      44.685  29.591  28.167  1.00  0.00    -0.248 NA
ATOM     52  C   UNL A   1      46.828  29.977  27.322  1.00  0.00     0.031 C 
ATOM     53  C   UNL A   1      42.358  32.579  30.501  1.00  0.00     0.029 A 
ATOM     54  C   UNL A   1      43.100  31.663  29.772  1.00  0.00     0.049 A 
ATOM     55  H   UNL A   1      42.532  29.762  29.058  1.00  0.00     0.167 HD
ATOM     56  C   UNL A   1      45.116  30.847  28.577  1.00  0.00     0.074 A 
ATOM     57  C   UNL A   1      46.459  31.016  28.060  1.00  0.00     0.031 C 
ATOM     58  C   UNL A   1      44.452  31.787  29.292  1.00  0.00     0.034 A 
BRANCH  45  59
ATOM     59  C   UNL A   1      38.655  30.247  30.782  1.00  0.00     0.023 A 
ATOM     60  C   UNL A   1      38.425  29.855  32.116  1.00  0.00     0.012 A 
ATOM     61  C   UNL A   1      37.699  31.040  30.118  1.00  0.00     0.148 A 
ATOM     62  C   UNL A   1      37.252  30.227  32.771  1.00  0.00     0.002 A 
ATOM     63  C   UNL A   1      36.548  31.436  30.789  1.00  0.00     0.091 A 
ATOM     64  F   UNL A   1      37.923  31.378  28.839  1.00  0.00    -0.205 F 
ATOM     65  C   UNL A   1      36.319  31.025  32.112  1.00  0.00     0.022 A 
BRANCH  63  66
ATOM     66  S   UNL A   1      35.323  32.515  30.038  1.00  0.00     0.127 S 
ATOM     67  O   UNL A   1      34.860  31.702  28.915  1.00  0.00    -0.237 OA
ATOM     68  O   UNL A   1      34.346  32.678  31.116  1.00  0.00    -0.237 OA
ATOM     69  O   UNL A   1      36.036  33.735  29.684  1.00  0.00    -0.744 OA
ENDBRANCH  63  66
ENDBRANCH  45  59
BRANCH  46  70
ATOM     70  C   UNL A   1      46.990  27.310  26.080  1.00  0.00     0.023 A 
ATOM     71  C   UNL A   1      47.171  27.676  24.732  1.00  0.00     0.012 A 
ATOM     72  C   UNL A   1      48.008  26.593  26.739  1.00  0.00     0.148 A 
ATOM     73  C   UNL A   1      48.338  27.324  24.052  1.00  0.00     0.002 A 
ATOM     74  C   UNL A   1      49.191  26.296  26.073  1.00  0.00     0.091 A 
ATOM     75  F   UNL A   1      47.808  26.228  28.014  1.00  0.00    -0.205 F 
ATOM     76  C   UNL A   1      49.353  26.649  24.724  1.00  0.00     0.022 A 
BRANCH  74  77
ATOM     77  S   UNL A   1      50.595  25.565  26.922  1.00  0.00     0.127 S 
ATOM     78  O   UNL A   1      51.567  25.436  25.839  1.00  0.00    -0.237 OA
ATOM     79  O   UNL A   1      50.920  26.583  27.922  1.00  0.00    -0.237 OA
ATOM     80  O   UNL A   1      50.093  24.319  27.487  1.00  0.00    -0.744 OA
ENDBRANCH  74  77
ENDBRANCH  46  70
BRANCH  58  81
ATOM     81  C   UNL A   1      45.169  33.080  29.566  1.00  0.00     0.023 A 
ATOM     82  C   UNL A   1      46.015  33.176  30.689  1.00  0.00     0.012 A 
ATOM     83  C   UNL A   1      45.066  34.169  28.679  1.00  0.00     0.148 A 
ATOM     84  C   UNL A   1      46.731  34.344  30.937  1.00  0.00     0.002 A 
ATOM     85  C   UNL A   1      45.814  35.318  28.912  1.00  0.00     0.091 A 
ATOM     86  F   UNL A   1      44.237  34.066  27.630  1.00  0.00    -0.205 F 
ATOM     87  C   UNL A   1      46.641  35.410  30.044  1.00  0.00     0.022 A 
BRANCH  85  88
ATOM     88  S   UNL A   1      45.815  36.699  27.765  1.00  0.00     0.127 S 
ATOM     89  O   UNL A   1      46.643  36.185  26.676  1.00  0.00    -0.237 OA
ATOM     90  O   UNL A   1      44.395  36.841  27.437  1.00  0.00    -0.237 OA
ATOM     91  O   UNL A   1      46.372  37.825  28.505  1.00  0.00    -0.744 OA
ENDBRANCH  85  88
ENDBRANCH  58  81
ENDBRANCH  32  33
ENDBRANCH  25  27
ENDBRANCH  24  25
ENDBRANCH  23  24
ENDBRANCH   1  23
TORSDOF 19
ENDMDL
MODEL 3
REMARK VINA RESULT:     -11.2      5.277      8.105
REMARK SMILES CCCC1CN(c2ccc(C(=O)NCC(=O)OCCOC(=O)c3ccc(-c4c5nc(c(-c6cccc(S(=O)(=O)[O-])c6F)c6ccc([nH]6)c(-c6cccc(S(=O)(=O)[O-])c6F)c6nc(c(-c7cccc(S(=O)(=O)[O-])c7F)c7ccc4[nH]7)C=C6)C=C5)cc3)cc2)C1
REMARK SMILES IDX 18 1 17 2 15 3 16 4 14 5 13 6 11 7 12 8 10 10 7 11 8 12
REMARK SMILES IDX 87 13 9 14 86 15 6 16 4 17 5 18 88 19 3 20 2 21 1 22 19 23
REMARK SMILES IDX 20 24 21 25 22 26 23 27 24 28 85 29 25 30 84 31 26 32 27 33
REMARK SMILES IDX 28 34 78 35 29 36 83 37 77 38 79 39 30 40 82 41 76 42 75 43
REMARK SMILES IDX 31 45 63 46 43 47 62 48 44 49 47 50 61 51 80 52 45 53 46 54
REMARK SMILES IDX 60 56 81 57 48 58 32 59 33 60 41 61 34 62 36 63 42 64 35 65
REMARK SMILES IDX 37 66 38 67 39 68 40 69 64 70 65 71 73 72 66 73 68 74 74 75
REMARK SMILES IDX 67 76 69 77 70 78 71 79 72 80 49 81 50 82 58 83 51 84 53 85
REMARK SMILES IDX 59 86 52 87 54 88 55 89 56 90 57 91
REMARK H PARENT 13 9 79 44 47 55
REMARK Flexibility Score: inf
ROOT
ATOM      1  C   UNL A   1      35.407  21.002  24.744  1.00  0.00     0.274 C 
ENDROOT
BRANCH   1   2
ATOM      2  O   UNL A   1      34.743  19.730  24.860  1.00  0.00    -0.461 OA
BRANCH   2   3
ATOM      3  C   UNL A   1      33.394  19.726  24.678  1.00  0.00     0.325 C 
ATOM      4  O   UNL A   1      32.731  18.736  24.392  1.00  0.00    -0.250 OA
BRANCH   3   5
ATOM      5  C   UNL A   1      32.764  21.080  25.013  1.00  0.00     0.239 C 
BRANCH   5   6
ATOM      6  N   UNL A   1      32.786  21.400  26.427  1.00  0.00    -0.341 N 
ATOM      7  C   UNL A   1      32.544  22.574  27.081  1.00  0.00     0.251 C 
ATOM      8  O   UNL A   1      32.583  22.588  28.310  1.00  0.00    -0.269 OA
ATOM      9  H   UNL A   1      33.013  20.644  27.015  1.00  0.00     0.164 HD
BRANCH   7  10
ATOM     10  C   UNL A   1      32.195  23.826  26.356  1.00  0.00     0.039 A 
ATOM     11  C   UNL A   1      31.703  26.186  24.896  1.00  0.00     0.037 A 
ATOM     12  C   UNL A   1      33.012  25.756  25.133  1.00  0.00     0.027 A 
ATOM     13  C   UNL A   1      30.643  25.418  25.381  1.00  0.00     0.027 A 
ATOM     14  C   UNL A   1      33.258  24.594  25.866  1.00  0.00     0.016 A 
ATOM     15  C   UNL A   1      30.886  24.228  26.076  1.00  0.00     0.016 A 
BRANCH  11  16
ATOM     16  N   UNL A   1      31.498  27.340  24.117  1.00  0.00    -0.371 N 
ATOM     17  C   UNL A   1      29.949  28.549  23.429  1.00  0.00     0.028 C 
ATOM     18  C   UNL A   1      30.709  27.323  22.916  1.00  0.00     0.122 C 
ATOM     19  C   UNL A   1      30.992  28.612  24.549  1.00  0.00     0.122 C 
BRANCH  17  20
ATOM     20  C   UNL A   1      29.873  29.748  22.494  1.00  0.00     0.007 C 
BRANCH  20  21
ATOM     21  C   UNL A   1      28.454  30.315  22.409  1.00  0.00    -0.003 C 
ATOM     22  C   UNL A   1      28.048  30.726  21.002  1.00  0.00     0.004 C 
ENDBRANCH  20  21
ENDBRANCH  17  20
ENDBRANCH  11  16
ENDBRANCH   7  10
ENDBRANCH   5   6
ENDBRANCH   3   5
ENDBRANCH   2   3
ENDBRANCH   1   2
BRANCH   1  23
ATOM     23  C   UNL A   1      36.559  21.104  25.749  1.00  0.00     0.275 C 
BRANCH  23  24
ATOM     24  O   UNL A   1      37.832  21.252  25.090  1.00  0.00    -0.458 OA
BRANCH  24  25
ATOM     25  C   UNL A   1      38.914  20.996  25.858  1.00  0.00     0.338 C 
ATOM     26  O   UNL A   1      39.478  19.921  26.007  1.00  0.00    -0.246 OA
BRANCH  25  27
ATOM     27  C   UNL A   1      39.448  22.247  26.408  1.00  0.00     0.060 A 
ATOM     28  C   UNL A   1      38.927  23.453  25.934  1.00  0.00     0.016 A 
ATOM     29  C   UNL A   1      40.530  22.240  27.287  1.00  0.00     0.016 A 
ATOM     30  C   UNL A   1      39.517  24.657  26.289  1.00  0.00     0.010 A 
ATOM     31  C   UNL A   1      41.095  23.457  27.681  1.00  0.00     0.010 A 
ATOM     32  C   UNL A   1      40.607  24.672  27.165  1.00  0.00    -0.014 A 
BRANCH  32  33
ATOM     33  C   UNL A   1      41.240  25.966  27.512  1.00  0.00     0.031 A 
ATOM     34  C   UNL A   1      42.634  26.271  27.047  1.00  0.00     0.074 A 
ATOM     35  C   UNL A   1      40.546  26.870  28.230  1.00  0.00     0.049 A 
ATOM     36  N   UNL A   1      43.381  27.310  27.314  1.00  0.00    -0.248 NA
ATOM     37  C   UNL A   1      43.277  25.278  26.170  1.00  0.00     0.031 C 
ATOM     38  C   UNL A   1      39.178  26.687  28.720  1.00  0.00     0.029 A 
ATOM     39  N   UNL A   1      40.896  28.119  28.678  1.00  0.00    -0.354 N 
ATOM     40  C   UNL A   1      44.599  27.072  26.691  1.00  0.00     0.074 A 
ATOM     41  C   UNL A   1      44.490  25.793  26.021  1.00  0.00     0.031 C 
ATOM     42  C   UNL A   1      38.805  27.783  29.396  1.00  0.00     0.029 A 
ATOM     43  C   UNL A   1      39.919  28.723  29.432  1.00  0.00     0.049 A 
ATOM     44  H   UNL A   1      41.763  28.539  28.478  1.00  0.00     0.167 HD
ATOM     45  C   UNL A   1      45.703  27.855  26.669  1.00  0.00     0.034 A 
ATOM     46  C   UNL A   1      39.930  29.893  30.100  1.00  0.00     0.034 A 
ATOM     47  C   UNL A   1      45.783  29.152  27.284  1.00  0.00     0.049 A 
ATOM     48  C   UNL A   1      41.164  30.748  30.045  1.00  0.00     0.074 A 
ATOM     49  C   UNL A   1      46.844  30.041  27.285  1.00  0.00     0.029 A 
ATOM     50  N   UNL A   1      44.759  29.751  28.001  1.00  0.00    -0.354 N 
ATOM     51  N   UNL A   1      42.282  30.539  29.393  1.00  0.00    -0.248 NA
ATOM     52  C   UNL A   1      41.136  32.007  30.804  1.00  0.00     0.031 C 
ATOM     53  C   UNL A   1      46.461  31.177  28.006  1.00  0.00     0.029 A 
ATOM     54  C   UNL A   1      45.160  30.997  28.450  1.00  0.00     0.049 A 
ATOM     55  H   UNL A   1      43.875  29.349  28.167  1.00  0.00     0.167 HD
ATOM     56  C   UNL A   1      43.085  31.644  29.648  1.00  0.00     0.074 A 
ATOM     57  C   UNL A   1      42.312  32.535  30.491  1.00  0.00     0.031 C 
ATOM     58  C   UNL A   1      44.355  31.889  29.244  1.00  0.00     0.034 A 
BRANCH  45  59
ATOM     59  C   UNL A   1      46.907  27.342  25.927  1.00  0.00     0.023 A 
ATOM     60  C   UNL A   1      47.772  26.424  26.555  1.00  0.00     0.012 A 
ATOM     61  C   UNL A   1      47.154  27.727  24.595  1.00  0.00     0.148 A 
ATOM     62  C   UNL A   1      48.878  25.915  25.877  1.00  0.00     0.002 A 
ATOM     63  C   UNL A   1      48.240  27.189  23.913  1.00  0.00     0.091 A 
ATOM     64  F   UNL A   1      46.337  28.624  24.025  1.00  0.00    -0.205 F 
ATOM     65  C   UNL A   1      49.107  26.289  24.554  1.00  0.00     0.022 A 
BRANCH  63  66
ATOM     66  S   UNL A   1      48.573  27.567  22.189  1.00  0.00     0.127 S 
ATOM     67  O   UNL A   1      48.826  26.237  21.637  1.00  0.00    -0.237 OA
ATOM     68  O   UNL A   1      47.317  28.179  21.753  1.00  0.00    -0.237 OA
ATOM     69  O   UNL A   1      49.713  28.474  22.198  1.00  0.00    -0.744 OA
ENDBRANCH  63  66
ENDBRANCH  45  59
BRANCH  46  70
ATOM     70  C   UNL A   1      38.716  30.327  30.846  1.00  0.00     0.023 A 
ATOM     71  C   UNL A   1      38.648  30.120  32.237  1.00  0.00     0.012 A 
ATOM     72  C   UNL A   1      37.658  30.996  30.201  1.00  0.00     0.148 A 
ATOM     73  C   UNL A   1      37.543  30.558  32.968  1.00  0.00     0.002 A 
ATOM     74  C   UNL A   1      36.587  31.481  30.942  1.00  0.00     0.091 A 
ATOM     75  F   UNL A   1      37.724  31.162  28.871  1.00  0.00    -0.205 F 
ATOM     76  C   UNL A   1      36.521  31.252  32.325  1.00  0.00     0.022 A 
BRANCH  74  77
ATOM     77  S   UNL A   1      35.315  32.512  30.203  1.00  0.00     0.127 S 
ATOM     78  O   UNL A   1      36.084  33.679  29.776  1.00  0.00    -0.237 OA
ATOM     79  O   UNL A   1      34.824  31.667  29.113  1.00  0.00    -0.237 OA
ATOM     80  O   UNL A   1      34.342  32.737  31.263  1.00  0.00    -0.744 OA
ENDBRANCH  74  77
ENDBRANCH  46  70
BRANCH  58  81
ATOM     81  C   UNL A   1      44.990  33.173  29.702  1.00  0.00     0.023 A 
ATOM     82  C   UNL A   1      45.734  33.186  30.898  1.00  0.00     0.012 A 
ATOM     83  C   UNL A   1      44.914  34.340  28.918  1.00  0.00     0.148 A 
ATOM     84  C   UNL A   1      46.376  34.348  31.319  1.00  0.00     0.002 A 
ATOM     85  C   UNL A   1      45.589  35.486  29.326  1.00  0.00     0.091 A 
ATOM     86  F   UNL A   1      44.180  34.314  27.796  1.00  0.00    -0.205 F 
ATOM     87  C   UNL A   1      46.314  35.494  30.528  1.00  0.00     0.022 A 
BRANCH  85  88
ATOM     88  S   UNL A   1      45.625  36.974  28.321  1.00  0.00     0.127 S 
ATOM     89  O   UNL A   1      46.210  36.482  27.076  1.00  0.00    -0.237 OA
ATOM     90  O   UNL A   1      44.208  37.330  28.230  1.00  0.00    -0.237 OA
ATOM     91  O   UNL A   1      46.435  37.931  29.065  1.00  0.00    -0.744 OA
ENDBRANCH  85  88
ENDBRANCH  58  81
ENDBRANCH  32  33
ENDBRANCH  25  27
ENDBRANCH  24  25
ENDBRANCH  23  24
ENDBRANCH   1  23
TORSDOF 19
ENDMDL
