MODEL 1
REMARK VINA RESULT:     -11.6      0.000      0.000
REMARK SMILES CN(C)c1ccc(F)c(C(=O)OCCOC(=O)c2ccc(-c3c4nc(c(-c5cccc(S(=O)(=O)[O-])c5F)c5ccc([nH]5)c(-c5cccc(S(=O)(=O)[O-])c5F)c5nc(c(-c6cccc(S(=O)(=O)[O-])c6F)c6ccc3[nH]6)C=C5)C=C4)cc2)c1
REMARK SMILES IDX 14 1 13 2 12 3 10 4 11 5 9 6 4 7 5 8 81 9 6 10 7 11 8 12
REMARK SMILES IDX 2 13 1 14 3 15 15 16 16 17 17 18 18 19 19 20 80 21 20 22
REMARK SMILES IDX 79 23 21 24 22 25 23 26 73 27 24 28 78 29 72 30 74 31 25 32
REMARK SMILES IDX 77 33 71 34 70 35 26 37 58 38 38 39 57 40 39 41 42 42 56 43
REMARK SMILES IDX 75 44 40 45 41 46 55 48 76 49 43 50 27 51 28 52 36 53 29 54
REMARK SMILES IDX 31 55 37 56 30 57 32 58 33 59 34 60 35 61 59 62 60 63 68 64
REMARK SMILES IDX 61 65 63 66 69 67 62 68 64 69 65 70 66 71 67 72 44 73 45 74
REMARK SMILES IDX 53 75 46 76 48 77 54 78 47 79 49 80 50 81 51 82 52 83
REMARK H PARENT 74 36 42 47
REMARK Flexibility Score: inf
ROOT
ATOM      1  C   UNL A   1      32.245  29.801  25.208  1.00  0.00     0.275 C 
ENDROOT
BRANCH   1   2
ATOM      2  C   UNL A   1      31.058  28.912  24.841  1.00  0.00     0.275 C 
BRANCH   2   3
ATOM      3  O   UNL A   1      31.463  27.826  23.980  1.00  0.00    -0.458 OA
BRANCH   3   4
ATOM      4  C   UNL A   1      30.906  27.807  22.743  1.00  0.00     0.341 C 
ATOM      5  O   UNL A   1      31.313  27.193  21.774  1.00  0.00    -0.246 OA
BRANCH   4   6
ATOM      6  C   UNL A   1      29.647  28.577  22.714  1.00  0.00     0.097 A 
ATOM      7  C   UNL A   1      28.528  30.723  22.331  1.00  0.00     0.037 A 
ATOM      8  C   UNL A   1      27.348  30.149  22.811  1.00  0.00     0.029 A 
ATOM      9  C   UNL A   1      29.679  29.924  22.319  1.00  0.00     0.044 A 
ATOM     10  C   UNL A   1      27.306  28.811  23.221  1.00  0.00     0.042 A 
ATOM     11  C   UNL A   1      28.456  28.028  23.164  1.00  0.00     0.137 A 
ATOM     12  F   UNL A   1      28.395  26.763  23.604  1.00  0.00    -0.206 F 
BRANCH   7  13
ATOM     13  N   UNL A   1      28.562  32.039  21.914  1.00  0.00    -0.378 N 
ATOM     14  C   UNL A   1      27.987  32.377  20.624  1.00  0.00     0.143 C 
ATOM     15  C   UNL A   1      28.906  33.097  22.853  1.00  0.00     0.143 C 
ENDBRANCH   7  13
ENDBRANCH   4   6
ENDBRANCH   3   4
ENDBRANCH   2   3
ENDBRANCH   1   2
BRANCH   1  16
ATOM     16  O   UNL A   1      32.311  29.981  26.633  1.00  0.00    -0.458 OA
BRANCH  16  17
ATOM     17  C   UNL A   1      32.882  31.136  27.039  1.00  0.00     0.338 C 
ATOM     18  O   UNL A   1      32.346  32.224  27.173  1.00  0.00    -0.246 OA
BRANCH  17  19
ATOM     19  C   UNL A   1      34.285  30.903  27.404  1.00  0.00     0.060 A 
ATOM     20  C   UNL A   1      34.688  29.597  27.644  1.00  0.00     0.016 A 
ATOM     21  C   UNL A   1      35.134  31.963  27.712  1.00  0.00     0.016 A 
ATOM     22  C   UNL A   1      35.866  29.351  28.341  1.00  0.00     0.010 A 
ATOM     23  C   UNL A   1      36.384  31.698  28.288  1.00  0.00     0.010 A 
ATOM     24  C   UNL A   1      36.743  30.393  28.675  1.00  0.00    -0.014 A 
BRANCH  24  25
ATOM     25  C   UNL A   1      37.999  30.116  29.444  1.00  0.00     0.031 A 
ATOM     26  C   UNL A   1      39.090  29.245  28.860  1.00  0.00     0.074 A 
ATOM     27  C   UNL A   1      38.181  30.647  30.674  1.00  0.00     0.049 A 
ATOM     28  N   UNL A   1      40.151  28.750  29.446  1.00  0.00    -0.248 NA
ATOM     29  C   UNL A   1      38.969  28.862  27.443  1.00  0.00     0.031 C 
ATOM     30  C   UNL A   1      37.231  31.516  31.371  1.00  0.00     0.029 A 
ATOM     31  N   UNL A   1      39.224  30.528  31.565  1.00  0.00    -0.354 N 
ATOM     32  C   UNL A   1      40.762  27.924  28.508  1.00  0.00     0.074 A 
ATOM     33  C   UNL A   1      39.970  28.002  27.301  1.00  0.00     0.031 C 
ATOM     34  C   UNL A   1      37.744  31.885  32.551  1.00  0.00     0.029 A 
ATOM     35  C   UNL A   1      39.003  31.181  32.758  1.00  0.00     0.049 A 
ATOM     36  H   UNL A   1      40.047  30.025  31.369  1.00  0.00     0.167 HD
ATOM     37  C   UNL A   1      41.881  27.171  28.641  1.00  0.00     0.034 A 
ATOM     38  C   UNL A   1      39.686  31.171  33.922  1.00  0.00     0.034 A 
ATOM     39  C   UNL A   1      42.725  27.174  29.806  1.00  0.00     0.049 A 
ATOM     40  C   UNL A   1      40.934  30.348  34.033  1.00  0.00     0.074 A 
ATOM     41  C   UNL A   1      43.920  26.502  29.995  1.00  0.00     0.029 A 
ATOM     42  N   UNL A   1      42.476  27.880  30.971  1.00  0.00    -0.354 N 
ATOM     43  N   UNL A   1      41.512  29.607  33.120  1.00  0.00    -0.248 NA
ATOM     44  C   UNL A   1      41.630  30.359  35.328  1.00  0.00     0.031 C 
ATOM     45  C   UNL A   1      44.376  26.772  31.286  1.00  0.00     0.029 A 
ATOM     46  C   UNL A   1      43.488  27.649  31.887  1.00  0.00     0.049 A 
ATOM     47  H   UNL A   1      41.695  28.460  31.124  1.00  0.00     0.167 HD
ATOM     48  C   UNL A   1      42.645  29.077  33.722  1.00  0.00     0.074 A 
ATOM     49  C   UNL A   1      42.690  29.604  35.071  1.00  0.00     0.031 C 
ATOM     50  C   UNL A   1      43.555  28.216  33.208  1.00  0.00     0.034 A 
BRANCH  37  51
ATOM     51  C   UNL A   1      42.298  26.278  27.498  1.00  0.00     0.023 A 
ATOM     52  C   UNL A   1      43.261  26.715  26.571  1.00  0.00     0.012 A 
ATOM     53  C   UNL A   1      41.838  24.945  27.441  1.00  0.00     0.148 A 
ATOM     54  C   UNL A   1      43.754  25.845  25.597  1.00  0.00     0.002 A 
ATOM     55  C   UNL A   1      42.368  24.070  26.500  1.00  0.00     0.091 A 
ATOM     56  F   UNL A   1      40.908  24.553  28.324  1.00  0.00    -0.205 F 
ATOM     57  C   UNL A   1      43.320  24.521  25.572  1.00  0.00     0.022 A 
BRANCH  55  58
ATOM     58  S   UNL A   1      41.950  22.323  26.452  1.00  0.00     0.127 S 
ATOM     59  O   UNL A   1      42.771  21.854  25.336  1.00  0.00    -0.237 OA
ATOM     60  O   UNL A   1      42.394  21.866  27.769  1.00  0.00    -0.237 OA
ATOM     61  O   UNL A   1      40.512  22.255  26.234  1.00  0.00    -0.744 OA
ENDBRANCH  55  58
ENDBRANCH  37  51
BRANCH  38  62
ATOM     62  C   UNL A   1      39.170  31.961  35.078  1.00  0.00     0.023 A 
ATOM     63  C   UNL A   1      38.297  31.358  36.003  1.00  0.00     0.012 A 
ATOM     64  C   UNL A   1      39.605  33.283  35.305  1.00  0.00     0.148 A 
ATOM     65  C   UNL A   1      37.863  32.060  37.129  1.00  0.00     0.002 A 
ATOM     66  C   UNL A   1      39.231  33.947  36.465  1.00  0.00     0.091 A 
ATOM     67  F   UNL A   1      40.415  33.849  34.398  1.00  0.00    -0.205 F 
ATOM     68  C   UNL A   1      38.345  33.344  37.371  1.00  0.00     0.022 A 
BRANCH  66  69
ATOM     69  S   UNL A   1      39.945  35.526  36.938  1.00  0.00     0.127 S 
ATOM     70  O   UNL A   1      39.312  35.764  38.232  1.00  0.00    -0.237 OA
ATOM     71  O   UNL A   1      41.371  35.207  36.997  1.00  0.00    -0.237 OA
ATOM     72  O   UNL A   1      39.584  36.455  35.875  1.00  0.00    -0.744 OA
ENDBRANCH  66  69
ENDBRANCH  38  62
BRANCH  50  73
ATOM     73  C   UNL A   1      44.710  27.799  34.078  1.00  0.00     0.023 A 
ATOM     74  C   UNL A   1      45.863  28.606  34.145  1.00  0.00     0.012 A 
ATOM     75  C   UNL A   1      44.599  26.674  34.919  1.00  0.00     0.148 A 
ATOM     76  C   UNL A   1      46.897  28.287  35.024  1.00  0.00     0.002 A 
ATOM     77  C   UNL A   1      45.610  26.393  35.829  1.00  0.00     0.091 A 
ATOM     78  F   UNL A   1      43.499  25.913  34.825  1.00  0.00    -0.205 F 
ATOM     79  C   UNL A   1      46.764  27.192  35.876  1.00  0.00     0.022 A 
BRANCH  77  80
ATOM     80  S   UNL A   1      45.481  25.069  37.036  1.00  0.00     0.127 S 
ATOM     81  O   UNL A   1      45.420  23.888  36.176  1.00  0.00    -0.237 OA
ATOM     82  O   UNL A   1      46.728  25.214  37.787  1.00  0.00    -0.237 OA
ATOM     83  O   UNL A   1      44.274  25.338  37.805  1.00  0.00    -0.744 OA
ENDBRANCH  77  80
ENDBRANCH  50  73
ENDBRANCH  24  25
ENDBRANCH  17  19
ENDBRANCH  16  17
ENDBRANCH   1  16
TORSDOF 15
ENDMDL
MODEL 2
REMARK VINA RESULT:     -11.6      6.636     11.040
REMARK SMILES CN(C)c1ccc(F)c(C(=O)OCCOC(=O)c2ccc(-c3c4nc(c(-c5cccc(S(=O)(=O)[O-])c5F)c5ccc([nH]5)c(-c5cccc(S(=O)(=O)[O-])c5F)c5nc(c(-c6cccc(S(=O)(=O)[O-])c6F)c6ccc3[nH]6)C=C5)C=C4)cc2)c1
REMARK SMILES IDX 14 1 13 2 12 3 10 4 11 5 9 6 4 7 5 8 81 9 6 10 7 11 8 12
REMARK SMILES IDX 2 13 1 14 3 15 15 16 16 17 17 18 18 19 19 20 80 21 20 22
REMARK SMILES IDX 79 23 21 24 22 25 23 26 73 27 24 28 78 29 72 30 74 31 25 32
REMARK SMILES IDX 77 33 71 34 70 35 26 37 58 38 38 39 57 40 39 41 42 42 56 43
REMARK SMILES IDX 75 44 40 45 41 46 55 48 76 49 43 50 27 51 28 52 36 53 29 54
REMARK SMILES IDX 31 55 37 56 30 57 32 58 33 59 34 60 35 61 59 62 60 63 68 64
REMARK SMILES IDX 61 65 63 66 69 67 62 68 64 69 65 70 66 71 67 72 44 73 45 74
REMARK SMILES IDX 53 75 46 76 48 77 54 78 47 79 49 80 50 81 51 82 52 83
REMARK H PARENT 74 36 42 47
REMARK Flexibility Score: inf
ROOT
ATOM      1  C   UNL A   1      37.002  20.910  24.994  1.00  0.00     0.275 C 
ENDROOT
BRANCH   1   2
ATOM      2  C   UNL A   1      35.628  21.571  24.895  1.00  0.00     0.275 C 
BRANCH   2   3
ATOM      3  O   UNL A   1      34.673  20.926  25.766  1.00  0.00    -0.458 OA
BRANCH   3   4
ATOM      4  C   UNL A   1      33.391  20.891  25.322  1.00  0.00     0.341 C 
ATOM      5  O   UNL A   1      32.561  21.775  25.431  1.00  0.00    -0.246 OA
BRANCH   4   6
ATOM      6  C   UNL A   1      33.118  19.644  24.582  1.00  0.00     0.097 A 
ATOM      7  C   UNL A   1      33.396  17.215  24.423  1.00  0.00     0.037 A 
ATOM      8  C   UNL A   1      32.807  17.269  23.156  1.00  0.00     0.029 A 
ATOM      9  C   UNL A   1      33.570  18.423  25.109  1.00  0.00     0.044 A 
ATOM     10  C   UNL A   1      32.365  18.482  22.613  1.00  0.00     0.042 A 
ATOM     11  C   UNL A   1      32.517  19.664  23.332  1.00  0.00     0.137 A 
ATOM     12  F   UNL A   1      32.123  20.815  22.768  1.00  0.00    -0.206 F 
BRANCH   7  13
ATOM     13  N   UNL A   1      33.818  16.014  24.961  1.00  0.00    -0.378 N 
ATOM     14  C   UNL A   1      35.223  15.855  25.292  1.00  0.00     0.143 C 
ATOM     15  C   UNL A   1      32.845  15.045  25.442  1.00  0.00     0.143 C 
ENDBRANCH   7  13
ENDBRANCH   4   6
ENDBRANCH   3   4
ENDBRANCH   2   3
ENDBRANCH   1   2
BRANCH   1  16
ATOM     16  O   UNL A   1      38.025  21.909  25.148  1.00  0.00    -0.458 OA
BRANCH  16  17
ATOM     17  C   UNL A   1      39.058  21.553  25.942  1.00  0.00     0.338 C 
ATOM     18  O   UNL A   1      39.637  20.479  25.972  1.00  0.00    -0.246 OA
BRANCH  17  19
ATOM     19  C   UNL A   1      39.490  22.698  26.752  1.00  0.00     0.060 A 
ATOM     20  C   UNL A   1      38.886  23.925  26.520  1.00  0.00     0.016 A 
ATOM     21  C   UNL A   1      40.611  22.617  27.574  1.00  0.00     0.016 A 
ATOM     22  C   UNL A   1      39.492  25.094  26.969  1.00  0.00     0.010 A 
ATOM     23  C   UNL A   1      41.136  23.787  28.140  1.00  0.00     0.010 A 
ATOM     24  C   UNL A   1      40.626  25.053  27.793  1.00  0.00    -0.014 A 
BRANCH  24  25
ATOM     25  C   UNL A   1      41.281  26.320  28.254  1.00  0.00     0.031 A 
ATOM     26  C   UNL A   1      40.501  27.357  29.032  1.00  0.00     0.074 A 
ATOM     27  C   UNL A   1      42.585  26.555  27.986  1.00  0.00     0.049 A 
ATOM     28  N   UNL A   1      40.845  28.580  29.349  1.00  0.00    -0.248 NA
ATOM     29  C   UNL A   1      39.155  26.986  29.500  1.00  0.00     0.031 C 
ATOM     30  C   UNL A   1      43.476  25.649  27.257  1.00  0.00     0.029 A 
ATOM     31  N   UNL A   1      43.391  27.630  28.286  1.00  0.00    -0.354 N 
ATOM     32  C   UNL A   1      39.731  29.151  29.957  1.00  0.00     0.074 A 
ATOM     33  C   UNL A   1      38.705  28.134  29.992  1.00  0.00     0.031 C 
ATOM     34  C   UNL A   1      44.705  26.180  27.203  1.00  0.00     0.029 A 
ATOM     35  C   UNL A   1      44.667  27.518  27.777  1.00  0.00     0.049 A 
ATOM     36  H   UNL A   1      43.085  28.404  28.811  1.00  0.00     0.167 HD
ATOM     37  C   UNL A   1      39.580  30.407  30.443  1.00  0.00     0.034 A 
ATOM     38  C   UNL A   1      45.682  28.404  27.709  1.00  0.00     0.034 A 
ATOM     39  C   UNL A   1      40.635  31.385  30.502  1.00  0.00     0.049 A 
ATOM     40  C   UNL A   1      45.494  29.780  28.276  1.00  0.00     0.074 A 
ATOM     41  C   UNL A   1      40.590  32.655  31.050  1.00  0.00     0.029 A 
ATOM     42  N   UNL A   1      41.916  31.208  30.007  1.00  0.00    -0.354 N 
ATOM     43  N   UNL A   1      44.446  30.281  28.880  1.00  0.00    -0.248 NA
ATOM     44  C   UNL A   1      46.626  30.711  28.159  1.00  0.00     0.031 C 
ATOM     45  C   UNL A   1      41.832  33.260  30.856  1.00  0.00     0.029 A 
ATOM     46  C   UNL A   1      42.666  32.351  30.226  1.00  0.00     0.049 A 
ATOM     47  H   UNL A   1      42.244  30.391  29.566  1.00  0.00     0.167 HD
ATOM     48  C   UNL A   1      44.795  31.580  29.230  1.00  0.00     0.074 A 
ATOM     49  C   UNL A   1      46.162  31.779  28.795  1.00  0.00     0.031 C 
ATOM     50  C   UNL A   1      44.042  32.526  29.839  1.00  0.00     0.034 A 
BRANCH  37  51
ATOM     51  C   UNL A   1      38.233  30.823  30.979  1.00  0.00     0.023 A 
ATOM     52  C   UNL A   1      37.950  30.711  32.353  1.00  0.00     0.012 A 
ATOM     53  C   UNL A   1      37.305  31.467  30.132  1.00  0.00     0.148 A 
ATOM     54  C   UNL A   1      36.762  31.223  32.876  1.00  0.00     0.002 A 
ATOM     55  C   UNL A   1      36.146  32.018  30.668  1.00  0.00     0.091 A 
ATOM     56  F   UNL A   1      37.587  31.550  28.824  1.00  0.00    -0.205 F 
ATOM     57  C   UNL A   1      35.870  31.889  32.037  1.00  0.00     0.022 A 
BRANCH  55  58
ATOM     58  S   UNL A   1      34.986  32.981  29.691  1.00  0.00     0.127 S 
ATOM     59  O   UNL A   1      34.046  33.436  30.714  1.00  0.00    -0.237 OA
ATOM     60  O   UNL A   1      35.846  34.031  29.143  1.00  0.00    -0.237 OA
ATOM     61  O   UNL A   1      34.432  32.068  28.701  1.00  0.00    -0.744 OA
ENDBRANCH  55  58
ENDBRANCH  37  51
BRANCH  38  62
ATOM     62  C   UNL A   1      46.958  28.003  27.048  1.00  0.00     0.023 A 
ATOM     63  C   UNL A   1      48.005  27.464  27.819  1.00  0.00     0.012 A 
ATOM     64  C   UNL A   1      47.105  28.080  25.648  1.00  0.00     0.148 A 
ATOM     65  C   UNL A   1      49.178  27.016  27.207  1.00  0.00     0.002 A 
ATOM     66  C   UNL A   1      48.241  27.563  25.040  1.00  0.00     0.091 A 
ATOM     67  F   UNL A   1      46.107  28.621  24.934  1.00  0.00    -0.205 F 
ATOM     68  C   UNL A   1      49.287  27.046  25.818  1.00  0.00     0.022 A 
BRANCH  66  69
ATOM     69  S   UNL A   1      48.383  27.401  23.256  1.00  0.00     0.127 S 
ATOM     70  O   UNL A   1      48.299  25.954  23.080  1.00  0.00    -0.237 OA
ATOM     71  O   UNL A   1      47.215  28.149  22.791  1.00  0.00    -0.237 OA
ATOM     72  O   UNL A   1      49.661  28.009  22.907  1.00  0.00    -0.744 OA
ENDBRANCH  66  69
ENDBRANCH  38  62
BRANCH  50  73
ATOM     73  C   UNL A   1      44.669  33.865  30.115  1.00  0.00     0.023 A 
ATOM     74  C   UNL A   1      45.607  33.997  31.158  1.00  0.00     0.012 A 
ATOM     75  C   UNL A   1      44.419  34.959  29.263  1.00  0.00     0.148 A 
ATOM     76  C   UNL A   1      46.273  35.205  31.359  1.00  0.00     0.002 A 
ATOM     77  C   UNL A   1      45.125  36.142  29.437  1.00  0.00     0.091 A 
ATOM     78  F   UNL A   1      43.511  34.814  28.288  1.00  0.00    -0.205 F 
ATOM     79  C   UNL A   1      46.044  36.271  30.491  1.00  0.00     0.022 A 
BRANCH  77  80
ATOM     80  S   UNL A   1      44.975  37.531  28.307  1.00  0.00     0.127 S 
ATOM     81  O   UNL A   1      46.035  38.419  28.785  1.00  0.00    -0.237 OA
ATOM     82  O   UNL A   1      45.241  36.904  27.012  1.00  0.00    -0.237 OA
ATOM     83  O   UNL A   1      43.620  38.040  28.469  1.00  0.00    -0.744 OA
ENDBRANCH  77  80
ENDBRANCH  50  73
ENDBRANCH  24  25
ENDBRANCH  17  19
ENDBRANCH  16  17
ENDBRANCH   1  16
TORSDOF 15
ENDMDL
MODEL 3
REMARK VINA RESULT:     -11.4      6.653      8.814
REMARK SMILES CN(C)c1ccc(F)c(C(=O)OCCOC(=O)c2ccc(-c3c4nc(c(-c5cccc(S(=O)(=O)[O-])c5F)c5ccc([nH]5)c(-c5cccc(S(=O)(=O)[O-])c5F)c5nc(c(-c6cccc(S(=O)(=O)[O-])c6F)c6ccc3[nH]6)C=C5)C=C4)cc2)c1
REMARK SMILES IDX 14 1 13 2 12 3 10 4 11 5 9 6 4 7 5 8 81 9 6 10 7 11 8 12
REMARK SMILES IDX 2 13 1 14 3 15 15 16 16 17 17 18 18 19 19 20 80 21 20 22
REMARK SMILES IDX 79 23 21 24 22 25 23 26 73 27 24 28 78 29 72 30 74 31 25 32
REMARK SMILES IDX 77 33 71 34 70 35 26 37 58 38 38 39 57 40 39 41 42 42 56 43
REMARK SMILES IDX 75 44 40 45 41 46 55 48 76 49 43 50 27 51 28 52 36 53 29 54
REMARK SMILES IDX 31 55 37 56 30 57 32 58 33 59 34 60 35 61 59 62 60 63 68 64
REMARK SMILES IDX 61 65 63 66 69 67 62 68 64 69 65 70 66 71 67 72 44 73 45 74
REMARK SMILES IDX 53 75 46 76 48 77 54 78 47 79 49 80 50 81 51 82 52 83
REMARK H PARENT 74 36 42 47
REMARK Flexibility Score: inf
ROOT
ATOM      1  C   UNL A   1      36.432  20.574  25.348  1.00  0.00     0.275 C 
ENDROOT
BRANCH   1   2
ATOM      2  C   UNL A   1      35.136  21.246  24.896  1.00  0.00     0.275 C 
BRANCH   2   3
ATOM      3  O   UNL A   1      34.101  21.112  25.892  1.00  0.00    -0.458 OA
BRANCH   3   4
ATOM      4  C   UNL A   1      32.845  20.903  25.422  1.00  0.00     0.341 C 
ATOM      5  O   UNL A   1      31.887  21.641  25.562  1.00  0.00    -0.246 OA
BRANCH   4   6
ATOM      6  C   UNL A   1      32.777  19.671  24.613  1.00  0.00     0.097 A 
ATOM      7  C   UNL A   1      33.221  17.268  24.440  1.00  0.00     0.037 A 
ATOM      8  C   UNL A   1      32.856  17.337  23.092  1.00  0.00     0.029 A 
ATOM      9  C   UNL A   1      33.203  18.458  25.178  1.00  0.00     0.044 A 
ATOM     10  C   UNL A   1      32.443  18.543  22.514  1.00  0.00     0.042 A 
ATOM     11  C   UNL A   1      32.399  19.705  23.280  1.00  0.00     0.137 A 
ATOM     12  F   UNL A   1      32.040  20.853  22.686  1.00  0.00    -0.206 F 
BRANCH   7  13
ATOM     13  N   UNL A   1      33.614  16.073  25.011  1.00  0.00    -0.378 N 
ATOM     14  C   UNL A   1      35.029  15.846  25.246  1.00  0.00     0.143 C 
ATOM     15  C   UNL A   1      32.629  15.189  25.616  1.00  0.00     0.143 C 
ENDBRANCH   7  13
ENDBRANCH   4   6
ENDBRANCH   3   4
ENDBRANCH   2   3
ENDBRANCH   1   2
BRANCH   1  16
ATOM     16  O   UNL A   1      37.565  21.383  24.987  1.00  0.00    -0.458 OA
BRANCH  16  17
ATOM     17  C   UNL A   1      38.701  21.112  25.666  1.00  0.00     0.338 C 
ATOM     18  O   UNL A   1      39.328  20.065  25.678  1.00  0.00    -0.246 OA
BRANCH  17  19
ATOM     19  C   UNL A   1      39.172  22.316  26.361  1.00  0.00     0.060 A 
ATOM     20  C   UNL A   1      38.483  23.502  26.149  1.00  0.00     0.016 A 
ATOM     21  C   UNL A   1      40.389  22.327  27.038  1.00  0.00     0.016 A 
ATOM     22  C   UNL A   1      39.081  24.718  26.464  1.00  0.00     0.010 A 
ATOM     23  C   UNL A   1      40.920  23.547  27.478  1.00  0.00     0.010 A 
ATOM     24  C   UNL A   1      40.309  24.770  27.140  1.00  0.00    -0.014 A 
BRANCH  24  25
ATOM     25  C   UNL A   1      40.952  26.087  27.454  1.00  0.00     0.031 A 
ATOM     26  C   UNL A   1      42.361  26.390  26.994  1.00  0.00     0.074 A 
ATOM     27  C   UNL A   1      40.279  27.029  28.151  1.00  0.00     0.049 A 
ATOM     28  N   UNL A   1      43.139  27.390  27.327  1.00  0.00    -0.248 NA
ATOM     29  C   UNL A   1      42.989  25.445  26.056  1.00  0.00     0.031 C 
ATOM     30  C   UNL A   1      38.911  26.895  28.654  1.00  0.00     0.029 A 
ATOM     31  N   UNL A   1      40.655  28.287  28.567  1.00  0.00    -0.354 N 
ATOM     32  C   UNL A   1      44.369  27.141  26.725  1.00  0.00     0.074 A 
ATOM     33  C   UNL A   1      44.231  25.909  25.982  1.00  0.00     0.031 C 
ATOM     34  C   UNL A   1      38.548  28.028  29.269  1.00  0.00     0.029 A 
ATOM     35  C   UNL A   1      39.694  28.926  29.320  1.00  0.00     0.049 A 
ATOM     36  H   UNL A   1      41.527  28.690  28.349  1.00  0.00     0.167 HD
ATOM     37  C   UNL A   1      45.507  27.873  26.786  1.00  0.00     0.034 A 
ATOM     38  C   UNL A   1      39.733  30.069  30.034  1.00  0.00     0.034 A 
ATOM     39  C   UNL A   1      45.614  29.151  27.440  1.00  0.00     0.049 A 
ATOM     40  C   UNL A   1      40.999  30.872  30.064  1.00  0.00     0.074 A 
ATOM     41  C   UNL A   1      46.708  29.998  27.483  1.00  0.00     0.029 A 
ATOM     42  N   UNL A   1      44.602  29.769  28.155  1.00  0.00    -0.354 N 
ATOM     43  N   UNL A   1      42.134  30.636  29.456  1.00  0.00    -0.248 NA
ATOM     44  C   UNL A   1      40.992  32.101  30.872  1.00  0.00     0.031 C 
ATOM     45  C   UNL A   1      46.369  31.112  28.253  1.00  0.00     0.029 A 
ATOM     46  C   UNL A   1      45.050  30.980  28.653  1.00  0.00     0.049 A 
ATOM     47  H   UNL A   1      43.698  29.402  28.288  1.00  0.00     0.167 HD
ATOM     48  C   UNL A   1      42.972  31.692  29.793  1.00  0.00     0.074 A 
ATOM     49  C   UNL A   1      42.205  32.584  30.637  1.00  0.00     0.031 C 
ATOM     50  C   UNL A   1      44.267  31.890  29.449  1.00  0.00     0.034 A 
BRANCH  37  51
ATOM     51  C   UNL A   1      46.751  27.344  26.117  1.00  0.00     0.023 A 
ATOM     52  C   UNL A   1      47.491  26.306  26.713  1.00  0.00     0.012 A 
ATOM     53  C   UNL A   1      47.096  27.781  24.820  1.00  0.00     0.148 A 
ATOM     54  C   UNL A   1      48.559  25.716  26.036  1.00  0.00     0.002 A 
ATOM     55  C   UNL A   1      48.129  27.157  24.131  1.00  0.00     0.091 A 
ATOM     56  F   UNL A   1      46.388  28.782  24.276  1.00  0.00    -0.205 F 
ATOM     57  C   UNL A   1      48.867  26.131  24.740  1.00  0.00     0.022 A 
BRANCH  55  58
ATOM     58  S   UNL A   1      48.536  27.548  22.425  1.00  0.00     0.127 S 
ATOM     59  O   UNL A   1      49.788  28.288  22.583  1.00  0.00    -0.237 OA
ATOM     60  O   UNL A   1      48.686  26.218  21.834  1.00  0.00    -0.237 OA
ATOM     61  O   UNL A   1      47.418  28.324  21.908  1.00  0.00    -0.744 OA
ENDBRANCH  55  58
ENDBRANCH  37  51
BRANCH  38  62
ATOM     62  C   UNL A   1      38.524  30.495  30.797  1.00  0.00     0.023 A 
ATOM     63  C   UNL A   1      38.453  30.263  32.183  1.00  0.00     0.012 A 
ATOM     64  C   UNL A   1      37.479  31.200  30.165  1.00  0.00     0.148 A 
ATOM     65  C   UNL A   1      37.361  30.720  32.924  1.00  0.00     0.002 A 
ATOM     66  C   UNL A   1      36.435  31.718  30.920  1.00  0.00     0.091 A 
ATOM     67  F   UNL A   1      37.551  31.388  28.839  1.00  0.00    -0.205 F 
ATOM     68  C   UNL A   1      36.364  31.464  32.298  1.00  0.00     0.022 A 
BRANCH  66  69
ATOM     69  S   UNL A   1      35.210  32.832  30.224  1.00  0.00     0.127 S 
ATOM     70  O   UNL A   1      34.589  31.994  29.202  1.00  0.00    -0.237 OA
ATOM     71  O   UNL A   1      34.367  33.118  31.385  1.00  0.00    -0.237 OA
ATOM     72  O   UNL A   1      35.958  33.981  29.732  1.00  0.00    -0.744 OA
ENDBRANCH  66  69
ENDBRANCH  38  62
BRANCH  50  73
ATOM     73  C   UNL A   1      44.951  33.135  29.945  1.00  0.00     0.023 A 
ATOM     74  C   UNL A   1      45.767  33.075  31.091  1.00  0.00     0.012 A 
ATOM     75  C   UNL A   1      44.881  34.330  29.203  1.00  0.00     0.148 A 
ATOM     76  C   UNL A   1      46.489  34.195  31.502  1.00  0.00     0.002 A 
ATOM     77  C   UNL A   1      45.643  35.425  29.589  1.00  0.00     0.091 A 
ATOM     78  F   UNL A   1      44.085  34.367  28.125  1.00  0.00    -0.205 F 
ATOM     79  C   UNL A   1      46.440  35.363  30.744  1.00  0.00     0.022 A 
BRANCH  77  80
ATOM     80  S   UNL A   1      45.725  36.935  28.618  1.00  0.00     0.127 S 
ATOM     81  O   UNL A   1      46.181  36.431  27.323  1.00  0.00    -0.237 OA
ATOM     82  O   UNL A   1      44.335  37.392  28.642  1.00  0.00    -0.237 OA
ATOM     83  O   UNL A   1      46.664  37.809  29.308  1.00  0.00    -0.744 OA
ENDBRANCH  77  80
ENDBRANCH  50  73
ENDBRANCH  24  25
ENDBRANCH  17  19
ENDBRANCH  16  17
ENDBRANCH   1  16
TORSDOF 15
ENDMDL
