MODEL 1
REMARK VINA RESULT:     -10.5      0.000      0.000
REMARK SMILES CCN(CCC(=O)OCCOC(=O)c1ccc(-c2c3nc(c(-c4cccc(S(=O)(=O)[O-])c4F)c4ccc([nH]4)c(-c4cccc(S(=O)(=O)[O-])c4F)c4nc(c(-c5cccc(S(=O)(=O)[O-])c5F)c5ccc2[nH]5)C=C4)C=C3)cc1)S(=O)(=O)c1cn(CC)cn1
REMARK SMILES IDX 9 1 8 2 6 3 7 4 5 5 4 6 3 7 2 8 1 9 77 10 78 11 79 12 80 13
REMARK SMILES IDX 81 14 86 15 82 16 85 17 83 18 84 19 10 20 11 21 12 22 13 23
REMARK SMILES IDX 14 24 15 25 76 26 16 27 75 28 17 29 18 30 19 31 69 32 20 33
REMARK SMILES IDX 74 34 68 35 70 36 21 37 73 38 67 39 66 40 22 42 54 43 34 44
REMARK SMILES IDX 53 45 35 46 38 47 52 48 71 49 36 50 37 51 51 53 72 54 39 55
REMARK SMILES IDX 23 56 24 57 32 58 25 59 27 60 33 61 26 62 28 63 29 64 30 65
REMARK SMILES IDX 31 66 55 67 56 68 64 69 57 70 59 71 65 72 58 73 60 74 61 75
REMARK SMILES IDX 62 76 63 77 40 78 41 79 49 80 42 81 44 82 50 83 43 84 45 85
REMARK SMILES IDX 46 86 47 87 48 88
REMARK H PARENT 70 41 38 52
REMARK Flexibility Score: inf
ROOT
ATOM      1  C   UNL A   1      35.586  21.371  25.497  1.00  0.00     0.274 C 
ENDROOT
BRANCH   1   2
ATOM      2  O   UNL A   1      34.820  21.751  24.337  1.00  0.00    -0.462 OA
BRANCH   2   3
ATOM      3  C   UNL A   1      34.949  23.019  23.897  1.00  0.00     0.307 C 
ATOM      4  O   UNL A   1      35.349  23.335  22.782  1.00  0.00    -0.252 OA
BRANCH   3   5
ATOM      5  C   UNL A   1      34.608  24.051  24.942  1.00  0.00     0.139 C 
BRANCH   5   6
ATOM      6  C   UNL A   1      33.483  25.032  24.610  1.00  0.00     0.114 C 
BRANCH   6   7
ATOM      7  N   UNL A   1      33.852  26.463  24.372  1.00  0.00    -0.196 NA
BRANCH   7   8
ATOM      8  C   UNL A   1      33.879  27.318  25.582  1.00  0.00     0.099 C 
ATOM      9  C   UNL A   1      32.589  27.360  26.374  1.00  0.00     0.022 C 
ENDBRANCH   7   8
BRANCH   7  10
ATOM     10  S   UNL A   1      33.365  27.169  22.885  1.00  0.00     0.262 S 
ATOM     11  O   UNL A   1      33.977  28.481  22.788  1.00  0.00    -0.205 OA
ATOM     12  O   UNL A   1      33.568  26.198  21.828  1.00  0.00    -0.205 OA
BRANCH  10  13
ATOM     13  C   UNL A   1      31.638  27.471  22.847  1.00  0.00     0.188 A 
ATOM     14  C   UNL A   1      31.024  28.609  22.357  1.00  0.00     0.129 A 
ATOM     15  N   UNL A   1      30.688  26.613  23.387  1.00  0.00    -0.224 NA
ATOM     16  N   UNL A   1      29.715  28.498  22.731  1.00  0.00    -0.336 N 
ATOM     17  C   UNL A   1      29.545  27.256  23.278  1.00  0.00     0.201 A 
BRANCH  16  18
ATOM     18  C   UNL A   1      28.739  29.571  22.743  1.00  0.00     0.120 C 
ATOM     19  C   UNL A   1      29.177  30.788  23.535  1.00  0.00     0.027 C 
ENDBRANCH  16  18
ENDBRANCH  10  13
ENDBRANCH   7  10
ENDBRANCH   6   7
ENDBRANCH   5   6
ENDBRANCH   3   5
ENDBRANCH   2   3
ENDBRANCH   1   2
BRANCH   1  20
ATOM     20  C   UNL A   1      36.859  20.619  25.102  1.00  0.00     0.275 C 
BRANCH  20  21
ATOM     21  O   UNL A   1      37.993  21.505  25.020  1.00  0.00    -0.458 OA
BRANCH  21  22
ATOM     22  C   UNL A   1      38.967  21.256  25.919  1.00  0.00     0.338 C 
ATOM     23  O   UNL A   1      39.400  20.173  26.265  1.00  0.00    -0.246 OA
BRANCH  22  24
ATOM     24  C   UNL A   1      39.566  22.488  26.413  1.00  0.00     0.060 A 
ATOM     25  C   UNL A   1      40.597  22.387  27.350  1.00  0.00     0.016 A 
ATOM     26  C   UNL A   1      39.027  23.720  26.049  1.00  0.00     0.016 A 
ATOM     27  C   UNL A   1      41.130  23.539  27.908  1.00  0.00     0.010 A 
ATOM     28  C   UNL A   1      39.576  24.877  26.596  1.00  0.00     0.010 A 
ATOM     29  C   UNL A   1      40.638  24.789  27.511  1.00  0.00    -0.014 A 
BRANCH  29  30
ATOM     30  C   UNL A   1      41.329  26.015  27.948  1.00  0.00     0.031 A 
ATOM     31  C   UNL A   1      40.597  27.080  28.696  1.00  0.00     0.074 A 
ATOM     32  C   UNL A   1      42.616  26.163  27.584  1.00  0.00     0.049 A 
ATOM     33  N   UNL A   1      41.021  28.260  29.061  1.00  0.00    -0.248 NA
ATOM     34  C   UNL A   1      39.208  26.788  29.083  1.00  0.00     0.031 C 
ATOM     35  C   UNL A   1      43.394  25.170  26.835  1.00  0.00     0.029 A 
ATOM     36  N   UNL A   1      43.483  27.206  27.759  1.00  0.00    -0.354 N 
ATOM     37  C   UNL A   1      39.946  28.870  29.688  1.00  0.00     0.074 A 
ATOM     38  C   UNL A   1      38.847  27.927  29.662  1.00  0.00     0.031 C 
ATOM     39  C   UNL A   1      44.616  25.666  26.592  1.00  0.00     0.029 A 
ATOM     40  C   UNL A   1      44.691  27.017  27.131  1.00  0.00     0.049 A 
ATOM     41  H   UNL A   1      43.264  28.011  28.282  1.00  0.00     0.167 HD
ATOM     42  C   UNL A   1      39.893  30.105  30.241  1.00  0.00     0.034 A 
ATOM     43  C   UNL A   1      45.731  27.856  26.981  1.00  0.00     0.034 A 
ATOM     44  C   UNL A   1      41.007  31.015  30.269  1.00  0.00     0.049 A 
ATOM     45  C   UNL A   1      45.643  29.218  27.606  1.00  0.00     0.074 A 
ATOM     46  C   UNL A   1      41.081  32.268  30.848  1.00  0.00     0.029 A 
ATOM     47  N   UNL A   1      42.242  30.769  29.684  1.00  0.00    -0.354 N 
ATOM     48  N   UNL A   1      44.659  29.740  28.300  1.00  0.00    -0.248 NA
ATOM     49  C   UNL A   1      46.808  30.097  27.452  1.00  0.00     0.031 C 
ATOM     50  C   UNL A   1      42.358  32.786  30.601  1.00  0.00     0.029 A 
ATOM     51  C   UNL A   1      43.082  31.851  29.878  1.00  0.00     0.049 A 
ATOM     52  H   UNL A   1      42.485  29.946  29.204  1.00  0.00     0.167 HD
ATOM     53  C   UNL A   1      45.092  31.001  28.684  1.00  0.00     0.074 A 
ATOM     54  C   UNL A   1      46.438  31.153  28.166  1.00  0.00     0.031 C 
ATOM     55  C   UNL A   1      44.433  31.955  29.386  1.00  0.00     0.034 A 
BRANCH  42  56
ATOM     56  C   UNL A   1      38.601  30.529  30.883  1.00  0.00     0.023 A 
ATOM     57  C   UNL A   1      38.390  30.269  32.252  1.00  0.00     0.012 A 
ATOM     58  C   UNL A   1      37.622  31.229  30.153  1.00  0.00     0.148 A 
ATOM     59  C   UNL A   1      37.215  30.680  32.880  1.00  0.00     0.002 A 
ATOM     60  C   UNL A   1      36.466  31.664  30.793  1.00  0.00     0.091 A 
ATOM     61  F   UNL A   1      37.827  31.440  28.845  1.00  0.00    -0.205 F 
ATOM     62  C   UNL A   1      36.258  31.386  32.153  1.00  0.00     0.022 A 
BRANCH  60  63
ATOM     63  S   UNL A   1      35.202  32.625  29.951  1.00  0.00     0.127 S 
ATOM     64  O   UNL A   1      34.273  32.910  31.044  1.00  0.00    -0.237 OA
ATOM     65  O   UNL A   1      35.957  33.785  29.476  1.00  0.00    -0.237 OA
ATOM     66  O   UNL A   1      34.686  31.766  28.895  1.00  0.00    -0.744 OA
ENDBRANCH  60  63
ENDBRANCH  42  56
BRANCH  43  67
ATOM     67  C   UNL A   1      46.943  27.400  26.248  1.00  0.00     0.023 A 
ATOM     68  C   UNL A   1      47.821  26.491  26.865  1.00  0.00     0.012 A 
ATOM     69  C   UNL A   1      47.186  27.796  24.917  1.00  0.00     0.148 A 
ATOM     70  C   UNL A   1      48.928  25.996  26.176  1.00  0.00     0.002 A 
ATOM     71  C   UNL A   1      48.260  27.256  24.218  1.00  0.00     0.091 A 
ATOM     72  F   UNL A   1      46.347  28.677  24.350  1.00  0.00    -0.205 F 
ATOM     73  C   UNL A   1      49.140  26.366  24.850  1.00  0.00     0.022 A 
BRANCH  71  74
ATOM     74  S   UNL A   1      48.507  27.575  22.467  1.00  0.00     0.127 S 
ATOM     75  O   UNL A   1      49.754  28.335  22.474  1.00  0.00    -0.237 OA
ATOM     76  O   UNL A   1      48.614  26.223  21.917  1.00  0.00    -0.237 OA
ATOM     77  O   UNL A   1      47.318  28.299  22.037  1.00  0.00    -0.744 OA
ENDBRANCH  71  74
ENDBRANCH  43  67
BRANCH  55  78
ATOM     78  C   UNL A   1      45.161  33.247  29.636  1.00  0.00     0.023 A 
ATOM     79  C   UNL A   1      45.967  33.372  30.784  1.00  0.00     0.012 A 
ATOM     80  C   UNL A   1      45.105  34.300  28.706  1.00  0.00     0.148 A 
ATOM     81  C   UNL A   1      46.693  34.540  31.011  1.00  0.00     0.002 A 
ATOM     82  C   UNL A   1      45.863  35.444  28.918  1.00  0.00     0.091 A 
ATOM     83  F   UNL A   1      44.310  34.165  27.633  1.00  0.00    -0.205 F 
ATOM     84  C   UNL A   1      46.652  35.569  30.074  1.00  0.00     0.022 A 
BRANCH  82  85
ATOM     85  S   UNL A   1      45.935  36.780  27.719  1.00  0.00     0.127 S 
ATOM     86  O   UNL A   1      44.550  37.247  27.710  1.00  0.00    -0.237 OA
ATOM     87  O   UNL A   1      46.887  37.704  28.337  1.00  0.00    -0.237 OA
ATOM     88  O   UNL A   1      46.402  36.175  26.479  1.00  0.00    -0.744 OA
ENDBRANCH  82  85
ENDBRANCH  55  78
ENDBRANCH  29  30
ENDBRANCH  22  24
ENDBRANCH  21  22
ENDBRANCH  20  21
ENDBRANCH   1  20
TORSDOF 20
ENDMDL
MODEL 2
REMARK VINA RESULT:     -10.3      1.668      2.199
REMARK SMILES CCN(CCC(=O)OCCOC(=O)c1ccc(-c2c3nc(c(-c4cccc(S(=O)(=O)[O-])c4F)c4ccc([nH]4)c(-c4cccc(S(=O)(=O)[O-])c4F)c4nc(c(-c5cccc(S(=O)(=O)[O-])c5F)c5ccc2[nH]5)C=C4)C=C3)cc1)S(=O)(=O)c1cn(CC)cn1
REMARK SMILES IDX 9 1 8 2 6 3 7 4 5 5 4 6 3 7 2 8 1 9 77 10 78 11 79 12 80 13
REMARK SMILES IDX 81 14 86 15 82 16 85 17 83 18 84 19 10 20 11 21 12 22 13 23
REMARK SMILES IDX 14 24 15 25 76 26 16 27 75 28 17 29 18 30 19 31 69 32 20 33
REMARK SMILES IDX 74 34 68 35 70 36 21 37 73 38 67 39 66 40 22 42 54 43 34 44
REMARK SMILES IDX 53 45 35 46 38 47 52 48 71 49 36 50 37 51 51 53 72 54 39 55
REMARK SMILES IDX 23 56 24 57 32 58 25 59 27 60 33 61 26 62 28 63 29 64 30 65
REMARK SMILES IDX 31 66 55 67 56 68 64 69 57 70 59 71 65 72 58 73 60 74 61 75
REMARK SMILES IDX 62 76 63 77 40 78 41 79 49 80 42 81 44 82 50 83 43 84 45 85
REMARK SMILES IDX 46 86 47 87 48 88
REMARK H PARENT 70 41 38 52
REMARK Flexibility Score: inf
ROOT
ATOM      1  C   UNL A   1      35.314  21.229  24.596  1.00  0.00     0.274 C 
ENDROOT
BRANCH   1   2
ATOM      2  O   UNL A   1      34.492  21.761  25.653  1.00  0.00    -0.462 OA
BRANCH   2   3
ATOM      3  C   UNL A   1      34.271  23.091  25.658  1.00  0.00     0.307 C 
ATOM      4  O   UNL A   1      33.525  23.673  26.437  1.00  0.00    -0.252 OA
BRANCH   3   5
ATOM      5  C   UNL A   1      34.991  23.820  24.551  1.00  0.00     0.139 C 
BRANCH   5   6
ATOM      6  C   UNL A   1      34.135  24.642  23.587  1.00  0.00     0.114 C 
BRANCH   6   7
ATOM      7  N   UNL A   1      32.826  24.062  23.148  1.00  0.00    -0.196 NA
BRANCH   7   8
ATOM      8  C   UNL A   1      32.927  22.877  22.264  1.00  0.00     0.099 C 
ATOM      9  C   UNL A   1      32.196  21.642  22.749  1.00  0.00     0.022 C 
ENDBRANCH   7   8
BRANCH   7  10
ATOM     10  S   UNL A   1      31.518  25.147  22.913  1.00  0.00     0.262 S 
ATOM     11  O   UNL A   1      31.702  25.802  21.631  1.00  0.00    -0.205 OA
ATOM     12  O   UNL A   1      30.282  24.445  23.193  1.00  0.00    -0.205 OA
BRANCH  10  13
ATOM     13  C   UNL A   1      31.535  26.446  24.091  1.00  0.00     0.188 A 
ATOM     14  C   UNL A   1      31.883  27.762  23.844  1.00  0.00     0.129 A 
ATOM     15  N   UNL A   1      31.269  26.271  25.444  1.00  0.00    -0.224 NA
ATOM     16  N   UNL A   1      31.964  28.347  25.075  1.00  0.00    -0.336 N 
ATOM     17  C   UNL A   1      31.517  27.440  25.995  1.00  0.00     0.201 A 
BRANCH  16  18
ATOM     18  C   UNL A   1      32.604  29.614  25.375  1.00  0.00     0.120 C 
ATOM     19  C   UNL A   1      31.780  30.518  26.271  1.00  0.00     0.027 C 
ENDBRANCH  16  18
ENDBRANCH  10  13
ENDBRANCH   7  10
ENDBRANCH   6   7
ENDBRANCH   5   6
ENDBRANCH   3   5
ENDBRANCH   2   3
ENDBRANCH   1   2
BRANCH   1  20
ATOM     20  C   UNL A   1      36.618  20.645  25.145  1.00  0.00     0.275 C 
BRANCH  20  21
ATOM     21  O   UNL A   1      37.276  21.564  26.039  1.00  0.00    -0.458 OA
BRANCH  21  22
ATOM     22  C   UNL A   1      38.618  21.441  26.084  1.00  0.00     0.338 C 
ATOM     23  O   UNL A   1      39.288  20.484  25.745  1.00  0.00    -0.246 OA
BRANCH  22  24
ATOM     24  C   UNL A   1      39.253  22.676  26.521  1.00  0.00     0.060 A 
ATOM     25  C   UNL A   1      40.331  22.583  27.405  1.00  0.00     0.016 A 
ATOM     26  C   UNL A   1      38.708  23.906  26.160  1.00  0.00     0.016 A 
ATOM     27  C   UNL A   1      40.902  23.740  27.912  1.00  0.00     0.010 A 
ATOM     28  C   UNL A   1      39.295  25.068  26.655  1.00  0.00     0.010 A 
ATOM     29  C   UNL A   1      40.403  24.986  27.515  1.00  0.00    -0.014 A 
BRANCH  29  30
ATOM     30  C   UNL A   1      41.127  26.214  27.891  1.00  0.00     0.031 A 
ATOM     31  C   UNL A   1      40.440  27.309  28.638  1.00  0.00     0.074 A 
ATOM     32  C   UNL A   1      42.400  26.333  27.473  1.00  0.00     0.049 A 
ATOM     33  N   UNL A   1      40.894  28.492  28.953  1.00  0.00    -0.248 NA
ATOM     34  C   UNL A   1      39.063  27.048  29.087  1.00  0.00     0.031 C 
ATOM     35  C   UNL A   1      43.135  25.309  26.721  1.00  0.00     0.029 A 
ATOM     36  N   UNL A   1      43.287  27.367  27.585  1.00  0.00    -0.354 N 
ATOM     37  C   UNL A   1      39.853  29.134  29.606  1.00  0.00     0.074 A 
ATOM     38  C   UNL A   1      38.741  28.207  29.649  1.00  0.00     0.031 C 
ATOM     39  C   UNL A   1      44.352  25.781  26.417  1.00  0.00     0.029 A 
ATOM     40  C   UNL A   1      44.467  27.145  26.915  1.00  0.00     0.049 A 
ATOM     41  H   UNL A   1      43.100  28.189  28.094  1.00  0.00     0.167 HD
ATOM     42  C   UNL A   1      39.839  30.384  30.126  1.00  0.00     0.034 A 
ATOM     43  C   UNL A   1      45.512  27.964  26.702  1.00  0.00     0.034 A 
ATOM     44  C   UNL A   1      40.966  31.278  30.085  1.00  0.00     0.049 A 
ATOM     45  C   UNL A   1      45.466  29.343  27.292  1.00  0.00     0.074 A 
ATOM     46  C   UNL A   1      41.079  32.546  30.627  1.00  0.00     0.029 A 
ATOM     47  N   UNL A   1      42.172  30.999  29.459  1.00  0.00    -0.354 N 
ATOM     48  N   UNL A   1      44.519  29.898  28.010  1.00  0.00    -0.248 NA
ATOM     49  C   UNL A   1      46.637  30.201  27.068  1.00  0.00     0.031 C 
ATOM     50  C   UNL A   1      42.352  33.038  30.315  1.00  0.00     0.029 A 
ATOM     51  C   UNL A   1      43.034  32.074  29.590  1.00  0.00     0.049 A 
ATOM     52  H   UNL A   1      42.385  30.160  28.992  1.00  0.00     0.167 HD
ATOM     53  C   UNL A   1      44.984  31.163  28.342  1.00  0.00     0.074 A 
ATOM     54  C   UNL A   1      46.310  31.281  27.767  1.00  0.00     0.031 C 
ATOM     55  C   UNL A   1      44.365  32.145  29.042  1.00  0.00     0.034 A 
BRANCH  42  56
ATOM     56  C   UNL A   1      38.579  30.844  30.807  1.00  0.00     0.023 A 
ATOM     57  C   UNL A   1      38.448  30.686  32.201  1.00  0.00     0.012 A 
ATOM     58  C   UNL A   1      37.552  31.478  30.083  1.00  0.00     0.148 A 
ATOM     59  C   UNL A   1      37.305  31.134  32.861  1.00  0.00     0.002 A 
ATOM     60  C   UNL A   1      36.428  31.950  30.753  1.00  0.00     0.091 A 
ATOM     61  F   UNL A   1      37.681  31.593  28.753  1.00  0.00    -0.205 F 
ATOM     62  C   UNL A   1      36.300  31.774  32.140  1.00  0.00     0.022 A 
BRANCH  60  63
ATOM     63  S   UNL A   1      35.107  32.834  29.915  1.00  0.00     0.127 S 
ATOM     64  O   UNL A   1      35.791  34.057  29.494  1.00  0.00    -0.237 OA
ATOM     65  O   UNL A   1      34.765  31.922  28.822  1.00  0.00    -0.237 OA
ATOM     66  O   UNL A   1      34.055  33.011  30.905  1.00  0.00    -0.744 OA
ENDBRANCH  60  63
ENDBRANCH  42  56
BRANCH  43  67
ATOM     67  C   UNL A   1      46.687  27.471  25.934  1.00  0.00     0.023 A 
ATOM     68  C   UNL A   1      46.786  27.765  24.562  1.00  0.00     0.012 A 
ATOM     69  C   UNL A   1      47.742  26.785  26.569  1.00  0.00     0.148 A 
ATOM     70  C   UNL A   1      47.908  27.371  23.832  1.00  0.00     0.002 A 
ATOM     71  C   UNL A   1      48.881  26.446  25.848  1.00  0.00     0.091 A 
ATOM     72  F   UNL A   1      47.622  26.499  27.874  1.00  0.00    -0.205 F 
ATOM     73  C   UNL A   1      48.961  26.726  24.477  1.00  0.00     0.022 A 
BRANCH  71  74
ATOM     74  S   UNL A   1      50.332  25.745  26.644  1.00  0.00     0.127 S 
ATOM     75  O   UNL A   1      51.256  25.612  25.521  1.00  0.00    -0.237 OA
ATOM     76  O   UNL A   1      50.687  26.784  27.613  1.00  0.00    -0.237 OA
ATOM     77  O   UNL A   1      49.875  24.501  27.249  1.00  0.00    -0.744 OA
ENDBRANCH  71  74
ENDBRANCH  43  67
BRANCH  55  78
ATOM     78  C   UNL A   1      45.121  33.432  29.229  1.00  0.00     0.023 A 
ATOM     79  C   UNL A   1      45.951  33.587  30.356  1.00  0.00     0.012 A 
ATOM     80  C   UNL A   1      45.064  34.449  28.259  1.00  0.00     0.148 A 
ATOM     81  C   UNL A   1      46.701  34.749  30.523  1.00  0.00     0.002 A 
ATOM     82  C   UNL A   1      45.846  35.586  28.412  1.00  0.00     0.091 A 
ATOM     83  F   UNL A   1      44.247  34.287  27.207  1.00  0.00    -0.205 F 
ATOM     84  C   UNL A   1      46.659  35.742  29.547  1.00  0.00     0.022 A 
BRANCH  82  85
ATOM     85  S   UNL A   1      45.918  36.873  27.161  1.00  0.00     0.127 S 
ATOM     86  O   UNL A   1      44.515  37.266  27.057  1.00  0.00    -0.237 OA
ATOM     87  O   UNL A   1      46.787  37.870  27.786  1.00  0.00    -0.237 OA
ATOM     88  O   UNL A   1      46.483  36.242  25.975  1.00  0.00    -0.744 OA
ENDBRANCH  82  85
ENDBRANCH  55  78
ENDBRANCH  29  30
ENDBRANCH  22  24
ENDBRANCH  21  22
ENDBRANCH  20  21
ENDBRANCH   1  20
TORSDOF 20
ENDMDL
MODEL 3
REMARK VINA RESULT:     -10.1      2.345      3.579
REMARK SMILES CCN(CCC(=O)OCCOC(=O)c1ccc(-c2c3nc(c(-c4cccc(S(=O)(=O)[O-])c4F)c4ccc([nH]4)c(-c4cccc(S(=O)(=O)[O-])c4F)c4nc(c(-c5cccc(S(=O)(=O)[O-])c5F)c5ccc2[nH]5)C=C4)C=C3)cc1)S(=O)(=O)c1cn(CC)cn1
REMARK SMILES IDX 9 1 8 2 6 3 7 4 5 5 4 6 3 7 2 8 1 9 77 10 78 11 79 12 80 13
REMARK SMILES IDX 81 14 86 15 82 16 85 17 83 18 84 19 10 20 11 21 12 22 13 23
REMARK SMILES IDX 14 24 15 25 76 26 16 27 75 28 17 29 18 30 19 31 69 32 20 33
REMARK SMILES IDX 74 34 68 35 70 36 21 37 73 38 67 39 66 40 22 42 54 43 34 44
REMARK SMILES IDX 53 45 35 46 38 47 52 48 71 49 36 50 37 51 51 53 72 54 39 55
REMARK SMILES IDX 23 56 24 57 32 58 25 59 27 60 33 61 26 62 28 63 29 64 30 65
REMARK SMILES IDX 31 66 55 67 56 68 64 69 57 70 59 71 65 72 58 73 60 74 61 75
REMARK SMILES IDX 62 76 63 77 40 78 41 79 49 80 42 81 44 82 50 83 43 84 45 85
REMARK SMILES IDX 46 86 47 87 48 88
REMARK H PARENT 70 41 38 52
REMARK Flexibility Score: inf
ROOT
ATOM      1  C   UNL A   1      37.002  21.697  25.298  1.00  0.00     0.274 C 
ENDROOT
BRANCH   1   2
ATOM      2  O   UNL A   1      37.007  22.206  23.950  1.00  0.00    -0.462 OA
BRANCH   2   3
ATOM      3  C   UNL A   1      36.043  23.088  23.617  1.00  0.00     0.307 C 
ATOM      4  O   UNL A   1      35.543  23.189  22.502  1.00  0.00    -0.252 OA
BRANCH   3   5
ATOM      5  C   UNL A   1      35.660  24.010  24.747  1.00  0.00     0.139 C 
BRANCH   5   6
ATOM      6  C   UNL A   1      34.168  24.261  24.966  1.00  0.00     0.114 C 
BRANCH   6   7
ATOM      7  N   UNL A   1      33.391  23.230  25.725  1.00  0.00    -0.196 NA
BRANCH   7   8
ATOM      8  C   UNL A   1      34.074  22.678  26.919  1.00  0.00     0.099 C 
ATOM      9  C   UNL A   1      33.178  22.409  28.111  1.00  0.00     0.022 C 
ENDBRANCH   7   8
BRANCH   7  10
ATOM     10  S   UNL A   1      32.358  22.196  24.825  1.00  0.00     0.262 S 
ATOM     11  O   UNL A   1      31.034  22.259  25.414  1.00  0.00    -0.205 OA
ATOM     12  O   UNL A   1      32.535  22.484  23.415  1.00  0.00    -0.205 OA
BRANCH  10  13
ATOM     13  C   UNL A   1      32.839  20.515  24.969  1.00  0.00     0.188 A 
ATOM     14  C   UNL A   1      34.083  19.998  24.658  1.00  0.00     0.129 A 
ATOM     15  N   UNL A   1      31.979  19.492  25.346  1.00  0.00    -0.224 NA
ATOM     16  N   UNL A   1      33.929  18.642  24.712  1.00  0.00    -0.336 N 
ATOM     17  C   UNL A   1      32.677  18.387  25.199  1.00  0.00     0.201 A 
BRANCH  16  18
ATOM     18  C   UNL A   1      34.839  17.659  24.157  1.00  0.00     0.120 C 
ATOM     19  C   UNL A   1      34.143  16.488  23.490  1.00  0.00     0.027 C 
ENDBRANCH  16  18
ENDBRANCH  10  13
ENDBRANCH   7  10
ENDBRANCH   6   7
ENDBRANCH   5   6
ENDBRANCH   3   5
ENDBRANCH   2   3
ENDBRANCH   1   2
BRANCH   1  20
ATOM     20  C   UNL A   1      38.128  20.683  25.514  1.00  0.00     0.275 C 
BRANCH  20  21
ATOM     21  O   UNL A   1      39.420  21.321  25.530  1.00  0.00    -0.458 OA
BRANCH  21  22
ATOM     22  C   UNL A   1      40.051  21.282  26.721  1.00  0.00     0.338 C 
ATOM     23  O   UNL A   1      40.325  20.301  27.386  1.00  0.00    -0.246 OA
BRANCH  22  24
ATOM     24  C   UNL A   1      40.493  22.607  27.135  1.00  0.00     0.060 A 
ATOM     25  C   UNL A   1      41.392  22.697  28.200  1.00  0.00     0.016 A 
ATOM     26  C   UNL A   1      39.927  23.742  26.559  1.00  0.00     0.016 A 
ATOM     27  C   UNL A   1      41.764  23.943  28.679  1.00  0.00     0.010 A 
ATOM     28  C   UNL A   1      40.317  24.994  27.027  1.00  0.00     0.010 A 
ATOM     29  C   UNL A   1      41.248  25.096  28.074  1.00  0.00    -0.014 A 
BRANCH  29  30
ATOM     30  C   UNL A   1      41.789  26.416  28.444  1.00  0.00     0.031 A 
ATOM     31  C   UNL A   1      40.918  27.448  29.082  1.00  0.00     0.074 A 
ATOM     32  C   UNL A   1      43.069  26.673  28.120  1.00  0.00     0.049 A 
ATOM     33  N   UNL A   1      41.201  28.689  29.372  1.00  0.00    -0.248 NA
ATOM     34  C   UNL A   1      39.550  27.039  29.435  1.00  0.00     0.031 C 
ATOM     35  C   UNL A   1      43.979  25.718  27.478  1.00  0.00     0.029 A 
ATOM     36  N   UNL A   1      43.815  27.811  28.250  1.00  0.00    -0.354 N 
ATOM     37  C   UNL A   1      40.042  29.225  29.911  1.00  0.00     0.074 A 
ATOM     38  C   UNL A   1      39.047  28.172  29.913  1.00  0.00     0.031 C 
ATOM     39  C   UNL A   1      45.153  26.321  27.246  1.00  0.00     0.029 A 
ATOM     40  C   UNL A   1      45.065  27.708  27.684  1.00  0.00     0.049 A 
ATOM     41  H   UNL A   1      43.491  28.624  28.701  1.00  0.00     0.167 HD
ATOM     42  C   UNL A   1      39.837  30.483  30.366  1.00  0.00     0.034 A 
ATOM     43  C   UNL A   1      46.019  28.639  27.512  1.00  0.00     0.034 A 
ATOM     44  C   UNL A   1      40.850  31.506  30.369  1.00  0.00     0.049 A 
ATOM     45  C   UNL A   1      45.763  30.024  28.029  1.00  0.00     0.074 A 
ATOM     46  C   UNL A   1      40.768  32.798  30.855  1.00  0.00     0.029 A 
ATOM     47  N   UNL A   1      42.128  31.351  29.852  1.00  0.00    -0.354 N 
ATOM     48  N   UNL A   1      44.700  30.488  28.643  1.00  0.00    -0.248 NA
ATOM     49  C   UNL A   1      46.838  31.009  27.854  1.00  0.00     0.031 C 
ATOM     50  C   UNL A   1      41.995  33.429  30.619  1.00  0.00     0.029 A 
ATOM     51  C   UNL A   1      42.844  32.527  29.996  1.00  0.00     0.049 A 
ATOM     52  H   UNL A   1      42.476  30.526  29.444  1.00  0.00     0.167 HD
ATOM     53  C   UNL A   1      44.983  31.811  28.948  1.00  0.00     0.074 A 
ATOM     54  C   UNL A   1      46.329  32.068  28.472  1.00  0.00     0.031 C 
ATOM     55  C   UNL A   1      44.198  32.738  29.550  1.00  0.00     0.034 A 
BRANCH  42  56
ATOM     56  C   UNL A   1      38.480  30.813  30.925  1.00  0.00     0.023 A 
ATOM     57  C   UNL A   1      38.183  30.484  32.262  1.00  0.00     0.012 A 
ATOM     58  C   UNL A   1      37.521  31.493  30.151  1.00  0.00     0.148 A 
ATOM     59  C   UNL A   1      36.944  30.807  32.815  1.00  0.00     0.002 A 
ATOM     60  C   UNL A   1      36.299  31.841  30.717  1.00  0.00     0.091 A 
ATOM     61  F   UNL A   1      37.811  31.772  28.871  1.00  0.00    -0.205 F 
ATOM     62  C   UNL A   1      36.007  31.494  32.046  1.00  0.00     0.022 A 
BRANCH  60  63
ATOM     63  S   UNL A   1      35.052  32.772  29.821  1.00  0.00     0.127 S 
ATOM     64  O   UNL A   1      34.129  33.139  30.895  1.00  0.00    -0.237 OA
ATOM     65  O   UNL A   1      35.825  33.887  29.275  1.00  0.00    -0.237 OA
ATOM     66  O   UNL A   1      34.518  31.860  28.819  1.00  0.00    -0.744 OA
ENDBRANCH  60  63
ENDBRANCH  42  56
BRANCH  43  67
ATOM     67  C   UNL A   1      47.303  28.263  26.862  1.00  0.00     0.023 A 
ATOM     68  C   UNL A   1      48.428  27.992  27.663  1.00  0.00     0.012 A 
ATOM     69  C   UNL A   1      47.395  28.091  25.466  1.00  0.00     0.148 A 
ATOM     70  C   UNL A   1      49.626  27.573  27.084  1.00  0.00     0.002 A 
ATOM     71  C   UNL A   1      48.575  27.621  24.902  1.00  0.00     0.091 A 
ATOM     72  F   UNL A   1      46.318  28.370  24.717  1.00  0.00    -0.205 F 
ATOM     73  C   UNL A   1      49.696  27.373  25.707  1.00  0.00     0.022 A 
BRANCH  71  74
ATOM     74  S   UNL A   1      48.690  27.202  23.158  1.00  0.00     0.127 S 
ATOM     75  O   UNL A   1      48.216  25.822  23.148  1.00  0.00    -0.237 OA
ATOM     76  O   UNL A   1      47.779  28.171  22.545  1.00  0.00    -0.237 OA
ATOM     77  O   UNL A   1      50.091  27.401  22.807  1.00  0.00    -0.744 OA
ENDBRANCH  71  74
ENDBRANCH  43  67
BRANCH  55  78
ATOM     78  C   UNL A   1      44.778  34.113  29.731  1.00  0.00     0.023 A 
ATOM     79  C   UNL A   1      45.659  34.355  30.803  1.00  0.00     0.012 A 
ATOM     80  C   UNL A   1      44.509  35.138  28.805  1.00  0.00     0.148 A 
ATOM     81  C   UNL A   1      46.250  35.607  30.961  1.00  0.00     0.002 A 
ATOM     82  C   UNL A   1      45.133  36.370  28.946  1.00  0.00     0.091 A 
ATOM     83  F   UNL A   1      43.647  34.889  27.807  1.00  0.00    -0.205 F 
ATOM     84  C   UNL A   1      45.998  36.610  30.027  1.00  0.00     0.022 A 
BRANCH  82  85
ATOM     85  S   UNL A   1      44.932  37.687  27.741  1.00  0.00     0.127 S 
ATOM     86  O   UNL A   1      46.314  38.107  27.524  1.00  0.00    -0.237 OA
ATOM     87  O   UNL A   1      44.323  36.986  26.610  1.00  0.00    -0.237 OA
ATOM     88  O   UNL A   1      44.066  38.674  28.373  1.00  0.00    -0.744 OA
ENDBRANCH  82  85
ENDBRANCH  55  78
ENDBRANCH  29  30
ENDBRANCH  22  24
ENDBRANCH  21  22
ENDBRANCH  20  21
ENDBRANCH   1  20
TORSDOF 20
ENDMDL
