MODEL 1
REMARK VINA RESULT:     -12.0      0.000      0.000
REMARK SMILES Nc1c(CC(=O)OCCOC(=O)c2ccc(-c3c4nc(c(-c5cccc(S(=O)(=O)[O-])c5F)c5ccc([nH]5)c(-c5cccc(S(=O)(=O)[O-])c5F)c5nc(c(-c6cccc(S(=O)(=O)[O-])c6F)c6ccc3[nH]6)C=C5)C=C4)cc2)cccc1C(=O)c1ccc(Br)cc1
REMARK SMILES IDX 8 1 7 2 5 3 6 4 4 5 3 6 2 7 79 8 76 9 78 10 77 11 1 12 80 15
REMARK SMILES IDX 81 16 82 17 83 18 88 19 84 20 87 21 85 22 86 23 9 24 10 25
REMARK SMILES IDX 11 26 12 27 13 28 14 29 75 30 15 31 74 32 16 33 17 34 18 35
REMARK SMILES IDX 68 36 19 37 73 38 67 39 69 40 20 41 72 42 66 43 65 44 21 46
REMARK SMILES IDX 53 47 33 48 52 49 34 50 37 51 51 52 70 53 35 54 36 55 50 57
REMARK SMILES IDX 71 58 38 59 22 60 23 61 31 62 24 63 26 64 32 65 25 66 27 67
REMARK SMILES IDX 28 68 29 69 30 70 54 71 55 72 63 73 56 74 58 75 64 76 57 77
REMARK SMILES IDX 59 78 60 79 61 80 62 81 39 82 40 83 48 84 41 85 43 86 49 87
REMARK SMILES IDX 42 88 44 89 45 90 46 91 47 92
REMARK H PARENT 1 13 1 14 69 45 37 56
REMARK Flexibility Score: inf
ROOT
ATOM      1  C   UNL A   1      34.867  20.661  25.444  1.00  0.00     0.274 C 
ENDROOT
BRANCH   1   2
ATOM      2  O   UNL A   1      33.972  20.054  24.493  1.00  0.00    -0.462 OA
BRANCH   2   3
ATOM      3  C   UNL A   1      32.738  20.607  24.391  1.00  0.00     0.310 C 
ATOM      4  O   UNL A   1      31.782  20.318  25.104  1.00  0.00    -0.252 OA
BRANCH   3   5
ATOM      5  C   UNL A   1      32.632  21.677  23.331  1.00  0.00     0.160 C 
BRANCH   5   6
ATOM      6  C   UNL A   1      32.882  23.102  23.770  1.00  0.00    -0.013 A 
ATOM      7  C   UNL A   1      31.883  23.863  24.413  1.00  0.00     0.047 A 
ATOM      8  C   UNL A   1      32.260  25.108  24.975  1.00  0.00     0.046 A 
ATOM      9  C   UNL A   1      34.149  23.663  23.520  1.00  0.00     0.006 A 
ATOM     10  C   UNL A   1      33.532  25.648  24.718  1.00  0.00     0.014 A 
ATOM     11  C   UNL A   1      34.463  24.940  23.969  1.00  0.00     0.001 A 
BRANCH   7  12
ATOM     12  N   UNL A   1      30.602  23.325  24.552  1.00  0.00    -0.398 N 
ATOM     13  H   UNL A   1      30.452  22.558  25.150  1.00  0.00     0.156 HD
ATOM     14  H   UNL A   1      29.849  23.714  24.052  1.00  0.00     0.156 HD
ENDBRANCH   7  12
BRANCH   8  15
ATOM     15  C   UNL A   1      31.374  25.929  25.854  1.00  0.00     0.195 C 
ATOM     16  O   UNL A   1      30.463  25.406  26.491  1.00  0.00    -0.289 OA
BRANCH  15  17
ATOM     17  C   UNL A   1      31.575  27.389  25.997  1.00  0.00     0.023 A 
ATOM     18  C   UNL A   1      31.231  28.204  24.912  1.00  0.00     0.013 A 
ATOM     19  C   UNL A   1      32.002  27.957  27.203  1.00  0.00     0.013 A 
ATOM     20  C   UNL A   1      31.243  29.591  25.057  1.00  0.00     0.016 A 
ATOM     21  C   UNL A   1      32.018  29.346  27.344  1.00  0.00     0.016 A 
ATOM     22  C   UNL A   1      31.624  30.154  26.276  1.00  0.00     0.018 A 
ATOM     23  Br  UNL A   1      31.576  32.032  26.490  1.00  0.00    -0.051 Br
ENDBRANCH  15  17
ENDBRANCH   8  15
ENDBRANCH   5   6
ENDBRANCH   3   5
ENDBRANCH   2   3
ENDBRANCH   1   2
BRANCH   1  24
ATOM     24  C   UNL A   1      36.310  20.448  25.001  1.00  0.00     0.275 C 
BRANCH  24  25
ATOM     25  O   UNL A   1      37.125  21.544  25.452  1.00  0.00    -0.458 OA
BRANCH  25  26
ATOM     26  C   UNL A   1      38.391  21.218  25.799  1.00  0.00     0.338 C 
ATOM     27  O   UNL A   1      38.949  20.144  25.668  1.00  0.00    -0.246 OA
BRANCH  26  28
ATOM     28  C   UNL A   1      39.052  22.389  26.390  1.00  0.00     0.060 A 
ATOM     29  C   UNL A   1      38.597  23.677  26.103  1.00  0.00     0.016 A 
ATOM     30  C   UNL A   1      40.202  22.196  27.153  1.00  0.00     0.016 A 
ATOM     31  C   UNL A   1      39.331  24.785  26.523  1.00  0.00     0.010 A 
ATOM     32  C   UNL A   1      40.886  23.306  27.644  1.00  0.00     0.010 A 
ATOM     33  C   UNL A   1      40.475  24.610  27.311  1.00  0.00    -0.014 A 
BRANCH  33  34
ATOM     34  C   UNL A   1      41.262  25.762  27.819  1.00  0.00     0.031 A 
ATOM     35  C   UNL A   1      40.573  26.832  28.620  1.00  0.00     0.074 A 
ATOM     36  C   UNL A   1      42.556  25.900  27.470  1.00  0.00     0.049 A 
ATOM     37  N   UNL A   1      40.976  28.042  28.901  1.00  0.00    -0.248 NA
ATOM     38  C   UNL A   1      39.243  26.500  29.159  1.00  0.00     0.031 C 
ATOM     39  C   UNL A   1      43.340  24.922  26.714  1.00  0.00     0.029 A 
ATOM     40  N   UNL A   1      43.426  26.946  27.664  1.00  0.00    -0.354 N 
ATOM     41  C   UNL A   1      39.925  28.643  29.584  1.00  0.00     0.074 A 
ATOM     42  C   UNL A   1      38.872  27.657  29.692  1.00  0.00     0.031 C 
ATOM     43  C   UNL A   1      44.564  25.422  26.486  1.00  0.00     0.029 A 
ATOM     44  C   UNL A   1      44.627  26.779  27.013  1.00  0.00     0.049 A 
ATOM     45  H   UNL A   1      43.211  27.734  28.213  1.00  0.00     0.167 HD
ATOM     46  C   UNL A   1      39.850  29.901  30.077  1.00  0.00     0.034 A 
ATOM     47  C   UNL A   1      45.642  27.642  26.812  1.00  0.00     0.034 A 
ATOM     48  C   UNL A   1      40.927  30.852  30.013  1.00  0.00     0.049 A 
ATOM     49  C   UNL A   1      45.534  29.035  27.368  1.00  0.00     0.074 A 
ATOM     50  C   UNL A   1      40.967  32.141  30.511  1.00  0.00     0.029 A 
ATOM     51  N   UNL A   1      42.158  30.610  29.421  1.00  0.00    -0.354 N 
ATOM     52  N   UNL A   1      44.555  29.574  28.053  1.00  0.00    -0.248 NA
ATOM     53  C   UNL A   1      46.672  29.935  27.135  1.00  0.00     0.031 C 
ATOM     54  C   UNL A   1      42.224  32.682  30.218  1.00  0.00     0.029 A 
ATOM     55  C   UNL A   1      42.968  31.723  29.548  1.00  0.00     0.049 A 
ATOM     56  H   UNL A   1      42.416  29.771  28.978  1.00  0.00     0.167 HD
ATOM     57  C   UNL A   1      44.974  30.861  28.368  1.00  0.00     0.074 A 
ATOM     58  C   UNL A   1      46.299  31.019  27.804  1.00  0.00     0.031 C 
ATOM     59  C   UNL A   1      44.314  31.830  29.047  1.00  0.00     0.034 A 
BRANCH  46  60
ATOM     60  C   UNL A   1      38.574  30.318  30.756  1.00  0.00     0.023 A 
ATOM     61  C   UNL A   1      38.385  30.027  32.122  1.00  0.00     0.012 A 
ATOM     62  C   UNL A   1      37.592  31.054  30.064  1.00  0.00     0.148 A 
ATOM     63  C   UNL A   1      37.229  30.441  32.782  1.00  0.00     0.002 A 
ATOM     64  C   UNL A   1      36.459  31.496  30.739  1.00  0.00     0.091 A 
ATOM     65  F   UNL A   1      37.777  31.300  28.759  1.00  0.00    -0.205 F 
ATOM     66  C   UNL A   1      36.273  31.184  32.095  1.00  0.00     0.022 A 
BRANCH  64  67
ATOM     67  S   UNL A   1      35.209  32.520  29.953  1.00  0.00     0.127 S 
ATOM     68  O   UNL A   1      34.272  32.739  31.053  1.00  0.00    -0.237 OA
ATOM     69  O   UNL A   1      35.975  33.704  29.561  1.00  0.00    -0.237 OA
ATOM     70  O   UNL A   1      34.698  31.736  28.836  1.00  0.00    -0.744 OA
ENDBRANCH  64  67
ENDBRANCH  46  60
BRANCH  47  71
ATOM     71  C   UNL A   1      46.854  27.197  26.069  1.00  0.00     0.023 A 
ATOM     72  C   UNL A   1      46.935  27.437  24.684  1.00  0.00     0.012 A 
ATOM     73  C   UNL A   1      47.943  26.590  26.725  1.00  0.00     0.148 A 
ATOM     74  C   UNL A   1      48.071  27.066  23.964  1.00  0.00     0.002 A 
ATOM     75  C   UNL A   1      49.094  26.275  26.013  1.00  0.00     0.091 A 
ATOM     76  F   UNL A   1      47.840  26.349  28.040  1.00  0.00    -0.205 F 
ATOM     77  C   UNL A   1      49.154  26.499  24.629  1.00  0.00     0.022 A 
BRANCH  75  78
ATOM     78  S   UNL A   1      50.582  25.673  26.821  1.00  0.00     0.127 S 
ATOM     79  O   UNL A   1      51.519  25.593  25.702  1.00  0.00    -0.237 OA
ATOM     80  O   UNL A   1      50.862  26.739  27.783  1.00  0.00    -0.237 OA
ATOM     81  O   UNL A   1      50.204  24.405  27.430  1.00  0.00    -0.744 OA
ENDBRANCH  75  78
ENDBRANCH  47  71
BRANCH  59  82
ATOM     82  C   UNL A   1      45.026  33.134  29.277  1.00  0.00     0.023 A 
ATOM     83  C   UNL A   1      45.831  33.296  30.421  1.00  0.00     0.012 A 
ATOM     84  C   UNL A   1      44.985  34.150  28.303  1.00  0.00     0.148 A 
ATOM     85  C   UNL A   1      46.577  34.460  30.598  1.00  0.00     0.002 A 
ATOM     86  C   UNL A   1      45.763  35.290  28.467  1.00  0.00     0.091 A 
ATOM     87  F   UNL A   1      44.195  33.978  27.233  1.00  0.00    -0.205 F 
ATOM     88  C   UNL A   1      46.554  35.450  29.617  1.00  0.00     0.022 A 
BRANCH  86  89
ATOM     89  S   UNL A   1      45.864  36.574  27.215  1.00  0.00     0.127 S 
ATOM     90  O   UNL A   1      46.780  37.526  27.839  1.00  0.00    -0.237 OA
ATOM     91  O   UNL A   1      46.420  35.849  26.072  1.00  0.00    -0.237 OA
ATOM     92  O   UNL A   1      44.502  37.054  27.022  1.00  0.00    -0.744 OA
ENDBRANCH  86  89
ENDBRANCH  59  82
ENDBRANCH  33  34
ENDBRANCH  26  28
ENDBRANCH  25  26
ENDBRANCH  24  25
ENDBRANCH   1  24
TORSDOF 18
ENDMDL
MODEL 2
REMARK VINA RESULT:     -11.9      5.086     10.143
REMARK SMILES Nc1c(CC(=O)OCCOC(=O)c2ccc(-c3c4nc(c(-c5cccc(S(=O)(=O)[O-])c5F)c5ccc([nH]5)c(-c5cccc(S(=O)(=O)[O-])c5F)c5nc(c(-c6cccc(S(=O)(=O)[O-])c6F)c6ccc3[nH]6)C=C5)C=C4)cc2)cccc1C(=O)c1ccc(Br)cc1
REMARK SMILES IDX 8 1 7 2 5 3 6 4 4 5 3 6 2 7 79 8 76 9 78 10 77 11 1 12 80 15
REMARK SMILES IDX 81 16 82 17 83 18 88 19 84 20 87 21 85 22 86 23 9 24 10 25
REMARK SMILES IDX 11 26 12 27 13 28 14 29 75 30 15 31 74 32 16 33 17 34 18 35
REMARK SMILES IDX 68 36 19 37 73 38 67 39 69 40 20 41 72 42 66 43 65 44 21 46
REMARK SMILES IDX 53 47 33 48 52 49 34 50 37 51 51 52 70 53 35 54 36 55 50 57
REMARK SMILES IDX 71 58 38 59 22 60 23 61 31 62 24 63 26 64 32 65 25 66 27 67
REMARK SMILES IDX 28 68 29 69 30 70 54 71 55 72 63 73 56 74 58 75 64 76 57 77
REMARK SMILES IDX 59 78 60 79 61 80 62 81 39 82 40 83 48 84 41 85 43 86 49 87
REMARK SMILES IDX 42 88 44 89 45 90 46 91 47 92
REMARK H PARENT 1 13 1 14 69 45 37 56
REMARK Flexibility Score: inf
ROOT
ATOM      1  C   UNL A   1      31.372  28.405  25.159  1.00  0.00     0.274 C 
ENDROOT
BRANCH   1   2
ATOM      2  O   UNL A   1      31.666  27.568  24.025  1.00  0.00    -0.462 OA
BRANCH   2   3
ATOM      3  C   UNL A   1      30.612  27.214  23.249  1.00  0.00     0.310 C 
ATOM      4  O   UNL A   1      30.289  27.780  22.209  1.00  0.00    -0.252 OA
BRANCH   3   5
ATOM      5  C   UNL A   1      29.866  26.000  23.747  1.00  0.00     0.160 C 
BRANCH   5   6
ATOM      6  C   UNL A   1      30.670  24.963  24.498  1.00  0.00    -0.013 A 
ATOM      7  C   UNL A   1      31.565  24.098  23.835  1.00  0.00     0.047 A 
ATOM      8  C   UNL A   1      32.428  23.304  24.630  1.00  0.00     0.046 A 
ATOM      9  C   UNL A   1      30.503  24.877  25.894  1.00  0.00     0.006 A 
ATOM     10  C   UNL A   1      32.250  23.235  26.022  1.00  0.00     0.014 A 
ATOM     11  C   UNL A   1      31.272  23.998  26.649  1.00  0.00     0.001 A 
BRANCH   7  12
ATOM     12  N   UNL A   1      31.632  24.128  22.440  1.00  0.00    -0.398 N 
ATOM     13  H   UNL A   1      32.478  23.921  21.984  1.00  0.00     0.156 HD
ATOM     14  H   UNL A   1      30.831  24.355  21.915  1.00  0.00     0.156 HD
ENDBRANCH   7  12
BRANCH   8  15
ATOM     15  C   UNL A   1      33.559  22.496  24.082  1.00  0.00     0.195 C 
ATOM     16  O   UNL A   1      34.499  23.040  23.508  1.00  0.00    -0.289 OA
BRANCH  15  17
ATOM     17  C   UNL A   1      33.591  21.023  24.229  1.00  0.00     0.023 A 
ATOM     18  C   UNL A   1      32.478  20.300  23.785  1.00  0.00     0.013 A 
ATOM     19  C   UNL A   1      34.726  20.357  24.703  1.00  0.00     0.013 A 
ATOM     20  C   UNL A   1      32.528  18.906  23.747  1.00  0.00     0.016 A 
ATOM     21  C   UNL A   1      34.773  18.961  24.668  1.00  0.00     0.016 A 
ATOM     22  C   UNL A   1      33.680  18.245  24.176  1.00  0.00     0.018 A 
ATOM     23  Br  UNL A   1      33.770  16.360  24.061  1.00  0.00    -0.051 Br
ENDBRANCH  15  17
ENDBRANCH   8  15
ENDBRANCH   5   6
ENDBRANCH   3   5
ENDBRANCH   2   3
ENDBRANCH   1   2
BRANCH   1  24
ATOM     24  C   UNL A   1      31.978  29.788  24.951  1.00  0.00     0.275 C 
BRANCH  24  25
ATOM     25  O   UNL A   1      33.187  29.910  25.721  1.00  0.00    -0.458 OA
BRANCH  25  26
ATOM     26  C   UNL A   1      33.166  30.861  26.682  1.00  0.00     0.338 C 
ATOM     27  O   UNL A   1      32.305  31.699  26.887  1.00  0.00    -0.246 OA
BRANCH  26  28
ATOM     28  C   UNL A   1      34.381  30.757  27.500  1.00  0.00     0.060 A 
ATOM     29  C   UNL A   1      35.201  31.870  27.692  1.00  0.00     0.016 A 
ATOM     30  C   UNL A   1      34.754  29.507  27.991  1.00  0.00     0.016 A 
ATOM     31  C   UNL A   1      36.438  31.725  28.319  1.00  0.00     0.010 A 
ATOM     32  C   UNL A   1      35.951  29.382  28.693  1.00  0.00     0.010 A 
ATOM     33  C   UNL A   1      36.817  30.481  28.840  1.00  0.00    -0.014 A 
BRANCH  33  34
ATOM     34  C   UNL A   1      38.104  30.290  29.556  1.00  0.00     0.031 A 
ATOM     35  C   UNL A   1      39.144  29.374  28.975  1.00  0.00     0.074 A 
ATOM     36  C   UNL A   1      38.289  30.848  30.768  1.00  0.00     0.049 A 
ATOM     37  N   UNL A   1      40.185  28.834  29.551  1.00  0.00    -0.248 NA
ATOM     38  C   UNL A   1      38.977  28.999  27.560  1.00  0.00     0.031 C 
ATOM     39  C   UNL A   1      37.364  31.771  31.428  1.00  0.00     0.029 A 
ATOM     40  N   UNL A   1      39.300  30.678  31.683  1.00  0.00    -0.354 N 
ATOM     41  C   UNL A   1      40.756  28.000  28.597  1.00  0.00     0.074 A 
ATOM     42  C   UNL A   1      39.956  28.119  27.397  1.00  0.00     0.031 C 
ATOM     43  C   UNL A   1      37.835  32.066  32.650  1.00  0.00     0.029 A 
ATOM     44  C   UNL A   1      39.052  31.299  32.886  1.00  0.00     0.049 A 
ATOM     45  H   UNL A   1      40.119  30.165  31.497  1.00  0.00     0.167 HD
ATOM     46  C   UNL A   1      41.848  27.210  28.714  1.00  0.00     0.034 A 
ATOM     47  C   UNL A   1      39.697  31.214  34.066  1.00  0.00     0.034 A 
ATOM     48  C   UNL A   1      42.667  27.145  29.894  1.00  0.00     0.049 A 
ATOM     49  C   UNL A   1      40.907  30.329  34.172  1.00  0.00     0.074 A 
ATOM     50  C   UNL A   1      43.815  26.404  30.106  1.00  0.00     0.029 A 
ATOM     51  N   UNL A   1      42.427  27.859  31.060  1.00  0.00    -0.354 N 
ATOM     52  N   UNL A   1      41.464  29.584  33.248  1.00  0.00    -0.248 NA
ATOM     53  C   UNL A   1      41.585  30.280  35.474  1.00  0.00     0.031 C 
ATOM     54  C   UNL A   1      44.270  26.667  31.403  1.00  0.00     0.029 A 
ATOM     55  C   UNL A   1      43.410  27.581  31.992  1.00  0.00     0.049 A 
ATOM     56  H   UNL A   1      41.671  28.471  31.202  1.00  0.00     0.167 HD
ATOM     57  C   UNL A   1      42.580  29.009  33.845  1.00  0.00     0.074 A 
ATOM     58  C   UNL A   1      42.624  29.498  35.207  1.00  0.00     0.031 C 
ATOM     59  C   UNL A   1      43.477  28.141  33.317  1.00  0.00     0.034 A 
BRANCH  46  60
ATOM     60  C   UNL A   1      42.245  26.373  27.528  1.00  0.00     0.023 A 
ATOM     61  C   UNL A   1      43.063  26.930  26.525  1.00  0.00     0.012 A 
ATOM     62  C   UNL A   1      41.865  25.019  27.438  1.00  0.00     0.148 A 
ATOM     63  C   UNL A   1      43.478  26.160  25.440  1.00  0.00     0.002 A 
ATOM     64  C   UNL A   1      42.313  24.247  26.371  1.00  0.00     0.091 A 
ATOM     65  F   UNL A   1      41.065  24.513  28.388  1.00  0.00    -0.205 F 
ATOM     66  C   UNL A   1      43.113  24.818  25.368  1.00  0.00     0.022 A 
BRANCH  64  67
ATOM     67  S   UNL A   1      41.952  22.492  26.235  1.00  0.00     0.127 S 
ATOM     68  O   UNL A   1      42.654  22.142  25.002  1.00  0.00    -0.237 OA
ATOM     69  O   UNL A   1      42.555  21.953  27.454  1.00  0.00    -0.237 OA
ATOM     70  O   UNL A   1      40.499  22.388  26.184  1.00  0.00    -0.744 OA
ENDBRANCH  64  67
ENDBRANCH  46  60
BRANCH  47  71
ATOM     71  C   UNL A   1      39.217  32.012  35.229  1.00  0.00     0.023 A 
ATOM     72  C   UNL A   1      38.311  31.427  36.135  1.00  0.00     0.012 A 
ATOM     73  C   UNL A   1      39.688  33.316  35.476  1.00  0.00     0.148 A 
ATOM     74  C   UNL A   1      37.870  32.133  37.254  1.00  0.00     0.002 A 
ATOM     75  C   UNL A   1      39.289  33.992  36.624  1.00  0.00     0.091 A 
ATOM     76  F   UNL A   1      40.534  33.866  34.593  1.00  0.00    -0.205 F 
ATOM     77  C   UNL A   1      38.369  33.408  37.506  1.00  0.00     0.022 A 
BRANCH  75  78
ATOM     78  S   UNL A   1      39.994  35.578  37.092  1.00  0.00     0.127 S 
ATOM     79  O   UNL A   1      41.413  35.251  37.214  1.00  0.00    -0.237 OA
ATOM     80  O   UNL A   1      39.652  36.417  35.943  1.00  0.00    -0.237 OA
ATOM     81  O   UNL A   1      39.316  35.952  38.325  1.00  0.00    -0.744 OA
ENDBRANCH  75  78
ENDBRANCH  47  71
BRANCH  59  82
ATOM     82  C   UNL A   1      44.622  27.702  34.187  1.00  0.00     0.023 A 
ATOM     83  C   UNL A   1      45.835  28.417  34.156  1.00  0.00     0.012 A 
ATOM     84  C   UNL A   1      44.453  26.652  35.111  1.00  0.00     0.148 A 
ATOM     85  C   UNL A   1      46.870  28.084  35.029  1.00  0.00     0.002 A 
ATOM     86  C   UNL A   1      45.475  26.353  36.004  1.00  0.00     0.091 A 
ATOM     87  F   UNL A   1      43.296  25.976  35.105  1.00  0.00    -0.205 F 
ATOM     88  C   UNL A   1      46.687  27.063  35.960  1.00  0.00     0.022 A 
BRANCH  86  89
ATOM     89  S   UNL A   1      45.294  25.117  37.294  1.00  0.00     0.127 S 
ATOM     90  O   UNL A   1      45.096  23.898  36.512  1.00  0.00    -0.237 OA
ATOM     91  O   UNL A   1      46.583  25.198  37.983  1.00  0.00    -0.237 OA
ATOM     92  O   UNL A   1      44.152  25.536  38.096  1.00  0.00    -0.744 OA
ENDBRANCH  86  89
ENDBRANCH  59  82
ENDBRANCH  33  34
ENDBRANCH  26  28
ENDBRANCH  25  26
ENDBRANCH  24  25
ENDBRANCH   1  24
TORSDOF 18
ENDMDL
MODEL 3
REMARK VINA RESULT:     -11.8      5.461     10.236
REMARK SMILES Nc1c(CC(=O)OCCOC(=O)c2ccc(-c3c4nc(c(-c5cccc(S(=O)(=O)[O-])c5F)c5ccc([nH]5)c(-c5cccc(S(=O)(=O)[O-])c5F)c5nc(c(-c6cccc(S(=O)(=O)[O-])c6F)c6ccc3[nH]6)C=C5)C=C4)cc2)cccc1C(=O)c1ccc(Br)cc1
REMARK SMILES IDX 8 1 7 2 5 3 6 4 4 5 3 6 2 7 79 8 76 9 78 10 77 11 1 12 80 15
REMARK SMILES IDX 81 16 82 17 83 18 88 19 84 20 87 21 85 22 86 23 9 24 10 25
REMARK SMILES IDX 11 26 12 27 13 28 14 29 75 30 15 31 74 32 16 33 17 34 18 35
REMARK SMILES IDX 68 36 19 37 73 38 67 39 69 40 20 41 72 42 66 43 65 44 21 46
REMARK SMILES IDX 53 47 33 48 52 49 34 50 37 51 51 52 70 53 35 54 36 55 50 57
REMARK SMILES IDX 71 58 38 59 22 60 23 61 31 62 24 63 26 64 32 65 25 66 27 67
REMARK SMILES IDX 28 68 29 69 30 70 54 71 55 72 63 73 56 74 58 75 64 76 57 77
REMARK SMILES IDX 59 78 60 79 61 80 62 81 39 82 40 83 48 84 41 85 43 86 49 87
REMARK SMILES IDX 42 88 44 89 45 90 46 91 47 92
REMARK H PARENT 1 13 1 14 69 45 37 56
REMARK Flexibility Score: inf
ROOT
ATOM      1  C   UNL A   1      31.868  28.998  24.264  1.00  0.00     0.274 C 
ENDROOT
BRANCH   1   2
ATOM      2  O   UNL A   1      30.710  28.143  24.260  1.00  0.00    -0.462 OA
BRANCH   2   3
ATOM      3  C   UNL A   1      30.386  27.576  23.070  1.00  0.00     0.310 C 
ATOM      4  O   UNL A   1      30.211  28.197  22.026  1.00  0.00    -0.252 OA
BRANCH   3   5
ATOM      5  C   UNL A   1      30.299  26.070  23.114  1.00  0.00     0.160 C 
BRANCH   5   6
ATOM      6  C   UNL A   1      31.574  25.320  23.424  1.00  0.00    -0.013 A 
ATOM      7  C   UNL A   1      31.623  24.326  24.424  1.00  0.00     0.047 A 
ATOM      8  C   UNL A   1      32.792  23.530  24.510  1.00  0.00     0.046 A 
ATOM      9  C   UNL A   1      32.729  25.638  22.684  1.00  0.00     0.006 A 
ATOM     10  C   UNL A   1      33.933  23.861  23.758  1.00  0.00     0.014 A 
ATOM     11  C   UNL A   1      33.910  24.929  22.870  1.00  0.00     0.001 A 
BRANCH   7  12
ATOM     12  N   UNL A   1      30.496  24.105  25.218  1.00  0.00    -0.398 N 
ATOM     13  H   UNL A   1      29.950  23.297  25.085  1.00  0.00     0.156 HD
ATOM     14  H   UNL A   1      30.247  24.758  25.912  1.00  0.00     0.156 HD
ENDBRANCH   7  12
BRANCH   8  15
ATOM     15  C   UNL A   1      32.915  22.318  25.374  1.00  0.00     0.195 C 
ATOM     16  O   UNL A   1      32.761  22.398  26.591  1.00  0.00    -0.289 OA
BRANCH  15  17
ATOM     17  C   UNL A   1      33.208  20.988  24.794  1.00  0.00     0.023 A 
ATOM     18  C   UNL A   1      34.436  20.395  25.112  1.00  0.00     0.013 A 
ATOM     19  C   UNL A   1      32.261  20.294  24.034  1.00  0.00     0.013 A 
ATOM     20  C   UNL A   1      34.688  19.078  24.729  1.00  0.00     0.016 A 
ATOM     21  C   UNL A   1      32.518  18.975  23.648  1.00  0.00     0.016 A 
ATOM     22  C   UNL A   1      33.722  18.371  24.011  1.00  0.00     0.018 A 
ATOM     23  Br  UNL A   1      34.039  16.565  23.553  1.00  0.00    -0.051 Br
ENDBRANCH  15  17
ENDBRANCH   8  15
ENDBRANCH   5   6
ENDBRANCH   3   5
ENDBRANCH   2   3
ENDBRANCH   1   2
BRANCH   1  24
ATOM     24  C   UNL A   1      31.757  30.010  25.400  1.00  0.00     0.275 C 
BRANCH  24  25
ATOM     25  O   UNL A   1      33.047  30.203  26.007  1.00  0.00    -0.458 OA
BRANCH  25  26
ATOM     26  C   UNL A   1      33.114  31.204  26.914  1.00  0.00     0.338 C 
ATOM     27  O   UNL A   1      32.310  32.101  27.099  1.00  0.00    -0.246 OA
BRANCH  26  28
ATOM     28  C   UNL A   1      34.349  31.072  27.698  1.00  0.00     0.060 A 
ATOM     29  C   UNL A   1      35.207  32.162  27.852  1.00  0.00     0.016 A 
ATOM     30  C   UNL A   1      34.699  29.817  28.193  1.00  0.00     0.016 A 
ATOM     31  C   UNL A   1      36.457  31.986  28.445  1.00  0.00     0.010 A 
ATOM     32  C   UNL A   1      35.912  29.664  28.861  1.00  0.00     0.010 A 
ATOM     33  C   UNL A   1      36.814  30.738  28.970  1.00  0.00    -0.014 A 
BRANCH  33  34
ATOM     34  C   UNL A   1      38.115  30.516  29.650  1.00  0.00     0.031 A 
ATOM     35  C   UNL A   1      39.121  29.582  29.036  1.00  0.00     0.074 A 
ATOM     36  C   UNL A   1      38.344  31.062  30.860  1.00  0.00     0.049 A 
ATOM     37  N   UNL A   1      40.164  29.017  29.581  1.00  0.00    -0.248 NA
ATOM     38  C   UNL A   1      38.908  29.219  27.624  1.00  0.00     0.031 C 
ATOM     39  C   UNL A   1      37.456  32.000  31.550  1.00  0.00     0.029 A 
ATOM     40  N   UNL A   1      39.375  30.866  31.747  1.00  0.00    -0.354 N 
ATOM     41  C   UNL A   1      40.693  28.178  28.608  1.00  0.00     0.074 A 
ATOM     42  C   UNL A   1      39.864  28.320  27.430  1.00  0.00     0.031 C 
ATOM     43  C   UNL A   1      37.964  32.277  32.760  1.00  0.00     0.029 A 
ATOM     44  C   UNL A   1      39.171  31.484  32.960  1.00  0.00     0.049 A 
ATOM     45  H   UNL A   1      40.177  30.336  31.536  1.00  0.00     0.167 HD
ATOM     46  C   UNL A   1      41.771  27.365  28.692  1.00  0.00     0.034 A 
ATOM     47  C   UNL A   1      39.845  31.379  34.122  1.00  0.00     0.034 A 
ATOM     48  C   UNL A   1      42.619  27.276  29.850  1.00  0.00     0.049 A 
ATOM     49  C   UNL A   1      41.039  30.468  34.190  1.00  0.00     0.074 A 
ATOM     50  C   UNL A   1      43.757  26.509  30.027  1.00  0.00     0.029 A 
ATOM     51  N   UNL A   1      42.425  27.986  31.025  1.00  0.00    -0.354 N 
ATOM     52  N   UNL A   1      41.556  29.717  33.248  1.00  0.00    -0.248 NA
ATOM     53  C   UNL A   1      41.750  30.397  35.474  1.00  0.00     0.031 C 
ATOM     54  C   UNL A   1      44.251  26.754  31.312  1.00  0.00     0.029 A 
ATOM     55  C   UNL A   1      43.426  27.682  31.929  1.00  0.00     0.049 A 
ATOM     56  H   UNL A   1      41.685  28.613  31.190  1.00  0.00     0.167 HD
ATOM     57  C   UNL A   1      42.675  29.116  33.812  1.00  0.00     0.074 A 
ATOM     58  C   UNL A   1      42.765  29.595  35.175  1.00  0.00     0.031 C 
ATOM     59  C   UNL A   1      43.540  28.232  33.255  1.00  0.00     0.034 A 
BRANCH  46  60
ATOM     60  C   UNL A   1      42.119  26.526  27.491  1.00  0.00     0.023 A 
ATOM     61  C   UNL A   1      42.807  27.112  26.410  1.00  0.00     0.012 A 
ATOM     62  C   UNL A   1      41.826  25.149  27.460  1.00  0.00     0.148 A 
ATOM     63  C   UNL A   1      43.177  26.345  25.306  1.00  0.00     0.002 A 
ATOM     64  C   UNL A   1      42.230  24.383  26.372  1.00  0.00     0.091 A 
ATOM     65  F   UNL A   1      41.148  24.615  28.486  1.00  0.00    -0.205 F 
ATOM     66  C   UNL A   1      42.899  24.981  25.291  1.00  0.00     0.022 A 
BRANCH  64  67
ATOM     67  S   UNL A   1      41.978  22.605  26.300  1.00  0.00     0.127 S 
ATOM     68  O   UNL A   1      42.530  22.177  27.584  1.00  0.00    -0.237 OA
ATOM     69  O   UNL A   1      40.522  22.499  26.197  1.00  0.00    -0.237 OA
ATOM     70  O   UNL A   1      42.701  22.149  25.120  1.00  0.00    -0.744 OA
ENDBRANCH  64  67
ENDBRANCH  46  60
BRANCH  47  71
ATOM     71  C   UNL A   1      39.413  32.179  35.301  1.00  0.00     0.023 A 
ATOM     72  C   UNL A   1      39.660  33.565  35.317  1.00  0.00     0.012 A 
ATOM     73  C   UNL A   1      38.715  31.594  36.376  1.00  0.00     0.148 A 
ATOM     74  C   UNL A   1      39.235  34.350  36.390  1.00  0.00     0.002 A 
ATOM     75  C   UNL A   1      38.246  32.390  37.414  1.00  0.00     0.091 A 
ATOM     76  F   UNL A   1      38.507  30.269  36.356  1.00  0.00    -0.205 F 
ATOM     77  C   UNL A   1      38.517  33.767  37.430  1.00  0.00     0.022 A 
BRANCH  75  78
ATOM     78  S   UNL A   1      37.193  31.739  38.717  1.00  0.00     0.127 S 
ATOM     79  O   UNL A   1      38.043  31.896  39.895  1.00  0.00    -0.237 OA
ATOM     80  O   UNL A   1      36.043  32.642  38.664  1.00  0.00    -0.237 OA
ATOM     81  O   UNL A   1      36.894  30.370  38.322  1.00  0.00    -0.744 OA
ENDBRANCH  75  78
ENDBRANCH  47  71
BRANCH  59  82
ATOM     82  C   UNL A   1      44.698  27.765  34.092  1.00  0.00     0.023 A 
ATOM     83  C   UNL A   1      45.880  28.528  34.135  1.00  0.00     0.012 A 
ATOM     84  C   UNL A   1      44.568  26.631  34.917  1.00  0.00     0.148 A 
ATOM     85  C   UNL A   1      46.924  28.162  34.983  1.00  0.00     0.002 A 
ATOM     86  C   UNL A   1      45.597  26.295  35.788  1.00  0.00     0.091 A 
ATOM     87  F   UNL A   1      43.440  25.911  34.841  1.00  0.00    -0.205 F 
ATOM     88  C   UNL A   1      46.779  27.055  35.818  1.00  0.00     0.022 A 
BRANCH  86  89
ATOM     89  S   UNL A   1      45.462  24.942  36.962  1.00  0.00     0.127 S 
ATOM     90  O   UNL A   1      46.762  24.995  37.628  1.00  0.00    -0.237 OA
ATOM     91  O   UNL A   1      44.332  25.362  37.791  1.00  0.00    -0.237 OA
ATOM     92  O   UNL A   1      45.217  23.745  36.167  1.00  0.00    -0.744 OA
ENDBRANCH  86  89
ENDBRANCH  59  82
ENDBRANCH  33  34
ENDBRANCH  26  28
ENDBRANCH  25  26
ENDBRANCH  24  25
ENDBRANCH   1  24
TORSDOF 18
ENDMDL
