MODEL 1
REMARK VINA RESULT:     -12.9      0.000      0.000
REMARK SMILES Nc1nccc(N2CCC[C@@](Cc3ccc(F)cc3F)(C(=O)OCCOC(=O)c3ccc(-c4c5nc(c(-c6cccc(S(=O)(=O)[O-])c6F)c6ccc([nH]6)c(-c6cccc(S(=O)(=O)[O-])c6F)c6nc(c(-c7cccc(S(=O)(=O)[O-])c7F)c7ccc4[nH]7)C=C6)C=C5)cc3)C2)n1
REMARK SMILES IDX 25 1 24 2 23 3 21 4 22 5 11 6 7 7 8 8 92 9 9 10 10 11 6 12
REMARK SMILES IDX 2 13 3 14 93 15 4 16 5 17 1 18 12 21 13 22 14 23 19 24 15 25
REMARK SMILES IDX 18 26 20 27 16 28 17 29 26 30 27 31 28 32 29 33 30 34 91 35
REMARK SMILES IDX 31 36 90 37 32 38 33 39 34 40 84 41 35 42 89 43 83 44 85 45
REMARK SMILES IDX 36 46 88 47 82 48 81 49 37 51 69 52 49 53 68 54 50 55 53 56
REMARK SMILES IDX 67 57 86 58 51 59 52 60 66 62 87 63 54 64 38 65 39 66 47 67
REMARK SMILES IDX 40 68 42 69 48 70 41 71 43 72 44 73 45 74 46 75 70 76 71 77
REMARK SMILES IDX 79 78 72 79 74 80 80 81 73 82 75 83 76 84 77 85 78 86 55 87
REMARK SMILES IDX 56 88 64 89 57 90 59 91 65 92 58 93 60 94 61 95 62 96 63 97
REMARK H PARENT 1 19 1 20 85 50 53 61
REMARK Flexibility Score: inf
ROOT
ATOM      1  C   UNL A   1      36.239  20.783  25.082  1.00  0.00     0.275 C 
ENDROOT
BRANCH   1   2
ATOM      2  C   UNL A   1      35.473  21.510  26.181  1.00  0.00     0.274 C 
BRANCH   2   3
ATOM      3  O   UNL A   1      35.056  22.821  25.741  1.00  0.00    -0.462 OA
BRANCH   3   4
ATOM      4  C   UNL A   1      33.717  23.067  25.788  1.00  0.00     0.314 C 
ATOM      5  O   UNL A   1      33.055  23.046  26.820  1.00  0.00    -0.252 OA
BRANCH   4   6
ATOM      6  C   UNL A   1      33.091  23.245  24.406  1.00  0.00     0.090 C 
ATOM      7  N   UNL A   1      31.970  24.948  23.044  1.00  0.00    -0.355 N 
ATOM      8  C   UNL A   1      32.893  24.894  21.915  1.00  0.00     0.118 C 
ATOM      9  C   UNL A   1      32.577  24.702  24.351  1.00  0.00     0.137 C 
ATOM     10  C   UNL A   1      33.546  23.508  21.882  1.00  0.00     0.023 C 
ATOM     11  C   UNL A   1      34.103  23.072  23.246  1.00  0.00     0.023 C 
BRANCH   7  12
ATOM     12  C   UNL A   1      31.062  26.011  23.028  1.00  0.00     0.134 A 
ATOM     13  C   UNL A   1      30.531  28.191  22.557  1.00  0.00     0.221 A 
ATOM     14  N   UNL A   1      29.354  28.119  23.189  1.00  0.00    -0.222 NA
ATOM     15  N   UNL A   1      31.408  27.183  22.466  1.00  0.00    -0.196 NA
ATOM     16  C   UNL A   1      29.043  26.939  23.743  1.00  0.00     0.119 A 
ATOM     17  C   UNL A   1      29.858  25.841  23.678  1.00  0.00     0.067 A 
BRANCH  13  18
ATOM     18  N   UNL A   1      30.845  29.381  21.974  1.00  0.00    -0.368 N 
ATOM     19  H   UNL A   1      30.998  30.177  22.531  1.00  0.00     0.159 HD
ATOM     20  H   UNL A   1      30.921  29.443  20.994  1.00  0.00     0.159 HD
ENDBRANCH  13  18
ENDBRANCH   7  12
BRANCH   6  21
ATOM     21  C   UNL A   1      31.866  22.288  24.330  1.00  0.00     0.059 C 
BRANCH  21  22
ATOM     22  C   UNL A   1      32.173  20.823  24.122  1.00  0.00    -0.011 A 
ATOM     23  C   UNL A   1      32.537  20.004  25.203  1.00  0.00     0.010 A 
ATOM     24  C   UNL A   1      32.088  20.248  22.849  1.00  0.00     0.129 A 
ATOM     25  C   UNL A   1      32.845  18.659  24.997  1.00  0.00     0.040 A 
ATOM     26  C   UNL A   1      32.379  18.907  22.637  1.00  0.00     0.078 A 
ATOM     27  F   UNL A   1      31.709  20.992  21.800  1.00  0.00    -0.207 F 
ATOM     28  C   UNL A   1      32.764  18.125  23.715  1.00  0.00     0.126 A 
ATOM     29  F   UNL A   1      33.058  16.833  23.522  1.00  0.00    -0.207 F 
ENDBRANCH  21  22
ENDBRANCH   6  21
ENDBRANCH   4   6
ENDBRANCH   3   4
ENDBRANCH   2   3
ENDBRANCH   1   2
BRANCH   1  30
ATOM     30  O   UNL A   1      37.482  21.461  24.850  1.00  0.00    -0.458 OA
BRANCH  30  31
ATOM     31  C   UNL A   1      38.518  21.067  25.625  1.00  0.00     0.338 C 
ATOM     32  O   UNL A   1      38.948  19.935  25.760  1.00  0.00    -0.246 OA
BRANCH  31  33
ATOM     33  C   UNL A   1      39.117  22.242  26.285  1.00  0.00     0.060 A 
ATOM     34  C   UNL A   1      38.596  23.514  26.051  1.00  0.00     0.016 A 
ATOM     35  C   UNL A   1      40.280  22.096  27.037  1.00  0.00     0.016 A 
ATOM     36  C   UNL A   1      39.299  24.647  26.456  1.00  0.00     0.010 A 
ATOM     37  C   UNL A   1      40.916  23.232  27.549  1.00  0.00     0.010 A 
ATOM     38  C   UNL A   1      40.465  24.524  27.222  1.00  0.00    -0.014 A 
BRANCH  38  39
ATOM     39  C   UNL A   1      41.242  25.726  27.647  1.00  0.00     0.031 A 
ATOM     40  C   UNL A   1      40.591  26.775  28.513  1.00  0.00     0.074 A 
ATOM     41  C   UNL A   1      42.518  25.901  27.249  1.00  0.00     0.049 A 
ATOM     42  N   UNL A   1      41.002  27.984  28.797  1.00  0.00    -0.248 NA
ATOM     43  C   UNL A   1      39.294  26.430  29.119  1.00  0.00     0.031 C 
ATOM     44  C   UNL A   1      43.290  24.968  26.427  1.00  0.00     0.029 A 
ATOM     45  N   UNL A   1      43.394  26.936  27.479  1.00  0.00    -0.354 N 
ATOM     46  C   UNL A   1      39.973  28.577  29.521  1.00  0.00     0.074 A 
ATOM     47  C   UNL A   1      38.928  27.585  29.658  1.00  0.00     0.031 C 
ATOM     48  C   UNL A   1      44.528  25.453  26.249  1.00  0.00     0.029 A 
ATOM     49  C   UNL A   1      44.615  26.772  26.866  1.00  0.00     0.049 A 
ATOM     50  H   UNL A   1      43.169  27.720  28.031  1.00  0.00     0.167 HD
ATOM     51  C   UNL A   1      39.905  29.829  30.032  1.00  0.00     0.034 A 
ATOM     52  C   UNL A   1      45.673  27.601  26.770  1.00  0.00     0.034 A 
ATOM     53  C   UNL A   1      40.989  30.773  30.002  1.00  0.00     0.049 A 
ATOM     54  C   UNL A   1      45.594  28.967  27.390  1.00  0.00     0.074 A 
ATOM     55  C   UNL A   1      41.037  32.045  30.547  1.00  0.00     0.029 A 
ATOM     56  N   UNL A   1      42.224  30.540  29.420  1.00  0.00    -0.354 N 
ATOM     57  N   UNL A   1      44.621  29.500  28.090  1.00  0.00    -0.248 NA
ATOM     58  C   UNL A   1      46.756  29.848  27.207  1.00  0.00     0.031 C 
ATOM     59  C   UNL A   1      42.307  32.578  30.300  1.00  0.00     0.029 A 
ATOM     60  C   UNL A   1      43.047  31.639  29.600  1.00  0.00     0.049 A 
ATOM     61  H   UNL A   1      42.481  29.715  28.951  1.00  0.00     0.167 HD
ATOM     62  C   UNL A   1      45.056  30.773  28.437  1.00  0.00     0.074 A 
ATOM     63  C   UNL A   1      46.394  30.919  27.901  1.00  0.00     0.031 C 
ATOM     64  C   UNL A   1      44.396  31.747  29.108  1.00  0.00     0.034 A 
BRANCH  51  65
ATOM     65  C   UNL A   1      38.622  30.246  30.699  1.00  0.00     0.023 A 
ATOM     66  C   UNL A   1      38.407  29.941  32.057  1.00  0.00     0.012 A 
ATOM     67  C   UNL A   1      37.654  30.988  29.994  1.00  0.00     0.148 A 
ATOM     68  C   UNL A   1      37.236  30.348  32.697  1.00  0.00     0.002 A 
ATOM     69  C   UNL A   1      36.505  31.421  30.648  1.00  0.00     0.091 A 
ATOM     70  F   UNL A   1      37.861  31.243  28.694  1.00  0.00    -0.205 F 
ATOM     71  C   UNL A   1      36.291  31.096  31.997  1.00  0.00     0.022 A 
BRANCH  69  72
ATOM     72  S   UNL A   1      35.276  32.448  29.834  1.00  0.00     0.127 S 
ATOM     73  O   UNL A   1      36.081  33.587  29.401  1.00  0.00    -0.237 OA
ATOM     74  O   UNL A   1      34.810  31.584  28.748  1.00  0.00    -0.237 OA
ATOM     75  O   UNL A   1      34.269  32.729  30.848  1.00  0.00    -0.744 OA
ENDBRANCH  69  72
ENDBRANCH  51  65
BRANCH  52  76
ATOM     76  C   UNL A   1      46.912  27.142  26.077  1.00  0.00     0.023 A 
ATOM     77  C   UNL A   1      47.071  27.420  24.707  1.00  0.00     0.012 A 
ATOM     78  C   UNL A   1      47.951  26.493  26.771  1.00  0.00     0.148 A 
ATOM     79  C   UNL A   1      48.240  27.053  24.037  1.00  0.00     0.002 A 
ATOM     80  C   UNL A   1      49.137  26.185  26.112  1.00  0.00     0.091 A 
ATOM     81  F   UNL A   1      47.772  26.205  28.068  1.00  0.00    -0.205 F 
ATOM     82  C   UNL A   1      49.278  26.452  24.743  1.00  0.00     0.022 A 
BRANCH  80  83
ATOM     83  S   UNL A   1      50.568  25.553  26.996  1.00  0.00     0.127 S 
ATOM     84  O   UNL A   1      50.043  24.323  27.582  1.00  0.00    -0.237 OA
ATOM     85  O   UNL A   1      51.540  25.357  25.919  1.00  0.00    -0.237 OA
ATOM     86  O   UNL A   1      50.931  26.609  27.934  1.00  0.00    -0.744 OA
ENDBRANCH  80  83
ENDBRANCH  52  76
BRANCH  64  87
ATOM     87  C   UNL A   1      45.108  33.056  29.311  1.00  0.00     0.023 A 
ATOM     88  C   UNL A   1      45.894  33.239  30.466  1.00  0.00     0.012 A 
ATOM     89  C   UNL A   1      45.057  34.072  28.338  1.00  0.00     0.148 A 
ATOM     90  C   UNL A   1      46.603  34.423  30.659  1.00  0.00     0.002 A 
ATOM     91  C   UNL A   1      45.794  35.236  28.522  1.00  0.00     0.091 A 
ATOM     92  F   UNL A   1      44.282  33.890  27.258  1.00  0.00    -0.205 F 
ATOM     93  C   UNL A   1      46.562  35.417  29.684  1.00  0.00     0.022 A 
BRANCH  91  94
ATOM     94  S   UNL A   1      45.852  36.526  27.272  1.00  0.00     0.127 S 
ATOM     95  O   UNL A   1      44.436  36.843  27.100  1.00  0.00    -0.237 OA
ATOM     96  O   UNL A   1      46.636  37.573  27.929  1.00  0.00    -0.237 OA
ATOM     97  O   UNL A   1      46.512  35.922  26.121  1.00  0.00    -0.744 OA
ENDBRANCH  91  94
ENDBRANCH  64  87
ENDBRANCH  38  39
ENDBRANCH  31  33
ENDBRANCH  30  31
ENDBRANCH   1  30
TORSDOF 18
ENDMDL
MODEL 2
REMARK VINA RESULT:     -12.6      5.024     10.033
REMARK SMILES Nc1nccc(N2CCC[C@@](Cc3ccc(F)cc3F)(C(=O)OCCOC(=O)c3ccc(-c4c5nc(c(-c6cccc(S(=O)(=O)[O-])c6F)c6ccc([nH]6)c(-c6cccc(S(=O)(=O)[O-])c6F)c6nc(c(-c7cccc(S(=O)(=O)[O-])c7F)c7ccc4[nH]7)C=C6)C=C5)cc3)C2)n1
REMARK SMILES IDX 25 1 24 2 23 3 21 4 22 5 11 6 7 7 8 8 92 9 9 10 10 11 6 12
REMARK SMILES IDX 2 13 3 14 93 15 4 16 5 17 1 18 12 21 13 22 14 23 19 24 15 25
REMARK SMILES IDX 18 26 20 27 16 28 17 29 26 30 27 31 28 32 29 33 30 34 91 35
REMARK SMILES IDX 31 36 90 37 32 38 33 39 34 40 84 41 35 42 89 43 83 44 85 45
REMARK SMILES IDX 36 46 88 47 82 48 81 49 37 51 69 52 49 53 68 54 50 55 53 56
REMARK SMILES IDX 67 57 86 58 51 59 52 60 66 62 87 63 54 64 38 65 39 66 47 67
REMARK SMILES IDX 40 68 42 69 48 70 41 71 43 72 44 73 45 74 46 75 70 76 71 77
REMARK SMILES IDX 79 78 72 79 74 80 80 81 73 82 75 83 76 84 77 85 78 86 55 87
REMARK SMILES IDX 56 88 64 89 57 90 59 91 65 92 58 93 60 94 61 95 62 96 63 97
REMARK H PARENT 1 19 1 20 85 50 53 61
REMARK Flexibility Score: inf
ROOT
ATOM      1  C   UNL A   1      31.496  29.814  26.501  1.00  0.00     0.275 C 
ENDROOT
BRANCH   1   2
ATOM      2  C   UNL A   1      31.728  28.609  27.404  1.00  0.00     0.274 C 
BRANCH   2   3
ATOM      3  O   UNL A   1      31.459  27.376  26.700  1.00  0.00    -0.462 OA
BRANCH   3   4
ATOM      4  C   UNL A   1      32.553  26.662  26.312  1.00  0.00     0.314 C 
ATOM      5  O   UNL A   1      33.702  27.086  26.372  1.00  0.00    -0.252 OA
BRANCH   4   6
ATOM      6  C   UNL A   1      32.197  25.323  25.670  1.00  0.00     0.090 C 
ATOM      7  N   UNL A   1      32.987  23.004  25.575  1.00  0.00    -0.355 N 
ATOM      8  C   UNL A   1      31.748  22.386  26.035  1.00  0.00     0.118 C 
ATOM      9  C   UNL A   1      33.271  24.318  26.147  1.00  0.00     0.137 C 
ATOM     10  C   UNL A   1      30.579  23.315  25.691  1.00  0.00     0.023 C 
ATOM     11  C   UNL A   1      30.821  24.771  26.120  1.00  0.00     0.023 C 
BRANCH   7  12
ATOM     12  C   UNL A   1      34.096  22.155  25.517  1.00  0.00     0.134 A 
ATOM     13  C   UNL A   1      36.350  21.780  25.710  1.00  0.00     0.221 A 
ATOM     14  N   UNL A   1      36.264  20.545  25.203  1.00  0.00    -0.222 NA
ATOM     15  N   UNL A   1      35.312  22.611  25.869  1.00  0.00    -0.196 NA
ATOM     16  C   UNL A   1      35.040  20.124  24.857  1.00  0.00     0.119 A 
ATOM     17  C   UNL A   1      33.912  20.886  25.009  1.00  0.00     0.067 A 
BRANCH  13  18
ATOM     18  N   UNL A   1      37.588  22.208  26.083  1.00  0.00    -0.368 N 
ATOM     19  H   UNL A   1      38.368  21.620  25.967  1.00  0.00     0.159 HD
ATOM     20  H   UNL A   1      37.702  23.107  26.467  1.00  0.00     0.159 HD
ENDBRANCH  13  18
ENDBRANCH   7  12
BRANCH   6  21
ATOM     21  C   UNL A   1      32.339  25.499  24.130  1.00  0.00     0.059 C 
BRANCH  21  22
ATOM     22  C   UNL A   1      31.740  26.757  23.543  1.00  0.00    -0.011 A 
ATOM     23  C   UNL A   1      30.350  26.890  23.394  1.00  0.00     0.010 A 
ATOM     24  C   UNL A   1      32.558  27.822  23.149  1.00  0.00     0.129 A 
ATOM     25  C   UNL A   1      29.809  28.043  22.825  1.00  0.00     0.040 A 
ATOM     26  C   UNL A   1      32.027  28.979  22.595  1.00  0.00     0.078 A 
ATOM     27  F   UNL A   1      33.887  27.743  23.309  1.00  0.00    -0.207 F 
ATOM     28  C   UNL A   1      30.654  29.075  22.430  1.00  0.00     0.126 A 
ATOM     29  F   UNL A   1      30.130  30.182  21.888  1.00  0.00    -0.207 F 
ENDBRANCH  21  22
ENDBRANCH   6  21
ENDBRANCH   4   6
ENDBRANCH   3   4
ENDBRANCH   2   3
ENDBRANCH   1   2
BRANCH   1  30
ATOM     30  O   UNL A   1      32.760  30.412  26.182  1.00  0.00    -0.458 OA
BRANCH  30  31
ATOM     31  C   UNL A   1      33.162  31.409  27.003  1.00  0.00     0.338 C 
ATOM     32  O   UNL A   1      32.531  32.402  27.319  1.00  0.00    -0.246 OA
BRANCH  31  33
ATOM     33  C   UNL A   1      34.509  31.108  27.525  1.00  0.00     0.060 A 
ATOM     34  C   UNL A   1      34.877  29.789  27.784  1.00  0.00     0.016 A 
ATOM     35  C   UNL A   1      35.362  32.149  27.880  1.00  0.00     0.016 A 
ATOM     36  C   UNL A   1      36.035  29.511  28.509  1.00  0.00     0.010 A 
ATOM     37  C   UNL A   1      36.583  31.859  28.497  1.00  0.00     0.010 A 
ATOM     38  C   UNL A   1      36.913  30.542  28.867  1.00  0.00    -0.014 A 
BRANCH  38  39
ATOM     39  C   UNL A   1      38.146  30.266  29.662  1.00  0.00     0.031 A 
ATOM     40  C   UNL A   1      39.240  29.406  29.078  1.00  0.00     0.074 A 
ATOM     41  C   UNL A   1      38.291  30.758  30.909  1.00  0.00     0.049 A 
ATOM     42  N   UNL A   1      40.269  28.861  29.675  1.00  0.00    -0.248 NA
ATOM     43  C   UNL A   1      39.151  29.097  27.642  1.00  0.00     0.031 C 
ATOM     44  C   UNL A   1      37.331  31.619  31.601  1.00  0.00     0.029 A 
ATOM     45  N   UNL A   1      39.305  30.597  31.823  1.00  0.00    -0.354 N 
ATOM     46  C   UNL A   1      40.886  28.064  28.716  1.00  0.00     0.074 A 
ATOM     47  C   UNL A   1      40.133  28.218  27.491  1.00  0.00     0.031 C 
ATOM     48  C   UNL A   1      37.813  31.936  32.812  1.00  0.00     0.029 A 
ATOM     49  C   UNL A   1      39.073  31.232  33.021  1.00  0.00     0.049 A 
ATOM     50  H   UNL A   1      40.121  30.077  31.637  1.00  0.00     0.167 HD
ATOM     51  C   UNL A   1      41.984  27.281  28.842  1.00  0.00     0.034 A 
ATOM     52  C   UNL A   1      39.768  31.219  34.176  1.00  0.00     0.034 A 
ATOM     53  C   UNL A   1      42.803  27.221  30.022  1.00  0.00     0.049 A 
ATOM     54  C   UNL A   1      41.012  30.382  34.275  1.00  0.00     0.074 A 
ATOM     55  C   UNL A   1      43.969  26.504  30.224  1.00  0.00     0.029 A 
ATOM     56  N   UNL A   1      42.559  27.925  31.190  1.00  0.00    -0.354 N 
ATOM     57  N   UNL A   1      41.591  29.654  33.351  1.00  0.00    -0.248 NA
ATOM     58  C   UNL A   1      41.698  30.363  35.575  1.00  0.00     0.031 C 
ATOM     59  C   UNL A   1      44.435  26.781  31.514  1.00  0.00     0.029 A 
ATOM     60  C   UNL A   1      43.557  27.669  32.114  1.00  0.00     0.049 A 
ATOM     61  H   UNL A   1      41.792  28.522  31.340  1.00  0.00     0.167 HD
ATOM     62  C   UNL A   1      42.713  29.097  33.955  1.00  0.00     0.074 A 
ATOM     63  C   UNL A   1      42.751  29.601  35.313  1.00  0.00     0.031 C 
ATOM     64  C   UNL A   1      43.610  28.221  33.442  1.00  0.00     0.034 A 
BRANCH  51  65
ATOM     65  C   UNL A   1      42.386  26.443  27.658  1.00  0.00     0.023 A 
ATOM     66  C   UNL A   1      43.201  26.996  26.652  1.00  0.00     0.012 A 
ATOM     67  C   UNL A   1      42.002  25.090  27.572  1.00  0.00     0.148 A 
ATOM     68  C   UNL A   1      43.608  26.222  25.565  1.00  0.00     0.002 A 
ATOM     69  C   UNL A   1      42.440  24.314  26.504  1.00  0.00     0.091 A 
ATOM     70  F   UNL A   1      41.201  24.587  28.524  1.00  0.00    -0.205 F 
ATOM     71  C   UNL A   1      43.237  24.880  25.496  1.00  0.00     0.022 A 
BRANCH  69  72
ATOM     72  S   UNL A   1      42.064  22.562  26.382  1.00  0.00     0.127 S 
ATOM     73  O   UNL A   1      40.604  22.573  26.346  1.00  0.00    -0.237 OA
ATOM     74  O   UNL A   1      42.700  22.189  25.117  1.00  0.00    -0.237 OA
ATOM     75  O   UNL A   1      42.667  21.949  27.557  1.00  0.00    -0.744 OA
ENDBRANCH  69  72
ENDBRANCH  51  65
BRANCH  52  76
ATOM     76  C   UNL A   1      39.310  32.053  35.325  1.00  0.00     0.023 A 
ATOM     77  C   UNL A   1      38.476  31.474  36.299  1.00  0.00     0.012 A 
ATOM     78  C   UNL A   1      39.737  33.384  35.491  1.00  0.00     0.148 A 
ATOM     79  C   UNL A   1      38.070  32.207  37.416  1.00  0.00     0.002 A 
ATOM     80  C   UNL A   1      39.379  34.089  36.635  1.00  0.00     0.091 A 
ATOM     81  F   UNL A   1      40.504  33.933  34.537  1.00  0.00    -0.205 F 
ATOM     82  C   UNL A   1      38.535  33.508  37.592  1.00  0.00     0.022 A 
BRANCH  80  83
ATOM     83  S   UNL A   1      40.069  35.709  36.998  1.00  0.00     0.127 S 
ATOM     84  O   UNL A   1      39.442  36.024  38.278  1.00  0.00    -0.237 OA
ATOM     85  O   UNL A   1      41.503  35.430  37.067  1.00  0.00    -0.237 OA
ATOM     86  O   UNL A   1      39.683  36.546  35.868  1.00  0.00    -0.744 OA
ENDBRANCH  80  83
ENDBRANCH  52  76
BRANCH  64  87
ATOM     87  C   UNL A   1      44.717  27.754  34.347  1.00  0.00     0.023 A 
ATOM     88  C   UNL A   1      45.921  28.484  34.394  1.00  0.00     0.012 A 
ATOM     89  C   UNL A   1      44.547  26.642  35.194  1.00  0.00     0.148 A 
ATOM     90  C   UNL A   1      46.947  28.102  35.256  1.00  0.00     0.002 A 
ATOM     91  C   UNL A   1      45.561  26.288  36.076  1.00  0.00     0.091 A 
ATOM     92  F   UNL A   1      43.404  25.944  35.115  1.00  0.00    -0.205 F 
ATOM     93  C   UNL A   1      46.765  27.012  36.104  1.00  0.00     0.022 A 
BRANCH  91  94
ATOM     94  S   UNL A   1      45.365  24.944  37.252  1.00  0.00     0.127 S 
ATOM     95  O   UNL A   1      45.190  23.794  36.368  1.00  0.00    -0.237 OA
ATOM     96  O   UNL A   1      46.636  24.967  37.978  1.00  0.00    -0.237 OA
ATOM     97  O   UNL A   1      44.209  25.303  38.064  1.00  0.00    -0.744 OA
ENDBRANCH  91  94
ENDBRANCH  64  87
ENDBRANCH  38  39
ENDBRANCH  31  33
ENDBRANCH  30  31
ENDBRANCH   1  30
TORSDOF 18
ENDMDL
MODEL 3
REMARK VINA RESULT:     -12.5      5.357     10.289
REMARK SMILES Nc1nccc(N2CCC[C@@](Cc3ccc(F)cc3F)(C(=O)OCCOC(=O)c3ccc(-c4c5nc(c(-c6cccc(S(=O)(=O)[O-])c6F)c6ccc([nH]6)c(-c6cccc(S(=O)(=O)[O-])c6F)c6nc(c(-c7cccc(S(=O)(=O)[O-])c7F)c7ccc4[nH]7)C=C6)C=C5)cc3)C2)n1
REMARK SMILES IDX 25 1 24 2 23 3 21 4 22 5 11 6 7 7 8 8 92 9 9 10 10 11 6 12
REMARK SMILES IDX 2 13 3 14 93 15 4 16 5 17 1 18 12 21 13 22 14 23 19 24 15 25
REMARK SMILES IDX 18 26 20 27 16 28 17 29 26 30 27 31 28 32 29 33 30 34 91 35
REMARK SMILES IDX 31 36 90 37 32 38 33 39 34 40 84 41 35 42 89 43 83 44 85 45
REMARK SMILES IDX 36 46 88 47 82 48 81 49 37 51 69 52 49 53 68 54 50 55 53 56
REMARK SMILES IDX 67 57 86 58 51 59 52 60 66 62 87 63 54 64 38 65 39 66 47 67
REMARK SMILES IDX 40 68 42 69 48 70 41 71 43 72 44 73 45 74 46 75 70 76 71 77
REMARK SMILES IDX 79 78 72 79 74 80 80 81 73 82 75 83 76 84 77 85 78 86 55 87
REMARK SMILES IDX 56 88 64 89 57 90 59 91 65 92 58 93 60 94 61 95 62 96 63 97
REMARK H PARENT 1 19 1 20 85 50 53 61
REMARK Flexibility Score: inf
ROOT
ATOM      1  C   UNL A   1      31.725  31.509  26.537  1.00  0.00     0.275 C 
ENDROOT
BRANCH   1   2
ATOM      2  C   UNL A   1      31.400  30.434  25.507  1.00  0.00     0.274 C 
BRANCH   2   3
ATOM      3  O   UNL A   1      31.653  29.115  26.040  1.00  0.00    -0.462 OA
BRANCH   3   4
ATOM      4  C   UNL A   1      32.419  28.297  25.265  1.00  0.00     0.314 C 
ATOM      5  O   UNL A   1      33.447  28.658  24.700  1.00  0.00    -0.252 OA
BRANCH   4   6
ATOM      6  C   UNL A   1      31.804  26.915  25.060  1.00  0.00     0.090 C 
ATOM      7  N   UNL A   1      32.430  24.544  25.088  1.00  0.00    -0.355 N 
ATOM      8  C   UNL A   1      31.455  24.126  26.090  1.00  0.00     0.118 C 
ATOM      9  C   UNL A   1      32.952  25.898  25.261  1.00  0.00     0.137 C 
ATOM     10  C   UNL A   1      30.271  25.098  26.059  1.00  0.00     0.023 C 
ATOM     11  C   UNL A   1      30.702  26.573  26.094  1.00  0.00     0.023 C 
BRANCH   7  12
ATOM     12  C   UNL A   1      33.403  23.595  24.763  1.00  0.00     0.134 A 
ATOM     13  C   UNL A   1      34.437  21.578  25.113  1.00  0.00     0.221 A 
ATOM     14  N   UNL A   1      35.425  21.851  24.252  1.00  0.00    -0.222 NA
ATOM     15  N   UNL A   1      33.431  22.413  25.404  1.00  0.00    -0.196 NA
ATOM     16  C   UNL A   1      35.371  23.040  23.636  1.00  0.00     0.119 A 
ATOM     17  C   UNL A   1      34.367  23.949  23.843  1.00  0.00     0.067 A 
BRANCH  13  18
ATOM     18  N   UNL A   1      34.474  20.364  25.728  1.00  0.00    -0.368 N 
ATOM     19  H   UNL A   1      34.338  20.301  26.701  1.00  0.00     0.159 HD
ATOM     20  H   UNL A   1      34.636  19.550  25.199  1.00  0.00     0.159 HD
ENDBRANCH  13  18
ENDBRANCH   7  12
BRANCH   6  21
ATOM     21  C   UNL A   1      31.333  26.837  23.579  1.00  0.00     0.059 C 
BRANCH  21  22
ATOM     22  C   UNL A   1      30.251  27.810  23.168  1.00  0.00    -0.011 A 
ATOM     23  C   UNL A   1      28.908  27.574  23.503  1.00  0.00     0.010 A 
ATOM     24  C   UNL A   1      30.568  28.973  22.458  1.00  0.00     0.129 A 
ATOM     25  C   UNL A   1      27.914  28.465  23.096  1.00  0.00     0.040 A 
ATOM     26  C   UNL A   1      29.586  29.872  22.061  1.00  0.00     0.078 A 
ATOM     27  F   UNL A   1      31.844  29.247  22.152  1.00  0.00    -0.207 F 
ATOM     28  C   UNL A   1      28.263  29.603  22.378  1.00  0.00     0.126 A 
ATOM     29  F   UNL A   1      27.306  30.456  21.992  1.00  0.00    -0.207 F 
ENDBRANCH  21  22
ENDBRANCH   6  21
ENDBRANCH   4   6
ENDBRANCH   3   4
ENDBRANCH   2   3
ENDBRANCH   1   2
BRANCH   1  30
ATOM     30  O   UNL A   1      32.937  31.156  27.217  1.00  0.00    -0.458 OA
BRANCH  30  31
ATOM     31  C   UNL A   1      33.718  32.192  27.600  1.00  0.00     0.338 C 
ATOM     32  O   UNL A   1      33.415  33.372  27.629  1.00  0.00    -0.246 OA
BRANCH  31  33
ATOM     33  C   UNL A   1      35.033  31.685  28.038  1.00  0.00     0.060 A 
ATOM     34  C   UNL A   1      35.180  30.345  28.392  1.00  0.00     0.016 A 
ATOM     35  C   UNL A   1      36.090  32.572  28.220  1.00  0.00     0.016 A 
ATOM     36  C   UNL A   1      36.334  29.913  29.045  1.00  0.00     0.010 A 
ATOM     37  C   UNL A   1      37.293  32.107  28.761  1.00  0.00     0.010 A 
ATOM     38  C   UNL A   1      37.414  30.785  29.229  1.00  0.00    -0.014 A 
BRANCH  38  39
ATOM     39  C   UNL A   1      38.649  30.347  29.944  1.00  0.00     0.031 A 
ATOM     40  C   UNL A   1      39.598  29.379  29.282  1.00  0.00     0.074 A 
ATOM     41  C   UNL A   1      38.922  30.787  31.189  1.00  0.00     0.049 A 
ATOM     42  N   UNL A   1      40.587  28.701  29.807  1.00  0.00    -0.248 NA
ATOM     43  C   UNL A   1      39.392  29.118  27.848  1.00  0.00     0.031 C 
ATOM     44  C   UNL A   1      38.112  31.737  31.953  1.00  0.00     0.029 A 
ATOM     45  N   UNL A   1      39.960  30.485  32.039  1.00  0.00    -0.354 N 
ATOM     46  C   UNL A   1      41.050  27.862  28.799  1.00  0.00     0.074 A 
ATOM     47  C   UNL A   1      40.251  28.134  27.623  1.00  0.00     0.031 C 
ATOM     48  C   UNL A   1      38.696  31.965  33.139  1.00  0.00     0.029 A 
ATOM     49  C   UNL A   1      39.873  31.112  33.260  1.00  0.00     0.049 A 
ATOM     50  H   UNL A   1      40.696  29.877  31.796  1.00  0.00     0.167 HD
ATOM     51  C   UNL A   1      42.051  26.951  28.845  1.00  0.00     0.034 A 
ATOM     52  C   UNL A   1      40.626  30.989  34.371  1.00  0.00     0.034 A 
ATOM     53  C   UNL A   1      42.923  26.766  29.973  1.00  0.00     0.049 A 
ATOM     54  C   UNL A   1      41.764  30.009  34.381  1.00  0.00     0.074 A 
ATOM     55  C   UNL A   1      44.005  25.912  30.093  1.00  0.00     0.029 A 
ATOM     56  N   UNL A   1      42.831  27.465  31.166  1.00  0.00    -0.354 N 
ATOM     57  N   UNL A   1      42.200  29.241  33.412  1.00  0.00    -0.248 NA
ATOM     58  C   UNL A   1      42.516  29.877  35.638  1.00  0.00     0.031 C 
ATOM     59  C   UNL A   1      44.573  26.100  31.359  1.00  0.00     0.029 A 
ATOM     60  C   UNL A   1      43.842  27.070  32.026  1.00  0.00     0.049 A 
ATOM     61  H   UNL A   1      42.150  28.144  31.372  1.00  0.00     0.167 HD
ATOM     62  C   UNL A   1      43.279  28.541  33.938  1.00  0.00     0.074 A 
ATOM     63  C   UNL A   1      43.454  29.002  35.300  1.00  0.00     0.031 C 
ATOM     64  C   UNL A   1      44.036  27.579  33.358  1.00  0.00     0.034 A 
BRANCH  51  65
ATOM     65  C   UNL A   1      42.284  26.102  27.625  1.00  0.00     0.023 A 
ATOM     66  C   UNL A   1      42.990  26.629  26.527  1.00  0.00     0.012 A 
ATOM     67  C   UNL A   1      41.850  24.762  27.590  1.00  0.00     0.148 A 
ATOM     68  C   UNL A   1      43.240  25.843  25.402  1.00  0.00     0.002 A 
ATOM     69  C   UNL A   1      42.133  23.973  26.480  1.00  0.00     0.091 A 
ATOM     70  F   UNL A   1      41.152  24.284  28.631  1.00  0.00    -0.205 F 
ATOM     71  C   UNL A   1      42.822  24.514  25.382  1.00  0.00     0.022 A 
BRANCH  69  72
ATOM     72  S   UNL A   1      41.690  22.233  26.409  1.00  0.00     0.127 S 
ATOM     73  O   UNL A   1      42.370  21.803  25.189  1.00  0.00    -0.237 OA
ATOM     74  O   UNL A   1      42.272  21.708  27.646  1.00  0.00    -0.237 OA
ATOM     75  O   UNL A   1      40.235  22.201  26.372  1.00  0.00    -0.744 OA
ENDBRANCH  69  72
ENDBRANCH  51  65
BRANCH  52  76
ATOM     76  C   UNL A   1      40.335  31.842  35.560  1.00  0.00     0.023 A 
ATOM     77  C   UNL A   1      41.178  32.934  35.840  1.00  0.00     0.012 A 
ATOM     78  C   UNL A   1      39.208  31.619  36.373  1.00  0.00     0.148 A 
ATOM     79  C   UNL A   1      40.907  33.785  36.913  1.00  0.00     0.002 A 
ATOM     80  C   UNL A   1      38.910  32.506  37.403  1.00  0.00     0.091 A 
ATOM     81  F   UNL A   1      38.433  30.556  36.116  1.00  0.00    -0.205 F 
ATOM     82  C   UNL A   1      39.765  33.582  37.682  1.00  0.00     0.022 A 
BRANCH  80  83
ATOM     83  S   UNL A   1      37.375  32.391  38.331  1.00  0.00     0.127 S 
ATOM     84  O   UNL A   1      37.708  33.113  39.556  1.00  0.00    -0.237 OA
ATOM     85  O   UNL A   1      36.426  33.074  37.452  1.00  0.00    -0.237 OA
ATOM     86  O   UNL A   1      37.126  30.961  38.474  1.00  0.00    -0.744 OA
ENDBRANCH  80  83
ENDBRANCH  52  76
BRANCH  64  87
ATOM     87  C   UNL A   1      45.129  26.962  34.187  1.00  0.00     0.023 A 
ATOM     88  C   UNL A   1      46.408  27.552  34.188  1.00  0.00     0.012 A 
ATOM     89  C   UNL A   1      44.879  25.848  35.011  1.00  0.00     0.148 A 
ATOM     90  C   UNL A   1      47.428  27.031  34.981  1.00  0.00     0.002 A 
ATOM     91  C   UNL A   1      45.891  25.354  35.825  1.00  0.00     0.091 A 
ATOM     92  F   UNL A   1      43.662  25.283  34.976  1.00  0.00    -0.205 F 
ATOM     93  C   UNL A   1      47.168  25.939  35.807  1.00  0.00     0.022 A 
BRANCH  91  94
ATOM     94  S   UNL A   1      45.607  24.002  36.973  1.00  0.00     0.127 S 
ATOM     95  O   UNL A   1      44.533  24.535  37.807  1.00  0.00    -0.237 OA
ATOM     96  O   UNL A   1      45.205  22.909  36.086  1.00  0.00    -0.237 OA
ATOM     97  O   UNL A   1      46.883  23.786  37.643  1.00  0.00    -0.744 OA
ENDBRANCH  91  94
ENDBRANCH  64  87
ENDBRANCH  38  39
ENDBRANCH  31  33
ENDBRANCH  30  31
ENDBRANCH   1  30
TORSDOF 18
ENDMDL
