MODEL 1
REMARK VINA RESULT:     -12.4      0.000      0.000
REMARK SMILES CS(=O)(=O)c1ccc(-c2cc(Cl)cc3c2O[C@H](C(F)(F)F)C(C(=O)OCCOC(=O)c2ccc(-c4c5nc(c(-c6cccc(S(=O)(=O)[O-])c6F)c6ccc([nH]6)c(-c6cccc(S(=O)(=O)[O-])c6F)c6nc(c(-c7cccc(S(=O)(=O)[O-])c7F)c7ccc4[nH]7)C=C6)C=C5)cc2)=C3)cc1
REMARK SMILES IDX 27 1 26 2 25 3 23 4 24 5 22 6 9 7 10 8 15 9 11 10 14 11
REMARK SMILES IDX 16 12 12 13 13 14 94 15 17 16 8 17 5 18 6 19 96 20 7 21
REMARK SMILES IDX 95 22 2 23 1 24 3 25 4 26 18 27 19 28 20 29 21 30 28 31
REMARK SMILES IDX 29 32 30 33 31 34 32 35 93 36 33 37 92 38 34 39 35 40 36 41
REMARK SMILES IDX 86 42 37 43 91 44 85 45 87 46 38 47 90 48 84 49 83 50 39 52
REMARK SMILES IDX 71 53 51 54 70 55 52 56 55 57 69 58 88 59 53 60 54 61 68 63
REMARK SMILES IDX 89 64 56 65 40 66 41 67 49 68 42 69 44 70 50 71 43 72 45 73
REMARK SMILES IDX 46 74 47 75 48 76 72 77 73 78 81 79 74 80 76 81 82 82 75 83
REMARK SMILES IDX 77 84 78 85 79 86 80 87 57 88 58 89 66 90 59 91 61 92 67 93
REMARK SMILES IDX 60 94 62 95 63 96 64 97 65 98
REMARK H PARENT 87 51 55 62
REMARK Flexibility Score: inf
ROOT
ATOM      1  C   UNL A   1      38.011  19.703  25.068  1.00  0.00     0.275 C 
ENDROOT
BRANCH   1   2
ATOM      2  C   UNL A   1      36.515  19.661  24.739  1.00  0.00     0.275 C 
BRANCH   2   3
ATOM      3  O   UNL A   1      35.960  20.956  24.397  1.00  0.00    -0.459 OA
BRANCH   3   4
ATOM      4  C   UNL A   1      34.646  21.068  24.727  1.00  0.00     0.338 C 
ATOM      5  O   UNL A   1      33.793  20.232  24.449  1.00  0.00    -0.246 OA
BRANCH   4   6
ATOM      6  C   UNL A   1      34.308  22.294  25.498  1.00  0.00     0.087 C 
ATOM      7  C   UNL A   1      31.775  24.998  23.863  1.00  0.00     0.026 A 
ATOM      8  C   UNL A   1      31.941  24.694  22.490  1.00  0.00     0.033 A 
ATOM      9  C   UNL A   1      32.720  24.392  24.695  1.00  0.00     0.135 A 
ATOM     10  C   UNL A   1      33.056  24.026  21.973  1.00  0.00     0.042 A 
ATOM     11  C   UNL A   1      33.955  23.967  24.145  1.00  0.00     0.019 A 
ATOM     12  O   UNL A   1      32.449  23.941  25.985  1.00  0.00    -0.475 OA
ATOM     13  Cl  UNL A   1      33.162  23.433  20.369  1.00  0.00    -0.084 Cl
ATOM     14  C   UNL A   1      34.130  23.784  22.787  1.00  0.00     0.032 A 
ATOM     15  C   UNL A   1      34.960  23.381  25.051  1.00  0.00     0.027 C 
ATOM     16  C   UNL A   1      32.991  22.545  26.211  1.00  0.00     0.316 C 
BRANCH   7  17
ATOM     17  C   UNL A   1      30.837  26.139  24.138  1.00  0.00    -0.015 A 
ATOM     18  C   UNL A   1      29.256  28.439  23.506  1.00  0.00     0.067 A 
ATOM     19  C   UNL A   1      28.653  27.190  23.684  1.00  0.00     0.021 A 
ATOM     20  C   UNL A   1      30.623  28.571  23.728  1.00  0.00     0.021 A 
ATOM     21  C   UNL A   1      29.437  26.062  24.040  1.00  0.00     0.010 A 
ATOM     22  C   UNL A   1      31.393  27.439  24.047  1.00  0.00     0.010 A 
BRANCH  18  23
ATOM     23  S   UNL A   1      28.365  29.794  22.739  1.00  0.00     0.175 S 
ATOM     24  C   UNL A   1      28.921  31.257  23.559  1.00  0.00     0.163 C 
ATOM     25  O   UNL A   1      26.967  29.605  23.069  1.00  0.00    -0.224 OA
ATOM     26  O   UNL A   1      28.835  29.879  21.370  1.00  0.00    -0.224 OA
ENDBRANCH  18  23
ENDBRANCH   7  17
BRANCH  16  27
ATOM     27  C   UNL A   1      33.284  22.308  27.696  1.00  0.00     0.430 C 
ATOM     28  F   UNL A   1      34.179  23.204  28.182  1.00  0.00    -0.167 F 
ATOM     29  F   UNL A   1      32.175  22.382  28.463  1.00  0.00    -0.167 F 
ATOM     30  F   UNL A   1      33.821  21.075  27.899  1.00  0.00    -0.167 F 
ENDBRANCH  16  27
ENDBRANCH   4   6
ENDBRANCH   3   4
ENDBRANCH   2   3
ENDBRANCH   1   2
BRANCH   1  31
ATOM     31  O   UNL A   1      38.432  21.019  25.466  1.00  0.00    -0.458 OA
BRANCH  31  32
ATOM     32  C   UNL A   1      39.450  21.023  26.361  1.00  0.00     0.338 C 
ATOM     33  O   UNL A   1      40.071  20.037  26.736  1.00  0.00    -0.246 OA
BRANCH  32  34
ATOM     34  C   UNL A   1      39.831  22.402  26.756  1.00  0.00     0.060 A 
ATOM     35  C   UNL A   1      40.898  22.512  27.644  1.00  0.00     0.016 A 
ATOM     36  C   UNL A   1      39.193  23.570  26.314  1.00  0.00     0.016 A 
ATOM     37  C   UNL A   1      41.343  23.772  28.039  1.00  0.00     0.010 A 
ATOM     38  C   UNL A   1      39.663  24.845  26.717  1.00  0.00     0.010 A 
ATOM     39  C   UNL A   1      40.773  24.966  27.563  1.00  0.00    -0.014 A 
BRANCH  39  40
ATOM     40  C   UNL A   1      41.376  26.260  28.047  1.00  0.00     0.031 A 
ATOM     41  C   UNL A   1      42.679  26.707  27.452  1.00  0.00     0.074 A 
ATOM     42  C   UNL A   1      40.720  27.146  28.832  1.00  0.00     0.049 A 
ATOM     43  N   UNL A   1      43.258  27.874  27.527  1.00  0.00    -0.248 NA
ATOM     44  C   UNL A   1      43.416  25.710  26.660  1.00  0.00     0.031 C 
ATOM     45  C   UNL A   1      39.449  26.895  29.481  1.00  0.00     0.029 A 
ATOM     46  N   UNL A   1      40.971  28.467  29.151  1.00  0.00    -0.354 N 
ATOM     47  C   UNL A   1      44.434  27.757  26.809  1.00  0.00     0.074 A 
ATOM     48  C   UNL A   1      44.464  26.414  26.263  1.00  0.00     0.031 C 
ATOM     49  C   UNL A   1      38.924  28.042  29.936  1.00  0.00     0.029 A 
ATOM     50  C   UNL A   1      39.918  29.098  29.793  1.00  0.00     0.049 A 
ATOM     51  H   UNL A   1      41.821  28.917  28.941  1.00  0.00     0.167 HD
ATOM     52  C   UNL A   1      45.427  28.661  26.647  1.00  0.00     0.034 A 
ATOM     53  C   UNL A   1      39.773  30.362  30.253  1.00  0.00     0.034 A 
ATOM     54  C   UNL A   1      45.476  29.958  27.259  1.00  0.00     0.049 A 
ATOM     55  C   UNL A   1      40.954  31.294  30.178  1.00  0.00     0.074 A 
ATOM     56  C   UNL A   1      46.507  30.882  27.225  1.00  0.00     0.029 A 
ATOM     57  N   UNL A   1      44.468  30.516  28.028  1.00  0.00    -0.354 N 
ATOM     58  N   UNL A   1      42.105  31.121  29.579  1.00  0.00    -0.248 NA
ATOM     59  C   UNL A   1      40.833  32.586  30.876  1.00  0.00     0.031 C 
ATOM     60  C   UNL A   1      46.144  31.975  28.020  1.00  0.00     0.029 A 
ATOM     61  C   UNL A   1      44.865  31.758  28.500  1.00  0.00     0.049 A 
ATOM     62  H   UNL A   1      43.599  30.094  28.212  1.00  0.00     0.167 HD
ATOM     63  C   UNL A   1      42.813  32.302  29.763  1.00  0.00     0.074 A 
ATOM     64  C   UNL A   1      41.977  33.175  30.558  1.00  0.00     0.031 C 
ATOM     65  C   UNL A   1      44.044  32.629  29.302  1.00  0.00     0.034 A 
BRANCH  52  66
ATOM     66  C   UNL A   1      46.599  28.206  25.830  1.00  0.00     0.023 A 
ATOM     67  C   UNL A   1      46.577  28.350  24.430  1.00  0.00     0.012 A 
ATOM     68  C   UNL A   1      47.702  27.600  26.457  1.00  0.00     0.148 A 
ATOM     69  C   UNL A   1      47.629  27.862  23.658  1.00  0.00     0.002 A 
ATOM     70  C   UNL A   1      48.764  27.155  25.686  1.00  0.00     0.091 A 
ATOM     71  F   UNL A   1      47.674  27.437  27.788  1.00  0.00    -0.205 F 
ATOM     72  C   UNL A   1      48.725  27.273  24.287  1.00  0.00     0.022 A 
BRANCH  70  73
ATOM     73  S   UNL A   1      50.238  26.433  26.410  1.00  0.00     0.127 S 
ATOM     74  O   UNL A   1      49.698  25.222  27.028  1.00  0.00    -0.237 OA
ATOM     75  O   UNL A   1      51.074  26.198  25.233  1.00  0.00    -0.237 OA
ATOM     76  O   UNL A   1      50.760  27.427  27.337  1.00  0.00    -0.744 OA
ENDBRANCH  70  73
ENDBRANCH  52  66
BRANCH  53  77
ATOM     77  C   UNL A   1      38.480  30.852  30.839  1.00  0.00     0.023 A 
ATOM     78  C   UNL A   1      38.206  30.619  32.204  1.00  0.00     0.012 A 
ATOM     79  C   UNL A   1      37.501  31.504  30.065  1.00  0.00     0.148 A 
ATOM     80  C   UNL A   1      36.984  30.993  32.773  1.00  0.00     0.002 A 
ATOM     81  C   UNL A   1      36.318  31.943  30.653  1.00  0.00     0.091 A 
ATOM     82  F   UNL A   1      37.733  31.676  28.755  1.00  0.00    -0.205 F 
ATOM     83  C   UNL A   1      36.046  31.668  32.001  1.00  0.00     0.022 A 
BRANCH  81  84
ATOM     84  S   UNL A   1      35.125  32.948  29.762  1.00  0.00     0.127 S 
ATOM     85  O   UNL A   1      34.610  32.004  28.775  1.00  0.00    -0.237 OA
ATOM     86  O   UNL A   1      34.180  33.309  30.820  1.00  0.00    -0.237 OA
ATOM     87  O   UNL A   1      35.883  34.074  29.232  1.00  0.00    -0.744 OA
ENDBRANCH  81  84
ENDBRANCH  53  77
BRANCH  65  88
ATOM     88  C   UNL A   1      44.580  33.996  29.635  1.00  0.00     0.023 A 
ATOM     89  C   UNL A   1      45.331  34.199  30.810  1.00  0.00     0.012 A 
ATOM     90  C   UNL A   1      44.391  35.070  28.743  1.00  0.00     0.148 A 
ATOM     91  C   UNL A   1      45.860  35.456  31.106  1.00  0.00     0.002 A 
ATOM     92  C   UNL A   1      44.967  36.304  29.017  1.00  0.00     0.091 A 
ATOM     93  F   UNL A   1      43.653  34.865  27.642  1.00  0.00    -0.205 F 
ATOM     94  C   UNL A   1      45.690  36.504  30.204  1.00  0.00     0.022 A 
BRANCH  92  95
ATOM     95  S   UNL A   1      44.884  37.684  27.870  1.00  0.00     0.127 S 
ATOM     96  O   UNL A   1      45.621  38.720  28.593  1.00  0.00    -0.237 OA
ATOM     97  O   UNL A   1      45.576  37.151  26.697  1.00  0.00    -0.237 OA
ATOM     98  O   UNL A   1      43.468  37.961  27.668  1.00  0.00    -0.744 OA
ENDBRANCH  92  95
ENDBRANCH  65  88
ENDBRANCH  39  40
ENDBRANCH  32  34
ENDBRANCH  31  32
ENDBRANCH   1  31
TORSDOF 17
ENDMDL
MODEL 2
REMARK VINA RESULT:     -12.2      2.044      2.641
REMARK SMILES CS(=O)(=O)c1ccc(-c2cc(Cl)cc3c2O[C@H](C(F)(F)F)C(C(=O)OCCOC(=O)c2ccc(-c4c5nc(c(-c6cccc(S(=O)(=O)[O-])c6F)c6ccc([nH]6)c(-c6cccc(S(=O)(=O)[O-])c6F)c6nc(c(-c7cccc(S(=O)(=O)[O-])c7F)c7ccc4[nH]7)C=C6)C=C5)cc2)=C3)cc1
REMARK SMILES IDX 27 1 26 2 25 3 23 4 24 5 22 6 9 7 10 8 15 9 11 10 14 11
REMARK SMILES IDX 16 12 12 13 13 14 94 15 17 16 8 17 5 18 6 19 96 20 7 21
REMARK SMILES IDX 95 22 2 23 1 24 3 25 4 26 18 27 19 28 20 29 21 30 28 31
REMARK SMILES IDX 29 32 30 33 31 34 32 35 93 36 33 37 92 38 34 39 35 40 36 41
REMARK SMILES IDX 86 42 37 43 91 44 85 45 87 46 38 47 90 48 84 49 83 50 39 52
REMARK SMILES IDX 71 53 51 54 70 55 52 56 55 57 69 58 88 59 53 60 54 61 68 63
REMARK SMILES IDX 89 64 56 65 40 66 41 67 49 68 42 69 44 70 50 71 43 72 45 73
REMARK SMILES IDX 46 74 47 75 48 76 72 77 73 78 81 79 74 80 76 81 82 82 75 83
REMARK SMILES IDX 77 84 78 85 79 86 80 87 57 88 58 89 66 90 59 91 61 92 67 93
REMARK SMILES IDX 60 94 62 95 63 96 64 97 65 98
REMARK H PARENT 87 51 55 62
REMARK Flexibility Score: inf
ROOT
ATOM      1  C   UNL A   1      36.781  21.142  25.006  1.00  0.00     0.275 C 
ENDROOT
BRANCH   1   2
ATOM      2  C   UNL A   1      35.493  21.762  24.454  1.00  0.00     0.275 C 
BRANCH   2   3
ATOM      3  O   UNL A   1      35.305  23.147  24.840  1.00  0.00    -0.459 OA
BRANCH   3   4
ATOM      4  C   UNL A   1      34.301  23.311  25.741  1.00  0.00     0.338 C 
ATOM      5  O   UNL A   1      34.467  23.359  26.955  1.00  0.00    -0.246 OA
BRANCH   4   6
ATOM      6  C   UNL A   1      32.951  23.464  25.136  1.00  0.00     0.087 C 
ATOM      7  C   UNL A   1      31.738  27.144  23.960  1.00  0.00     0.026 A 
ATOM      8  C   UNL A   1      32.564  27.951  24.780  1.00  0.00     0.033 A 
ATOM      9  C   UNL A   1      31.740  25.792  24.311  1.00  0.00     0.135 A 
ATOM     10  C   UNL A   1      33.166  27.497  25.958  1.00  0.00     0.042 A 
ATOM     11  C   UNL A   1      32.119  25.418  25.625  1.00  0.00     0.019 A 
ATOM     12  O   UNL A   1      31.635  24.747  23.396  1.00  0.00    -0.475 OA
ATOM     13  Cl  UNL A   1      34.358  28.371  26.825  1.00  0.00    -0.084 Cl
ATOM     14  C   UNL A   1      32.830  26.265  26.453  1.00  0.00     0.032 A 
ATOM     15  C   UNL A   1      32.059  23.992  25.992  1.00  0.00     0.027 C 
ATOM     16  C   UNL A   1      32.671  23.673  23.658  1.00  0.00     0.316 C 
BRANCH   7  17
ATOM     17  C   UNL A   1      30.788  27.914  23.087  1.00  0.00    -0.015 A 
ATOM     18  C   UNL A   1      28.942  29.998  22.427  1.00  0.00     0.067 A 
ATOM     19  C   UNL A   1      30.260  30.043  21.962  1.00  0.00     0.021 A 
ATOM     20  C   UNL A   1      28.511  28.884  23.140  1.00  0.00     0.021 A 
ATOM     21  C   UNL A   1      31.159  28.986  22.256  1.00  0.00     0.010 A 
ATOM     22  C   UNL A   1      29.421  27.859  23.453  1.00  0.00     0.010 A 
BRANCH  18  23
ATOM     23  S   UNL A   1      27.890  31.450  22.365  1.00  0.00     0.175 S 
ATOM     24  C   UNL A   1      28.956  32.827  22.667  1.00  0.00     0.163 C 
ATOM     25  O   UNL A   1      26.977  31.343  23.484  1.00  0.00    -0.224 OA
ATOM     26  O   UNL A   1      27.429  31.572  20.996  1.00  0.00    -0.224 OA
ENDBRANCH  18  23
ENDBRANCH   7  17
BRANCH  16  27
ATOM     27  C   UNL A   1      32.188  22.313  23.142  1.00  0.00     0.430 C 
ATOM     28  F   UNL A   1      32.812  21.962  21.989  1.00  0.00    -0.167 F 
ATOM     29  F   UNL A   1      32.387  21.319  24.032  1.00  0.00    -0.167 F 
ATOM     30  F   UNL A   1      30.856  22.338  22.869  1.00  0.00    -0.167 F 
ENDBRANCH  16  27
ENDBRANCH   4   6
ENDBRANCH   3   4
ENDBRANCH   2   3
ENDBRANCH   1   2
BRANCH   1  31
ATOM     31  O   UNL A   1      37.555  22.097  25.752  1.00  0.00    -0.458 OA
BRANCH  31  32
ATOM     32  C   UNL A   1      38.777  21.643  26.123  1.00  0.00     0.338 C 
ATOM     33  O   UNL A   1      39.194  20.504  25.956  1.00  0.00    -0.246 OA
BRANCH  32  34
ATOM     34  C   UNL A   1      39.633  22.734  26.654  1.00  0.00     0.060 A 
ATOM     35  C   UNL A   1      39.404  24.002  26.127  1.00  0.00     0.016 A 
ATOM     36  C   UNL A   1      40.636  22.571  27.619  1.00  0.00     0.016 A 
ATOM     37  C   UNL A   1      40.139  25.090  26.597  1.00  0.00     0.010 A 
ATOM     38  C   UNL A   1      41.369  23.688  28.094  1.00  0.00     0.010 A 
ATOM     39  C   UNL A   1      41.105  24.976  27.611  1.00  0.00    -0.014 A 
BRANCH  39  40
ATOM     40  C   UNL A   1      41.800  26.240  28.048  1.00  0.00     0.031 A 
ATOM     41  C   UNL A   1      43.182  26.511  27.530  1.00  0.00     0.074 A 
ATOM     42  C   UNL A   1      41.182  27.246  28.711  1.00  0.00     0.049 A 
ATOM     43  N   UNL A   1      43.871  27.619  27.567  1.00  0.00    -0.248 NA
ATOM     44  C   UNL A   1      43.870  25.388  26.875  1.00  0.00     0.031 C 
ATOM     45  C   UNL A   1      39.847  27.171  29.271  1.00  0.00     0.029 A 
ATOM     46  N   UNL A   1      41.542  28.557  28.953  1.00  0.00    -0.354 N 
ATOM     47  C   UNL A   1      45.078  27.332  26.958  1.00  0.00     0.074 A 
ATOM     48  C   UNL A   1      45.011  25.953  26.515  1.00  0.00     0.031 C 
ATOM     49  C   UNL A   1      39.410  28.396  29.598  1.00  0.00     0.029 A 
ATOM     50  C   UNL A   1      40.515  29.336  29.460  1.00  0.00     0.049 A 
ATOM     51  H   UNL A   1      42.447  28.906  28.781  1.00  0.00     0.167 HD
ATOM     52  C   UNL A   1      46.167  28.121  26.813  1.00  0.00     0.034 A 
ATOM     53  C   UNL A   1      40.465  30.640  29.814  1.00  0.00     0.034 A 
ATOM     54  C   UNL A   1      46.303  29.452  27.331  1.00  0.00     0.049 A 
ATOM     55  C   UNL A   1      41.738  31.446  29.768  1.00  0.00     0.074 A 
ATOM     56  C   UNL A   1      47.423  30.267  27.315  1.00  0.00     0.029 A 
ATOM     57  N   UNL A   1      45.304  30.164  27.974  1.00  0.00    -0.354 N 
ATOM     58  N   UNL A   1      42.906  31.115  29.279  1.00  0.00    -0.248 NA
ATOM     59  C   UNL A   1      41.698  32.795  30.359  1.00  0.00     0.031 C 
ATOM     60  C   UNL A   1      47.116  31.450  27.997  1.00  0.00     0.029 A 
ATOM     61  C   UNL A   1      45.789  31.396  28.385  1.00  0.00     0.049 A 
ATOM     62  H   UNL A   1      44.384  29.844  28.116  1.00  0.00     0.167 HD
ATOM     63  C   UNL A   1      43.716  32.234  29.435  1.00  0.00     0.074 A 
ATOM     64  C   UNL A   1      42.917  33.244  30.094  1.00  0.00     0.031 C 
ATOM     65  C   UNL A   1      45.004  32.403  29.053  1.00  0.00     0.034 A 
BRANCH  52  66
ATOM     66  C   UNL A   1      47.343  27.492  26.129  1.00  0.00     0.023 A 
ATOM     67  C   UNL A   1      47.465  27.567  24.728  1.00  0.00     0.012 A 
ATOM     68  C   UNL A   1      48.305  26.792  26.881  1.00  0.00     0.148 A 
ATOM     69  C   UNL A   1      48.514  26.921  24.079  1.00  0.00     0.002 A 
ATOM     70  C   UNL A   1      49.370  26.188  26.231  1.00  0.00     0.091 A 
ATOM     71  F   UNL A   1      48.138  26.701  28.208  1.00  0.00    -0.205 F 
ATOM     72  C   UNL A   1      49.470  26.240  24.832  1.00  0.00     0.022 A 
BRANCH  70  73
ATOM     73  S   UNL A   1      50.674  25.336  27.120  1.00  0.00     0.127 S 
ATOM     74  O   UNL A   1      51.148  26.384  28.022  1.00  0.00    -0.237 OA
ATOM     75  O   UNL A   1      49.941  24.252  27.775  1.00  0.00    -0.237 OA
ATOM     76  O   UNL A   1      51.630  24.899  26.112  1.00  0.00    -0.744 OA
ENDBRANCH  70  73
ENDBRANCH  52  66
BRANCH  53  77
ATOM     77  C   UNL A   1      39.190  31.299  30.256  1.00  0.00     0.023 A 
ATOM     78  C   UNL A   1      38.264  31.735  29.283  1.00  0.00     0.012 A 
ATOM     79  C   UNL A   1      38.897  31.540  31.612  1.00  0.00     0.148 A 
ATOM     80  C   UNL A   1      37.099  32.418  29.647  1.00  0.00     0.002 A 
ATOM     81  C   UNL A   1      37.699  32.152  31.972  1.00  0.00     0.091 A 
ATOM     82  F   UNL A   1      39.800  31.179  32.534  1.00  0.00    -0.205 F 
ATOM     83  C   UNL A   1      36.809  32.614  30.992  1.00  0.00     0.022 A 
BRANCH  81  84
ATOM     84  S   UNL A   1      37.186  32.309  33.687  1.00  0.00     0.127 S 
ATOM     85  O   UNL A   1      35.763  32.602  33.552  1.00  0.00    -0.237 OA
ATOM     86  O   UNL A   1      37.494  30.981  34.220  1.00  0.00    -0.237 OA
ATOM     87  O   UNL A   1      38.006  33.377  34.243  1.00  0.00    -0.744 OA
ENDBRANCH  81  84
ENDBRANCH  53  77
BRANCH  65  88
ATOM     88  C   UNL A   1      45.651  33.735  29.329  1.00  0.00     0.023 A 
ATOM     89  C   UNL A   1      46.375  33.941  30.521  1.00  0.00     0.012 A 
ATOM     90  C   UNL A   1      45.595  34.765  28.369  1.00  0.00     0.148 A 
ATOM     91  C   UNL A   1      47.006  35.161  30.766  1.00  0.00     0.002 A 
ATOM     92  C   UNL A   1      46.271  35.957  28.595  1.00  0.00     0.091 A 
ATOM     93  F   UNL A   1      44.881  34.560  27.252  1.00  0.00    -0.205 F 
ATOM     94  C   UNL A   1      46.965  36.163  29.798  1.00  0.00     0.022 A 
BRANCH  92  95
ATOM     95  S   UNL A   1      46.357  37.266  27.369  1.00  0.00     0.127 S 
ATOM     96  O   UNL A   1      44.953  37.655  27.246  1.00  0.00    -0.237 OA
ATOM     97  O   UNL A   1      47.207  38.254  28.033  1.00  0.00    -0.237 OA
ATOM     98  O   UNL A   1      46.938  36.668  26.174  1.00  0.00    -0.744 OA
ENDBRANCH  92  95
ENDBRANCH  65  88
ENDBRANCH  39  40
ENDBRANCH  32  34
ENDBRANCH  31  32
ENDBRANCH   1  31
TORSDOF 17
ENDMDL
MODEL 3
REMARK VINA RESULT:     -12.1      1.984      2.609
REMARK SMILES CS(=O)(=O)c1ccc(-c2cc(Cl)cc3c2O[C@H](C(F)(F)F)C(C(=O)OCCOC(=O)c2ccc(-c4c5nc(c(-c6cccc(S(=O)(=O)[O-])c6F)c6ccc([nH]6)c(-c6cccc(S(=O)(=O)[O-])c6F)c6nc(c(-c7cccc(S(=O)(=O)[O-])c7F)c7ccc4[nH]7)C=C6)C=C5)cc2)=C3)cc1
REMARK SMILES IDX 27 1 26 2 25 3 23 4 24 5 22 6 9 7 10 8 15 9 11 10 14 11
REMARK SMILES IDX 16 12 12 13 13 14 94 15 17 16 8 17 5 18 6 19 96 20 7 21
REMARK SMILES IDX 95 22 2 23 1 24 3 25 4 26 18 27 19 28 20 29 21 30 28 31
REMARK SMILES IDX 29 32 30 33 31 34 32 35 93 36 33 37 92 38 34 39 35 40 36 41
REMARK SMILES IDX 86 42 37 43 91 44 85 45 87 46 38 47 90 48 84 49 83 50 39 52
REMARK SMILES IDX 71 53 51 54 70 55 52 56 55 57 69 58 88 59 53 60 54 61 68 63
REMARK SMILES IDX 89 64 56 65 40 66 41 67 49 68 42 69 44 70 50 71 43 72 45 73
REMARK SMILES IDX 46 74 47 75 48 76 72 77 73 78 81 79 74 80 76 81 82 82 75 83
REMARK SMILES IDX 77 84 78 85 79 86 80 87 57 88 58 89 66 90 59 91 61 92 67 93
REMARK SMILES IDX 60 94 62 95 63 96 64 97 65 98
REMARK H PARENT 87 51 55 62
REMARK Flexibility Score: inf
ROOT
ATOM      1  C   UNL A   1      37.388  22.176  24.672  1.00  0.00     0.275 C 
ENDROOT
BRANCH   1   2
ATOM      2  C   UNL A   1      35.883  22.356  24.452  1.00  0.00     0.275 C 
BRANCH   2   3
ATOM      3  O   UNL A   1      35.378  23.634  24.915  1.00  0.00    -0.459 OA
BRANCH   3   4
ATOM      4  C   UNL A   1      34.352  23.506  25.798  1.00  0.00     0.338 C 
ATOM      5  O   UNL A   1      34.500  23.317  27.001  1.00  0.00    -0.246 OA
BRANCH   4   6
ATOM      6  C   UNL A   1      33.000  23.646  25.196  1.00  0.00     0.087 C 
ATOM      7  C   UNL A   1      31.780  27.302  23.952  1.00  0.00     0.026 A 
ATOM      8  C   UNL A   1      32.609  28.125  24.753  1.00  0.00     0.033 A 
ATOM      9  C   UNL A   1      31.785  25.957  24.330  1.00  0.00     0.135 A 
ATOM     10  C   UNL A   1      33.216  27.694  25.938  1.00  0.00     0.042 A 
ATOM     11  C   UNL A   1      32.168  25.609  25.649  1.00  0.00     0.019 A 
ATOM     12  O   UNL A   1      31.677  24.895  23.435  1.00  0.00    -0.475 OA
ATOM     13  Cl  UNL A   1      34.411  28.586  26.784  1.00  0.00    -0.084 Cl
ATOM     14  C   UNL A   1      32.882  26.473  26.458  1.00  0.00     0.032 A 
ATOM     15  C   UNL A   1      32.111  24.190  26.044  1.00  0.00     0.027 C 
ATOM     16  C   UNL A   1      32.714  23.826  23.715  1.00  0.00     0.316 C 
BRANCH   7  17
ATOM     17  C   UNL A   1      30.827  28.054  23.068  1.00  0.00    -0.015 A 
ATOM     18  C   UNL A   1      28.962  30.112  22.381  1.00  0.00     0.067 A 
ATOM     19  C   UNL A   1      30.282  30.169  21.923  1.00  0.00     0.021 A 
ATOM     20  C   UNL A   1      28.539  28.999  23.100  1.00  0.00     0.021 A 
ATOM     21  C   UNL A   1      31.191  29.124  22.230  1.00  0.00     0.010 A 
ATOM     22  C   UNL A   1      29.458  27.987  23.427  1.00  0.00     0.010 A 
BRANCH  18  23
ATOM     23  S   UNL A   1      27.894  31.552  22.302  1.00  0.00     0.175 S 
ATOM     24  C   UNL A   1      28.925  32.935  22.682  1.00  0.00     0.163 C 
ATOM     25  O   UNL A   1      26.932  31.409  23.375  1.00  0.00    -0.224 OA
ATOM     26  O   UNL A   1      27.494  31.698  20.915  1.00  0.00    -0.224 OA
ENDBRANCH  18  23
ENDBRANCH   7  17
BRANCH  16  27
ATOM     27  C   UNL A   1      32.231  22.457  23.226  1.00  0.00     0.430 C 
ATOM     28  F   UNL A   1      32.826  22.099  22.061  1.00  0.00    -0.167 F 
ATOM     29  F   UNL A   1      32.463  21.474  24.122  1.00  0.00    -0.167 F 
ATOM     30  F   UNL A   1      30.892  22.466  22.991  1.00  0.00    -0.167 F 
ENDBRANCH  16  27
ENDBRANCH   4   6
ENDBRANCH   3   4
ENDBRANCH   2   3
ENDBRANCH   1   2
BRANCH   1  31
ATOM     31  O   UNL A   1      37.730  22.203  26.069  1.00  0.00    -0.458 OA
BRANCH  31  32
ATOM     32  C   UNL A   1      39.047  22.002  26.315  1.00  0.00     0.338 C 
ATOM     33  O   UNL A   1      39.691  21.016  25.982  1.00  0.00    -0.246 OA
BRANCH  32  34
ATOM     34  C   UNL A   1      39.679  23.193  26.939  1.00  0.00     0.060 A 
ATOM     35  C   UNL A   1      39.151  24.428  26.572  1.00  0.00     0.016 A 
ATOM     36  C   UNL A   1      40.751  23.154  27.841  1.00  0.00     0.016 A 
ATOM     37  C   UNL A   1      39.662  25.595  27.139  1.00  0.00     0.010 A 
ATOM     38  C   UNL A   1      41.254  24.348  28.416  1.00  0.00     0.010 A 
ATOM     39  C   UNL A   1      40.690  25.590  28.098  1.00  0.00    -0.014 A 
BRANCH  39  40
ATOM     40  C   UNL A   1      41.123  26.923  28.653  1.00  0.00     0.031 A 
ATOM     41  C   UNL A   1      42.519  27.394  28.375  1.00  0.00     0.074 A 
ATOM     42  C   UNL A   1      40.271  27.814  29.212  1.00  0.00     0.049 A 
ATOM     43  N   UNL A   1      43.032  28.583  28.534  1.00  0.00    -0.248 NA
ATOM     44  C   UNL A   1      43.454  26.395  27.834  1.00  0.00     0.031 C 
ATOM     45  C   UNL A   1      38.886  27.542  29.543  1.00  0.00     0.029 A 
ATOM     46  N   UNL A   1      40.402  29.154  29.522  1.00  0.00    -0.354 N 
ATOM     47  C   UNL A   1      44.351  28.482  28.131  1.00  0.00     0.074 A 
ATOM     48  C   UNL A   1      44.549  27.121  27.673  1.00  0.00     0.031 C 
ATOM     49  C   UNL A   1      38.236  28.685  29.802  1.00  0.00     0.029 A 
ATOM     50  C   UNL A   1      39.207  29.771  29.858  1.00  0.00     0.049 A 
ATOM     51  H   UNL A   1      41.265  29.627  29.505  1.00  0.00     0.167 HD
ATOM     52  C   UNL A   1      45.329  29.415  28.175  1.00  0.00     0.034 A 
ATOM     53  C   UNL A   1      38.920  31.045  30.209  1.00  0.00     0.034 A 
ATOM     54  C   UNL A   1      45.192  30.736  28.720  1.00  0.00     0.049 A 
ATOM     55  C   UNL A   1      40.059  32.017  30.381  1.00  0.00     0.074 A 
ATOM     56  C   UNL A   1      46.176  31.695  28.896  1.00  0.00     0.029 A 
ATOM     57  N   UNL A   1      44.012  31.285  29.193  1.00  0.00    -0.354 N 
ATOM     58  N   UNL A   1      41.326  31.862  30.090  1.00  0.00    -0.248 NA
ATOM     59  C   UNL A   1      39.736  33.329  30.967  1.00  0.00     0.031 C 
ATOM     60  C   UNL A   1      45.601  32.803  29.526  1.00  0.00     0.029 A 
ATOM     61  C   UNL A   1      44.248  32.559  29.689  1.00  0.00     0.049 A 
ATOM     62  H   UNL A   1      43.136  30.839  29.178  1.00  0.00     0.167 HD
ATOM     63  C   UNL A   1      41.936  33.075  30.386  1.00  0.00     0.074 A 
ATOM     64  C   UNL A   1      40.908  33.947  30.912  1.00  0.00     0.031 C 
ATOM     65  C   UNL A   1      43.233  33.429  30.225  1.00  0.00     0.034 A 
BRANCH  52  66
ATOM     66  C   UNL A   1      46.677  28.972  27.691  1.00  0.00     0.023 A 
ATOM     67  C   UNL A   1      46.984  29.030  26.318  1.00  0.00     0.012 A 
ATOM     68  C   UNL A   1      47.620  28.463  28.602  1.00  0.00     0.148 A 
ATOM     69  C   UNL A   1      48.206  28.550  25.852  1.00  0.00     0.002 A 
ATOM     70  C   UNL A   1      48.851  28.027  28.135  1.00  0.00     0.091 A 
ATOM     71  F   UNL A   1      47.282  28.380  29.896  1.00  0.00    -0.205 F 
ATOM     72  C   UNL A   1      49.141  28.058  26.761  1.00  0.00     0.022 A 
BRANCH  70  73
ATOM     73  S   UNL A   1      50.134  27.427  29.235  1.00  0.00     0.127 S 
ATOM     74  O   UNL A   1      50.386  28.606  30.062  1.00  0.00    -0.237 OA
ATOM     75  O   UNL A   1      49.457  26.329  29.926  1.00  0.00    -0.237 OA
ATOM     76  O   UNL A   1      51.239  27.016  28.380  1.00  0.00    -0.744 OA
ENDBRANCH  70  73
ENDBRANCH  52  66
BRANCH  53  77
ATOM     77  C   UNL A   1      37.510  31.510  30.438  1.00  0.00     0.023 A 
ATOM     78  C   UNL A   1      36.979  31.488  31.746  1.00  0.00     0.012 A 
ATOM     79  C   UNL A   1      36.675  31.930  29.385  1.00  0.00     0.148 A 
ATOM     80  C   UNL A   1      35.648  31.842  31.993  1.00  0.00     0.002 A 
ATOM     81  C   UNL A   1      35.376  32.355  29.647  1.00  0.00     0.091 A 
ATOM     82  F   UNL A   1      37.159  31.898  28.135  1.00  0.00    -0.205 F 
ATOM     83  C   UNL A   1      34.851  32.290  30.946  1.00  0.00     0.022 A 
BRANCH  81  84
ATOM     84  S   UNL A   1      34.335  33.084  28.377  1.00  0.00     0.127 S 
ATOM     85  O   UNL A   1      35.285  33.922  27.651  1.00  0.00    -0.237 OA
ATOM     86  O   UNL A   1      33.872  31.902  27.647  1.00  0.00    -0.237 OA
ATOM     87  O   UNL A   1      33.282  33.790  29.095  1.00  0.00    -0.744 OA
ENDBRANCH  81  84
ENDBRANCH  53  77
BRANCH  65  88
ATOM     88  C   UNL A   1      43.635  34.827  30.615  1.00  0.00     0.023 A 
ATOM     89  C   UNL A   1      44.158  35.085  31.898  1.00  0.00     0.012 A 
ATOM     90  C   UNL A   1      43.553  35.877  29.679  1.00  0.00     0.148 A 
ATOM     91  C   UNL A   1      44.566  36.371  32.253  1.00  0.00     0.002 A 
ATOM     92  C   UNL A   1      44.011  37.143  30.021  1.00  0.00     0.091 A 
ATOM     93  F   UNL A   1      43.030  35.619  28.472  1.00  0.00    -0.205 F 
ATOM     94  C   UNL A   1      44.505  37.396  31.311  1.00  0.00     0.022 A 
BRANCH  92  95
ATOM     95  S   UNL A   1      44.063  38.501  28.846  1.00  0.00     0.127 S 
ATOM     96  O   UNL A   1      43.836  39.656  29.713  1.00  0.00    -0.237 OA
ATOM     97  O   UNL A   1      45.421  38.395  28.314  1.00  0.00    -0.237 OA
ATOM     98  O   UNL A   1      43.007  38.240  27.876  1.00  0.00    -0.744 OA
ENDBRANCH  92  95
ENDBRANCH  65  88
ENDBRANCH  39  40
ENDBRANCH  32  34
ENDBRANCH  31  32
ENDBRANCH   1  31
TORSDOF 17
ENDMDL
