MODEL 1
REMARK VINA RESULT:     -12.9      0.000      0.000
REMARK SMILES CC1(C)[C@@]2(C(=O)OCCOC(=O)c3ccc(-c4c5nc(c(-c6cccc(S(=O)(=O)[O-])c6F)c6ccc([nH]6)c(-c6cccc(S(=O)(=O)[O-])c6F)c6nc(c(-c7cccc(S(=O)(=O)[O-])c7F)c7ccc4[nH]7)C=C6)C=C5)cc3)CC[C@]1(C)/C(=N/NC(=O)c1ccc(Cl)cc1)C2
REMARK SMILES IDX 9 1 8 2 7 3 5 4 6 5 4 6 1 7 2 8 3 9 78 10 76 11 92 12 77 13
REMARK SMILES IDX 79 14 80 15 81 16 82 17 83 18 84 20 85 21 86 22 91 23 87 24
REMARK SMILES IDX 90 25 88 26 89 27 10 28 11 29 12 30 13 31 14 32 75 33 15 34
REMARK SMILES IDX 74 35 16 36 17 37 18 38 68 39 19 40 73 41 67 42 69 43 20 44
REMARK SMILES IDX 72 45 66 46 65 47 21 49 53 50 33 51 52 52 34 53 37 54 51 55
REMARK SMILES IDX 70 56 35 57 36 58 50 60 71 61 38 62 22 63 23 64 31 65 24 66
REMARK SMILES IDX 26 67 32 68 25 69 27 70 28 71 29 72 30 73 54 74 55 75 63 76
REMARK SMILES IDX 56 77 58 78 64 79 57 80 59 81 60 82 61 83 62 84 39 85 40 86
REMARK SMILES IDX 48 87 41 88 43 89 49 90 42 91 44 92 45 93 46 94 47 95
REMARK H PARENT 82 19 69 48 37 59
REMARK Flexibility Score: inf
ROOT
ATOM      1  C   UNL A   1      36.022  21.770  24.192  1.00  0.00     0.275 C 
ENDROOT
BRANCH   1   2
ATOM      2  C   UNL A   1      36.386  22.952  23.298  1.00  0.00     0.274 C 
BRANCH   2   3
ATOM      3  O   UNL A   1      35.371  23.977  23.403  1.00  0.00    -0.462 OA
BRANCH   3   4
ATOM      4  C   UNL A   1      34.145  23.716  22.870  1.00  0.00     0.313 C 
ATOM      5  O   UNL A   1      33.954  23.249  21.755  1.00  0.00    -0.252 OA
BRANCH   4   6
ATOM      6  C   UNL A   1      33.030  24.228  23.766  1.00  0.00     0.079 C 
ATOM      7  C   UNL A   1      32.207  21.956  24.739  1.00  0.00     0.013 C 
ATOM      8  C   UNL A   1      32.572  23.425  25.020  1.00  0.00    -0.008 C 
ATOM      9  C   UNL A   1      33.553  23.449  26.216  1.00  0.00     0.013 C 
ATOM     10  C   UNL A   1      31.351  24.384  25.254  1.00  0.00     0.014 C 
ATOM     11  C   UNL A   1      31.731  24.296  22.895  1.00  0.00     0.021 C 
ATOM     12  C   UNL A   1      33.295  25.630  24.361  1.00  0.00     0.073 C 
ATOM     13  C   UNL A   1      30.591  24.361  23.921  1.00  0.00     0.014 C 
ATOM     14  C   UNL A   1      30.494  24.107  26.471  1.00  0.00     0.018 C 
ATOM     15  C   UNL A   1      32.077  25.752  25.234  1.00  0.00     0.046 C 
ATOM     16  N   UNL A   1      31.626  26.747  25.929  1.00  0.00    -0.181 NA
BRANCH  16  17
ATOM     17  N   UNL A   1      32.254  27.940  26.100  1.00  0.00    -0.243 N 
ATOM     18  C   UNL A   1      32.211  29.176  25.493  1.00  0.00     0.271 C 
ATOM     19  H   UNL A   1      32.898  27.915  26.845  1.00  0.00     0.194 HD
ATOM     20  O   UNL A   1      32.996  30.058  25.849  1.00  0.00    -0.267 OA
BRANCH  18  21
ATOM     21  C   UNL A   1      31.243  29.526  24.447  1.00  0.00     0.041 A 
ATOM     22  C   UNL A   1      31.236  28.739  23.282  1.00  0.00     0.015 A 
ATOM     23  C   UNL A   1      30.332  30.576  24.598  1.00  0.00     0.015 A 
ATOM     24  C   UNL A   1      30.259  28.947  22.307  1.00  0.00     0.021 A 
ATOM     25  C   UNL A   1      29.363  30.789  23.611  1.00  0.00     0.021 A 
ATOM     26  C   UNL A   1      29.318  29.962  22.484  1.00  0.00     0.041 A 
ATOM     27  Cl  UNL A   1      28.070  30.171  21.320  1.00  0.00    -0.084 Cl
ENDBRANCH  18  21
ENDBRANCH  16  17
ENDBRANCH   4   6
ENDBRANCH   3   4
ENDBRANCH   2   3
ENDBRANCH   1   2
BRANCH   1  28
ATOM     28  O   UNL A   1      36.653  21.989  25.461  1.00  0.00    -0.458 OA
BRANCH  28  29
ATOM     29  C   UNL A   1      37.916  21.540  25.614  1.00  0.00     0.338 C 
ATOM     30  O   UNL A   1      38.385  20.491  25.191  1.00  0.00    -0.246 OA
BRANCH  29  31
ATOM     31  C   UNL A   1      38.699  22.598  26.282  1.00  0.00     0.060 A 
ATOM     32  C   UNL A   1      38.298  23.924  26.127  1.00  0.00     0.016 A 
ATOM     33  C   UNL A   1      39.886  22.315  26.952  1.00  0.00     0.016 A 
ATOM     34  C   UNL A   1      39.119  24.964  26.537  1.00  0.00     0.010 A 
ATOM     35  C   UNL A   1      40.643  23.368  27.486  1.00  0.00     0.010 A 
ATOM     36  C   UNL A   1      40.285  24.712  27.261  1.00  0.00    -0.014 A 
BRANCH  36  37
ATOM     37  C   UNL A   1      41.126  25.843  27.754  1.00  0.00     0.031 A 
ATOM     38  C   UNL A   1      40.534  26.879  28.672  1.00  0.00     0.074 A 
ATOM     39  C   UNL A   1      42.422  25.958  27.391  1.00  0.00     0.049 A 
ATOM     40  N   UNL A   1      40.967  28.081  28.944  1.00  0.00    -0.248 NA
ATOM     41  C   UNL A   1      39.280  26.524  29.357  1.00  0.00     0.031 C 
ATOM     42  C   UNL A   1      43.166  25.007  26.561  1.00  0.00     0.029 A 
ATOM     43  N   UNL A   1      43.351  26.933  27.673  1.00  0.00    -0.354 N 
ATOM     44  C   UNL A   1      39.982  28.669  29.729  1.00  0.00     0.074 A 
ATOM     45  C   UNL A   1      38.952  27.673  29.934  1.00  0.00     0.031 C 
ATOM     46  C   UNL A   1      44.437  25.412  26.446  1.00  0.00     0.029 A 
ATOM     47  C   UNL A   1      44.569  26.722  27.066  1.00  0.00     0.049 A 
ATOM     48  H   UNL A   1      43.163  27.707  28.252  1.00  0.00     0.167 HD
ATOM     49  C   UNL A   1      39.943  29.928  30.222  1.00  0.00     0.034 A 
ATOM     50  C   UNL A   1      45.650  27.518  26.943  1.00  0.00     0.034 A 
ATOM     51  C   UNL A   1      41.024  30.869  30.107  1.00  0.00     0.049 A 
ATOM     52  C   UNL A   1      45.593  28.905  27.512  1.00  0.00     0.074 A 
ATOM     53  C   UNL A   1      41.091  32.169  30.581  1.00  0.00     0.029 A 
ATOM     54  N   UNL A   1      42.243  30.602  29.504  1.00  0.00    -0.354 N 
ATOM     55  N   UNL A   1      44.631  29.474  28.196  1.00  0.00    -0.248 NA
ATOM     56  C   UNL A   1      46.758  29.768  27.273  1.00  0.00     0.031 C 
ATOM     57  C   UNL A   1      42.355  32.681  30.272  1.00  0.00     0.029 A 
ATOM     58  C   UNL A   1      43.075  31.702  29.606  1.00  0.00     0.049 A 
ATOM     59  H   UNL A   1      42.482  29.752  29.068  1.00  0.00     0.167 HD
ATOM     60  C   UNL A   1      45.069  30.764  28.463  1.00  0.00     0.074 A 
ATOM     61  C   UNL A   1      46.401  30.879  27.904  1.00  0.00     0.031 C 
ATOM     62  C   UNL A   1      44.413  31.776  29.082  1.00  0.00     0.034 A 
BRANCH  49  63
ATOM     63  C   UNL A   1      38.694  30.365  30.937  1.00  0.00     0.023 A 
ATOM     64  C   UNL A   1      38.553  30.130  32.318  1.00  0.00     0.012 A 
ATOM     65  C   UNL A   1      37.684  31.066  30.246  1.00  0.00     0.148 A 
ATOM     66  C   UNL A   1      37.417  30.570  32.999  1.00  0.00     0.002 A 
ATOM     67  C   UNL A   1      36.571  31.532  30.939  1.00  0.00     0.091 A 
ATOM     68  F   UNL A   1      37.822  31.253  28.926  1.00  0.00    -0.205 F 
ATOM     69  C   UNL A   1      36.433  31.278  32.312  1.00  0.00     0.022 A 
BRANCH  67  70
ATOM     70  S   UNL A   1      35.294  32.514  30.144  1.00  0.00     0.127 S 
ATOM     71  O   UNL A   1      36.045  33.696  29.725  1.00  0.00    -0.237 OA
ATOM     72  O   UNL A   1      34.867  31.645  29.046  1.00  0.00    -0.237 OA
ATOM     73  O   UNL A   1      34.278  32.738  31.162  1.00  0.00    -0.744 OA
ENDBRANCH  67  70
ENDBRANCH  49  63
BRANCH  50  74
ATOM     74  C   UNL A   1      46.852  27.020  26.216  1.00  0.00     0.023 A 
ATOM     75  C   UNL A   1      46.998  27.302  24.845  1.00  0.00     0.012 A 
ATOM     76  C   UNL A   1      47.892  26.348  26.890  1.00  0.00     0.148 A 
ATOM     77  C   UNL A   1      48.159  26.929  24.162  1.00  0.00     0.002 A 
ATOM     78  C   UNL A   1      49.075  26.048  26.223  1.00  0.00     0.091 A 
ATOM     79  F   UNL A   1      47.726  26.046  28.186  1.00  0.00    -0.205 F 
ATOM     80  C   UNL A   1      49.205  26.323  24.855  1.00  0.00     0.022 A 
BRANCH  78  81
ATOM     81  S   UNL A   1      50.518  25.452  27.112  1.00  0.00     0.127 S 
ATOM     82  O   UNL A   1      50.788  26.555  28.030  1.00  0.00    -0.237 OA
ATOM     83  O   UNL A   1      50.016  24.233  27.747  1.00  0.00    -0.237 OA
ATOM     84  O   UNL A   1      51.518  25.209  26.080  1.00  0.00    -0.744 OA
ENDBRANCH  78  81
ENDBRANCH  50  74
BRANCH  62  85
ATOM     85  C   UNL A   1      45.127  33.093  29.186  1.00  0.00     0.023 A 
ATOM     86  C   UNL A   1      46.015  33.310  30.257  1.00  0.00     0.012 A 
ATOM     87  C   UNL A   1      44.974  34.082  28.197  1.00  0.00     0.148 A 
ATOM     88  C   UNL A   1      46.728  34.504  30.354  1.00  0.00     0.002 A 
ATOM     89  C   UNL A   1      45.713  35.256  28.281  1.00  0.00     0.091 A 
ATOM     90  F   UNL A   1      44.104  33.863  27.200  1.00  0.00    -0.205 F 
ATOM     91  C   UNL A   1      46.585  35.471  29.361  1.00  0.00     0.022 A 
BRANCH  89  92
ATOM     92  S   UNL A   1      45.642  36.521  27.007  1.00  0.00     0.127 S 
ATOM     93  O   UNL A   1      44.202  36.740  26.886  1.00  0.00    -0.237 OA
ATOM     94  O   UNL A   1      46.378  37.627  27.621  1.00  0.00    -0.237 OA
ATOM     95  O   UNL A   1      46.292  35.942  25.840  1.00  0.00    -0.744 OA
ENDBRANCH  89  92
ENDBRANCH  62  85
ENDBRANCH  36  37
ENDBRANCH  29  31
ENDBRANCH  28  29
ENDBRANCH   1  28
TORSDOF 16
ENDMDL
MODEL 2
REMARK VINA RESULT:     -12.9      5.180     10.013
REMARK SMILES CC1(C)[C@@]2(C(=O)OCCOC(=O)c3ccc(-c4c5nc(c(-c6cccc(S(=O)(=O)[O-])c6F)c6ccc([nH]6)c(-c6cccc(S(=O)(=O)[O-])c6F)c6nc(c(-c7cccc(S(=O)(=O)[O-])c7F)c7ccc4[nH]7)C=C6)C=C5)cc3)CC[C@]1(C)/C(=N/NC(=O)c1ccc(Cl)cc1)C2
REMARK SMILES IDX 9 1 8 2 7 3 5 4 6 5 4 6 1 7 2 8 3 9 78 10 76 11 92 12 77 13
REMARK SMILES IDX 79 14 80 15 81 16 82 17 83 18 84 20 85 21 86 22 91 23 87 24
REMARK SMILES IDX 90 25 88 26 89 27 10 28 11 29 12 30 13 31 14 32 75 33 15 34
REMARK SMILES IDX 74 35 16 36 17 37 18 38 68 39 19 40 73 41 67 42 69 43 20 44
REMARK SMILES IDX 72 45 66 46 65 47 21 49 53 50 33 51 52 52 34 53 37 54 51 55
REMARK SMILES IDX 70 56 35 57 36 58 50 60 71 61 38 62 22 63 23 64 31 65 24 66
REMARK SMILES IDX 26 67 32 68 25 69 27 70 28 71 29 72 30 73 54 74 55 75 63 76
REMARK SMILES IDX 56 77 58 78 64 79 57 80 59 81 60 82 61 83 62 84 39 85 40 86
REMARK SMILES IDX 48 87 41 88 43 89 49 90 42 91 44 92 45 93 46 94 47 95
REMARK H PARENT 82 19 69 48 37 59
REMARK Flexibility Score: inf
ROOT
ATOM      1  C   UNL A   1      31.903  29.759  26.700  1.00  0.00     0.275 C 
ENDROOT
BRANCH   1   2
ATOM      2  C   UNL A   1      31.821  28.497  27.557  1.00  0.00     0.274 C 
BRANCH   2   3
ATOM      3  O   UNL A   1      32.318  27.364  26.809  1.00  0.00    -0.462 OA
BRANCH   3   4
ATOM      4  C   UNL A   1      31.406  26.548  26.210  1.00  0.00     0.313 C 
ATOM      5  O   UNL A   1      30.312  26.263  26.676  1.00  0.00    -0.252 OA
BRANCH   4   6
ATOM      6  C   UNL A   1      31.979  25.900  24.961  1.00  0.00     0.079 C 
ATOM      7  C   UNL A   1      30.923  27.462  23.163  1.00  0.00     0.013 C 
ATOM      8  C   UNL A   1      32.179  26.716  23.649  1.00  0.00    -0.008 C 
ATOM      9  C   UNL A   1      33.351  27.726  23.670  1.00  0.00     0.013 C 
ATOM     10  C   UNL A   1      32.543  25.423  22.836  1.00  0.00     0.014 C 
ATOM     11  C   UNL A   1      30.983  24.772  24.527  1.00  0.00     0.021 C 
ATOM     12  C   UNL A   1      33.376  25.269  25.163  1.00  0.00     0.073 C 
ATOM     13  C   UNL A   1      31.352  24.483  23.065  1.00  0.00     0.014 C 
ATOM     14  C   UNL A   1      32.920  25.618  21.383  1.00  0.00     0.018 C 
ATOM     15  C   UNL A   1      33.649  24.836  23.749  1.00  0.00     0.046 C 
ATOM     16  N   UNL A   1      34.613  24.134  23.247  1.00  0.00    -0.181 NA
BRANCH  16  17
ATOM     17  N   UNL A   1      35.706  23.693  23.925  1.00  0.00    -0.243 N 
ATOM     18  C   UNL A   1      36.030  22.571  24.655  1.00  0.00     0.271 C 
ATOM     19  H   UNL A   1      36.451  24.336  23.883  1.00  0.00     0.194 HD
ATOM     20  O   UNL A   1      37.119  22.511  25.230  1.00  0.00    -0.267 OA
BRANCH  18  21
ATOM     21  C   UNL A   1      35.152  21.399  24.763  1.00  0.00     0.041 A 
ATOM     22  C   UNL A   1      33.769  21.633  24.851  1.00  0.00     0.015 A 
ATOM     23  C   UNL A   1      35.651  20.092  24.746  1.00  0.00     0.015 A 
ATOM     24  C   UNL A   1      32.878  20.559  24.833  1.00  0.00     0.021 A 
ATOM     25  C   UNL A   1      34.753  19.018  24.743  1.00  0.00     0.021 A 
ATOM     26  C   UNL A   1      33.376  19.257  24.764  1.00  0.00     0.041 A 
ATOM     27  Cl  UNL A   1      32.278  17.936  24.668  1.00  0.00    -0.084 Cl
ENDBRANCH  18  21
ENDBRANCH  16  17
ENDBRANCH   4   6
ENDBRANCH   3   4
ENDBRANCH   2   3
ENDBRANCH   1   2
BRANCH   1  28
ATOM     28  O   UNL A   1      33.290  30.112  26.599  1.00  0.00    -0.458 OA
BRANCH  28  29
ATOM     29  C   UNL A   1      33.703  31.209  27.265  1.00  0.00     0.338 C 
ATOM     30  O   UNL A   1      33.049  32.214  27.515  1.00  0.00    -0.246 OA
BRANCH  29  31
ATOM     31  C   UNL A   1      35.066  30.950  27.771  1.00  0.00     0.060 A 
ATOM     32  C   UNL A   1      35.407  29.648  28.133  1.00  0.00     0.016 A 
ATOM     33  C   UNL A   1      35.966  31.985  28.008  1.00  0.00     0.016 A 
ATOM     34  C   UNL A   1      36.583  29.390  28.821  1.00  0.00     0.010 A 
ATOM     35  C   UNL A   1      37.214  31.696  28.580  1.00  0.00     0.010 A 
ATOM     36  C   UNL A   1      37.530  30.396  29.023  1.00  0.00    -0.014 A 
BRANCH  36  37
ATOM     37  C   UNL A   1      38.821  30.091  29.707  1.00  0.00     0.031 A 
ATOM     38  C   UNL A   1      39.817  29.166  29.061  1.00  0.00     0.074 A 
ATOM     39  C   UNL A   1      39.119  30.634  30.907  1.00  0.00     0.049 A 
ATOM     40  N   UNL A   1      40.815  28.522  29.604  1.00  0.00    -0.248 NA
ATOM     41  C   UNL A   1      39.656  28.915  27.618  1.00  0.00     0.031 C 
ATOM     42  C   UNL A   1      38.294  31.599  31.639  1.00  0.00     0.029 A 
ATOM     43  N   UNL A   1      40.205  30.450  31.732  1.00  0.00    -0.354 N 
ATOM     44  C   UNL A   1      41.324  27.700  28.606  1.00  0.00     0.074 A 
ATOM     45  C   UNL A   1      40.556  27.964  27.407  1.00  0.00     0.031 C 
ATOM     46  C   UNL A   1      38.920  31.960  32.766  1.00  0.00     0.029 A 
ATOM     47  C   UNL A   1      40.119  31.148  32.916  1.00  0.00     0.049 A 
ATOM     48  H   UNL A   1      40.969  29.874  31.498  1.00  0.00     0.167 HD
ATOM     49  C   UNL A   1      42.332  26.802  28.690  1.00  0.00     0.034 A 
ATOM     50  C   UNL A   1      40.866  31.091  34.036  1.00  0.00     0.034 A 
ATOM     51  C   UNL A   1      43.159  26.631  29.854  1.00  0.00     0.049 A 
ATOM     52  C   UNL A   1      41.990  30.100  34.105  1.00  0.00     0.074 A 
ATOM     53  C   UNL A   1      44.216  25.756  30.041  1.00  0.00     0.029 A 
ATOM     54  N   UNL A   1      43.047  27.376  31.018  1.00  0.00    -0.354 N 
ATOM     55  N   UNL A   1      42.421  29.280  33.178  1.00  0.00    -0.248 NA
ATOM     56  C   UNL A   1      42.717  30.008  35.378  1.00  0.00     0.031 C 
ATOM     57  C   UNL A   1      44.748  25.980  31.315  1.00  0.00     0.029 A 
ATOM     58  C   UNL A   1      44.022  26.993  31.922  1.00  0.00     0.049 A 
ATOM     59  H   UNL A   1      42.373  28.075  31.177  1.00  0.00     0.167 HD
ATOM     60  C   UNL A   1      43.463  28.569  33.756  1.00  0.00     0.074 A 
ATOM     61  C   UNL A   1      43.627  29.084  35.101  1.00  0.00     0.031 C 
ATOM     62  C   UNL A   1      44.195  27.553  33.236  1.00  0.00     0.034 A 
BRANCH  49  63
ATOM     63  C   UNL A   1      42.604  25.934  27.492  1.00  0.00     0.023 A 
ATOM     64  C   UNL A   1      43.402  26.418  26.438  1.00  0.00     0.012 A 
ATOM     65  C   UNL A   1      42.116  24.612  27.442  1.00  0.00     0.148 A 
ATOM     66  C   UNL A   1      43.695  25.605  25.342  1.00  0.00     0.002 A 
ATOM     67  C   UNL A   1      42.442  23.797  26.363  1.00  0.00     0.091 A 
ATOM     68  F   UNL A   1      41.332  24.180  28.440  1.00  0.00    -0.205 F 
ATOM     69  C   UNL A   1      43.225  24.294  25.310  1.00  0.00     0.022 A 
BRANCH  67  70
ATOM     70  S   UNL A   1      41.935  22.075  26.280  1.00  0.00     0.127 S 
ATOM     71  O   UNL A   1      42.702  21.595  25.131  1.00  0.00    -0.237 OA
ATOM     72  O   UNL A   1      42.384  21.553  27.571  1.00  0.00    -0.237 OA
ATOM     73  O   UNL A   1      40.489  22.097  26.110  1.00  0.00    -0.744 OA
ENDBRANCH  67  70
ENDBRANCH  49  63
BRANCH  50  74
ATOM     74  C   UNL A   1      40.534  31.978  35.188  1.00  0.00     0.023 A 
ATOM     75  C   UNL A   1      41.240  33.184  35.358  1.00  0.00     0.012 A 
ATOM     76  C   UNL A   1      39.468  31.681  36.061  1.00  0.00     0.148 A 
ATOM     77  C   UNL A   1      40.886  34.078  36.372  1.00  0.00     0.002 A 
ATOM     78  C   UNL A   1      39.073  32.609  37.018  1.00  0.00     0.091 A 
ATOM     79  F   UNL A   1      38.830  30.511  35.918  1.00  0.00    -0.205 F 
ATOM     80  C   UNL A   1      39.790  33.801  37.186  1.00  0.00     0.022 A 
BRANCH  78  81
ATOM     81  S   UNL A   1      37.554  32.390  37.953  1.00  0.00     0.127 S 
ATOM     82  O   UNL A   1      37.850  33.111  39.187  1.00  0.00    -0.237 OA
ATOM     83  O   UNL A   1      36.558  33.028  37.091  1.00  0.00    -0.237 OA
ATOM     84  O   UNL A   1      37.393  30.946  38.069  1.00  0.00    -0.744 OA
ENDBRANCH  78  81
ENDBRANCH  50  74
BRANCH  62  85
ATOM     85  C   UNL A   1      45.236  26.934  34.123  1.00  0.00     0.023 A 
ATOM     86  C   UNL A   1      46.548  27.447  34.103  1.00  0.00     0.012 A 
ATOM     87  C   UNL A   1      44.907  25.899  35.017  1.00  0.00     0.148 A 
ATOM     88  C   UNL A   1      47.523  26.924  34.950  1.00  0.00     0.002 A 
ATOM     89  C   UNL A   1      45.876  25.405  35.883  1.00  0.00     0.091 A 
ATOM     90  F   UNL A   1      43.657  25.410  34.999  1.00  0.00    -0.205 F 
ATOM     91  C   UNL A   1      47.185  25.912  35.846  1.00  0.00     0.022 A 
BRANCH  89  92
ATOM     92  S   UNL A   1      45.505  24.153  37.115  1.00  0.00     0.127 S 
ATOM     93  O   UNL A   1      45.083  23.030  36.280  1.00  0.00    -0.237 OA
ATOM     94  O   UNL A   1      46.797  23.970  37.778  1.00  0.00    -0.237 OA
ATOM     95  O   UNL A   1      44.471  24.729  37.964  1.00  0.00    -0.744 OA
ENDBRANCH  89  92
ENDBRANCH  62  85
ENDBRANCH  36  37
ENDBRANCH  29  31
ENDBRANCH  28  29
ENDBRANCH   1  28
TORSDOF 16
ENDMDL
MODEL 3
REMARK VINA RESULT:     -12.9      2.164      7.889
REMARK SMILES CC1(C)[C@@]2(C(=O)OCCOC(=O)c3ccc(-c4c5nc(c(-c6cccc(S(=O)(=O)[O-])c6F)c6ccc([nH]6)c(-c6cccc(S(=O)(=O)[O-])c6F)c6nc(c(-c7cccc(S(=O)(=O)[O-])c7F)c7ccc4[nH]7)C=C6)C=C5)cc3)CC[C@]1(C)/C(=N/NC(=O)c1ccc(Cl)cc1)C2
REMARK SMILES IDX 9 1 8 2 7 3 5 4 6 5 4 6 1 7 2 8 3 9 78 10 76 11 92 12 77 13
REMARK SMILES IDX 79 14 80 15 81 16 82 17 83 18 84 20 85 21 86 22 91 23 87 24
REMARK SMILES IDX 90 25 88 26 89 27 10 28 11 29 12 30 13 31 14 32 75 33 15 34
REMARK SMILES IDX 74 35 16 36 17 37 18 38 68 39 19 40 73 41 67 42 69 43 20 44
REMARK SMILES IDX 72 45 66 46 65 47 21 49 53 50 33 51 52 52 34 53 37 54 51 55
REMARK SMILES IDX 70 56 35 57 36 58 50 60 71 61 38 62 22 63 23 64 31 65 24 66
REMARK SMILES IDX 26 67 32 68 25 69 27 70 28 71 29 72 30 73 54 74 55 75 63 76
REMARK SMILES IDX 56 77 58 78 64 79 57 80 59 81 60 82 61 83 62 84 39 85 40 86
REMARK SMILES IDX 48 87 41 88 43 89 49 90 42 91 44 92 45 93 46 94 47 95
REMARK H PARENT 82 19 69 48 37 59
REMARK Flexibility Score: inf
ROOT
ATOM      1  C   UNL A   1      38.853  19.182  25.739  1.00  0.00     0.275 C 
ENDROOT
BRANCH   1   2
ATOM      2  C   UNL A   1      37.995  19.956  24.740  1.00  0.00     0.274 C 
BRANCH   2   3
ATOM      3  O   UNL A   1      36.730  20.303  25.348  1.00  0.00    -0.462 OA
BRANCH   3   4
ATOM      4  C   UNL A   1      36.368  21.617  25.359  1.00  0.00     0.313 C 
ATOM      5  O   UNL A   1      37.079  22.532  25.751  1.00  0.00    -0.252 OA
BRANCH   4   6
ATOM      6  C   UNL A   1      34.909  21.793  24.975  1.00  0.00     0.079 C 
ATOM      7  C   UNL A   1      33.843  21.694  27.350  1.00  0.00     0.013 C 
ATOM      8  C   UNL A   1      33.879  22.392  25.978  1.00  0.00    -0.008 C 
ATOM      9  C   UNL A   1      34.004  23.915  26.225  1.00  0.00     0.013 C 
ATOM     10  C   UNL A   1      32.676  22.057  25.027  1.00  0.00     0.014 C 
ATOM     11  C   UNL A   1      34.332  20.366  24.686  1.00  0.00     0.021 C 
ATOM     12  C   UNL A   1      34.689  22.674  23.724  1.00  0.00     0.073 C 
ATOM     13  C   UNL A   1      32.810  20.551  24.763  1.00  0.00     0.014 C 
ATOM     14  C   UNL A   1      31.302  22.495  25.489  1.00  0.00     0.018 C 
ATOM     15  C   UNL A   1      33.186  22.702  23.714  1.00  0.00     0.046 C 
ATOM     16  N   UNL A   1      32.351  23.181  22.848  1.00  0.00    -0.181 NA
BRANCH  16  17
ATOM     17  N   UNL A   1      32.684  23.891  21.738  1.00  0.00    -0.243 N 
ATOM     18  C   UNL A   1      32.747  25.225  21.400  1.00  0.00     0.271 C 
ATOM     19  H   UNL A   1      32.944  23.306  20.990  1.00  0.00     0.194 HD
ATOM     20  O   UNL A   1      33.019  25.548  20.241  1.00  0.00    -0.267 OA
BRANCH  18  21
ATOM     21  C   UNL A   1      32.541  26.311  22.365  1.00  0.00     0.041 A 
ATOM     22  C   UNL A   1      31.321  27.006  22.306  1.00  0.00     0.015 A 
ATOM     23  C   UNL A   1      33.495  26.635  23.336  1.00  0.00     0.015 A 
ATOM     24  C   UNL A   1      31.018  27.965  23.274  1.00  0.00     0.021 A 
ATOM     25  C   UNL A   1      33.192  27.607  24.295  1.00  0.00     0.021 A 
ATOM     26  C   UNL A   1      31.950  28.250  24.272  1.00  0.00     0.041 A 
ATOM     27  Cl  UNL A   1      31.549  29.378  25.507  1.00  0.00    -0.084 Cl
ENDBRANCH  18  21
ENDBRANCH  16  17
ENDBRANCH   4   6
ENDBRANCH   3   4
ENDBRANCH   2   3
ENDBRANCH   1   2
BRANCH   1  28
ATOM     28  O   UNL A   1      40.138  19.818  25.774  1.00  0.00    -0.458 OA
BRANCH  28  29
ATOM     29  C   UNL A   1      40.749  19.923  26.972  1.00  0.00     0.338 C 
ATOM     30  O   UNL A   1      41.134  19.008  27.689  1.00  0.00    -0.246 OA
BRANCH  29  31
ATOM     31  C   UNL A   1      41.000  21.354  27.233  1.00  0.00     0.060 A 
ATOM     32  C   UNL A   1      40.323  22.301  26.466  1.00  0.00     0.016 A 
ATOM     33  C   UNL A   1      41.978  21.772  28.132  1.00  0.00     0.016 A 
ATOM     34  C   UNL A   1      40.686  23.639  26.511  1.00  0.00     0.010 A 
ATOM     35  C   UNL A   1      42.244  23.142  28.272  1.00  0.00     0.010 A 
ATOM     36  C   UNL A   1      41.622  24.095  27.441  1.00  0.00    -0.014 A 
BRANCH  36  37
ATOM     37  C   UNL A   1      41.957  25.548  27.524  1.00  0.00     0.031 A 
ATOM     38  C   UNL A   1      43.230  26.064  26.910  1.00  0.00     0.074 A 
ATOM     39  C   UNL A   1      41.132  26.420  28.143  1.00  0.00     0.049 A 
ATOM     40  N   UNL A   1      43.861  27.185  27.143  1.00  0.00    -0.248 NA
ATOM     41  C   UNL A   1      43.893  25.198  25.921  1.00  0.00     0.031 C 
ATOM     42  C   UNL A   1      39.830  26.095  28.733  1.00  0.00     0.029 A 
ATOM     43  N   UNL A   1      41.266  27.767  28.385  1.00  0.00    -0.354 N 
ATOM     44  C   UNL A   1      45.050  27.105  26.428  1.00  0.00     0.074 A 
ATOM     45  C   UNL A   1      45.030  25.848  25.710  1.00  0.00     0.031 C 
ATOM     46  C   UNL A   1      39.266  27.209  29.216  1.00  0.00     0.029 A 
ATOM     47  C   UNL A   1      40.222  28.302  29.106  1.00  0.00     0.049 A 
ATOM     48  H   UNL A   1      42.035  28.298  28.073  1.00  0.00     0.167 HD
ATOM     49  C   UNL A   1      46.065  27.999  26.385  1.00  0.00     0.034 A 
ATOM     50  C   UNL A   1      40.071  29.507  29.690  1.00  0.00     0.034 A 
ATOM     51  C   UNL A   1      46.023  29.292  27.011  1.00  0.00     0.049 A 
ATOM     52  C   UNL A   1      41.201  30.490  29.618  1.00  0.00     0.074 A 
ATOM     53  C   UNL A   1      46.994  30.279  27.020  1.00  0.00     0.029 A 
ATOM     54  N   UNL A   1      44.936  29.796  27.710  1.00  0.00    -0.354 N 
ATOM     55  N   UNL A   1      42.349  30.380  28.994  1.00  0.00    -0.248 NA
ATOM     56  C   UNL A   1      41.030  31.754  30.347  1.00  0.00     0.031 C 
ATOM     57  C   UNL A   1      46.489  31.382  27.717  1.00  0.00     0.029 A 
ATOM     58  C   UNL A   1      45.204  31.082  28.142  1.00  0.00     0.049 A 
ATOM     59  H   UNL A   1      44.096  29.309  27.873  1.00  0.00     0.167 HD
ATOM     60  C   UNL A   1      43.040  31.554  29.261  1.00  0.00     0.074 A 
ATOM     61  C   UNL A   1      42.165  32.381  30.069  1.00  0.00     0.031 C 
ATOM     62  C   UNL A   1      44.300  31.902  28.904  1.00  0.00     0.034 A 
BRANCH  49  63
ATOM     63  C   UNL A   1      47.311  27.614  25.634  1.00  0.00     0.023 A 
ATOM     64  C   UNL A   1      48.353  26.937  26.298  1.00  0.00     0.012 A 
ATOM     65  C   UNL A   1      47.419  27.869  24.253  1.00  0.00     0.148 A 
ATOM     66  C   UNL A   1      49.493  26.538  25.601  1.00  0.00     0.002 A 
ATOM     67  C   UNL A   1      48.543  27.436  23.557  1.00  0.00     0.091 A 
ATOM     68  F   UNL A   1      46.431  28.541  23.645  1.00  0.00    -0.205 F 
ATOM     69  C   UNL A   1      49.584  26.778  24.231  1.00  0.00     0.022 A 
BRANCH  67  70
ATOM     70  S   UNL A   1      48.706  27.642  21.780  1.00  0.00     0.127 S 
ATOM     71  O   UNL A   1      49.537  28.842  21.694  1.00  0.00    -0.237 OA
ATOM     72  O   UNL A   1      49.380  26.405  21.381  1.00  0.00    -0.237 OA
ATOM     73  O   UNL A   1      47.347  27.775  21.273  1.00  0.00    -0.744 OA
ENDBRANCH  67  70
ENDBRANCH  49  63
BRANCH  50  74
ATOM     74  C   UNL A   1      38.810  29.818  30.423  1.00  0.00     0.023 A 
ATOM     75  C   UNL A   1      38.681  29.434  31.771  1.00  0.00     0.012 A 
ATOM     76  C   UNL A   1      37.778  30.567  29.824  1.00  0.00     0.148 A 
ATOM     77  C   UNL A   1      37.550  29.795  32.507  1.00  0.00     0.002 A 
ATOM     78  C   UNL A   1      36.692  30.988  30.584  1.00  0.00     0.091 A 
ATOM     79  F   UNL A   1      37.891  30.892  28.528  1.00  0.00    -0.205 F 
ATOM     80  C   UNL A   1      36.568  30.590  31.921  1.00  0.00     0.022 A 
BRANCH  78  81
ATOM     81  S   UNL A   1      35.506  32.172  29.934  1.00  0.00     0.127 S 
ATOM     82  O   UNL A   1      36.362  33.305  29.596  1.00  0.00    -0.237 OA
ATOM     83  O   UNL A   1      34.946  31.459  28.785  1.00  0.00    -0.237 OA
ATOM     84  O   UNL A   1      34.555  32.380  31.019  1.00  0.00    -0.744 OA
ENDBRANCH  78  81
ENDBRANCH  50  74
BRANCH  62  85
ATOM     85  C   UNL A   1      44.806  33.232  29.384  1.00  0.00     0.023 A 
ATOM     86  C   UNL A   1      45.546  33.294  30.580  1.00  0.00     0.012 A 
ATOM     87  C   UNL A   1      44.610  34.401  28.625  1.00  0.00     0.148 A 
ATOM     88  C   UNL A   1      46.069  34.507  31.026  1.00  0.00     0.002 A 
ATOM     89  C   UNL A   1      45.163  35.601  29.057  1.00  0.00     0.091 A 
ATOM     90  F   UNL A   1      43.880  34.321  27.501  1.00  0.00    -0.205 F 
ATOM     91  C   UNL A   1      45.886  35.656  30.260  1.00  0.00     0.022 A 
BRANCH  89  92
ATOM     92  S   UNL A   1      45.036  37.111  28.094  1.00  0.00     0.127 S 
ATOM     93  O   UNL A   1      45.434  38.122  29.072  1.00  0.00    -0.237 OA
ATOM     94  O   UNL A   1      46.006  36.883  27.022  1.00  0.00    -0.237 OA
ATOM     95  O   UNL A   1      43.652  37.178  27.646  1.00  0.00    -0.744 OA
ENDBRANCH  89  92
ENDBRANCH  62  85
ENDBRANCH  36  37
ENDBRANCH  29  31
ENDBRANCH  28  29
ENDBRANCH   1  28
TORSDOF 16
ENDMDL
