MODEL 1
REMARK VINA RESULT:     -13.1      0.000      0.000
REMARK SMILES O=C(OCCOC(=O)[C@H]1CC2=c3ccccc3=N[C@H]2[C@@H](c2ccccc2)[NH2+]1)c1ccc(-c2c3nc(c(-c4cccc(S(=O)(=O)[O-])c4F)c4ccc([nH]4)c(-c4cccc(S(=O)(=O)[O-])c4F)c4nc(c(-c5cccc(S(=O)(=O)[O-])c5F)c5ccc2[nH]5)C=C4)C=C3)cc1
REMARK SMILES IDX 4 1 3 2 2 3 1 4 28 5 29 6 90 7 30 8 89 9 31 10 32 11 33 12
REMARK SMILES IDX 83 13 34 14 88 15 82 16 84 17 35 18 87 19 81 20 80 21 36 23
REMARK SMILES IDX 68 24 48 25 67 26 49 27 52 28 66 29 85 30 50 31 51 32 65 34
REMARK SMILES IDX 86 35 53 36 37 37 38 38 46 39 39 40 41 41 47 42 40 43 42 44
REMARK SMILES IDX 43 45 44 46 45 47 69 48 70 49 78 50 71 51 73 52 79 53 72 54
REMARK SMILES IDX 74 55 75 56 76 57 77 58 54 59 55 60 63 61 56 62 58 63 64 64
REMARK SMILES IDX 57 65 59 66 60 67 61 68 62 69 5 70 6 71 7 72 8 73 9 74 10 75
REMARK SMILES IDX 27 76 11 77 20 78 12 81 19 82 13 83 17 84 18 85 14 86 16 87
REMARK SMILES IDX 15 88 21 89 22 90 26 91 23 92 25 93 24 94
REMARK H PARENT 84 22 52 33 27 79 27 80
REMARK Flexibility Score: inf
ROOT
ATOM      1  C   UNL A   1      38.731  19.621  25.846  1.00  0.00     0.275 C 
ENDROOT
BRANCH   1   2
ATOM      2  O   UNL A   1      40.012  19.034  25.549  1.00  0.00    -0.458 OA
BRANCH   2   3
ATOM      3  C   UNL A   1      41.223  19.444  26.014  1.00  0.00     0.338 C 
ATOM      4  O   UNL A   1      42.117  18.617  26.170  1.00  0.00    -0.246 OA
BRANCH   3   5
ATOM      5  C   UNL A   1      41.401  20.818  26.583  1.00  0.00     0.060 A 
ATOM      6  C   UNL A   1      41.644  21.824  25.654  1.00  0.00     0.016 A 
ATOM      7  C   UNL A   1      41.423  21.165  27.943  1.00  0.00     0.016 A 
ATOM      8  C   UNL A   1      42.083  23.074  26.090  1.00  0.00     0.010 A 
ATOM      9  C   UNL A   1      41.915  22.415  28.382  1.00  0.00     0.010 A 
ATOM     10  C   UNL A   1      42.322  23.372  27.459  1.00  0.00    -0.014 A 
BRANCH  10  11
ATOM     11  C   UNL A   1      42.846  24.732  27.833  1.00  0.00     0.031 A 
ATOM     12  C   UNL A   1      44.292  25.237  27.618  1.00  0.00     0.074 A 
ATOM     13  C   UNL A   1      41.874  25.599  28.174  1.00  0.00     0.049 A 
ATOM     14  N   UNL A   1      44.725  26.482  27.533  1.00  0.00    -0.248 NA
ATOM     15  C   UNL A   1      45.376  24.265  27.400  1.00  0.00     0.031 C 
ATOM     16  C   UNL A   1      40.461  25.237  28.368  1.00  0.00     0.029 A 
ATOM     17  N   UNL A   1      41.901  26.949  28.372  1.00  0.00    -0.354 N 
ATOM     18  C   UNL A   1      46.050  26.438  27.049  1.00  0.00     0.074 A 
ATOM     19  C   UNL A   1      46.397  25.035  27.011  1.00  0.00     0.031 C 
ATOM     20  C   UNL A   1      39.757  26.339  28.634  1.00  0.00     0.029 A 
ATOM     21  C   UNL A   1      40.679  27.459  28.728  1.00  0.00     0.049 A 
ATOM     22  H   UNL A   1      42.712  27.499  28.269  1.00  0.00     0.167 HD
ATOM     23  C   UNL A   1      46.820  27.485  26.617  1.00  0.00     0.034 A 
ATOM     24  C   UNL A   1      40.340  28.680  29.168  1.00  0.00     0.034 A 
ATOM     25  C   UNL A   1      46.428  28.866  26.827  1.00  0.00     0.049 A 
ATOM     26  C   UNL A   1      41.380  29.737  29.153  1.00  0.00     0.074 A 
ATOM     27  C   UNL A   1      47.140  30.018  26.529  1.00  0.00     0.029 A 
ATOM     28  N   UNL A   1      45.257  29.275  27.441  1.00  0.00    -0.354 N 
ATOM     29  N   UNL A   1      42.539  29.708  28.544  1.00  0.00    -0.248 NA
ATOM     30  C   UNL A   1      41.087  30.981  29.864  1.00  0.00     0.031 C 
ATOM     31  C   UNL A   1      46.410  31.117  26.974  1.00  0.00     0.029 A 
ATOM     32  C   UNL A   1      45.270  30.647  27.603  1.00  0.00     0.049 A 
ATOM     33  H   UNL A   1      44.525  28.678  27.720  1.00  0.00     0.167 HD
ATOM     34  C   UNL A   1      43.115  30.940  28.787  1.00  0.00     0.074 A 
ATOM     35  C   UNL A   1      42.175  31.693  29.594  1.00  0.00     0.031 C 
ATOM     36  C   UNL A   1      44.319  31.395  28.376  1.00  0.00     0.034 A 
BRANCH  23  37
ATOM     37  C   UNL A   1      48.113  27.321  25.800  1.00  0.00     0.023 A 
ATOM     38  C   UNL A   1      49.240  26.796  26.496  1.00  0.00     0.012 A 
ATOM     39  C   UNL A   1      48.236  27.457  24.408  1.00  0.00     0.148 A 
ATOM     40  C   UNL A   1      50.462  26.521  25.875  1.00  0.00     0.002 A 
ATOM     41  C   UNL A   1      49.454  27.141  23.776  1.00  0.00     0.091 A 
ATOM     42  F   UNL A   1      47.175  27.881  23.708  1.00  0.00    -0.205 F 
ATOM     43  C   UNL A   1      50.571  26.704  24.509  1.00  0.00     0.022 A 
BRANCH  41  44
ATOM     44  S   UNL A   1      49.658  27.195  21.988  1.00  0.00     0.127 S 
ATOM     45  O   UNL A   1      51.039  26.757  21.833  1.00  0.00    -0.237 OA
ATOM     46  O   UNL A   1      48.655  26.242  21.515  1.00  0.00    -0.237 OA
ATOM     47  O   UNL A   1      49.383  28.584  21.620  1.00  0.00    -0.744 OA
ENDBRANCH  41  44
ENDBRANCH  23  37
BRANCH  24  48
ATOM     48  C   UNL A   1      38.996  28.836  29.768  1.00  0.00     0.023 A 
ATOM     49  C   UNL A   1      38.776  28.552  31.122  1.00  0.00     0.012 A 
ATOM     50  C   UNL A   1      37.996  29.494  29.015  1.00  0.00     0.148 A 
ATOM     51  C   UNL A   1      37.585  28.953  31.729  1.00  0.00     0.002 A 
ATOM     52  C   UNL A   1      36.845  29.941  29.639  1.00  0.00     0.091 A 
ATOM     53  F   UNL A   1      38.243  29.743  27.720  1.00  0.00    -0.205 F 
ATOM     54  C   UNL A   1      36.633  29.667  30.998  1.00  0.00     0.022 A 
BRANCH  52  55
ATOM     55  S   UNL A   1      35.655  30.999  28.807  1.00  0.00     0.127 S 
ATOM     56  O   UNL A   1      34.981  31.631  29.937  1.00  0.00    -0.237 OA
ATOM     57  O   UNL A   1      36.528  31.881  28.033  1.00  0.00    -0.237 OA
ATOM     58  O   UNL A   1      34.828  30.111  27.999  1.00  0.00    -0.744 OA
ENDBRANCH  52  55
ENDBRANCH  24  48
BRANCH  36  59
ATOM     59  C   UNL A   1      44.719  32.775  28.791  1.00  0.00     0.023 A 
ATOM     60  C   UNL A   1      45.422  32.950  29.996  1.00  0.00     0.012 A 
ATOM     61  C   UNL A   1      44.519  33.866  27.928  1.00  0.00     0.148 A 
ATOM     62  C   UNL A   1      45.919  34.203  30.342  1.00  0.00     0.002 A 
ATOM     63  C   UNL A   1      45.059  35.101  28.254  1.00  0.00     0.091 A 
ATOM     64  F   UNL A   1      43.834  33.666  26.792  1.00  0.00    -0.205 F 
ATOM     65  C   UNL A   1      45.752  35.274  29.464  1.00  0.00     0.022 A 
BRANCH  63  66
ATOM     66  S   UNL A   1      44.989  36.494  27.125  1.00  0.00     0.127 S 
ATOM     67  O   UNL A   1      45.390  37.598  27.993  1.00  0.00    -0.237 OA
ATOM     68  O   UNL A   1      45.974  36.121  26.108  1.00  0.00    -0.237 OA
ATOM     69  O   UNL A   1      43.615  36.540  26.640  1.00  0.00    -0.744 OA
ENDBRANCH  63  66
ENDBRANCH  36  59
ENDBRANCH  10  11
ENDBRANCH   3   5
ENDBRANCH   2   3
ENDBRANCH   1   2
BRANCH   1  70
ATOM     70  C   UNL A   1      37.815  19.806  24.627  1.00  0.00     0.274 C 
BRANCH  70  71
ATOM     71  O   UNL A   1      37.533  21.194  24.382  1.00  0.00    -0.458 OA
BRANCH  71  72
ATOM     72  C   UNL A   1      37.358  21.996  25.473  1.00  0.00     0.365 C 
ATOM     73  O   UNL A   1      38.268  22.484  26.130  1.00  0.00    -0.245 OA
BRANCH  72  74
ATOM     74  C   UNL A   1      35.870  22.362  25.633  1.00  0.00     0.298 C 
ATOM     75  C   UNL A   1      35.120  22.763  24.323  1.00  0.00     0.111 C 
ATOM     76  N   UNL A   1      35.181  21.341  26.504  1.00  0.00    -0.326 N 
ATOM     77  C   UNL A   1      33.698  23.193  24.658  1.00  0.00    -0.024 C 
ATOM     78  C   UNL A   1      33.739  21.149  26.117  1.00  0.00     0.243 C 
ATOM     79  H   UNL A   1      35.223  21.655  27.474  1.00  0.00     0.347 HD
ATOM     80  H   UNL A   1      35.662  20.450  26.382  1.00  0.00     0.347 HD
ATOM     81  C   UNL A   1      32.676  23.839  24.086  1.00  0.00     0.002 A 
ATOM     82  C   UNL A   1      33.244  22.638  25.983  1.00  0.00     0.196 C 
ATOM     83  C   UNL A   1      32.318  24.410  22.829  1.00  0.00     0.010 A 
ATOM     84  C   UNL A   1      31.654  23.826  25.162  1.00  0.00     0.066 A 
ATOM     85  N   UNL A   1      31.807  22.975  26.136  1.00  0.00    -0.270 NA
ATOM     86  C   UNL A   1      31.246  25.216  22.738  1.00  0.00     0.001 A 
ATOM     87  C   UNL A   1      30.573  24.839  25.049  1.00  0.00     0.028 A 
ATOM     88  C   UNL A   1      30.455  25.538  23.908  1.00  0.00     0.002 A 
BRANCH  78  89
ATOM     89  C   UNL A   1      33.662  20.240  24.860  1.00  0.00     0.012 A 
ATOM     90  C   UNL A   1      34.519  19.144  24.728  1.00  0.00     0.010 A 
ATOM     91  C   UNL A   1      32.557  20.309  23.978  1.00  0.00     0.010 A 
ATOM     92  C   UNL A   1      34.087  18.019  24.038  1.00  0.00     0.001 A 
ATOM     93  C   UNL A   1      32.155  19.196  23.241  1.00  0.00     0.001 A 
ATOM     94  C   UNL A   1      32.887  18.028  23.330  1.00  0.00     0.000 A 
ENDBRANCH  78  89
ENDBRANCH  72  74
ENDBRANCH  71  72
ENDBRANCH  70  71
ENDBRANCH   1  70
TORSDOF 15
ENDMDL
MODEL 2
REMARK VINA RESULT:     -13.0      1.465      2.310
REMARK SMILES O=C(OCCOC(=O)[C@H]1CC2=c3ccccc3=N[C@H]2[C@@H](c2ccccc2)[NH2+]1)c1ccc(-c2c3nc(c(-c4cccc(S(=O)(=O)[O-])c4F)c4ccc([nH]4)c(-c4cccc(S(=O)(=O)[O-])c4F)c4nc(c(-c5cccc(S(=O)(=O)[O-])c5F)c5ccc2[nH]5)C=C4)C=C3)cc1
REMARK SMILES IDX 4 1 3 2 2 3 1 4 28 5 29 6 90 7 30 8 89 9 31 10 32 11 33 12
REMARK SMILES IDX 83 13 34 14 88 15 82 16 84 17 35 18 87 19 81 20 80 21 36 23
REMARK SMILES IDX 68 24 48 25 67 26 49 27 52 28 66 29 85 30 50 31 51 32 65 34
REMARK SMILES IDX 86 35 53 36 37 37 38 38 46 39 39 40 41 41 47 42 40 43 42 44
REMARK SMILES IDX 43 45 44 46 45 47 69 48 70 49 78 50 71 51 73 52 79 53 72 54
REMARK SMILES IDX 74 55 75 56 76 57 77 58 54 59 55 60 63 61 56 62 58 63 64 64
REMARK SMILES IDX 57 65 59 66 60 67 61 68 62 69 5 70 6 71 7 72 8 73 9 74 10 75
REMARK SMILES IDX 27 76 11 77 20 78 12 81 19 82 13 83 17 84 18 85 14 86 16 87
REMARK SMILES IDX 15 88 21 89 22 90 26 91 23 92 25 93 24 94
REMARK H PARENT 84 22 52 33 27 79 27 80
REMARK Flexibility Score: inf
ROOT
ATOM      1  C   UNL A   1      37.573  20.235  24.618  1.00  0.00     0.275 C 
ENDROOT
BRANCH   1   2
ATOM      2  O   UNL A   1      38.340  19.960  25.805  1.00  0.00    -0.458 OA
BRANCH   2   3
ATOM      3  C   UNL A   1      39.674  20.169  25.978  1.00  0.00     0.338 C 
ATOM      4  O   UNL A   1      40.461  19.260  25.724  1.00  0.00    -0.246 OA
BRANCH   3   5
ATOM      5  C   UNL A   1      40.173  21.374  26.712  1.00  0.00     0.060 A 
ATOM      6  C   UNL A   1      39.779  22.601  26.186  1.00  0.00     0.016 A 
ATOM      7  C   UNL A   1      41.045  21.385  27.811  1.00  0.00     0.016 A 
ATOM      8  C   UNL A   1      40.398  23.771  26.627  1.00  0.00     0.010 A 
ATOM      9  C   UNL A   1      41.706  22.564  28.223  1.00  0.00     0.010 A 
ATOM     10  C   UNL A   1      41.444  23.773  27.588  1.00  0.00    -0.014 A 
BRANCH  10  11
ATOM     11  C   UNL A   1      42.090  25.079  27.967  1.00  0.00     0.031 A 
ATOM     12  C   UNL A   1      43.552  25.487  27.671  1.00  0.00     0.074 A 
ATOM     13  C   UNL A   1      41.208  26.001  28.397  1.00  0.00     0.049 A 
ATOM     14  N   UNL A   1      44.069  26.700  27.593  1.00  0.00    -0.248 NA
ATOM     15  C   UNL A   1      44.545  24.448  27.351  1.00  0.00     0.031 C 
ATOM     16  C   UNL A   1      39.788  25.734  28.674  1.00  0.00     0.029 A 
ATOM     17  N   UNL A   1      41.346  27.338  28.633  1.00  0.00    -0.354 N 
ATOM     18  C   UNL A   1      45.353  26.578  27.021  1.00  0.00     0.074 A 
ATOM     19  C   UNL A   1      45.593  25.157  26.918  1.00  0.00     0.031 C 
ATOM     20  C   UNL A   1      39.185  26.872  29.020  1.00  0.00     0.029 A 
ATOM     21  C   UNL A   1      40.190  27.920  29.085  1.00  0.00     0.049 A 
ATOM     22  H   UNL A   1      42.187  27.831  28.492  1.00  0.00     0.167 HD
ATOM     23  C   UNL A   1      46.168  27.582  26.570  1.00  0.00     0.034 A 
ATOM     24  C   UNL A   1      39.972  29.147  29.583  1.00  0.00     0.034 A 
ATOM     25  C   UNL A   1      45.892  28.980  26.846  1.00  0.00     0.049 A 
ATOM     26  C   UNL A   1      41.083  30.127  29.529  1.00  0.00     0.074 A 
ATOM     27  C   UNL A   1      46.666  30.088  26.535  1.00  0.00     0.029 A 
ATOM     28  N   UNL A   1      44.796  29.449  27.549  1.00  0.00    -0.354 N 
ATOM     29  N   UNL A   1      42.195  30.037  28.844  1.00  0.00    -0.248 NA
ATOM     30  C   UNL A   1      40.928  31.364  30.296  1.00  0.00     0.031 C 
ATOM     31  C   UNL A   1      46.049  31.220  27.061  1.00  0.00     0.029 A 
ATOM     32  C   UNL A   1      44.921  30.811  27.750  1.00  0.00     0.049 A 
ATOM     33  H   UNL A   1      44.042  28.897  27.859  1.00  0.00     0.167 HD
ATOM     34  C   UNL A   1      42.874  31.215  29.084  1.00  0.00     0.074 A 
ATOM     35  C   UNL A   1      42.045  32.005  29.975  1.00  0.00     0.031 C 
ATOM     36  C   UNL A   1      44.079  31.597  28.607  1.00  0.00     0.034 A 
BRANCH  23  37
ATOM     37  C   UNL A   1      47.389  27.355  25.663  1.00  0.00     0.023 A 
ATOM     38  C   UNL A   1      48.500  26.685  26.253  1.00  0.00     0.012 A 
ATOM     39  C   UNL A   1      47.444  27.569  24.277  1.00  0.00     0.148 A 
ATOM     40  C   UNL A   1      49.653  26.342  25.541  1.00  0.00     0.002 A 
ATOM     41  C   UNL A   1      48.588  27.186  23.551  1.00  0.00     0.091 A 
ATOM     42  F   UNL A   1      46.390  28.133  23.672  1.00  0.00    -0.205 F 
ATOM     43  C   UNL A   1      49.700  26.603  24.184  1.00  0.00     0.022 A 
BRANCH  41  44
ATOM     44  S   UNL A   1      48.692  27.337  21.759  1.00  0.00     0.127 S 
ATOM     45  O   UNL A   1      49.975  28.007  21.592  1.00  0.00    -0.237 OA
ATOM     46  O   UNL A   1      48.662  25.946  21.311  1.00  0.00    -0.237 OA
ATOM     47  O   UNL A   1      47.512  28.113  21.379  1.00  0.00    -0.744 OA
ENDBRANCH  41  44
ENDBRANCH  23  37
BRANCH  24  48
ATOM     48  C   UNL A   1      38.683  29.378  30.276  1.00  0.00     0.023 A 
ATOM     49  C   UNL A   1      38.504  28.984  31.608  1.00  0.00     0.012 A 
ATOM     50  C   UNL A   1      37.722  30.204  29.650  1.00  0.00     0.148 A 
ATOM     51  C   UNL A   1      37.396  29.441  32.322  1.00  0.00     0.002 A 
ATOM     52  C   UNL A   1      36.658  30.701  30.382  1.00  0.00     0.091 A 
ATOM     53  F   UNL A   1      37.928  30.554  28.371  1.00  0.00    -0.205 F 
ATOM     54  C   UNL A   1      36.488  30.316  31.720  1.00  0.00     0.022 A 
BRANCH  52  55
ATOM     55  S   UNL A   1      35.547  31.951  29.727  1.00  0.00     0.127 S 
ATOM     56  O   UNL A   1      36.486  32.975  29.280  1.00  0.00    -0.237 OA
ATOM     57  O   UNL A   1      34.871  31.220  28.655  1.00  0.00    -0.237 OA
ATOM     58  O   UNL A   1      34.680  32.334  30.834  1.00  0.00    -0.744 OA
ENDBRANCH  52  55
ENDBRANCH  24  48
BRANCH  36  59
ATOM     59  C   UNL A   1      44.605  32.931  29.035  1.00  0.00     0.023 A 
ATOM     60  C   UNL A   1      45.315  33.029  30.245  1.00  0.00     0.012 A 
ATOM     61  C   UNL A   1      44.514  34.042  28.180  1.00  0.00     0.148 A 
ATOM     62  C   UNL A   1      45.925  34.227  30.603  1.00  0.00     0.002 A 
ATOM     63  C   UNL A   1      45.166  35.218  28.519  1.00  0.00     0.091 A 
ATOM     64  F   UNL A   1      43.820  33.916  27.039  1.00  0.00    -0.205 F 
ATOM     65  C   UNL A   1      45.866  35.316  29.734  1.00  0.00     0.022 A 
BRANCH  63  66
ATOM     66  S   UNL A   1      45.234  36.620  27.401  1.00  0.00     0.127 S 
ATOM     67  O   UNL A   1      45.930  37.613  28.214  1.00  0.00    -0.237 OA
ATOM     68  O   UNL A   1      46.012  36.088  26.280  1.00  0.00    -0.237 OA
ATOM     69  O   UNL A   1      43.848  36.932  27.074  1.00  0.00    -0.744 OA
ENDBRANCH  63  66
ENDBRANCH  36  59
ENDBRANCH  10  11
ENDBRANCH   3   5
ENDBRANCH   2   3
ENDBRANCH   1   2
BRANCH   1  70
ATOM     70  C   UNL A   1      36.709  21.504  24.696  1.00  0.00     0.274 C 
BRANCH  70  71
ATOM     71  O   UNL A   1      35.739  21.421  25.753  1.00  0.00    -0.458 OA
BRANCH  71  72
ATOM     72  C   UNL A   1      34.441  21.201  25.391  1.00  0.00     0.365 C 
ATOM     73  O   UNL A   1      34.009  20.139  24.962  1.00  0.00    -0.245 OA
BRANCH  72  74
ATOM     74  C   UNL A   1      33.566  22.404  25.790  1.00  0.00     0.298 C 
ATOM     75  C   UNL A   1      34.049  23.800  25.284  1.00  0.00     0.111 C 
ATOM     76  N   UNL A   1      32.111  22.081  25.554  1.00  0.00    -0.326 N 
ATOM     77  C   UNL A   1      33.144  24.890  25.843  1.00  0.00    -0.024 C 
ATOM     78  C   UNL A   1      31.316  23.302  25.176  1.00  0.00     0.243 C 
ATOM     79  H   UNL A   1      31.720  21.685  26.409  1.00  0.00     0.347 HD
ATOM     80  H   UNL A   1      32.059  21.419  24.780  1.00  0.00     0.347 HD
ATOM     81  C   UNL A   1      33.137  26.218  25.995  1.00  0.00     0.002 A 
ATOM     82  C   UNL A   1      31.800  24.345  26.252  1.00  0.00     0.196 C 
ATOM     83  C   UNL A   1      33.925  27.356  25.650  1.00  0.00     0.010 A 
ATOM     84  C   UNL A   1      31.837  26.451  26.673  1.00  0.00     0.066 A 
ATOM     85  N   UNL A   1      30.948  25.501  26.625  1.00  0.00    -0.270 NA
ATOM     86  C   UNL A   1      33.679  28.544  26.229  1.00  0.00     0.001 A 
ATOM     87  C   UNL A   1      31.699  27.739  27.400  1.00  0.00     0.028 A 
ATOM     88  C   UNL A   1      32.636  28.686  27.225  1.00  0.00     0.002 A 
BRANCH  78  89
ATOM     89  C   UNL A   1      31.564  23.633  23.679  1.00  0.00     0.012 A 
ATOM     90  C   UNL A   1      31.198  24.879  23.163  1.00  0.00     0.010 A 
ATOM     91  C   UNL A   1      32.416  22.828  22.886  1.00  0.00     0.010 A 
ATOM     92  C   UNL A   1      31.935  25.431  22.122  1.00  0.00     0.001 A 
ATOM     93  C   UNL A   1      33.113  23.366  21.806  1.00  0.00     0.001 A 
ATOM     94  C   UNL A   1      32.920  24.693  21.471  1.00  0.00     0.000 A 
ENDBRANCH  78  89
ENDBRANCH  72  74
ENDBRANCH  71  72
ENDBRANCH  70  71
ENDBRANCH   1  70
TORSDOF 15
ENDMDL
MODEL 3
REMARK VINA RESULT:     -13.0      2.660      8.362
REMARK SMILES O=C(OCCOC(=O)[C@H]1CC2=c3ccccc3=N[C@H]2[C@@H](c2ccccc2)[NH2+]1)c1ccc(-c2c3nc(c(-c4cccc(S(=O)(=O)[O-])c4F)c4ccc([nH]4)c(-c4cccc(S(=O)(=O)[O-])c4F)c4nc(c(-c5cccc(S(=O)(=O)[O-])c5F)c5ccc2[nH]5)C=C4)C=C3)cc1
REMARK SMILES IDX 4 1 3 2 2 3 1 4 28 5 29 6 90 7 30 8 89 9 31 10 32 11 33 12
REMARK SMILES IDX 83 13 34 14 88 15 82 16 84 17 35 18 87 19 81 20 80 21 36 23
REMARK SMILES IDX 68 24 48 25 67 26 49 27 52 28 66 29 85 30 50 31 51 32 65 34
REMARK SMILES IDX 86 35 53 36 37 37 38 38 46 39 39 40 41 41 47 42 40 43 42 44
REMARK SMILES IDX 43 45 44 46 45 47 69 48 70 49 78 50 71 51 73 52 79 53 72 54
REMARK SMILES IDX 74 55 75 56 76 57 77 58 54 59 55 60 63 61 56 62 58 63 64 64
REMARK SMILES IDX 57 65 59 66 60 67 61 68 62 69 5 70 6 71 7 72 8 73 9 74 10 75
REMARK SMILES IDX 27 76 11 77 20 78 12 81 19 82 13 83 17 84 18 85 14 86 16 87
REMARK SMILES IDX 15 88 21 89 22 90 26 91 23 92 25 93 24 94
REMARK H PARENT 84 22 52 33 27 79 27 80
REMARK Flexibility Score: inf
ROOT
ATOM      1  C   UNL A   1      37.752  22.211  25.356  1.00  0.00     0.275 C 
ENDROOT
BRANCH   1   2
ATOM      2  O   UNL A   1      38.925  21.639  25.964  1.00  0.00    -0.458 OA
BRANCH   2   3
ATOM      3  C   UNL A   1      39.726  22.224  26.897  1.00  0.00     0.338 C 
ATOM      4  O   UNL A   1      40.333  21.515  27.695  1.00  0.00    -0.246 OA
BRANCH   3   5
ATOM      5  C   UNL A   1      39.673  23.701  27.135  1.00  0.00     0.060 A 
ATOM      6  C   UNL A   1      40.263  24.488  26.150  1.00  0.00     0.016 A 
ATOM      7  C   UNL A   1      39.164  24.350  28.271  1.00  0.00     0.016 A 
ATOM      8  C   UNL A   1      40.503  25.839  26.399  1.00  0.00     0.010 A 
ATOM      9  C   UNL A   1      39.452  25.706  28.542  1.00  0.00     0.010 A 
ATOM     10  C   UNL A   1      40.190  26.461  27.638  1.00  0.00    -0.014 A 
BRANCH  10  11
ATOM     11  C   UNL A   1      40.532  27.913  27.837  1.00  0.00     0.031 A 
ATOM     12  C   UNL A   1      39.519  29.065  28.035  1.00  0.00     0.074 A 
ATOM     13  C   UNL A   1      41.842  28.122  28.070  1.00  0.00     0.049 A 
ATOM     14  N   UNL A   1      39.711  30.242  28.602  1.00  0.00    -0.248 NA
ATOM     15  C   UNL A   1      38.116  28.875  27.631  1.00  0.00     0.031 C 
ATOM     16  C   UNL A   1      42.887  27.093  27.950  1.00  0.00     0.029 A 
ATOM     17  N   UNL A   1      42.515  29.230  28.495  1.00  0.00    -0.354 N 
ATOM     18  C   UNL A   1      38.443  30.825  28.810  1.00  0.00     0.074 A 
ATOM     19  C   UNL A   1      37.503  29.936  28.165  1.00  0.00     0.031 C 
ATOM     20  C   UNL A   1      44.061  27.613  28.312  1.00  0.00     0.029 A 
ATOM     21  C   UNL A   1      43.868  29.026  28.591  1.00  0.00     0.049 A 
ATOM     22  H   UNL A   1      42.076  30.085  28.709  1.00  0.00     0.167 HD
ATOM     23  C   UNL A   1      38.144  31.942  29.543  1.00  0.00     0.034 A 
ATOM     24  C   UNL A   1      44.866  29.898  28.800  1.00  0.00     0.034 A 
ATOM     25  C   UNL A   1      39.174  32.839  30.034  1.00  0.00     0.049 A 
ATOM     26  C   UNL A   1      44.509  31.299  29.130  1.00  0.00     0.074 A 
ATOM     27  C   UNL A   1      39.020  34.043  30.705  1.00  0.00     0.029 A 
ATOM     28  N   UNL A   1      40.534  32.662  29.851  1.00  0.00    -0.354 N 
ATOM     29  N   UNL A   1      43.335  31.762  29.479  1.00  0.00    -0.248 NA
ATOM     30  C   UNL A   1      45.582  32.292  29.101  1.00  0.00     0.031 C 
ATOM     31  C   UNL A   1      40.279  34.598  30.913  1.00  0.00     0.029 A 
ATOM     32  C   UNL A   1      41.215  33.769  30.319  1.00  0.00     0.049 A 
ATOM     33  H   UNL A   1      40.953  31.866  29.448  1.00  0.00     0.167 HD
ATOM     34  C   UNL A   1      43.527  33.107  29.729  1.00  0.00     0.074 A 
ATOM     35  C   UNL A   1      44.932  33.382  29.495  1.00  0.00     0.031 C 
ATOM     36  C   UNL A   1      42.614  34.024  30.114  1.00  0.00     0.034 A 
BRANCH  23  37
ATOM     37  C   UNL A   1      36.723  32.317  29.996  1.00  0.00     0.023 A 
ATOM     38  C   UNL A   1      36.374  31.976  31.335  1.00  0.00     0.012 A 
ATOM     39  C   UNL A   1      35.814  33.123  29.292  1.00  0.00     0.148 A 
ATOM     40  C   UNL A   1      35.148  32.314  31.916  1.00  0.00     0.002 A 
ATOM     41  C   UNL A   1      34.596  33.498  29.892  1.00  0.00     0.091 A 
ATOM     42  F   UNL A   1      36.136  33.524  28.055  1.00  0.00    -0.205 F 
ATOM     43  C   UNL A   1      34.251  33.071  31.186  1.00  0.00     0.022 A 
BRANCH  41  44
ATOM     44  S   UNL A   1      33.426  34.609  29.091  1.00  0.00     0.127 S 
ATOM     45  O   UNL A   1      32.854  33.747  28.065  1.00  0.00    -0.237 OA
ATOM     46  O   UNL A   1      32.513  34.960  30.176  1.00  0.00    -0.237 OA
ATOM     47  O   UNL A   1      34.238  35.725  28.608  1.00  0.00    -0.744 OA
ENDBRANCH  41  44
ENDBRANCH  23  37
BRANCH  24  48
ATOM     48  C   UNL A   1      46.245  29.424  28.543  1.00  0.00     0.023 A 
ATOM     49  C   UNL A   1      47.080  29.039  29.600  1.00  0.00     0.012 A 
ATOM     50  C   UNL A   1      46.624  29.148  27.209  1.00  0.00     0.148 A 
ATOM     51  C   UNL A   1      48.264  28.351  29.331  1.00  0.00     0.002 A 
ATOM     52  C   UNL A   1      47.769  28.414  26.955  1.00  0.00     0.091 A 
ATOM     53  F   UNL A   1      45.799  29.539  26.225  1.00  0.00    -0.205 F 
ATOM     54  C   UNL A   1      48.597  28.017  28.015  1.00  0.00     0.022 A 
BRANCH  52  55
ATOM     55  S   UNL A   1      48.174  27.812  25.311  1.00  0.00     0.127 S 
ATOM     56  O   UNL A   1      49.574  28.207  25.189  1.00  0.00    -0.237 OA
ATOM     57  O   UNL A   1      47.946  26.374  25.454  1.00  0.00    -0.237 OA
ATOM     58  O   UNL A   1      47.251  28.481  24.403  1.00  0.00    -0.744 OA
ENDBRANCH  52  55
ENDBRANCH  24  48
BRANCH  36  59
ATOM     59  C   UNL A   1      43.080  35.433  30.305  1.00  0.00     0.023 A 
ATOM     60  C   UNL A   1      43.729  35.781  31.502  1.00  0.00     0.012 A 
ATOM     61  C   UNL A   1      42.997  36.360  29.252  1.00  0.00     0.148 A 
ATOM     62  C   UNL A   1      44.287  37.047  31.653  1.00  0.00     0.002 A 
ATOM     63  C   UNL A   1      43.598  37.602  29.390  1.00  0.00     0.091 A 
ATOM     64  F   UNL A   1      42.361  35.998  28.129  1.00  0.00    -0.205 F 
ATOM     65  C   UNL A   1      44.237  37.951  30.592  1.00  0.00     0.022 A 
BRANCH  63  66
ATOM     66  S   UNL A   1      43.677  38.772  28.032  1.00  0.00     0.127 S 
ATOM     67  O   UNL A   1      44.358  37.988  27.005  1.00  0.00    -0.237 OA
ATOM     68  O   UNL A   1      42.262  39.037  27.765  1.00  0.00    -0.237 OA
ATOM     69  O   UNL A   1      44.416  39.920  28.542  1.00  0.00    -0.744 OA
ENDBRANCH  63  66
ENDBRANCH  36  59
ENDBRANCH  10  11
ENDBRANCH   3   5
ENDBRANCH   2   3
ENDBRANCH   1   2
BRANCH   1  70
ATOM     70  C   UNL A   1      36.551  21.257  25.266  1.00  0.00     0.274 C 
BRANCH  70  71
ATOM     71  O   UNL A   1      35.497  21.646  26.163  1.00  0.00    -0.458 OA
BRANCH  71  72
ATOM     72  C   UNL A   1      34.214  21.493  25.720  1.00  0.00     0.365 C 
ATOM     73  O   UNL A   1      33.755  20.452  25.268  1.00  0.00    -0.245 OA
BRANCH  72  74
ATOM     74  C   UNL A   1      33.381  22.742  26.058  1.00  0.00     0.298 C 
ATOM     75  C   UNL A   1      33.925  24.098  25.506  1.00  0.00     0.111 C 
ATOM     76  N   UNL A   1      31.918  22.466  25.812  1.00  0.00    -0.326 N 
ATOM     77  C   UNL A   1      33.054  25.243  26.008  1.00  0.00    -0.024 C 
ATOM     78  C   UNL A   1      31.176  23.700  25.374  1.00  0.00     0.243 C 
ATOM     79  H   UNL A   1      31.499  22.119  26.675  1.00  0.00     0.347 HD
ATOM     80  H   UNL A   1      31.851  21.776  25.063  1.00  0.00     0.347 HD
ATOM     81  C   UNL A   1      33.096  26.575  26.109  1.00  0.00     0.002 A 
ATOM     82  C   UNL A   1      31.685  24.766  26.417  1.00  0.00     0.196 C 
ATOM     83  C   UNL A   1      33.932  27.668  25.731  1.00  0.00     0.010 A 
ATOM     84  C   UNL A   1      31.797  26.884  26.756  1.00  0.00     0.066 A 
ATOM     85  N   UNL A   1      30.872  25.966  26.731  1.00  0.00    -0.270 NA
ATOM     86  C   UNL A   1      33.724  28.887  26.261  1.00  0.00     0.001 A 
ATOM     87  C   UNL A   1      31.699  28.203  27.430  1.00  0.00     0.028 A 
ATOM     88  C   UNL A   1      32.674  29.107  27.233  1.00  0.00     0.002 A 
BRANCH  78  89
ATOM     89  C   UNL A   1      31.458  23.963  23.869  1.00  0.00     0.012 A 
ATOM     90  C   UNL A   1      31.260  25.235  23.327  1.00  0.00     0.010 A 
ATOM     91  C   UNL A   1      32.190  23.033  23.092  1.00  0.00     0.010 A 
ATOM     92  C   UNL A   1      32.058  25.660  22.272  1.00  0.00     0.001 A 
ATOM     93  C   UNL A   1      32.947  23.449  21.999  1.00  0.00     0.001 A 
ATOM     94  C   UNL A   1      32.932  24.782  21.635  1.00  0.00     0.000 A 
ENDBRANCH  78  89
ENDBRANCH  72  74
ENDBRANCH  71  72
ENDBRANCH  70  71
ENDBRANCH   1  70
TORSDOF 15
ENDMDL
