MODEL 1
REMARK VINA RESULT:     -12.1      0.000      0.000
REMARK SMILES Cn1cc(C[C@@H](NC(=O)OCC2c3ccccc3-c3ccccc32)C(=O)OCCOC(=O)c2ccc(-c3c4nc(c(-c5cccc(S(=O)(=O)[O-])c5F)c5ccc([nH]5)c(-c5cccc(S(=O)(=O)[O-])c5F)c5nc(c(-c6cccc(S(=O)(=O)[O-])c6F)c6ccc3[nH]6)C=C5)C=C4)cc2)c2ccccc21
REMARK SMILES IDX 28 1 27 2 25 3 26 4 6 5 5 6 4 7 1 8 2 9 3 10 101 11 96 12
REMARK SMILES IDX 100 13 97 14 99 15 98 16 7 17 8 18 9 20 10 21 11 22 12 23
REMARK SMILES IDX 13 24 24 25 14 26 18 27 19 28 23 29 15 30 17 31 20 32 22 33
REMARK SMILES IDX 16 34 21 35 29 36 30 37 31 38 32 39 33 40 34 41 95 42 35 43
REMARK SMILES IDX 94 44 36 45 37 46 38 47 88 48 39 49 93 50 87 51 89 52 40 53
REMARK SMILES IDX 92 54 86 55 85 56 41 58 73 59 53 60 72 61 54 62 57 63 71 64
REMARK SMILES IDX 90 65 55 66 56 67 70 69 91 70 58 71 42 72 43 73 51 74 44 75
REMARK SMILES IDX 46 76 52 77 45 78 47 79 48 80 49 81 50 82 74 83 75 84 83 85
REMARK SMILES IDX 76 86 78 87 84 88 77 89 79 90 80 91 81 92 82 93 59 94 60 95
REMARK SMILES IDX 68 96 61 97 63 98 69 99 62 100 64 101 65 102 66 103 67 104
REMARK H PARENT 7 19 89 57 57 68
REMARK Flexibility Score: inf
ROOT
ATOM      1  C   UNL A   1      31.674  31.540  26.532  1.00  0.00     0.274 C 
ENDROOT
BRANCH   1   2
ATOM      2  O   UNL A   1      32.643  30.547  26.919  1.00  0.00    -0.461 OA
BRANCH   2   3
ATOM      3  C   UNL A   1      32.159  29.276  27.049  1.00  0.00     0.329 C 
ATOM      4  O   UNL A   1      31.502  28.878  28.004  1.00  0.00    -0.250 OA
BRANCH   3   5
ATOM      5  C   UNL A   1      32.662  28.358  25.930  1.00  0.00     0.200 C 
BRANCH   5   6
ATOM      6  C   UNL A   1      31.987  26.970  25.874  1.00  0.00     0.075 C 
BRANCH   6   7
ATOM      7  C   UNL A   1      32.985  25.831  25.957  1.00  0.00    -0.020 A 
ATOM      8  C   UNL A   1      36.259  24.312  25.506  1.00  0.00     0.149 C 
ATOM      9  N   UNL A   1      34.869  24.641  25.735  1.00  0.00    -0.350 N 
ATOM     10  C   UNL A   1      34.313  25.883  25.570  1.00  0.00     0.090 A 
ATOM     11  C   UNL A   1      33.914  23.749  26.170  1.00  0.00     0.048 A 
ATOM     12  C   UNL A   1      32.749  24.487  26.407  1.00  0.00     0.003 A 
ATOM     13  C   UNL A   1      33.979  22.361  26.383  1.00  0.00     0.027 A 
ATOM     14  C   UNL A   1      31.638  23.814  26.958  1.00  0.00     0.010 A 
ATOM     15  C   UNL A   1      32.834  21.713  26.854  1.00  0.00     0.002 A 
ATOM     16  C   UNL A   1      31.683  22.429  27.153  1.00  0.00     0.001 A 
ENDBRANCH   6   7
ENDBRANCH   5   6
BRANCH   5  17
ATOM     17  N   UNL A   1      32.709  29.016  24.624  1.00  0.00    -0.308 N 
ATOM     18  C   UNL A   1      33.557  28.739  23.602  1.00  0.00     0.407 C 
ATOM     19  H   UNL A   1      32.055  29.735  24.470  1.00  0.00     0.168 HD
ATOM     20  O   UNL A   1      33.993  29.628  22.869  1.00  0.00    -0.225 OA
BRANCH  18  21
ATOM     21  O   UNL A   1      33.710  27.413  23.384  1.00  0.00    -0.449 OA
BRANCH  21  22
ATOM     22  C   UNL A   1      33.600  26.989  22.013  1.00  0.00     0.248 C 
BRANCH  22  23
ATOM     23  C   UNL A   1      32.318  26.173  21.714  1.00  0.00     0.088 C 
ATOM     24  C   UNL A   1      32.336  24.740  22.252  1.00  0.00    -0.029 A 
ATOM     25  C   UNL A   1      31.021  26.708  22.315  1.00  0.00    -0.029 A 
ATOM     26  C   UNL A   1      33.218  23.711  21.954  1.00  0.00     0.005 A 
ATOM     27  C   UNL A   1      31.202  24.512  23.061  1.00  0.00    -0.014 A 
ATOM     28  C   UNL A   1      30.430  25.731  23.145  1.00  0.00    -0.014 A 
ATOM     29  C   UNL A   1      30.425  27.949  22.148  1.00  0.00     0.005 A 
ATOM     30  C   UNL A   1      32.949  22.439  22.469  1.00  0.00     0.000 A 
ATOM     31  C   UNL A   1      30.937  23.251  23.572  1.00  0.00     0.009 A 
ATOM     32  C   UNL A   1      29.285  26.017  23.872  1.00  0.00     0.009 A 
ATOM     33  C   UNL A   1      29.285  28.247  22.897  1.00  0.00     0.000 A 
ATOM     34  C   UNL A   1      31.817  22.210  23.267  1.00  0.00     0.001 A 
ATOM     35  C   UNL A   1      28.725  27.292  23.760  1.00  0.00     0.001 A 
ENDBRANCH  22  23
ENDBRANCH  21  22
ENDBRANCH  18  21
ENDBRANCH   5  17
ENDBRANCH   3   5
ENDBRANCH   2   3
ENDBRANCH   1   2
BRANCH   1  36
ATOM     36  C   UNL A   1      32.174  32.968  26.768  1.00  0.00     0.275 C 
BRANCH  36  37
ATOM     37  O   UNL A   1      32.706  33.143  28.092  1.00  0.00    -0.458 OA
BRANCH  37  38
ATOM     38  C   UNL A   1      33.808  33.927  28.156  1.00  0.00     0.338 C 
ATOM     39  O   UNL A   1      33.847  35.145  28.086  1.00  0.00    -0.246 OA
BRANCH  38  40
ATOM     40  C   UNL A   1      34.985  33.117  28.505  1.00  0.00     0.060 A 
ATOM     41  C   UNL A   1      34.763  31.930  29.213  1.00  0.00     0.016 A 
ATOM     42  C   UNL A   1      36.282  33.545  28.219  1.00  0.00     0.016 A 
ATOM     43  C   UNL A   1      35.836  31.171  29.658  1.00  0.00     0.010 A 
ATOM     44  C   UNL A   1      37.362  32.790  28.682  1.00  0.00     0.010 A 
ATOM     45  C   UNL A   1      37.141  31.616  29.426  1.00  0.00    -0.014 A 
BRANCH  45  46
ATOM     46  C   UNL A   1      38.264  30.918  30.087  1.00  0.00     0.031 A 
ATOM     47  C   UNL A   1      38.609  31.284  31.502  1.00  0.00     0.074 A 
ATOM     48  C   UNL A   1      38.939  29.953  29.439  1.00  0.00     0.049 A 
ATOM     49  N   UNL A   1      39.576  30.836  32.259  1.00  0.00    -0.248 NA
ATOM     50  C   UNL A   1      37.752  32.289  32.152  1.00  0.00     0.031 C 
ATOM     51  C   UNL A   1      38.666  29.503  28.075  1.00  0.00     0.029 A 
ATOM     52  N   UNL A   1      40.006  29.193  29.839  1.00  0.00    -0.354 N 
ATOM     53  C   UNL A   1      39.471  31.534  33.456  1.00  0.00     0.074 A 
ATOM     54  C   UNL A   1      38.346  32.434  33.327  1.00  0.00     0.031 C 
ATOM     55  C   UNL A   1      39.561  28.558  27.741  1.00  0.00     0.029 A 
ATOM     56  C   UNL A   1      40.485  28.360  28.855  1.00  0.00     0.049 A 
ATOM     57  H   UNL A   1      40.393  29.237  30.744  1.00  0.00     0.167 HD
ATOM     58  C   UNL A   1      40.236  31.424  34.567  1.00  0.00     0.034 A 
ATOM     59  C   UNL A   1      41.560  27.549  28.852  1.00  0.00     0.034 A 
ATOM     60  C   UNL A   1      41.332  30.503  34.694  1.00  0.00     0.049 A 
ATOM     61  C   UNL A   1      42.396  27.449  30.101  1.00  0.00     0.074 A 
ATOM     62  C   UNL A   1      42.160  30.294  35.783  1.00  0.00     0.029 A 
ATOM     63  N   UNL A   1      41.755  29.637  33.697  1.00  0.00    -0.354 N 
ATOM     64  N   UNL A   1      42.237  28.053  31.253  1.00  0.00    -0.248 NA
ATOM     65  C   UNL A   1      43.540  26.527  30.060  1.00  0.00     0.031 C 
ATOM     66  C   UNL A   1      43.093  29.310  35.438  1.00  0.00     0.029 A 
ATOM     67  C   UNL A   1      42.831  28.889  34.143  1.00  0.00     0.049 A 
ATOM     68  H   UNL A   1      41.350  29.565  32.803  1.00  0.00     0.167 HD
ATOM     69  C   UNL A   1      43.234  27.559  32.087  1.00  0.00     0.074 A 
ATOM     70  C   UNL A   1      43.980  26.590  31.309  1.00  0.00     0.031 C 
ATOM     71  C   UNL A   1      43.519  27.885  33.372  1.00  0.00     0.034 A 
BRANCH  58  72
ATOM     72  C   UNL A   1      39.902  32.312  35.735  1.00  0.00     0.023 A 
ATOM     73  C   UNL A   1      40.561  33.550  35.884  1.00  0.00     0.012 A 
ATOM     74  C   UNL A   1      38.910  31.941  36.664  1.00  0.00     0.148 A 
ATOM     75  C   UNL A   1      40.259  34.390  36.954  1.00  0.00     0.002 A 
ATOM     76  C   UNL A   1      38.585  32.803  37.705  1.00  0.00     0.091 A 
ATOM     77  F   UNL A   1      38.313  30.749  36.520  1.00  0.00    -0.205 F 
ATOM     78  C   UNL A   1      39.265  34.022  37.858  1.00  0.00     0.022 A 
BRANCH  76  79
ATOM     79  S   UNL A   1      37.270  32.452  38.877  1.00  0.00     0.127 S 
ATOM     80  O   UNL A   1      37.604  33.357  39.974  1.00  0.00    -0.237 OA
ATOM     81  O   UNL A   1      36.075  32.825  38.119  1.00  0.00    -0.237 OA
ATOM     82  O   UNL A   1      37.374  31.032  39.182  1.00  0.00    -0.744 OA
ENDBRANCH  76  79
ENDBRANCH  58  72
BRANCH  59  83
ATOM     83  C   UNL A   1      41.883  26.745  27.641  1.00  0.00     0.023 A 
ATOM     84  C   UNL A   1      42.488  27.370  26.532  1.00  0.00     0.012 A 
ATOM     85  C   UNL A   1      41.616  25.362  27.588  1.00  0.00     0.148 A 
ATOM     86  C   UNL A   1      42.794  26.639  25.385  1.00  0.00     0.002 A 
ATOM     87  C   UNL A   1      41.974  24.630  26.463  1.00  0.00     0.091 A 
ATOM     88  F   UNL A   1      41.023  24.789  28.644  1.00  0.00    -0.205 F 
ATOM     89  C   UNL A   1      42.548  25.268  25.352  1.00  0.00     0.022 A 
BRANCH  87  90
ATOM     90  S   UNL A   1      41.813  22.842  26.390  1.00  0.00     0.127 S 
ATOM     91  O   UNL A   1      42.542  22.428  27.585  1.00  0.00    -0.237 OA
ATOM     92  O   UNL A   1      40.361  22.665  26.461  1.00  0.00    -0.237 OA
ATOM     93  O   UNL A   1      42.401  22.448  25.117  1.00  0.00    -0.744 OA
ENDBRANCH  87  90
ENDBRANCH  59  83
BRANCH  71  94
ATOM     94  C   UNL A   1      44.655  27.156  34.039  1.00  0.00     0.023 A 
ATOM     95  C   UNL A   1      45.968  27.653  33.930  1.00  0.00     0.012 A 
ATOM     96  C   UNL A   1      44.409  26.017  34.830  1.00  0.00     0.148 A 
ATOM     97  C   UNL A   1      47.026  27.006  34.568  1.00  0.00     0.002 A 
ATOM     98  C   UNL A   1      45.460  25.405  35.502  1.00  0.00     0.091 A 
ATOM     99  F   UNL A   1      43.155  25.547  34.904  1.00  0.00    -0.205 F 
ATOM    100  C   UNL A   1      46.770  25.890  35.363  1.00  0.00     0.022 A 
BRANCH  98 101
ATOM    101  S   UNL A   1      45.199  24.026  36.623  1.00  0.00     0.127 S 
ATOM    102  O   UNL A   1      44.375  24.639  37.663  1.00  0.00    -0.237 OA
ATOM    103  O   UNL A   1      44.493  23.062  35.777  1.00  0.00    -0.237 OA
ATOM    104  O   UNL A   1      46.527  23.597  37.040  1.00  0.00    -0.744 OA
ENDBRANCH  98 101
ENDBRANCH  71  94
ENDBRANCH  45  46
ENDBRANCH  38  40
ENDBRANCH  37  38
ENDBRANCH  36  37
ENDBRANCH   1  36
TORSDOF 20
ENDMDL
MODEL 2
REMARK VINA RESULT:     -12.0      4.726      9.656
REMARK SMILES Cn1cc(C[C@@H](NC(=O)OCC2c3ccccc3-c3ccccc32)C(=O)OCCOC(=O)c2ccc(-c3c4nc(c(-c5cccc(S(=O)(=O)[O-])c5F)c5ccc([nH]5)c(-c5cccc(S(=O)(=O)[O-])c5F)c5nc(c(-c6cccc(S(=O)(=O)[O-])c6F)c6ccc3[nH]6)C=C5)C=C4)cc2)c2ccccc21
REMARK SMILES IDX 28 1 27 2 25 3 26 4 6 5 5 6 4 7 1 8 2 9 3 10 101 11 96 12
REMARK SMILES IDX 100 13 97 14 99 15 98 16 7 17 8 18 9 20 10 21 11 22 12 23
REMARK SMILES IDX 13 24 24 25 14 26 18 27 19 28 23 29 15 30 17 31 20 32 22 33
REMARK SMILES IDX 16 34 21 35 29 36 30 37 31 38 32 39 33 40 34 41 95 42 35 43
REMARK SMILES IDX 94 44 36 45 37 46 38 47 88 48 39 49 93 50 87 51 89 52 40 53
REMARK SMILES IDX 92 54 86 55 85 56 41 58 73 59 53 60 72 61 54 62 57 63 71 64
REMARK SMILES IDX 90 65 55 66 56 67 70 69 91 70 58 71 42 72 43 73 51 74 44 75
REMARK SMILES IDX 46 76 52 77 45 78 47 79 48 80 49 81 50 82 74 83 75 84 83 85
REMARK SMILES IDX 76 86 78 87 84 88 77 89 79 90 80 91 81 92 82 93 59 94 60 95
REMARK SMILES IDX 68 96 61 97 63 98 69 99 62 100 64 101 65 102 66 103 67 104
REMARK H PARENT 7 19 89 57 57 68
REMARK Flexibility Score: inf
ROOT
ATOM      1  C   UNL A   1      35.966  20.357  25.491  1.00  0.00     0.274 C 
ENDROOT
BRANCH   1   2
ATOM      2  O   UNL A   1      34.943  21.323  25.188  1.00  0.00    -0.461 OA
BRANCH   2   3
ATOM      3  C   UNL A   1      34.814  22.341  26.090  1.00  0.00     0.329 C 
ATOM      4  O   UNL A   1      34.829  22.196  27.307  1.00  0.00    -0.250 OA
BRANCH   3   5
ATOM      5  C   UNL A   1      34.494  23.673  25.405  1.00  0.00     0.200 C 
BRANCH   5   6
ATOM      6  C   UNL A   1      34.313  24.872  26.362  1.00  0.00     0.075 C 
BRANCH   6   7
ATOM      7  C   UNL A   1      33.936  26.149  25.636  1.00  0.00    -0.020 A 
ATOM      8  C   UNL A   1      34.077  28.497  22.863  1.00  0.00     0.149 C 
ATOM      9  N   UNL A   1      33.882  27.781  24.105  1.00  0.00    -0.350 N 
ATOM     10  C   UNL A   1      34.395  26.543  24.391  1.00  0.00     0.090 A 
ATOM     11  C   UNL A   1      33.136  28.242  25.167  1.00  0.00     0.048 A 
ATOM     12  C   UNL A   1      33.075  27.202  26.101  1.00  0.00     0.003 A 
ATOM     13  C   UNL A   1      32.506  29.480  25.380  1.00  0.00     0.027 A 
ATOM     14  C   UNL A   1      32.280  27.389  27.250  1.00  0.00     0.010 A 
ATOM     15  C   UNL A   1      31.791  29.659  26.568  1.00  0.00     0.002 A 
ATOM     16  C   UNL A   1      31.665  28.623  27.485  1.00  0.00     0.001 A 
ENDBRANCH   6   7
ENDBRANCH   5   6
BRANCH   5  17
ATOM     17  N   UNL A   1      35.389  23.974  24.287  1.00  0.00    -0.308 N 
ATOM     18  C   UNL A   1      35.408  23.370  23.073  1.00  0.00     0.407 C 
ATOM     19  H   UNL A   1      36.047  24.691  24.432  1.00  0.00     0.168 HD
ATOM     20  O   UNL A   1      36.463  23.176  22.467  1.00  0.00    -0.225 OA
BRANCH  18  21
ATOM     21  O   UNL A   1      34.173  23.185  22.552  1.00  0.00    -0.449 OA
BRANCH  21  22
ATOM     22  C   UNL A   1      33.438  24.384  22.246  1.00  0.00     0.248 C 
BRANCH  22  23
ATOM     23  C   UNL A   1      31.925  24.285  22.560  1.00  0.00     0.088 C 
ATOM     24  C   UNL A   1      31.591  23.549  23.859  1.00  0.00    -0.029 A 
ATOM     25  C   UNL A   1      31.188  25.607  22.759  1.00  0.00    -0.029 A 
ATOM     26  C   UNL A   1      31.884  22.241  24.217  1.00  0.00     0.005 A 
ATOM     27  C   UNL A   1      30.784  24.364  24.683  1.00  0.00    -0.014 A 
ATOM     28  C   UNL A   1      30.586  25.640  24.036  1.00  0.00    -0.014 A 
ATOM     29  C   UNL A   1      31.070  26.683  21.893  1.00  0.00     0.005 A 
ATOM     30  C   UNL A   1      31.351  21.746  25.412  1.00  0.00     0.000 A 
ATOM     31  C   UNL A   1      30.258  23.873  25.869  1.00  0.00     0.009 A 
ATOM     32  C   UNL A   1      29.932  26.778  24.482  1.00  0.00     0.009 A 
ATOM     33  C   UNL A   1      30.431  27.839  22.349  1.00  0.00     0.000 A 
ATOM     34  C   UNL A   1      30.543  22.554  26.228  1.00  0.00     0.001 A 
ATOM     35  C   UNL A   1      29.876  27.889  23.637  1.00  0.00     0.001 A 
ENDBRANCH  22  23
ENDBRANCH  21  22
ENDBRANCH  18  21
ENDBRANCH   5  17
ENDBRANCH   3   5
ENDBRANCH   2   3
ENDBRANCH   1   2
BRANCH   1  36
ATOM     36  C   UNL A   1      37.207  20.522  24.609  1.00  0.00     0.275 C 
BRANCH  36  37
ATOM     37  O   UNL A   1      38.005  21.649  25.004  1.00  0.00    -0.458 OA
BRANCH  37  38
ATOM     38  C   UNL A   1      38.971  21.367  25.909  1.00  0.00     0.338 C 
ATOM     39  O   UNL A   1      39.499  20.283  26.104  1.00  0.00    -0.246 OA
BRANCH  38  40
ATOM     40  C   UNL A   1      39.451  22.604  26.542  1.00  0.00     0.060 A 
ATOM     41  C   UNL A   1      38.823  23.800  26.174  1.00  0.00     0.016 A 
ATOM     42  C   UNL A   1      40.541  22.610  27.412  1.00  0.00     0.016 A 
ATOM     43  C   UNL A   1      39.291  25.014  26.658  1.00  0.00     0.010 A 
ATOM     44  C   UNL A   1      41.023  23.833  27.886  1.00  0.00     0.010 A 
ATOM     45  C   UNL A   1      40.416  25.038  27.488  1.00  0.00    -0.014 A 
BRANCH  45  46
ATOM     46  C   UNL A   1      41.033  26.340  27.820  1.00  0.00     0.031 A 
ATOM     47  C   UNL A   1      42.438  26.611  27.365  1.00  0.00     0.074 A 
ATOM     48  C   UNL A   1      40.332  27.271  28.490  1.00  0.00     0.049 A 
ATOM     49  N   UNL A   1      43.189  27.658  27.579  1.00  0.00    -0.248 NA
ATOM     50  C   UNL A   1      43.086  25.560  26.561  1.00  0.00     0.031 C 
ATOM     51  C   UNL A   1      38.953  27.120  28.952  1.00  0.00     0.029 A 
ATOM     52  N   UNL A   1      40.695  28.523  28.913  1.00  0.00    -0.354 N 
ATOM     53  C   UNL A   1      44.409  27.377  26.976  1.00  0.00     0.074 A 
ATOM     54  C   UNL A   1      44.299  26.062  26.386  1.00  0.00     0.031 C 
ATOM     55  C   UNL A   1      38.593  28.229  29.618  1.00  0.00     0.029 A 
ATOM     56  C   UNL A   1      39.724  29.153  29.653  1.00  0.00     0.049 A 
ATOM     57  H   UNL A   1      41.567  28.932  28.707  1.00  0.00     0.167 HD
ATOM     58  C   UNL A   1      45.516  28.153  26.911  1.00  0.00     0.034 A 
ATOM     59  C   UNL A   1      39.757  30.333  30.303  1.00  0.00     0.034 A 
ATOM     60  C   UNL A   1      45.603  29.473  27.475  1.00  0.00     0.049 A 
ATOM     61  C   UNL A   1      41.003  31.174  30.215  1.00  0.00     0.074 A 
ATOM     62  C   UNL A   1      46.669  30.353  27.448  1.00  0.00     0.029 A 
ATOM     63  N   UNL A   1      44.581  30.101  28.172  1.00  0.00    -0.354 N 
ATOM     64  N   UNL A   1      42.120  30.933  29.573  1.00  0.00    -0.248 NA
ATOM     65  C   UNL A   1      40.980  32.467  30.914  1.00  0.00     0.031 C 
ATOM     66  C   UNL A   1      46.296  31.510  28.140  1.00  0.00     0.029 A 
ATOM     67  C   UNL A   1      44.989  31.359  28.578  1.00  0.00     0.049 A 
ATOM     68  H   UNL A   1      43.696  29.710  28.351  1.00  0.00     0.167 HD
ATOM     69  C   UNL A   1      42.919  32.056  29.757  1.00  0.00     0.074 A 
ATOM     70  C   UNL A   1      42.147  32.986  30.556  1.00  0.00     0.031 C 
ATOM     71  C   UNL A   1      44.180  32.294  29.320  1.00  0.00     0.034 A 
BRANCH  58  72
ATOM     72  C   UNL A   1      46.715  27.597  26.191  1.00  0.00     0.023 A 
ATOM     73  C   UNL A   1      46.863  27.818  24.806  1.00  0.00     0.012 A 
ATOM     74  C   UNL A   1      47.714  26.891  26.889  1.00  0.00     0.148 A 
ATOM     75  C   UNL A   1      47.971  27.318  24.123  1.00  0.00     0.002 A 
ATOM     76  C   UNL A   1      48.836  26.432  26.209  1.00  0.00     0.091 A 
ATOM     77  F   UNL A   1      47.541  26.669  28.200  1.00  0.00    -0.205 F 
ATOM     78  C   UNL A   1      48.961  26.635  24.825  1.00  0.00     0.022 A 
BRANCH  76  79
ATOM     79  S   UNL A   1      50.199  25.606  27.038  1.00  0.00     0.127 S 
ATOM     80  O   UNL A   1      49.538  24.421  27.581  1.00  0.00    -0.237 OA
ATOM     81  O   UNL A   1      51.117  25.340  25.930  1.00  0.00    -0.237 OA
ATOM     82  O   UNL A   1      50.700  26.552  28.025  1.00  0.00    -0.744 OA
ENDBRANCH  76  79
ENDBRANCH  58  72
BRANCH  59  83
ATOM     83  C   UNL A   1      38.562  30.801  31.059  1.00  0.00     0.023 A 
ATOM     84  C   UNL A   1      38.493  30.590  32.450  1.00  0.00     0.012 A 
ATOM     85  C   UNL A   1      37.505  31.473  30.413  1.00  0.00     0.148 A 
ATOM     86  C   UNL A   1      37.381  31.013  33.178  1.00  0.00     0.002 A 
ATOM     87  C   UNL A   1      36.426  31.941  31.154  1.00  0.00     0.091 A 
ATOM     88  F   UNL A   1      37.579  31.648  29.086  1.00  0.00    -0.205 F 
ATOM     89  C   UNL A   1      36.354  31.698  32.535  1.00  0.00     0.022 A 
BRANCH  87  90
ATOM     90  S   UNL A   1      35.125  32.944  30.427  1.00  0.00     0.127 S 
ATOM     91  O   UNL A   1      34.573  32.036  29.425  1.00  0.00    -0.237 OA
ATOM     92  O   UNL A   1      34.255  33.194  31.578  1.00  0.00    -0.237 OA
ATOM     93  O   UNL A   1      35.790  34.132  29.910  1.00  0.00    -0.744 OA
ENDBRANCH  87  90
ENDBRANCH  59  83
BRANCH  71  94
ATOM     94  C   UNL A   1      44.791  33.629  29.651  1.00  0.00     0.023 A 
ATOM     95  C   UNL A   1      45.542  33.784  30.833  1.00  0.00     0.012 A 
ATOM     96  C   UNL A   1      44.678  34.711  28.756  1.00  0.00     0.148 A 
ATOM     97  C   UNL A   1      46.139  35.007  31.137  1.00  0.00     0.002 A 
ATOM     98  C   UNL A   1      45.316  35.911  29.042  1.00  0.00     0.091 A 
ATOM     99  F   UNL A   1      43.942  34.550  27.646  1.00  0.00    -0.205 F 
ATOM    100  C   UNL A   1      46.037  36.066  30.237  1.00  0.00     0.022 A 
BRANCH  98 101
ATOM    101  S   UNL A   1      45.315  37.289  27.889  1.00  0.00     0.127 S 
ATOM    102  O   UNL A   1      46.042  38.308  28.642  1.00  0.00    -0.237 OA
ATOM    103  O   UNL A   1      46.044  36.741  26.744  1.00  0.00    -0.237 OA
ATOM    104  O   UNL A   1      43.913  37.581  27.622  1.00  0.00    -0.744 OA
ENDBRANCH  98 101
ENDBRANCH  71  94
ENDBRANCH  45  46
ENDBRANCH  38  40
ENDBRANCH  37  38
ENDBRANCH  36  37
ENDBRANCH   1  36
TORSDOF 20
ENDMDL
MODEL 3
REMARK VINA RESULT:     -11.9      1.698      7.412
REMARK SMILES Cn1cc(C[C@@H](NC(=O)OCC2c3ccccc3-c3ccccc32)C(=O)OCCOC(=O)c2ccc(-c3c4nc(c(-c5cccc(S(=O)(=O)[O-])c5F)c5ccc([nH]5)c(-c5cccc(S(=O)(=O)[O-])c5F)c5nc(c(-c6cccc(S(=O)(=O)[O-])c6F)c6ccc3[nH]6)C=C5)C=C4)cc2)c2ccccc21
REMARK SMILES IDX 28 1 27 2 25 3 26 4 6 5 5 6 4 7 1 8 2 9 3 10 101 11 96 12
REMARK SMILES IDX 100 13 97 14 99 15 98 16 7 17 8 18 9 20 10 21 11 22 12 23
REMARK SMILES IDX 13 24 24 25 14 26 18 27 19 28 23 29 15 30 17 31 20 32 22 33
REMARK SMILES IDX 16 34 21 35 29 36 30 37 31 38 32 39 33 40 34 41 95 42 35 43
REMARK SMILES IDX 94 44 36 45 37 46 38 47 88 48 39 49 93 50 87 51 89 52 40 53
REMARK SMILES IDX 92 54 86 55 85 56 41 58 73 59 53 60 72 61 54 62 57 63 71 64
REMARK SMILES IDX 90 65 55 66 56 67 70 69 91 70 58 71 42 72 43 73 51 74 44 75
REMARK SMILES IDX 46 76 52 77 45 78 47 79 48 80 49 81 50 82 74 83 75 84 83 85
REMARK SMILES IDX 76 86 78 87 84 88 77 89 79 90 80 91 81 92 82 93 59 94 60 95
REMARK SMILES IDX 68 96 61 97 63 98 69 99 62 100 64 101 65 102 66 103 67 104
REMARK H PARENT 7 19 89 57 57 68
REMARK Flexibility Score: inf
ROOT
ATOM      1  C   UNL A   1      31.787  30.833  26.614  1.00  0.00     0.274 C 
ENDROOT
BRANCH   1   2
ATOM      2  O   UNL A   1      32.771  29.985  27.235  1.00  0.00    -0.461 OA
BRANCH   2   3
ATOM      3  C   UNL A   1      32.470  28.652  27.252  1.00  0.00     0.329 C 
ATOM      4  O   UNL A   1      31.633  28.140  27.986  1.00  0.00    -0.250 OA
BRANCH   3   5
ATOM      5  C   UNL A   1      33.408  27.844  26.350  1.00  0.00     0.200 C 
BRANCH   5   6
ATOM      6  C   UNL A   1      32.806  26.538  25.787  1.00  0.00     0.075 C 
BRANCH   6   7
ATOM      7  C   UNL A   1      33.774  25.373  25.849  1.00  0.00    -0.020 A 
ATOM      8  C   UNL A   1      36.903  23.679  25.099  1.00  0.00     0.149 C 
ATOM      9  N   UNL A   1      35.572  24.088  25.490  1.00  0.00    -0.350 N 
ATOM     10  C   UNL A   1      35.031  25.328  25.272  1.00  0.00     0.090 A 
ATOM     11  C   UNL A   1      34.668  23.287  26.152  1.00  0.00     0.048 A 
ATOM     12  C   UNL A   1      33.571  24.094  26.473  1.00  0.00     0.003 A 
ATOM     13  C   UNL A   1      34.727  21.927  26.503  1.00  0.00     0.027 A 
ATOM     14  C   UNL A   1      32.536  23.529  27.247  1.00  0.00     0.010 A 
ATOM     15  C   UNL A   1      33.648  21.380  27.202  1.00  0.00     0.002 A 
ATOM     16  C   UNL A   1      32.573  22.172  27.583  1.00  0.00     0.001 A 
ENDBRANCH   6   7
ENDBRANCH   5   6
BRANCH   5  17
ATOM     17  N   UNL A   1      34.056  28.656  25.320  1.00  0.00    -0.308 N 
ATOM     18  C   UNL A   1      33.696  28.759  24.017  1.00  0.00     0.407 C 
ATOM     19  H   UNL A   1      34.836  29.185  25.604  1.00  0.00     0.168 HD
ATOM     20  O   UNL A   1      34.537  28.881  23.124  1.00  0.00    -0.225 OA
BRANCH  18  21
ATOM     21  O   UNL A   1      32.361  28.891  23.843  1.00  0.00    -0.449 OA
BRANCH  21  22
ATOM     22  C   UNL A   1      31.919  29.021  22.480  1.00  0.00     0.248 C 
BRANCH  22  23
ATOM     23  C   UNL A   1      30.944  27.903  22.032  1.00  0.00     0.088 C 
ATOM     24  C   UNL A   1      31.347  26.494  22.471  1.00  0.00    -0.029 A 
ATOM     25  C   UNL A   1      29.518  27.994  22.569  1.00  0.00    -0.029 A 
ATOM     26  C   UNL A   1      32.503  25.787  22.170  1.00  0.00     0.005 A 
ATOM     27  C   UNL A   1      30.287  25.884  23.176  1.00  0.00    -0.014 A 
ATOM     28  C   UNL A   1      29.192  26.822  23.284  1.00  0.00    -0.014 A 
ATOM     29  C   UNL A   1      28.599  29.025  22.443  1.00  0.00     0.005 A 
ATOM     30  C   UNL A   1      32.587  24.451  22.577  1.00  0.00     0.000 A 
ATOM     31  C   UNL A   1      30.371  24.561  23.580  1.00  0.00     0.009 A 
ATOM     32  C   UNL A   1      27.978  26.707  23.942  1.00  0.00     0.009 A 
ATOM     33  C   UNL A   1      27.384  28.921  23.123  1.00  0.00     0.000 A 
ATOM     34  C   UNL A   1      31.529  23.843  23.271  1.00  0.00     0.001 A 
ATOM     35  C   UNL A   1      27.079  27.776  23.875  1.00  0.00     0.001 A 
ENDBRANCH  22  23
ENDBRANCH  21  22
ENDBRANCH  18  21
ENDBRANCH   5  17
ENDBRANCH   3   5
ENDBRANCH   2   3
ENDBRANCH   1   2
BRANCH   1  36
ATOM     36  C   UNL A   1      31.768  32.242  27.213  1.00  0.00     0.275 C 
BRANCH  36  37
ATOM     37  O   UNL A   1      33.069  32.851  27.206  1.00  0.00    -0.458 OA
BRANCH  37  38
ATOM     38  C   UNL A   1      33.232  33.844  28.112  1.00  0.00     0.338 C 
ATOM     39  O   UNL A   1      32.526  34.831  28.253  1.00  0.00    -0.246 OA
BRANCH  38  40
ATOM     40  C   UNL A   1      34.303  33.498  29.057  1.00  0.00     0.060 A 
ATOM     41  C   UNL A   1      35.604  33.901  28.731  1.00  0.00     0.016 A 
ATOM     42  C   UNL A   1      34.060  32.726  30.194  1.00  0.00     0.016 A 
ATOM     43  C   UNL A   1      36.674  33.522  29.529  1.00  0.00     0.010 A 
ATOM     44  C   UNL A   1      35.139  32.330  30.987  1.00  0.00     0.010 A 
ATOM     45  C   UNL A   1      36.451  32.704  30.641  1.00  0.00    -0.014 A 
BRANCH  45  46
ATOM     46  C   UNL A   1      37.612  32.131  31.354  1.00  0.00     0.031 A 
ATOM     47  C   UNL A   1      38.374  31.008  30.709  1.00  0.00     0.074 A 
ATOM     48  C   UNL A   1      37.994  32.631  32.541  1.00  0.00     0.049 A 
ATOM     49  N   UNL A   1      39.390  30.328  31.168  1.00  0.00    -0.248 NA
ATOM     50  C   UNL A   1      37.928  30.593  29.368  1.00  0.00     0.031 C 
ATOM     51  C   UNL A   1      37.342  33.739  33.239  1.00  0.00     0.029 A 
ATOM     52  N   UNL A   1      39.014  32.258  33.377  1.00  0.00    -0.354 N 
ATOM     53  C   UNL A   1      39.680  29.379  30.195  1.00  0.00     0.074 A 
ATOM     54  C   UNL A   1      38.732  29.570  29.119  1.00  0.00     0.031 C 
ATOM     55  C   UNL A   1      37.964  33.940  34.412  1.00  0.00     0.029 A 
ATOM     56  C   UNL A   1      39.037  32.959  34.559  1.00  0.00     0.049 A 
ATOM     57  H   UNL A   1      39.667  31.556  33.153  1.00  0.00     0.167 HD
ATOM     58  C   UNL A   1      40.656  28.443  30.195  1.00  0.00     0.034 A 
ATOM     59  C   UNL A   1      39.822  32.806  35.643  1.00  0.00     0.034 A 
ATOM     60  C   UNL A   1      41.612  28.283  31.257  1.00  0.00     0.049 A 
ATOM     61  C   UNL A   1      40.898  31.753  35.616  1.00  0.00     0.074 A 
ATOM     62  C   UNL A   1      42.656  27.380  31.348  1.00  0.00     0.029 A 
ATOM     63  N   UNL A   1      41.639  29.046  32.415  1.00  0.00    -0.354 N 
ATOM     64  N   UNL A   1      41.214  30.918  34.657  1.00  0.00    -0.248 NA
ATOM     65  C   UNL A   1      41.750  31.646  36.809  1.00  0.00     0.031 C 
ATOM     66  C   UNL A   1      43.306  27.588  32.569  1.00  0.00     0.029 A 
ATOM     67  C   UNL A   1      42.682  28.636  33.227  1.00  0.00     0.049 A 
ATOM     68  H   UNL A   1      41.008  29.771  32.628  1.00  0.00     0.167 HD
ATOM     69  C   UNL A   1      42.322  30.212  35.111  1.00  0.00     0.074 A 
ATOM     70  C   UNL A   1      42.633  30.734  36.427  1.00  0.00     0.031 C 
ATOM     71  C   UNL A   1      43.011  29.213  34.507  1.00  0.00     0.034 A 
BRANCH  58  72
ATOM     72  C   UNL A   1      40.746  27.529  29.002  1.00  0.00     0.023 A 
ATOM     73  C   UNL A   1      39.879  26.422  28.902  1.00  0.00     0.012 A 
ATOM     74  C   UNL A   1      41.661  27.787  27.962  1.00  0.00     0.148 A 
ATOM     75  C   UNL A   1      39.941  25.570  27.801  1.00  0.00     0.002 A 
ATOM     76  C   UNL A   1      41.688  26.957  26.847  1.00  0.00     0.091 A 
ATOM     77  F   UNL A   1      42.495  28.830  28.088  1.00  0.00    -0.205 F 
ATOM     78  C   UNL A   1      40.837  25.842  26.770  1.00  0.00     0.022 A 
BRANCH  76  79
ATOM     79  S   UNL A   1      42.755  27.267  25.436  1.00  0.00     0.127 S 
ATOM     80  O   UNL A   1      44.068  27.350  26.072  1.00  0.00    -0.237 OA
ATOM     81  O   UNL A   1      42.545  26.070  24.622  1.00  0.00    -0.237 OA
ATOM     82  O   UNL A   1      42.273  28.502  24.833  1.00  0.00    -0.744 OA
ENDBRANCH  76  79
ENDBRANCH  58  72
BRANCH  59  83
ATOM     83  C   UNL A   1      39.641  33.695  36.825  1.00  0.00     0.023 A 
ATOM     84  C   UNL A   1      40.077  35.034  36.761  1.00  0.00     0.012 A 
ATOM     85  C   UNL A   1      39.020  33.231  38.001  1.00  0.00     0.148 A 
ATOM     86  C   UNL A   1      39.924  35.883  37.856  1.00  0.00     0.002 A 
ATOM     87  C   UNL A   1      38.822  34.099  39.069  1.00  0.00     0.091 A 
ATOM     88  F   UNL A   1      38.630  31.950  38.051  1.00  0.00    -0.205 F 
ATOM     89  C   UNL A   1      39.287  35.421  39.005  1.00  0.00     0.022 A 
BRANCH  87  90
ATOM     90  S   UNL A   1      37.897  33.623  40.533  1.00  0.00     0.127 S 
ATOM     91  O   UNL A   1      37.779  34.896  41.239  1.00  0.00    -0.237 OA
ATOM     92  O   UNL A   1      36.648  33.122  39.955  1.00  0.00    -0.237 OA
ATOM     93  O   UNL A   1      38.703  32.604  41.190  1.00  0.00    -0.744 OA
ENDBRANCH  87  90
ENDBRANCH  59  83
BRANCH  71  94
ATOM     94  C   UNL A   1      44.201  28.649  35.236  1.00  0.00     0.023 A 
ATOM     95  C   UNL A   1      45.485  29.179  35.002  1.00  0.00     0.012 A 
ATOM     96  C   UNL A   1      44.035  27.639  36.204  1.00  0.00     0.148 A 
ATOM     97  C   UNL A   1      46.591  28.687  35.693  1.00  0.00     0.002 A 
ATOM     98  C   UNL A   1      45.134  27.187  36.923  1.00  0.00     0.091 A 
ATOM     99  F   UNL A   1      42.809  27.132  36.398  1.00  0.00    -0.205 F 
ATOM    100  C   UNL A   1      46.415  27.700  36.661  1.00  0.00     0.022 A 
BRANCH  98 101
ATOM    101  S   UNL A   1      44.975  25.992  38.255  1.00  0.00     0.127 S 
ATOM    102  O   UNL A   1      46.362  25.846  38.692  1.00  0.00    -0.237 OA
ATOM    103  O   UNL A   1      44.107  26.691  39.204  1.00  0.00    -0.237 OA
ATOM    104  O   UNL A   1      44.375  24.807  37.655  1.00  0.00    -0.744 OA
ENDBRANCH  98 101
ENDBRANCH  71  94
ENDBRANCH  45  46
ENDBRANCH  38  40
ENDBRANCH  37  38
ENDBRANCH  36  37
ENDBRANCH   1  36
TORSDOF 20
ENDMDL
