MODEL 1
REMARK VINA RESULT:     -11.1      0.000      0.000
REMARK SMILES CCOC(=O)C1=C(C)N(c2ccccc2)C(=O)[C@@H]1CC(=O)OCCOC(=O)c1ccc(-c2c3nc(c(-c4cccc(S(=O)(=O)[O-])c4F)c4ccc([nH]4)c(-c4cccc(S(=O)(=O)[O-])c4F)c4nc(c(-c5cccc(S(=O)(=O)[O-])c5F)c5ccc2[nH]5)C=C4)C=C3)cc1
REMARK SMILES IDX 23 1 22 2 20 3 21 4 19 5 18 6 6 7 7 8 8 9 9 10 16 11 17 12
REMARK SMILES IDX 4 13 5 14 3 15 2 16 1 17 10 18 11 19 15 20 12 21 14 22 13 23
REMARK SMILES IDX 24 24 25 25 26 26 27 27 28 28 29 29 90 30 30 31 89 32 31 33
REMARK SMILES IDX 32 34 33 35 83 36 34 37 88 38 82 39 84 40 35 41 87 42 81 43
REMARK SMILES IDX 80 44 36 46 68 47 48 48 67 49 49 50 52 51 66 52 85 53 50 54
REMARK SMILES IDX 51 55 65 57 86 58 53 59 37 60 38 61 46 62 39 63 41 64 47 65
REMARK SMILES IDX 40 66 42 67 43 68 44 69 45 70 69 71 70 72 78 73 71 74 73 75
REMARK SMILES IDX 79 76 72 77 74 78 75 79 76 80 77 81 54 82 55 83 63 84 56 85
REMARK SMILES IDX 58 86 64 87 57 88 59 89 60 90 61 91 62 92
REMARK H PARENT 84 45 52 56
REMARK Flexibility Score: inf
ROOT
ATOM      1  C   UNL A   1      32.572  29.609  24.582  1.00  0.00     0.274 C 
ENDROOT
BRANCH   1   2
ATOM      2  O   UNL A   1      33.270  28.420  24.991  1.00  0.00    -0.462 OA
BRANCH   2   3
ATOM      3  C   UNL A   1      33.711  27.577  24.035  1.00  0.00     0.307 C 
ATOM      4  O   UNL A   1      34.042  27.912  22.906  1.00  0.00    -0.252 OA
BRANCH   3   5
ATOM      5  C   UNL A   1      33.675  26.134  24.484  1.00  0.00     0.141 C 
BRANCH   5   6
ATOM      6  C   UNL A   1      32.497  25.323  23.941  1.00  0.00     0.130 C 
ATOM      7  C   UNL A   1      31.542  24.909  25.036  1.00  0.00     0.070 C 
ATOM      8  C   UNL A   1      31.552  23.588  25.267  1.00  0.00     0.034 C 
ATOM      9  C   UNL A   1      30.849  22.839  26.349  1.00  0.00     0.065 C 
ATOM     10  N   UNL A   1      32.440  22.992  24.398  1.00  0.00    -0.284 N 
ATOM     11  C   UNL A   1      32.976  23.936  23.508  1.00  0.00     0.239 C 
ATOM     12  O   UNL A   1      33.715  23.699  22.562  1.00  0.00    -0.273 OA
BRANCH   7  13
ATOM     13  C   UNL A   1      30.804  25.873  25.852  1.00  0.00     0.336 C 
ATOM     14  O   UNL A   1      31.304  26.470  26.792  1.00  0.00    -0.246 OA
BRANCH  13  15
ATOM     15  O   UNL A   1      29.527  25.955  25.416  1.00  0.00    -0.463 OA
BRANCH  15  16
ATOM     16  C   UNL A   1      29.354  26.575  24.129  1.00  0.00     0.230 C 
ATOM     17  C   UNL A   1      27.891  26.901  23.871  1.00  0.00     0.049 C 
ENDBRANCH  15  16
ENDBRANCH  13  15
ENDBRANCH   7  13
BRANCH  10  18
ATOM     18  C   UNL A   1      32.891  21.654  24.381  1.00  0.00     0.049 A 
ATOM     19  C   UNL A   1      34.050  21.261  25.051  1.00  0.00     0.027 A 
ATOM     20  C   UNL A   1      32.155  20.698  23.664  1.00  0.00     0.027 A 
ATOM     21  C   UNL A   1      34.468  19.929  25.002  1.00  0.00     0.002 A 
ATOM     22  C   UNL A   1      32.590  19.377  23.588  1.00  0.00     0.002 A 
ATOM     23  C   UNL A   1      33.746  18.992  24.261  1.00  0.00     0.000 A 
ENDBRANCH  10  18
ENDBRANCH   5   6
ENDBRANCH   3   5
ENDBRANCH   2   3
ENDBRANCH   1   2
BRANCH   1  24
ATOM     24  C   UNL A   1      31.714  30.170  25.718  1.00  0.00     0.275 C 
BRANCH  24  25
ATOM     25  O   UNL A   1      32.447  30.188  26.956  1.00  0.00    -0.458 OA
BRANCH  25  26
ATOM     26  C   UNL A   1      33.111  31.338  27.212  1.00  0.00     0.338 C 
ATOM     27  O   UNL A   1      32.677  32.474  27.151  1.00  0.00    -0.246 OA
BRANCH  26  28
ATOM     28  C   UNL A   1      34.455  31.037  27.720  1.00  0.00     0.060 A 
ATOM     29  C   UNL A   1      34.773  29.707  28.011  1.00  0.00     0.016 A 
ATOM     30  C   UNL A   1      35.348  32.066  28.017  1.00  0.00     0.016 A 
ATOM     31  C   UNL A   1      35.980  29.399  28.629  1.00  0.00     0.010 A 
ATOM     32  C   UNL A   1      36.563  31.754  28.628  1.00  0.00     0.010 A 
ATOM     33  C   UNL A   1      36.874  30.423  28.962  1.00  0.00    -0.014 A 
BRANCH  33  34
ATOM     34  C   UNL A   1      38.103  30.108  29.727  1.00  0.00     0.031 A 
ATOM     35  C   UNL A   1      39.116  29.163  29.143  1.00  0.00     0.074 A 
ATOM     36  C   UNL A   1      38.300  30.656  30.939  1.00  0.00     0.049 A 
ATOM     37  N   UNL A   1      40.215  28.699  29.677  1.00  0.00    -0.248 NA
ATOM     38  C   UNL A   1      38.856  28.672  27.780  1.00  0.00     0.031 C 
ATOM     39  C   UNL A   1      37.389  31.591  31.600  1.00  0.00     0.029 A 
ATOM     40  N   UNL A   1      39.319  30.487  31.840  1.00  0.00    -0.354 N 
ATOM     41  C   UNL A   1      40.753  27.825  28.739  1.00  0.00     0.074 A 
ATOM     42  C   UNL A   1      39.859  27.823  27.601  1.00  0.00     0.031 C 
ATOM     43  C   UNL A   1      37.878  31.894  32.813  1.00  0.00     0.029 A 
ATOM     44  C   UNL A   1      39.113  31.148  33.028  1.00  0.00     0.049 A 
ATOM     45  H   UNL A   1      40.119  29.944  31.655  1.00  0.00     0.167 HD
ATOM     46  C   UNL A   1      41.893  27.099  28.815  1.00  0.00     0.034 A 
ATOM     47  C   UNL A   1      39.827  31.128  34.171  1.00  0.00     0.034 A 
ATOM     48  C   UNL A   1      42.791  27.131  29.939  1.00  0.00     0.049 A 
ATOM     49  C   UNL A   1      41.087  30.307  34.231  1.00  0.00     0.074 A 
ATOM     50  C   UNL A   1      43.997  26.468  30.095  1.00  0.00     0.029 A 
ATOM     51  N   UNL A   1      42.580  27.856  31.101  1.00  0.00    -0.354 N 
ATOM     52  N   UNL A   1      41.635  29.566  33.299  1.00  0.00    -0.248 NA
ATOM     53  C   UNL A   1      41.848  30.347  35.488  1.00  0.00     0.031 C 
ATOM     54  C   UNL A   1      44.500  26.773  31.364  1.00  0.00     0.029 A 
ATOM     55  C   UNL A   1      43.628  27.653  31.983  1.00  0.00     0.049 A 
ATOM     56  H   UNL A   1      41.799  28.430  31.275  1.00  0.00     0.167 HD
ATOM     57  C   UNL A   1      42.822  29.084  33.840  1.00  0.00     0.074 A 
ATOM     58  C   UNL A   1      42.921  29.634  35.178  1.00  0.00     0.031 C 
ATOM     59  C   UNL A   1      43.741  28.255  33.287  1.00  0.00     0.034 A 
BRANCH  46  60
ATOM     60  C   UNL A   1      42.248  26.222  27.643  1.00  0.00     0.023 A 
ATOM     61  C   UNL A   1      43.020  26.743  26.585  1.00  0.00     0.012 A 
ATOM     62  C   UNL A   1      41.866  24.866  27.617  1.00  0.00     0.148 A 
ATOM     63  C   UNL A   1      43.378  25.938  25.504  1.00  0.00     0.002 A 
ATOM     64  C   UNL A   1      42.266  24.058  26.559  1.00  0.00     0.091 A 
ATOM     65  F   UNL A   1      41.115  24.394  28.622  1.00  0.00    -0.205 F 
ATOM     66  C   UNL A   1      43.012  24.595  25.497  1.00  0.00     0.022 A 
BRANCH  64  67
ATOM     67  S   UNL A   1      41.913  22.298  26.495  1.00  0.00     0.127 S 
ATOM     68  O   UNL A   1      42.533  21.827  27.733  1.00  0.00    -0.237 OA
ATOM     69  O   UNL A   1      40.449  22.279  26.502  1.00  0.00    -0.237 OA
ATOM     70  O   UNL A   1      42.522  21.810  25.266  1.00  0.00    -0.744 OA
ENDBRANCH  64  67
ENDBRANCH  46  60
BRANCH  47  71
ATOM     71  C   UNL A   1      39.383  31.936  35.341  1.00  0.00     0.023 A 
ATOM     72  C   UNL A   1      38.539  31.355  36.307  1.00  0.00     0.012 A 
ATOM     73  C   UNL A   1      39.805  33.269  35.511  1.00  0.00     0.148 A 
ATOM     74  C   UNL A   1      38.097  32.096  37.403  1.00  0.00     0.002 A 
ATOM     75  C   UNL A   1      39.405  33.984  36.635  1.00  0.00     0.091 A 
ATOM     76  F   UNL A   1      40.595  33.810  34.574  1.00  0.00    -0.205 F 
ATOM     77  C   UNL A   1      38.537  33.405  37.573  1.00  0.00     0.022 A 
BRANCH  75  78
ATOM     78  S   UNL A   1      40.023  35.631  36.998  1.00  0.00     0.127 S 
ATOM     79  O   UNL A   1      39.334  35.939  38.249  1.00  0.00    -0.237 OA
ATOM     80  O   UNL A   1      41.461  35.392  37.129  1.00  0.00    -0.237 OA
ATOM     81  O   UNL A   1      39.654  36.451  35.853  1.00  0.00    -0.744 OA
ENDBRANCH  75  78
ENDBRANCH  47  71
BRANCH  59  82
ATOM     82  C   UNL A   1      44.969  27.932  34.098  1.00  0.00     0.023 A 
ATOM     83  C   UNL A   1      46.107  28.757  34.016  1.00  0.00     0.012 A 
ATOM     84  C   UNL A   1      44.964  26.846  34.997  1.00  0.00     0.148 A 
ATOM     85  C   UNL A   1      47.235  28.488  34.792  1.00  0.00     0.002 A 
ATOM     86  C   UNL A   1      46.071  26.614  35.804  1.00  0.00     0.091 A 
ATOM     87  F   UNL A   1      43.879  26.061  35.046  1.00  0.00    -0.205 F 
ATOM     88  C   UNL A   1      47.211  27.425  35.694  1.00  0.00     0.022 A 
BRANCH  86  89
ATOM     89  S   UNL A   1      46.090  25.333  37.062  1.00  0.00     0.127 S 
ATOM     90  O   UNL A   1      45.018  25.774  37.953  1.00  0.00    -0.237 OA
ATOM     91  O   UNL A   1      45.784  24.131  36.287  1.00  0.00    -0.237 OA
ATOM     92  O   UNL A   1      47.429  25.355  37.637  1.00  0.00    -0.744 OA
ENDBRANCH  86  89
ENDBRANCH  59  82
ENDBRANCH  33  34
ENDBRANCH  26  28
ENDBRANCH  25  26
ENDBRANCH  24  25
ENDBRANCH   1  24
TORSDOF 19
ENDMDL
MODEL 2
REMARK VINA RESULT:     -10.8      0.787      2.955
REMARK SMILES CCOC(=O)C1=C(C)N(c2ccccc2)C(=O)[C@@H]1CC(=O)OCCOC(=O)c1ccc(-c2c3nc(c(-c4cccc(S(=O)(=O)[O-])c4F)c4ccc([nH]4)c(-c4cccc(S(=O)(=O)[O-])c4F)c4nc(c(-c5cccc(S(=O)(=O)[O-])c5F)c5ccc2[nH]5)C=C4)C=C3)cc1
REMARK SMILES IDX 23 1 22 2 20 3 21 4 19 5 18 6 6 7 7 8 8 9 9 10 16 11 17 12
REMARK SMILES IDX 4 13 5 14 3 15 2 16 1 17 10 18 11 19 15 20 12 21 14 22 13 23
REMARK SMILES IDX 24 24 25 25 26 26 27 27 28 28 29 29 90 30 30 31 89 32 31 33
REMARK SMILES IDX 32 34 33 35 83 36 34 37 88 38 82 39 84 40 35 41 87 42 81 43
REMARK SMILES IDX 80 44 36 46 68 47 48 48 67 49 49 50 52 51 66 52 85 53 50 54
REMARK SMILES IDX 51 55 65 57 86 58 53 59 37 60 38 61 46 62 39 63 41 64 47 65
REMARK SMILES IDX 40 66 42 67 43 68 44 69 45 70 69 71 70 72 78 73 71 74 73 75
REMARK SMILES IDX 79 76 72 77 74 78 75 79 76 80 77 81 54 82 55 83 63 84 56 85
REMARK SMILES IDX 58 86 64 87 57 88 59 89 60 90 61 91 62 92
REMARK H PARENT 84 45 52 56
REMARK Flexibility Score: inf
ROOT
ATOM      1  C   UNL A   1      32.884  29.269  24.508  1.00  0.00     0.274 C 
ENDROOT
BRANCH   1   2
ATOM      2  O   UNL A   1      33.651  28.328  25.280  1.00  0.00    -0.462 OA
BRANCH   2   3
ATOM      3  C   UNL A   1      33.772  27.068  24.813  1.00  0.00     0.307 C 
ATOM      4  O   UNL A   1      33.778  26.757  23.630  1.00  0.00    -0.252 OA
BRANCH   3   5
ATOM      5  C   UNL A   1      33.819  26.048  25.928  1.00  0.00     0.141 C 
BRANCH   5   6
ATOM      6  C   UNL A   1      32.528  25.252  26.123  1.00  0.00     0.130 C 
ATOM      7  C   UNL A   1      32.263  24.310  24.973  1.00  0.00     0.070 C 
ATOM      8  C   UNL A   1      31.205  24.671  24.233  1.00  0.00     0.034 C 
ATOM      9  C   UNL A   1      30.727  24.067  22.956  1.00  0.00     0.065 C 
ATOM     10  N   UNL A   1      30.654  25.812  24.775  1.00  0.00    -0.284 N 
ATOM     11  C   UNL A   1      31.319  26.174  25.957  1.00  0.00     0.239 C 
ATOM     12  O   UNL A   1      31.002  27.081  26.715  1.00  0.00    -0.273 OA
BRANCH   7  13
ATOM     13  C   UNL A   1      33.162  23.210  24.625  1.00  0.00     0.336 C 
ATOM     14  O   UNL A   1      33.933  23.254  23.679  1.00  0.00    -0.246 OA
BRANCH  13  15
ATOM     15  O   UNL A   1      32.974  22.179  25.478  1.00  0.00    -0.463 OA
BRANCH  15  16
ATOM     16  C   UNL A   1      32.183  21.091  24.966  1.00  0.00     0.230 C 
ATOM     17  C   UNL A   1      32.499  20.826  23.502  1.00  0.00     0.049 C 
ENDBRANCH  15  16
ENDBRANCH  13  15
ENDBRANCH   7  13
BRANCH  10  18
ATOM     18  C   UNL A   1      29.633  26.633  24.246  1.00  0.00     0.049 A 
ATOM     19  C   UNL A   1      28.283  26.335  24.429  1.00  0.00     0.027 A 
ATOM     20  C   UNL A   1      29.992  27.775  23.513  1.00  0.00     0.027 A 
ATOM     21  C   UNL A   1      27.304  27.167  23.881  1.00  0.00     0.002 A 
ATOM     22  C   UNL A   1      29.016  28.586  22.939  1.00  0.00     0.002 A 
ATOM     23  C   UNL A   1      27.670  28.283  23.127  1.00  0.00     0.000 A 
ENDBRANCH  10  18
ENDBRANCH   5   6
ENDBRANCH   3   5
ENDBRANCH   2   3
ENDBRANCH   1   2
BRANCH   1  24
ATOM     24  C   UNL A   1      32.023  30.158  25.407  1.00  0.00     0.275 C 
BRANCH  24  25
ATOM     25  O   UNL A   1      32.504  30.136  26.764  1.00  0.00    -0.458 OA
BRANCH  25  26
ATOM     26  C   UNL A   1      33.099  31.277  27.179  1.00  0.00     0.338 C 
ATOM     27  O   UNL A   1      32.608  32.390  27.235  1.00  0.00    -0.246 OA
BRANCH  26  28
ATOM     28  C   UNL A   1      34.438  30.981  27.702  1.00  0.00     0.060 A 
ATOM     29  C   UNL A   1      34.743  29.659  28.042  1.00  0.00     0.016 A 
ATOM     30  C   UNL A   1      35.340  32.012  27.964  1.00  0.00     0.016 A 
ATOM     31  C   UNL A   1      35.944  29.362  28.674  1.00  0.00     0.010 A 
ATOM     32  C   UNL A   1      36.551  31.710  28.590  1.00  0.00     0.010 A 
ATOM     33  C   UNL A   1      36.848  30.389  28.973  1.00  0.00    -0.014 A 
BRANCH  33  34
ATOM     34  C   UNL A   1      38.072  30.090  29.751  1.00  0.00     0.031 A 
ATOM     35  C   UNL A   1      39.092  29.138  29.191  1.00  0.00     0.074 A 
ATOM     36  C   UNL A   1      38.257  30.658  30.956  1.00  0.00     0.049 A 
ATOM     37  N   UNL A   1      40.188  28.686  29.741  1.00  0.00    -0.248 NA
ATOM     38  C   UNL A   1      38.843  28.624  27.834  1.00  0.00     0.031 C 
ATOM     39  C   UNL A   1      37.339  31.601  31.595  1.00  0.00     0.029 A 
ATOM     40  N   UNL A   1      39.271  30.506  31.868  1.00  0.00    -0.354 N 
ATOM     41  C   UNL A   1      40.735  27.798  28.821  1.00  0.00     0.074 A 
ATOM     42  C   UNL A   1      39.850  27.775  27.677  1.00  0.00     0.031 C 
ATOM     43  C   UNL A   1      37.818  31.926  32.806  1.00  0.00     0.029 A 
ATOM     44  C   UNL A   1      39.054  31.186  33.043  1.00  0.00     0.049 A 
ATOM     45  H   UNL A   1      40.073  29.963  31.698  1.00  0.00     0.167 HD
ATOM     46  C   UNL A   1      41.877  27.077  28.918  1.00  0.00     0.034 A 
ATOM     47  C   UNL A   1      39.758  31.187  34.192  1.00  0.00     0.034 A 
ATOM     48  C   UNL A   1      42.766  27.129  30.048  1.00  0.00     0.049 A 
ATOM     49  C   UNL A   1      41.021  30.370  34.275  1.00  0.00     0.074 A 
ATOM     50  C   UNL A   1      43.972  26.473  30.225  1.00  0.00     0.029 A 
ATOM     51  N   UNL A   1      42.544  27.872  31.197  1.00  0.00    -0.354 N 
ATOM     52  N   UNL A   1      41.577  29.615  33.359  1.00  0.00    -0.248 NA
ATOM     53  C   UNL A   1      41.771  30.433  35.537  1.00  0.00     0.031 C 
ATOM     54  C   UNL A   1      44.465  26.800  31.492  1.00  0.00     0.029 A 
ATOM     55  C   UNL A   1      43.585  27.687  32.090  1.00  0.00     0.049 A 
ATOM     56  H   UNL A   1      41.760  28.447  31.355  1.00  0.00     0.167 HD
ATOM     57  C   UNL A   1      42.761  29.146  33.917  1.00  0.00     0.074 A 
ATOM     58  C   UNL A   1      42.849  29.717  35.247  1.00  0.00     0.031 C 
ATOM     59  C   UNL A   1      43.686  28.311  33.385  1.00  0.00     0.034 A 
BRANCH  46  60
ATOM     60  C   UNL A   1      42.243  26.182  27.764  1.00  0.00     0.023 A 
ATOM     61  C   UNL A   1      43.076  26.668  26.736  1.00  0.00     0.012 A 
ATOM     62  C   UNL A   1      41.809  24.842  27.726  1.00  0.00     0.148 A 
ATOM     63  C   UNL A   1      43.445  25.845  25.672  1.00  0.00     0.002 A 
ATOM     64  C   UNL A   1      42.218  24.015  26.686  1.00  0.00     0.091 A 
ATOM     65  F   UNL A   1      41.000  24.404  28.700  1.00  0.00    -0.205 F 
ATOM     66  C   UNL A   1      43.026  24.517  25.653  1.00  0.00     0.022 A 
BRANCH  64  67
ATOM     67  S   UNL A   1      41.798  22.270  26.612  1.00  0.00     0.127 S 
ATOM     68  O   UNL A   1      42.471  21.856  25.382  1.00  0.00    -0.237 OA
ATOM     69  O   UNL A   1      42.404  21.756  27.841  1.00  0.00    -0.237 OA
ATOM     70  O   UNL A   1      40.343  22.208  26.579  1.00  0.00    -0.744 OA
ENDBRANCH  64  67
ENDBRANCH  46  60
BRANCH  47  71
ATOM     71  C   UNL A   1      39.303  32.013  35.345  1.00  0.00     0.023 A 
ATOM     72  C   UNL A   1      38.392  31.469  36.272  1.00  0.00     0.012 A 
ATOM     73  C   UNL A   1      39.780  33.324  35.538  1.00  0.00     0.148 A 
ATOM     74  C   UNL A   1      37.939  32.228  37.351  1.00  0.00     0.002 A 
ATOM     75  C   UNL A   1      39.367  34.054  36.647  1.00  0.00     0.091 A 
ATOM     76  F   UNL A   1      40.633  33.829  34.638  1.00  0.00    -0.205 F 
ATOM     77  C   UNL A   1      38.432  33.515  37.545  1.00  0.00     0.022 A 
BRANCH  75  78
ATOM     78  S   UNL A   1      40.044  35.670  37.043  1.00  0.00     0.127 S 
ATOM     79  O   UNL A   1      39.657  36.452  35.872  1.00  0.00    -0.237 OA
ATOM     80  O   UNL A   1      39.326  36.005  38.273  1.00  0.00    -0.237 OA
ATOM     81  O   UNL A   1      41.475  35.463  37.222  1.00  0.00    -0.744 OA
ENDBRANCH  75  78
ENDBRANCH  47  71
BRANCH  59  82
ATOM     82  C   UNL A   1      44.909  28.004  34.210  1.00  0.00     0.023 A 
ATOM     83  C   UNL A   1      46.029  28.856  34.158  1.00  0.00     0.012 A 
ATOM     84  C   UNL A   1      44.915  26.905  35.093  1.00  0.00     0.148 A 
ATOM     85  C   UNL A   1      47.151  28.601  34.948  1.00  0.00     0.002 A 
ATOM     86  C   UNL A   1      46.015  26.688  35.915  1.00  0.00     0.091 A 
ATOM     87  F   UNL A   1      43.848  26.095  35.114  1.00  0.00    -0.205 F 
ATOM     88  C   UNL A   1      47.138  27.526  35.834  1.00  0.00     0.022 A 
BRANCH  86  89
ATOM     89  S   UNL A   1      46.044  25.389  37.155  1.00  0.00     0.127 S 
ATOM     90  O   UNL A   1      45.991  24.185  36.328  1.00  0.00    -0.237 OA
ATOM     91  O   UNL A   1      47.330  25.619  37.816  1.00  0.00    -0.237 OA
ATOM     92  O   UNL A   1      44.882  25.617  38.003  1.00  0.00    -0.744 OA
ENDBRANCH  86  89
ENDBRANCH  59  82
ENDBRANCH  33  34
ENDBRANCH  26  28
ENDBRANCH  25  26
ENDBRANCH  24  25
ENDBRANCH   1  24
TORSDOF 19
ENDMDL
MODEL 3
REMARK VINA RESULT:     -10.5      5.249      8.340
REMARK SMILES CCOC(=O)C1=C(C)N(c2ccccc2)C(=O)[C@@H]1CC(=O)OCCOC(=O)c1ccc(-c2c3nc(c(-c4cccc(S(=O)(=O)[O-])c4F)c4ccc([nH]4)c(-c4cccc(S(=O)(=O)[O-])c4F)c4nc(c(-c5cccc(S(=O)(=O)[O-])c5F)c5ccc2[nH]5)C=C4)C=C3)cc1
REMARK SMILES IDX 23 1 22 2 20 3 21 4 19 5 18 6 6 7 7 8 8 9 9 10 16 11 17 12
REMARK SMILES IDX 4 13 5 14 3 15 2 16 1 17 10 18 11 19 15 20 12 21 14 22 13 23
REMARK SMILES IDX 24 24 25 25 26 26 27 27 28 28 29 29 90 30 30 31 89 32 31 33
REMARK SMILES IDX 32 34 33 35 83 36 34 37 88 38 82 39 84 40 35 41 87 42 81 43
REMARK SMILES IDX 80 44 36 46 68 47 48 48 67 49 49 50 52 51 66 52 85 53 50 54
REMARK SMILES IDX 51 55 65 57 86 58 53 59 37 60 38 61 46 62 39 63 41 64 47 65
REMARK SMILES IDX 40 66 42 67 43 68 44 69 45 70 69 71 70 72 78 73 71 74 73 75
REMARK SMILES IDX 79 76 72 77 74 78 75 79 76 80 77 81 54 82 55 83 63 84 56 85
REMARK SMILES IDX 58 86 64 87 57 88 59 89 60 90 61 91 62 92
REMARK H PARENT 84 45 52 56
REMARK Flexibility Score: inf
ROOT
ATOM      1  C   UNL A   1      37.813  20.738  24.776  1.00  0.00     0.274 C 
ENDROOT
BRANCH   1   2
ATOM      2  O   UNL A   1      36.469  20.541  25.251  1.00  0.00    -0.462 OA
BRANCH   2   3
ATOM      3  C   UNL A   1      35.695  21.628  25.446  1.00  0.00     0.307 C 
ATOM      4  O   UNL A   1      35.709  22.632  24.747  1.00  0.00    -0.252 OA
BRANCH   3   5
ATOM      5  C   UNL A   1      34.848  21.510  26.693  1.00  0.00     0.141 C 
BRANCH   5   6
ATOM      6  C   UNL A   1      33.339  21.526  26.447  1.00  0.00     0.130 C 
ATOM      7  C   UNL A   1      32.945  20.650  25.282  1.00  0.00     0.070 C 
ATOM      8  C   UNL A   1      32.505  21.349  24.226  1.00  0.00     0.034 C 
ATOM      9  C   UNL A   1      32.159  20.842  22.867  1.00  0.00     0.065 C 
ATOM     10  N   UNL A   1      32.528  22.691  24.541  1.00  0.00    -0.284 N 
ATOM     11  C   UNL A   1      32.920  22.882  25.876  1.00  0.00     0.239 C 
ATOM     12  O   UNL A   1      32.942  23.948  26.476  1.00  0.00    -0.273 OA
BRANCH   7  13
ATOM     13  C   UNL A   1      33.167  19.204  25.265  1.00  0.00     0.336 C 
ATOM     14  O   UNL A   1      32.541  18.426  25.966  1.00  0.00    -0.246 OA
BRANCH  13  15
ATOM     15  O   UNL A   1      34.161  18.906  24.399  1.00  0.00    -0.463 OA
BRANCH  15  16
ATOM     16  C   UNL A   1      34.517  17.513  24.325  1.00  0.00     0.230 C 
ATOM     17  C   UNL A   1      33.843  16.837  23.142  1.00  0.00     0.049 C 
ENDBRANCH  15  16
ENDBRANCH  13  15
ENDBRANCH   7  13
BRANCH  10  18
ATOM     18  C   UNL A   1      32.306  23.798  23.694  1.00  0.00     0.049 A 
ATOM     19  C   UNL A   1      31.048  24.388  23.571  1.00  0.00     0.027 A 
ATOM     20  C   UNL A   1      33.381  24.312  22.951  1.00  0.00     0.027 A 
ATOM     21  C   UNL A   1      30.867  25.476  22.713  1.00  0.00     0.002 A 
ATOM     22  C   UNL A   1      33.193  25.375  22.072  1.00  0.00     0.002 A 
ATOM     23  C   UNL A   1      31.935  25.960  21.956  1.00  0.00     0.000 A 
ENDBRANCH  10  18
ENDBRANCH   5   6
ENDBRANCH   3   5
ENDBRANCH   2   3
ENDBRANCH   1   2
BRANCH   1  24
ATOM     24  C   UNL A   1      38.718  21.292  25.877  1.00  0.00     0.275 C 
BRANCH  24  25
ATOM     25  O   UNL A   1      39.375  20.227  26.587  1.00  0.00    -0.458 OA
BRANCH  25  26
ATOM     26  C   UNL A   1      40.712  20.152  26.399  1.00  0.00     0.338 C 
ATOM     27  O   UNL A   1      41.349  19.205  25.974  1.00  0.00    -0.246 OA
BRANCH  26  28
ATOM     28  C   UNL A   1      41.328  21.459  26.661  1.00  0.00     0.060 A 
ATOM     29  C   UNL A   1      41.323  21.945  27.972  1.00  0.00     0.016 A 
ATOM     30  C   UNL A   1      41.798  22.245  25.609  1.00  0.00     0.016 A 
ATOM     31  C   UNL A   1      41.764  23.236  28.237  1.00  0.00     0.010 A 
ATOM     32  C   UNL A   1      42.250  23.538  25.879  1.00  0.00     0.010 A 
ATOM     33  C   UNL A   1      42.210  24.050  27.189  1.00  0.00    -0.014 A 
BRANCH  33  34
ATOM     34  C   UNL A   1      42.566  25.464  27.454  1.00  0.00     0.031 A 
ATOM     35  C   UNL A   1      43.934  25.964  27.082  1.00  0.00     0.074 A 
ATOM     36  C   UNL A   1      41.673  26.284  28.034  1.00  0.00     0.049 A 
ATOM     37  N   UNL A   1      44.469  27.137  27.295  1.00  0.00    -0.248 NA
ATOM     38  C   UNL A   1      44.818  25.018  26.381  1.00  0.00     0.031 C 
ATOM     39  C   UNL A   1      40.315  25.909  28.432  1.00  0.00     0.029 A 
ATOM     40  N   UNL A   1      41.783  27.597  28.414  1.00  0.00    -0.354 N 
ATOM     41  C   UNL A   1      45.766  27.058  26.801  1.00  0.00     0.074 A 
ATOM     42  C   UNL A   1      45.938  25.720  26.277  1.00  0.00     0.031 C 
ATOM     43  C   UNL A   1      39.726  26.961  29.021  1.00  0.00     0.029 A 
ATOM     44  C   UNL A   1      40.675  28.069  29.078  1.00  0.00     0.049 A 
ATOM     45  H   UNL A   1      42.578  28.148  28.231  1.00  0.00     0.167 HD
ATOM     46  C   UNL A   1      46.722  28.016  26.778  1.00  0.00     0.034 A 
ATOM     47  C   UNL A   1      40.462  29.251  29.688  1.00  0.00     0.034 A 
ATOM     48  C   UNL A   1      46.532  29.353  27.275  1.00  0.00     0.049 A 
ATOM     49  C   UNL A   1      41.544  30.297  29.653  1.00  0.00     0.074 A 
ATOM     50  C   UNL A   1      47.422  30.412  27.256  1.00  0.00     0.029 A 
ATOM     51  N   UNL A   1      45.377  29.812  27.889  1.00  0.00    -0.354 N 
ATOM     52  N   UNL A   1      42.728  30.240  29.093  1.00  0.00    -0.248 NA
ATOM     53  C   UNL A   1      41.250  31.581  30.302  1.00  0.00     0.031 C 
ATOM     54  C   UNL A   1      46.814  31.505  27.882  1.00  0.00     0.029 A 
ATOM     55  C   UNL A   1      45.532  31.137  28.259  1.00  0.00     0.049 A 
ATOM     56  H   UNL A   1      44.566  29.275  28.040  1.00  0.00     0.167 HD
ATOM     57  C   UNL A   1      43.303  31.491  29.286  1.00  0.00     0.074 A 
ATOM     58  C   UNL A   1      42.329  32.290  30.001  1.00  0.00     0.031 C 
ATOM     59  C   UNL A   1      44.530  31.936  28.916  1.00  0.00     0.034 A 
BRANCH  46  60
ATOM     60  C   UNL A   1      48.057  27.662  26.177  1.00  0.00     0.023 A 
ATOM     61  C   UNL A   1      49.102  27.208  27.007  1.00  0.00     0.012 A 
ATOM     62  C   UNL A   1      48.259  27.725  24.784  1.00  0.00     0.148 A 
ATOM     63  C   UNL A   1      50.337  26.853  26.464  1.00  0.00     0.002 A 
ATOM     64  C   UNL A   1      49.477  27.325  24.246  1.00  0.00     0.091 A 
ATOM     65  F   UNL A   1      47.261  28.179  24.013  1.00  0.00    -0.205 F 
ATOM     66  C   UNL A   1      50.520  26.900  25.085  1.00  0.00     0.022 A 
BRANCH  64  67
ATOM     67  S   UNL A   1      49.786  27.275  22.477  1.00  0.00     0.127 S 
ATOM     68  O   UNL A   1      51.177  26.827  22.433  1.00  0.00    -0.237 OA
ATOM     69  O   UNL A   1      48.811  26.281  22.024  1.00  0.00    -0.237 OA
ATOM     70  O   UNL A   1      49.549  28.626  21.988  1.00  0.00    -0.744 OA
ENDBRANCH  64  67
ENDBRANCH  46  60
BRANCH  47  71
ATOM     71  C   UNL A   1      39.158  29.521  30.357  1.00  0.00     0.023 A 
ATOM     72  C   UNL A   1      38.890  28.943  31.613  1.00  0.00     0.012 A 
ATOM     73  C   UNL A   1      38.193  30.359  29.766  1.00  0.00     0.148 A 
ATOM     74  C   UNL A   1      37.670  29.168  32.253  1.00  0.00     0.002 A 
ATOM     75  C   UNL A   1      37.003  30.623  30.434  1.00  0.00     0.091 A 
ATOM     76  F   UNL A   1      38.460  30.887  28.564  1.00  0.00    -0.205 F 
ATOM     77  C   UNL A   1      36.732  30.014  31.670  1.00  0.00     0.022 A 
BRANCH  75  78
ATOM     78  S   UNL A   1      35.792  31.798  29.818  1.00  0.00     0.127 S 
ATOM     79  O   UNL A   1      36.636  32.931  29.450  1.00  0.00    -0.237 OA
ATOM     80  O   UNL A   1      35.213  31.069  28.688  1.00  0.00    -0.237 OA
ATOM     81  O   UNL A   1      34.869  32.026  30.921  1.00  0.00    -0.744 OA
ENDBRANCH  75  78
ENDBRANCH  47  71
BRANCH  59  82
ATOM     82  C   UNL A   1      44.874  33.371  29.222  1.00  0.00     0.023 A 
ATOM     83  C   UNL A   1      45.439  33.713  30.465  1.00  0.00     0.012 A 
ATOM     84  C   UNL A   1      44.702  34.369  28.241  1.00  0.00     0.148 A 
ATOM     85  C   UNL A   1      45.798  35.033  30.742  1.00  0.00     0.002 A 
ATOM     86  C   UNL A   1      45.110  35.671  28.504  1.00  0.00     0.091 A 
ATOM     87  F   UNL A   1      44.145  34.027  27.071  1.00  0.00    -0.205 F 
ATOM     88  C   UNL A   1      45.645  36.008  29.758  1.00  0.00     0.022 A 
BRANCH  86  89
ATOM     89  S   UNL A   1      45.043  36.967  27.263  1.00  0.00     0.127 S 
ATOM     90  O   UNL A   1      45.930  36.436  26.230  1.00  0.00    -0.237 OA
ATOM     91  O   UNL A   1      43.626  36.980  26.902  1.00  0.00    -0.237 OA
ATOM     92  O   UNL A   1      45.508  38.180  27.924  1.00  0.00    -0.744 OA
ENDBRANCH  86  89
ENDBRANCH  59  82
ENDBRANCH  33  34
ENDBRANCH  26  28
ENDBRANCH  25  26
ENDBRANCH  24  25
ENDBRANCH   1  24
TORSDOF 19
ENDMDL
