MODEL 1
REMARK VINA RESULT:     -10.9      0.000      0.000
REMARK SMILES CC[C@](C)([NH2+]CCC(=O)Nc1ccccc1)C(=O)OCCOC(=O)c1ccc(-c2c3nc(c(-c4cccc(S(=O)(=O)[O-])c4F)c4ccc([nH]4)c(-c4cccc(S(=O)(=O)[O-])c4F)c4nc(c(-c5cccc(S(=O)(=O)[O-])c5F)c5ccc2[nH]5)C=C4)C=C3)cc1
REMARK SMILES IDX 20 1 19 2 17 3 18 4 3 5 4 6 2 7 1 8 5 9 6 12 7 13 8 14 9 15
REMARK SMILES IDX 10 16 11 18 12 19 16 20 13 21 15 22 14 23 21 24 22 25 23 26
REMARK SMILES IDX 24 27 25 28 26 29 87 30 27 31 86 32 28 33 29 34 30 35 80 36
REMARK SMILES IDX 31 37 85 38 79 39 81 40 32 41 84 42 78 43 77 44 33 46 65 47
REMARK SMILES IDX 45 48 64 49 46 50 49 51 63 52 82 53 47 54 48 55 62 57 83 58
REMARK SMILES IDX 50 59 34 60 35 61 43 62 36 63 38 64 44 65 37 66 39 67 40 68
REMARK SMILES IDX 41 69 42 70 66 71 67 72 75 73 68 74 70 75 76 76 69 77 71 78
REMARK SMILES IDX 72 79 73 80 74 81 51 82 52 83 60 84 53 85 55 86 61 87 54 88
REMARK SMILES IDX 56 89 57 90 58 91 59 92
REMARK H PARENT 5 10 5 11 10 17 81 45 49 56
REMARK Flexibility Score: inf
ROOT
ATOM      1  C   UNL A   1      31.731  28.994  23.680  1.00  0.00     0.274 C 
ENDROOT
BRANCH   1   2
ATOM      2  O   UNL A   1      30.776  27.933  23.480  1.00  0.00    -0.457 OA
BRANCH   2   3
ATOM      3  C   UNL A   1      31.282  26.764  23.004  1.00  0.00     0.367 C 
ATOM      4  O   UNL A   1      31.500  26.556  21.813  1.00  0.00    -0.245 OA
BRANCH   3   5
ATOM      5  C   UNL A   1      31.499  25.678  24.094  1.00  0.00     0.191 C 
ATOM      6  C   UNL A   1      30.493  26.013  25.229  1.00  0.00     0.092 C 
BRANCH   5   7
ATOM      7  C   UNL A   1      32.954  25.807  24.601  1.00  0.00     0.077 C 
ATOM      8  C   UNL A   1      33.121  26.360  26.012  1.00  0.00     0.011 C 
ENDBRANCH   5   7
BRANCH   5   9
ATOM      9  N   UNL A   1      31.056  24.331  23.687  1.00  0.00    -0.332 N 
ATOM     10  H   UNL A   1      31.085  24.331  22.667  1.00  0.00     0.347 HD
ATOM     11  H   UNL A   1      30.177  24.265  24.199  1.00  0.00     0.347 HD
BRANCH   9  12
ATOM     12  C   UNL A   1      31.685  23.091  24.090  1.00  0.00     0.271 C 
BRANCH  12  13
ATOM     13  C   UNL A   1      31.490  22.563  25.506  1.00  0.00     0.161 C 
BRANCH  13  14
ATOM     14  C   UNL A   1      32.318  22.888  26.751  1.00  0.00     0.230 C 
ATOM     15  O   UNL A   1      31.717  23.332  27.741  1.00  0.00    -0.275 OA
ATOM     16  N   UNL A   1      33.573  22.416  26.970  1.00  0.00    -0.326 N 
ATOM     17  H   UNL A   1      33.681  21.974  27.843  1.00  0.00     0.169 HD
BRANCH  16  18
ATOM     18  C   UNL A   1      34.741  22.435  26.203  1.00  0.00     0.041 A 
ATOM     19  C   UNL A   1      35.121  21.236  25.589  1.00  0.00     0.026 A 
ATOM     20  C   UNL A   1      35.545  23.567  26.056  1.00  0.00     0.026 A 
ATOM     21  C   UNL A   1      36.234  21.194  24.749  1.00  0.00     0.002 A 
ATOM     22  C   UNL A   1      36.661  23.522  25.216  1.00  0.00     0.002 A 
ATOM     23  C   UNL A   1      36.996  22.343  24.551  1.00  0.00     0.000 A 
ENDBRANCH  16  18
ENDBRANCH  13  14
ENDBRANCH  12  13
ENDBRANCH   9  12
ENDBRANCH   5   9
ENDBRANCH   3   5
ENDBRANCH   2   3
ENDBRANCH   1   2
BRANCH   1  24
ATOM     24  C   UNL A   1      31.546  29.573  25.079  1.00  0.00     0.275 C 
BRANCH  24  25
ATOM     25  O   UNL A   1      32.834  29.868  25.643  1.00  0.00    -0.458 OA
BRANCH  25  26
ATOM     26  C   UNL A   1      32.839  30.835  26.593  1.00  0.00     0.338 C 
ATOM     27  O   UNL A   1      31.963  31.657  26.795  1.00  0.00    -0.246 OA
BRANCH  26  28
ATOM     28  C   UNL A   1      34.096  30.777  27.374  1.00  0.00     0.060 A 
ATOM     29  C   UNL A   1      34.850  31.920  27.625  1.00  0.00     0.016 A 
ATOM     30  C   UNL A   1      34.564  29.539  27.809  1.00  0.00     0.016 A 
ATOM     31  C   UNL A   1      36.119  31.821  28.202  1.00  0.00     0.010 A 
ATOM     32  C   UNL A   1      35.771  29.462  28.513  1.00  0.00     0.010 A 
ATOM     33  C   UNL A   1      36.589  30.594  28.692  1.00  0.00    -0.014 A 
BRANCH  33  34
ATOM     34  C   UNL A   1      37.900  30.454  29.403  1.00  0.00     0.031 A 
ATOM     35  C   UNL A   1      38.975  29.563  28.829  1.00  0.00     0.074 A 
ATOM     36  C   UNL A   1      38.113  31.024  30.608  1.00  0.00     0.049 A 
ATOM     37  N   UNL A   1      39.996  29.002  29.423  1.00  0.00    -0.248 NA
ATOM     38  C   UNL A   1      38.860  29.230  27.398  1.00  0.00     0.031 C 
ATOM     39  C   UNL A   1      37.193  31.925  31.302  1.00  0.00     0.029 A 
ATOM     40  N   UNL A   1      39.166  30.890  31.487  1.00  0.00    -0.354 N 
ATOM     41  C   UNL A   1      40.569  28.157  28.479  1.00  0.00     0.074 A 
ATOM     42  C   UNL A   1      39.805  28.310  27.258  1.00  0.00     0.031 C 
ATOM     43  C   UNL A   1      37.715  32.265  32.488  1.00  0.00     0.029 A 
ATOM     44  C   UNL A   1      38.951  31.520  32.693  1.00  0.00     0.049 A 
ATOM     45  H   UNL A   1      39.989  30.394  31.276  1.00  0.00     0.167 HD
ATOM     46  C   UNL A   1      41.629  27.324  28.619  1.00  0.00     0.034 A 
ATOM     47  C   UNL A   1      39.615  31.456  33.866  1.00  0.00     0.034 A 
ATOM     48  C   UNL A   1      42.457  27.261  29.794  1.00  0.00     0.049 A 
ATOM     49  C   UNL A   1      40.823  30.573  33.985  1.00  0.00     0.074 A 
ATOM     50  C   UNL A   1      43.601  26.507  30.000  1.00  0.00     0.029 A 
ATOM     51  N   UNL A   1      42.247  27.993  30.952  1.00  0.00    -0.354 N 
ATOM     52  N   UNL A   1      41.366  29.797  33.079  1.00  0.00    -0.248 NA
ATOM     53  C   UNL A   1      41.515  30.560  35.283  1.00  0.00     0.031 C 
ATOM     54  C   UNL A   1      44.082  26.785  31.284  1.00  0.00     0.029 A 
ATOM     55  C   UNL A   1      43.242  27.717  31.874  1.00  0.00     0.049 A 
ATOM     56  H   UNL A   1      41.502  28.618  31.097  1.00  0.00     0.167 HD
ATOM     57  C   UNL A   1      42.467  29.210  33.691  1.00  0.00     0.074 A 
ATOM     58  C   UNL A   1      42.531  29.741  35.039  1.00  0.00     0.031 C 
ATOM     59  C   UNL A   1      43.331  28.294  33.190  1.00  0.00     0.034 A 
BRANCH  46  60
ATOM     60  C   UNL A   1      41.971  26.420  27.463  1.00  0.00     0.023 A 
ATOM     61  C   UNL A   1      42.724  26.913  26.380  1.00  0.00     0.012 A 
ATOM     62  C   UNL A   1      41.590  25.064  27.478  1.00  0.00     0.148 A 
ATOM     63  C   UNL A   1      43.063  26.079  25.314  1.00  0.00     0.002 A 
ATOM     64  C   UNL A   1      41.967  24.228  26.432  1.00  0.00     0.091 A 
ATOM     65  F   UNL A   1      40.852  24.613  28.504  1.00  0.00    -0.205 F 
ATOM     66  C   UNL A   1      42.694  24.736  25.345  1.00  0.00     0.022 A 
BRANCH  64  67
ATOM     67  S   UNL A   1      41.597  22.469  26.443  1.00  0.00     0.127 S 
ATOM     68  O   UNL A   1      42.456  21.976  25.369  1.00  0.00    -0.237 OA
ATOM     69  O   UNL A   1      42.013  22.065  27.788  1.00  0.00    -0.237 OA
ATOM     70  O   UNL A   1      40.163  22.372  26.209  1.00  0.00    -0.744 OA
ENDBRANCH  64  67
ENDBRANCH  46  60
BRANCH  47  71
ATOM     71  C   UNL A   1      39.119  32.257  35.021  1.00  0.00     0.023 A 
ATOM     72  C   UNL A   1      38.231  31.669  35.940  1.00  0.00     0.012 A 
ATOM     73  C   UNL A   1      39.610  33.555  35.272  1.00  0.00     0.148 A 
ATOM     74  C   UNL A   1      37.843  32.358  37.091  1.00  0.00     0.002 A 
ATOM     75  C   UNL A   1      39.275  34.206  36.453  1.00  0.00     0.091 A 
ATOM     76  F   UNL A   1      40.436  34.107  34.371  1.00  0.00    -0.205 F 
ATOM     77  C   UNL A   1      38.380  33.615  37.358  1.00  0.00     0.022 A 
BRANCH  75  78
ATOM     78  S   UNL A   1      40.060  35.742  36.956  1.00  0.00     0.127 S 
ATOM     79  O   UNL A   1      39.689  36.640  35.866  1.00  0.00    -0.237 OA
ATOM     80  O   UNL A   1      39.402  36.017  38.234  1.00  0.00    -0.237 OA
ATOM     81  O   UNL A   1      41.480  35.435  37.071  1.00  0.00    -0.744 OA
ENDBRANCH  75  78
ENDBRANCH  47  71
BRANCH  59  82
ATOM     82  C   UNL A   1      44.444  27.819  34.083  1.00  0.00     0.023 A 
ATOM     83  C   UNL A   1      45.642  28.556  34.149  1.00  0.00     0.012 A 
ATOM     84  C   UNL A   1      44.269  26.700  34.919  1.00  0.00     0.148 A 
ATOM     85  C   UNL A   1      46.658  28.176  35.025  1.00  0.00     0.002 A 
ATOM     86  C   UNL A   1      45.271  26.348  35.816  1.00  0.00     0.091 A 
ATOM     87  F   UNL A   1      43.129  26.001  34.823  1.00  0.00    -0.205 F 
ATOM     88  C   UNL A   1      46.468  27.081  35.867  1.00  0.00     0.022 A 
BRANCH  86  89
ATOM     89  S   UNL A   1      45.078  25.004  36.992  1.00  0.00     0.127 S 
ATOM     90  O   UNL A   1      45.004  23.843  36.107  1.00  0.00    -0.237 OA
ATOM     91  O   UNL A   1      46.310  25.094  37.776  1.00  0.00    -0.237 OA
ATOM     92  O   UNL A   1      43.865  25.299  37.741  1.00  0.00    -0.744 OA
ENDBRANCH  86  89
ENDBRANCH  59  82
ENDBRANCH  33  34
ENDBRANCH  26  28
ENDBRANCH  25  26
ENDBRANCH  24  25
ENDBRANCH   1  24
TORSDOF 20
ENDMDL
MODEL 2
REMARK VINA RESULT:     -10.8      1.513      3.828
REMARK SMILES CC[C@](C)([NH2+]CCC(=O)Nc1ccccc1)C(=O)OCCOC(=O)c1ccc(-c2c3nc(c(-c4cccc(S(=O)(=O)[O-])c4F)c4ccc([nH]4)c(-c4cccc(S(=O)(=O)[O-])c4F)c4nc(c(-c5cccc(S(=O)(=O)[O-])c5F)c5ccc2[nH]5)C=C4)C=C3)cc1
REMARK SMILES IDX 20 1 19 2 17 3 18 4 3 5 4 6 2 7 1 8 5 9 6 12 7 13 8 14 9 15
REMARK SMILES IDX 10 16 11 18 12 19 16 20 13 21 15 22 14 23 21 24 22 25 23 26
REMARK SMILES IDX 24 27 25 28 26 29 87 30 27 31 86 32 28 33 29 34 30 35 80 36
REMARK SMILES IDX 31 37 85 38 79 39 81 40 32 41 84 42 78 43 77 44 33 46 65 47
REMARK SMILES IDX 45 48 64 49 46 50 49 51 63 52 82 53 47 54 48 55 62 57 83 58
REMARK SMILES IDX 50 59 34 60 35 61 43 62 36 63 38 64 44 65 37 66 39 67 40 68
REMARK SMILES IDX 41 69 42 70 66 71 67 72 75 73 68 74 70 75 76 76 69 77 71 78
REMARK SMILES IDX 72 79 73 80 74 81 51 82 52 83 60 84 53 85 55 86 61 87 54 88
REMARK SMILES IDX 56 89 57 90 58 91 59 92
REMARK H PARENT 5 10 5 11 10 17 81 45 49 56
REMARK Flexibility Score: inf
ROOT
ATOM      1  C   UNL A   1      31.768  27.690  27.035  1.00  0.00     0.274 C 
ENDROOT
BRANCH   1   2
ATOM      2  O   UNL A   1      32.697  26.738  26.480  1.00  0.00    -0.457 OA
BRANCH   2   3
ATOM      3  C   UNL A   1      32.167  25.541  26.110  1.00  0.00     0.367 C 
ATOM      4  O   UNL A   1      31.502  24.833  26.863  1.00  0.00    -0.245 OA
BRANCH   3   5
ATOM      5  C   UNL A   1      32.532  25.108  24.663  1.00  0.00     0.191 C 
ATOM      6  C   UNL A   1      32.196  23.593  24.581  1.00  0.00     0.092 C 
BRANCH   5   7
ATOM      7  C   UNL A   1      34.049  25.340  24.473  1.00  0.00     0.077 C 
ATOM      8  C   UNL A   1      34.967  24.491  25.346  1.00  0.00     0.011 C 
ENDBRANCH   5   7
BRANCH   5   9
ATOM      9  N   UNL A   1      31.640  25.670  23.632  1.00  0.00    -0.332 N 
ATOM     10  H   UNL A   1      30.770  25.893  24.117  1.00  0.00     0.347 HD
ATOM     11  H   UNL A   1      31.688  24.936  22.926  1.00  0.00     0.347 HD
BRANCH   9  12
ATOM     12  C   UNL A   1      31.936  26.831  22.819  1.00  0.00     0.271 C 
BRANCH  12  13
ATOM     13  C   UNL A   1      30.837  27.835  22.495  1.00  0.00     0.161 C 
BRANCH  13  14
ATOM     14  C   UNL A   1      29.437  27.923  23.108  1.00  0.00     0.230 C 
ATOM     15  O   UNL A   1      28.948  26.884  23.577  1.00  0.00    -0.275 OA
ATOM     16  N   UNL A   1      28.847  29.089  23.482  1.00  0.00    -0.326 N 
ATOM     17  H   UNL A   1      28.515  29.083  24.409  1.00  0.00     0.169 HD
BRANCH  16  18
ATOM     18  C   UNL A   1      28.617  30.293  22.812  1.00  0.00     0.041 A 
ATOM     19  C   UNL A   1      28.697  31.469  23.565  1.00  0.00     0.026 A 
ATOM     20  C   UNL A   1      28.283  30.366  21.458  1.00  0.00     0.026 A 
ATOM     21  C   UNL A   1      28.552  32.713  22.952  1.00  0.00     0.002 A 
ATOM     22  C   UNL A   1      28.135  31.614  20.846  1.00  0.00     0.002 A 
ATOM     23  C   UNL A   1      28.285  32.786  21.587  1.00  0.00     0.000 A 
ENDBRANCH  16  18
ENDBRANCH  13  14
ENDBRANCH  12  13
ENDBRANCH   9  12
ENDBRANCH   5   9
ENDBRANCH   3   5
ENDBRANCH   2   3
ENDBRANCH   1   2
BRANCH   1  24
ATOM     24  C   UNL A   1      31.604  28.852  26.060  1.00  0.00     0.275 C 
BRANCH  24  25
ATOM     25  O   UNL A   1      32.863  29.529  25.914  1.00  0.00    -0.458 OA
BRANCH  25  26
ATOM     26  C   UNL A   1      32.989  30.669  26.635  1.00  0.00     0.338 C 
ATOM     27  O   UNL A   1      32.210  31.606  26.653  1.00  0.00    -0.246 OA
BRANCH  26  28
ATOM     28  C   UNL A   1      34.248  30.644  27.414  1.00  0.00     0.060 A 
ATOM     29  C   UNL A   1      34.935  31.814  27.726  1.00  0.00     0.016 A 
ATOM     30  C   UNL A   1      34.789  29.415  27.784  1.00  0.00     0.016 A 
ATOM     31  C   UNL A   1      36.209  31.759  28.300  1.00  0.00     0.010 A 
ATOM     32  C   UNL A   1      35.999  29.371  28.485  1.00  0.00     0.010 A 
ATOM     33  C   UNL A   1      36.749  30.537  28.726  1.00  0.00    -0.014 A 
BRANCH  33  34
ATOM     34  C   UNL A   1      38.067  30.436  29.431  1.00  0.00     0.031 A 
ATOM     35  C   UNL A   1      39.173  29.594  28.841  1.00  0.00     0.074 A 
ATOM     36  C   UNL A   1      38.263  30.998  30.643  1.00  0.00     0.049 A 
ATOM     37  N   UNL A   1      40.216  29.064  29.424  1.00  0.00    -0.248 NA
ATOM     38  C   UNL A   1      39.066  29.277  27.406  1.00  0.00     0.031 C 
ATOM     39  C   UNL A   1      37.313  31.854  31.352  1.00  0.00     0.029 A 
ATOM     40  N   UNL A   1      39.324  30.891  31.517  1.00  0.00    -0.354 N 
ATOM     41  C   UNL A   1      40.816  28.253  28.468  1.00  0.00     0.074 A 
ATOM     42  C   UNL A   1      40.044  28.395  27.251  1.00  0.00     0.031 C 
ATOM     43  C   UNL A   1      37.826  32.197  32.541  1.00  0.00     0.029 A 
ATOM     44  C   UNL A   1      39.089  31.496  32.732  1.00  0.00     0.049 A 
ATOM     45  H   UNL A   1      40.164  30.429  31.297  1.00  0.00     0.167 HD
ATOM     46  C   UNL A   1      41.907  27.458  28.593  1.00  0.00     0.034 A 
ATOM     47  C   UNL A   1      39.759  31.441  33.901  1.00  0.00     0.034 A 
ATOM     48  C   UNL A   1      42.742  27.410  29.764  1.00  0.00     0.049 A 
ATOM     49  C   UNL A   1      41.000  30.602  34.005  1.00  0.00     0.074 A 
ATOM     50  C   UNL A   1      43.913  26.697  29.957  1.00  0.00     0.029 A 
ATOM     51  N   UNL A   1      42.508  28.118  30.932  1.00  0.00    -0.354 N 
ATOM     52  N   UNL A   1      41.568  29.859  33.087  1.00  0.00    -0.248 NA
ATOM     53  C   UNL A   1      41.696  30.597  35.301  1.00  0.00     0.031 C 
ATOM     54  C   UNL A   1      44.388  26.975  31.243  1.00  0.00     0.029 A 
ATOM     55  C   UNL A   1      43.516  27.867  31.848  1.00  0.00     0.049 A 
ATOM     56  H   UNL A   1      41.741  28.713  31.088  1.00  0.00     0.167 HD
ATOM     57  C   UNL A   1      42.692  29.305  33.688  1.00  0.00     0.074 A 
ATOM     58  C   UNL A   1      42.741  29.820  35.042  1.00  0.00     0.031 C 
ATOM     59  C   UNL A   1      43.588  28.429  33.172  1.00  0.00     0.034 A 
BRANCH  46  60
ATOM     60  C   UNL A   1      42.279  26.584  27.423  1.00  0.00     0.023 A 
ATOM     61  C   UNL A   1      43.027  27.114  26.355  1.00  0.00     0.012 A 
ATOM     62  C   UNL A   1      41.930  25.219  27.411  1.00  0.00     0.148 A 
ATOM     63  C   UNL A   1      43.393  26.307  25.277  1.00  0.00     0.002 A 
ATOM     64  C   UNL A   1      42.333  24.411  26.353  1.00  0.00     0.091 A 
ATOM     65  F   UNL A   1      41.195  24.733  28.423  1.00  0.00    -0.205 F 
ATOM     66  C   UNL A   1      43.056  24.955  25.281  1.00  0.00     0.022 A 
BRANCH  64  67
ATOM     67  S   UNL A   1      42.005  22.644  26.330  1.00  0.00     0.127 S 
ATOM     68  O   UNL A   1      42.621  22.210  27.583  1.00  0.00    -0.237 OA
ATOM     69  O   UNL A   1      40.541  22.593  26.324  1.00  0.00    -0.237 OA
ATOM     70  O   UNL A   1      42.625  22.150  25.109  1.00  0.00    -0.744 OA
ENDBRANCH  64  67
ENDBRANCH  46  60
BRANCH  47  71
ATOM     71  C   UNL A   1      39.238  32.207  35.070  1.00  0.00     0.023 A 
ATOM     72  C   UNL A   1      38.400  31.565  35.999  1.00  0.00     0.012 A 
ATOM     73  C   UNL A   1      39.659  33.529  35.319  1.00  0.00     0.148 A 
ATOM     74  C   UNL A   1      37.992  32.226  37.160  1.00  0.00     0.002 A 
ATOM     75  C   UNL A   1      39.307  34.155  36.510  1.00  0.00     0.091 A 
ATOM     76  F   UNL A   1      40.437  34.132  34.409  1.00  0.00    -0.205 F 
ATOM     77  C   UNL A   1      38.462  33.510  37.426  1.00  0.00     0.022 A 
BRANCH  75  78
ATOM     78  S   UNL A   1      40.012  35.731  37.008  1.00  0.00     0.127 S 
ATOM     79  O   UNL A   1      39.623  36.598  35.900  1.00  0.00    -0.237 OA
ATOM     80  O   UNL A   1      39.316  35.990  38.269  1.00  0.00    -0.237 OA
ATOM     81  O   UNL A   1      41.442  35.489  37.155  1.00  0.00    -0.744 OA
ENDBRANCH  75  78
ENDBRANCH  47  71
BRANCH  59  82
ATOM     82  C   UNL A   1      44.721  27.984  34.054  1.00  0.00     0.023 A 
ATOM     83  C   UNL A   1      45.888  28.768  34.134  1.00  0.00     0.012 A 
ATOM     84  C   UNL A   1      44.594  26.842  34.869  1.00  0.00     0.148 A 
ATOM     85  C   UNL A   1      46.920  28.414  35.003  1.00  0.00     0.002 A 
ATOM     86  C   UNL A   1      45.611  26.515  35.758  1.00  0.00     0.091 A 
ATOM     87  F   UNL A   1      43.484  26.098  34.759  1.00  0.00    -0.205 F 
ATOM     88  C   UNL A   1      46.777  27.296  35.822  1.00  0.00     0.022 A 
BRANCH  86  89
ATOM     89  S   UNL A   1      45.476  25.141  36.908  1.00  0.00     0.127 S 
ATOM     90  O   UNL A   1      44.270  25.496  37.655  1.00  0.00    -0.237 OA
ATOM     91  O   UNL A   1      45.322  23.996  36.011  1.00  0.00    -0.237 OA
ATOM     92  O   UNL A   1      46.712  25.141  37.678  1.00  0.00    -0.744 OA
ENDBRANCH  86  89
ENDBRANCH  59  82
ENDBRANCH  33  34
ENDBRANCH  26  28
ENDBRANCH  25  26
ENDBRANCH  24  25
ENDBRANCH   1  24
TORSDOF 20
ENDMDL
MODEL 3
REMARK VINA RESULT:     -10.7      1.340      1.953
REMARK SMILES CC[C@](C)([NH2+]CCC(=O)Nc1ccccc1)C(=O)OCCOC(=O)c1ccc(-c2c3nc(c(-c4cccc(S(=O)(=O)[O-])c4F)c4ccc([nH]4)c(-c4cccc(S(=O)(=O)[O-])c4F)c4nc(c(-c5cccc(S(=O)(=O)[O-])c5F)c5ccc2[nH]5)C=C4)C=C3)cc1
REMARK SMILES IDX 20 1 19 2 17 3 18 4 3 5 4 6 2 7 1 8 5 9 6 12 7 13 8 14 9 15
REMARK SMILES IDX 10 16 11 18 12 19 16 20 13 21 15 22 14 23 21 24 22 25 23 26
REMARK SMILES IDX 24 27 25 28 26 29 87 30 27 31 86 32 28 33 29 34 30 35 80 36
REMARK SMILES IDX 31 37 85 38 79 39 81 40 32 41 84 42 78 43 77 44 33 46 65 47
REMARK SMILES IDX 45 48 64 49 46 50 49 51 63 52 82 53 47 54 48 55 62 57 83 58
REMARK SMILES IDX 50 59 34 60 35 61 43 62 36 63 38 64 44 65 37 66 39 67 40 68
REMARK SMILES IDX 41 69 42 70 66 71 67 72 75 73 68 74 70 75 76 76 69 77 71 78
REMARK SMILES IDX 72 79 73 80 74 81 51 82 52 83 60 84 53 85 55 86 61 87 54 88
REMARK SMILES IDX 56 89 57 90 58 91 59 92
REMARK H PARENT 5 10 5 11 10 17 81 45 49 56
REMARK Flexibility Score: inf
ROOT
ATOM      1  C   UNL A   1      31.222  28.027  25.302  1.00  0.00     0.274 C 
ENDROOT
BRANCH   1   2
ATOM      2  O   UNL A   1      32.336  27.126  25.150  1.00  0.00    -0.457 OA
BRANCH   2   3
ATOM      3  C   UNL A   1      32.094  26.005  24.418  1.00  0.00     0.367 C 
ATOM      4  O   UNL A   1      31.057  25.820  23.784  1.00  0.00    -0.245 OA
BRANCH   3   5
ATOM      5  C   UNL A   1      33.220  24.937  24.504  1.00  0.00     0.191 C 
ATOM      6  C   UNL A   1      34.306  25.546  25.434  1.00  0.00     0.092 C 
BRANCH   5   7
ATOM      7  C   UNL A   1      33.779  24.730  23.078  1.00  0.00     0.077 C 
ATOM      8  C   UNL A   1      33.365  23.438  22.382  1.00  0.00     0.011 C 
ENDBRANCH   5   7
BRANCH   5   9
ATOM      9  N   UNL A   1      32.832  23.725  25.249  1.00  0.00    -0.332 N 
ATOM     10  H   UNL A   1      32.960  22.951  24.595  1.00  0.00     0.347 HD
ATOM     11  H   UNL A   1      31.909  24.000  25.581  1.00  0.00     0.347 HD
BRANCH   9  12
ATOM     12  C   UNL A   1      33.433  23.283  26.490  1.00  0.00     0.271 C 
BRANCH  12  13
ATOM     13  C   UNL A   1      33.950  21.856  26.620  1.00  0.00     0.161 C 
BRANCH  13  14
ATOM     14  C   UNL A   1      35.143  21.221  25.902  1.00  0.00     0.230 C 
ATOM     15  O   UNL A   1      36.252  21.758  26.044  1.00  0.00    -0.275 OA
ATOM     16  N   UNL A   1      35.146  19.952  25.417  1.00  0.00    -0.326 N 
ATOM     17  H   UNL A   1      35.911  19.414  25.725  1.00  0.00     0.169 HD
BRANCH  16  18
ATOM     18  C   UNL A   1      34.281  19.259  24.566  1.00  0.00     0.041 A 
ATOM     19  C   UNL A   1      34.594  17.925  24.284  1.00  0.00     0.026 A 
ATOM     20  C   UNL A   1      33.160  19.841  23.972  1.00  0.00     0.026 A 
ATOM     21  C   UNL A   1      33.739  17.148  23.503  1.00  0.00     0.002 A 
ATOM     22  C   UNL A   1      32.306  19.062  23.187  1.00  0.00     0.002 A 
ATOM     23  C   UNL A   1      32.586  17.713  22.966  1.00  0.00     0.000 A 
ENDBRANCH  16  18
ENDBRANCH  13  14
ENDBRANCH  12  13
ENDBRANCH   9  12
ENDBRANCH   5   9
ENDBRANCH   3   5
ENDBRANCH   2   3
ENDBRANCH   1   2
BRANCH   1  24
ATOM     24  C   UNL A   1      31.684  29.447  24.992  1.00  0.00     0.275 C 
BRANCH  24  25
ATOM     25  O   UNL A   1      32.950  29.683  25.629  1.00  0.00    -0.458 OA
BRANCH  25  26
ATOM     26  C   UNL A   1      32.955  30.680  26.547  1.00  0.00     0.338 C 
ATOM     27  O   UNL A   1      32.086  31.518  26.713  1.00  0.00    -0.246 OA
BRANCH  26  28
ATOM     28  C   UNL A   1      34.203  30.633  27.344  1.00  0.00     0.060 A 
ATOM     29  C   UNL A   1      34.882  31.795  27.700  1.00  0.00     0.016 A 
ATOM     30  C   UNL A   1      34.740  29.395  27.686  1.00  0.00     0.016 A 
ATOM     31  C   UNL A   1      36.148  31.725  28.290  1.00  0.00     0.010 A 
ATOM     32  C   UNL A   1      35.940  29.333  28.403  1.00  0.00     0.010 A 
ATOM     33  C   UNL A   1      36.685  30.493  28.688  1.00  0.00    -0.014 A 
BRANCH  33  34
ATOM     34  C   UNL A   1      37.992  30.373  29.409  1.00  0.00     0.031 A 
ATOM     35  C   UNL A   1      39.088  29.503  28.840  1.00  0.00     0.074 A 
ATOM     36  C   UNL A   1      38.185  30.943  30.617  1.00  0.00     0.049 A 
ATOM     37  N   UNL A   1      40.114  28.959  29.441  1.00  0.00    -0.248 NA
ATOM     38  C   UNL A   1      38.990  29.174  27.408  1.00  0.00     0.031 C 
ATOM     39  C   UNL A   1      37.245  31.825  31.307  1.00  0.00     0.029 A 
ATOM     40  N   UNL A   1      39.234  30.825  31.505  1.00  0.00    -0.354 N 
ATOM     41  C   UNL A   1      40.709  28.127  28.499  1.00  0.00     0.074 A 
ATOM     42  C   UNL A   1      39.953  28.271  27.273  1.00  0.00     0.031 C 
ATOM     43  C   UNL A   1      37.751  32.170  32.498  1.00  0.00     0.029 A 
ATOM     44  C   UNL A   1      38.998  31.447  32.711  1.00  0.00     0.049 A 
ATOM     45  H   UNL A   1      40.068  30.344  31.299  1.00  0.00     0.167 HD
ATOM     46  C   UNL A   1      41.782  27.313  28.645  1.00  0.00     0.034 A 
ATOM     47  C   UNL A   1      39.654  31.391  33.888  1.00  0.00     0.034 A 
ATOM     48  C   UNL A   1      42.603  27.261  29.826  1.00  0.00     0.049 A 
ATOM     49  C   UNL A   1      40.877  30.529  34.014  1.00  0.00     0.074 A 
ATOM     50  C   UNL A   1      43.758  26.527  30.039  1.00  0.00     0.029 A 
ATOM     51  N   UNL A   1      42.370  27.985  30.984  1.00  0.00    -0.354 N 
ATOM     52  N   UNL A   1      41.441  29.766  33.110  1.00  0.00    -0.248 NA
ATOM     53  C   UNL A   1      41.558  30.524  35.318  1.00  0.00     0.031 C 
ATOM     54  C   UNL A   1      44.224  26.809  31.327  1.00  0.00     0.029 A 
ATOM     55  C   UNL A   1      43.363  27.723  31.914  1.00  0.00     0.049 A 
ATOM     56  H   UNL A   1      41.613  28.596  31.125  1.00  0.00     0.167 HD
ATOM     57  C   UNL A   1      42.547  29.196  33.730  1.00  0.00     0.074 A 
ATOM     58  C   UNL A   1      42.590  29.724  35.079  1.00  0.00     0.031 C 
ATOM     59  C   UNL A   1      43.431  28.298  33.232  1.00  0.00     0.034 A 
BRANCH  46  60
ATOM     60  C   UNL A   1      42.150  26.420  27.488  1.00  0.00     0.023 A 
ATOM     61  C   UNL A   1      42.935  26.919  26.432  1.00  0.00     0.012 A 
ATOM     62  C   UNL A   1      41.759  25.066  27.478  1.00  0.00     0.148 A 
ATOM     63  C   UNL A   1      43.298  26.094  25.366  1.00  0.00     0.002 A 
ATOM     64  C   UNL A   1      42.159  24.239  26.433  1.00  0.00     0.091 A 
ATOM     65  F   UNL A   1      40.990  24.609  28.478  1.00  0.00    -0.205 F 
ATOM     66  C   UNL A   1      42.919  24.753  25.372  1.00  0.00     0.022 A 
BRANCH  64  67
ATOM     67  S   UNL A   1      41.777  22.483  26.415  1.00  0.00     0.127 S 
ATOM     68  O   UNL A   1      42.451  22.043  25.195  1.00  0.00    -0.237 OA
ATOM     69  O   UNL A   1      42.395  22.010  27.655  1.00  0.00    -0.237 OA
ATOM     70  O   UNL A   1      40.322  22.402  26.405  1.00  0.00    -0.744 OA
ENDBRANCH  64  67
ENDBRANCH  46  60
BRANCH  47  71
ATOM     71  C   UNL A   1      39.134  32.179  35.043  1.00  0.00     0.023 A 
ATOM     72  C   UNL A   1      38.266  31.565  35.964  1.00  0.00     0.012 A 
ATOM     73  C   UNL A   1      39.586  33.492  35.290  1.00  0.00     0.148 A 
ATOM     74  C   UNL A   1      37.858  32.245  37.114  1.00  0.00     0.002 A 
ATOM     75  C   UNL A   1      39.232  34.135  36.470  1.00  0.00     0.091 A 
ATOM     76  F   UNL A   1      40.393  34.067  34.387  1.00  0.00    -0.205 F 
ATOM     77  C   UNL A   1      38.357  33.519  37.377  1.00  0.00     0.022 A 
BRANCH  75  78
ATOM     78  S   UNL A   1      39.970  35.696  36.968  1.00  0.00     0.127 S 
ATOM     79  O   UNL A   1      39.296  35.956  38.236  1.00  0.00    -0.237 OA
ATOM     80  O   UNL A   1      41.385  35.341  37.082  1.00  0.00    -0.237 OA
ATOM     81  O   UNL A   1      39.674  36.629  35.888  1.00  0.00    -0.744 OA
ENDBRANCH  75  78
ENDBRANCH  47  71
BRANCH  59  82
ATOM     82  C   UNL A   1      44.545  27.840  34.132  1.00  0.00     0.023 A 
ATOM     83  C   UNL A   1      45.729  28.598  34.212  1.00  0.00     0.012 A 
ATOM     84  C   UNL A   1      44.385  26.713  34.962  1.00  0.00     0.148 A 
ATOM     85  C   UNL A   1      46.744  28.233  35.095  1.00  0.00     0.002 A 
ATOM     86  C   UNL A   1      45.385  26.376  35.866  1.00  0.00     0.091 A 
ATOM     87  F   UNL A   1      43.258  25.993  34.853  1.00  0.00    -0.205 F 
ATOM     88  C   UNL A   1      46.568  27.131  35.930  1.00  0.00     0.022 A 
BRANCH  86  89
ATOM     89  S   UNL A   1      45.208  25.023  37.034  1.00  0.00     0.127 S 
ATOM     90  O   UNL A   1      44.021  25.431  37.783  1.00  0.00    -0.237 OA
ATOM     91  O   UNL A   1      45.007  23.872  36.153  1.00  0.00    -0.237 OA
ATOM     92  O   UNL A   1      46.448  24.988  37.796  1.00  0.00    -0.744 OA
ENDBRANCH  86  89
ENDBRANCH  59  82
ENDBRANCH  33  34
ENDBRANCH  26  28
ENDBRANCH  25  26
ENDBRANCH  24  25
ENDBRANCH   1  24
TORSDOF 20
ENDMDL
