MODEL 1
REMARK VINA RESULT:     -11.8      0.000      0.000
REMARK SMILES CC(C)N(c1cc2c(cc1Cl)C=C(C(=O)OCCOC(=O)c1ccc(-c3c4nc(c(-c5cccc(S(=O)(=O)[O-])c5F)c5ccc([nH]5)c(-c5cccc(S(=O)(=O)[O-])c5F)c5nc(c(-c6cccc(S(=O)(=O)[O-])c6F)c6ccc3[nH]6)C=C5)C=C4)cc1)[C@@H](C(F)(F)F)O2)C(C)C
REMARK SMILES IDX 18 1 17 2 16 3 14 4 15 5 13 6 5 7 6 8 10 9 7 10 9 11 11 12
REMARK SMILES IDX 8 13 90 14 12 15 85 16 4 17 2 18 1 19 3 20 91 21 92 22 93 23
REMARK SMILES IDX 86 24 87 25 88 26 89 27 19 28 20 29 21 30 22 31 23 32 84 33
REMARK SMILES IDX 24 34 83 35 25 36 26 37 27 38 77 39 28 40 82 41 76 42 78 43
REMARK SMILES IDX 29 44 81 45 75 46 74 47 30 49 62 50 42 51 61 52 43 53 46 54
REMARK SMILES IDX 60 55 79 56 44 57 45 58 59 60 80 61 47 62 31 63 32 64 40 65
REMARK SMILES IDX 33 66 35 67 41 68 34 69 36 70 37 71 38 72 39 73 63 74 64 75
REMARK SMILES IDX 72 76 65 77 67 78 73 79 66 80 68 81 69 82 70 83 71 84 48 85
REMARK SMILES IDX 49 86 57 87 50 88 52 89 58 90 51 91 53 92 54 93 55 94 56 95
REMARK H PARENT 78 48 46 59
REMARK Flexibility Score: inf
ROOT
ATOM      1  C   UNL A   1      37.092  20.327  24.649  1.00  0.00     0.275 C 
ENDROOT
BRANCH   1   2
ATOM      2  C   UNL A   1      35.784  19.701  25.132  1.00  0.00     0.275 C 
BRANCH   2   3
ATOM      3  O   UNL A   1      34.641  20.277  24.461  1.00  0.00    -0.459 OA
BRANCH   3   4
ATOM      4  C   UNL A   1      33.483  20.234  25.159  1.00  0.00     0.338 C 
ATOM      5  O   UNL A   1      32.998  19.250  25.695  1.00  0.00    -0.246 OA
BRANCH   4   6
ATOM      6  C   UNL A   1      32.865  21.571  25.237  1.00  0.00     0.087 C 
ATOM      7  C   UNL A   1      31.391  26.276  24.105  1.00  0.00     0.060 A 
ATOM      8  C   UNL A   1      31.514  25.526  25.304  1.00  0.00     0.074 A 
ATOM      9  C   UNL A   1      31.647  25.590  22.896  1.00  0.00     0.065 A 
ATOM     10  C   UNL A   1      31.914  24.186  25.308  1.00  0.00     0.130 A 
ATOM     11  C   UNL A   1      31.993  24.238  22.898  1.00  0.00     0.034 A 
ATOM     12  Cl  UNL A   1      31.690  26.350  21.341  1.00  0.00    -0.082 Cl
ATOM     13  C   UNL A   1      32.150  23.550  24.099  1.00  0.00     0.019 A 
ATOM     14  O   UNL A   1      32.054  23.564  26.520  1.00  0.00    -0.475 OA
ATOM     15  C   UNL A   1      32.619  22.186  24.078  1.00  0.00     0.027 C 
ATOM     16  C   UNL A   1      32.686  22.246  26.566  1.00  0.00     0.316 C 
BRANCH   7  17
ATOM     17  N   UNL A   1      31.061  27.646  24.182  1.00  0.00    -0.365 N 
BRANCH  17  18
ATOM     18  C   UNL A   1      32.113  28.577  24.662  1.00  0.00     0.076 C 
ATOM     19  C   UNL A   1      33.120  28.932  23.570  1.00  0.00     0.030 C 
ATOM     20  C   UNL A   1      31.566  29.843  25.317  1.00  0.00     0.030 C 
ENDBRANCH  17  18
BRANCH  17  21
ATOM     21  C   UNL A   1      29.687  28.008  23.781  1.00  0.00     0.076 C 
ATOM     22  C   UNL A   1      29.627  28.789  22.473  1.00  0.00     0.030 C 
ATOM     23  C   UNL A   1      28.738  26.813  23.769  1.00  0.00     0.030 C 
ENDBRANCH  17  21
ENDBRANCH   7  17
BRANCH  16  24
ATOM     24  C   UNL A   1      34.028  22.355  27.310  1.00  0.00     0.430 C 
ATOM     25  F   UNL A   1      35.000  22.853  26.508  1.00  0.00    -0.167 F 
ATOM     26  F   UNL A   1      33.940  23.199  28.369  1.00  0.00    -0.167 F 
ATOM     27  F   UNL A   1      34.459  21.164  27.779  1.00  0.00    -0.167 F 
ENDBRANCH  16  24
ENDBRANCH   4   6
ENDBRANCH   3   4
ENDBRANCH   2   3
ENDBRANCH   1   2
BRANCH   1  28
ATOM     28  O   UNL A   1      37.614  21.231  25.640  1.00  0.00    -0.458 OA
BRANCH  28  29
ATOM     29  C   UNL A   1      38.906  21.029  25.989  1.00  0.00     0.338 C 
ATOM     30  O   UNL A   1      39.580  20.036  25.784  1.00  0.00    -0.246 OA
BRANCH  29  31
ATOM     31  C   UNL A   1      39.441  22.248  26.614  1.00  0.00     0.060 A 
ATOM     32  C   UNL A   1      40.497  22.196  27.515  1.00  0.00     0.016 A 
ATOM     33  C   UNL A   1      38.969  23.477  26.170  1.00  0.00     0.016 A 
ATOM     34  C   UNL A   1      41.065  23.393  27.970  1.00  0.00     0.010 A 
ATOM     35  C   UNL A   1      39.642  24.652  26.493  1.00  0.00     0.010 A 
ATOM     36  C   UNL A   1      40.676  24.639  27.433  1.00  0.00    -0.014 A 
BRANCH  36  37
ATOM     37  C   UNL A   1      41.338  25.913  27.849  1.00  0.00     0.031 A 
ATOM     38  C   UNL A   1      42.761  26.230  27.441  1.00  0.00     0.074 A 
ATOM     39  C   UNL A   1      40.677  26.782  28.645  1.00  0.00     0.049 A 
ATOM     40  N   UNL A   1      43.475  27.297  27.708  1.00  0.00    -0.248 NA
ATOM     41  C   UNL A   1      43.501  25.212  26.674  1.00  0.00     0.031 C 
ATOM     42  C   UNL A   1      39.354  26.556  29.234  1.00  0.00     0.029 A 
ATOM     43  N   UNL A   1      41.021  28.035  29.089  1.00  0.00    -0.354 N 
ATOM     44  C   UNL A   1      44.745  27.050  27.197  1.00  0.00     0.074 A 
ATOM     45  C   UNL A   1      44.725  25.717  26.644  1.00  0.00     0.031 C 
ATOM     46  C   UNL A   1      38.968  27.658  29.894  1.00  0.00     0.029 A 
ATOM     47  C   UNL A   1      40.026  28.660  29.806  1.00  0.00     0.049 A 
ATOM     48  H   UNL A   1      41.897  28.449  28.912  1.00  0.00     0.167 HD
ATOM     49  C   UNL A   1      45.819  27.872  27.137  1.00  0.00     0.034 A 
ATOM     50  C   UNL A   1      39.953  29.906  30.314  1.00  0.00     0.034 A 
ATOM     51  C   UNL A   1      45.808  29.241  27.571  1.00  0.00     0.049 A 
ATOM     52  C   UNL A   1      41.103  30.852  30.114  1.00  0.00     0.074 A 
ATOM     53  C   UNL A   1      46.803  30.192  27.431  1.00  0.00     0.029 A 
ATOM     54  N   UNL A   1      44.744  29.859  28.203  1.00  0.00    -0.354 N 
ATOM     55  N   UNL A   1      42.238  30.641  29.496  1.00  0.00    -0.248 NA
ATOM     56  C   UNL A   1      40.954  32.212  30.652  1.00  0.00     0.031 C 
ATOM     57  C   UNL A   1      46.335  31.393  27.972  1.00  0.00     0.029 A 
ATOM     58  C   UNL A   1      45.050  31.185  28.449  1.00  0.00     0.049 A 
ATOM     59  H   UNL A   1      43.895  29.421  28.442  1.00  0.00     0.167 HD
ATOM     60  C   UNL A   1      42.934  31.841  29.558  1.00  0.00     0.074 A 
ATOM     61  C   UNL A   1      42.085  32.785  30.254  1.00  0.00     0.031 C 
ATOM     62  C   UNL A   1      44.175  32.126  29.095  1.00  0.00     0.034 A 
BRANCH  49  63
ATOM     63  C   UNL A   1      47.069  27.359  26.471  1.00  0.00     0.023 A 
ATOM     64  C   UNL A   1      47.323  27.716  25.130  1.00  0.00     0.012 A 
ATOM     65  C   UNL A   1      48.027  26.611  27.182  1.00  0.00     0.148 A 
ATOM     66  C   UNL A   1      48.499  27.316  24.499  1.00  0.00     0.002 A 
ATOM     67  C   UNL A   1      49.214  26.246  26.555  1.00  0.00     0.091 A 
ATOM     68  F   UNL A   1      47.763  26.278  28.453  1.00  0.00    -0.205 F 
ATOM     69  C   UNL A   1      49.447  26.591  25.214  1.00  0.00     0.022 A 
BRANCH  67  70
ATOM     70  S   UNL A   1      50.535  25.366  27.397  1.00  0.00     0.127 S 
ATOM     71  O   UNL A   1      50.947  26.343  28.404  1.00  0.00    -0.237 OA
ATOM     72  O   UNL A   1      49.832  24.199  27.931  1.00  0.00    -0.237 OA
ATOM     73  O   UNL A   1      51.533  25.066  26.380  1.00  0.00    -0.744 OA
ENDBRANCH  67  70
ENDBRANCH  49  63
BRANCH  50  74
ATOM     74  C   UNL A   1      38.685  30.359  30.950  1.00  0.00     0.023 A 
ATOM     75  C   UNL A   1      38.530  30.204  32.342  1.00  0.00     0.012 A 
ATOM     76  C   UNL A   1      37.682  31.017  30.212  1.00  0.00     0.148 A 
ATOM     77  C   UNL A   1      37.393  30.690  32.989  1.00  0.00     0.002 A 
ATOM     78  C   UNL A   1      36.571  31.534  30.870  1.00  0.00     0.091 A 
ATOM     79  F   UNL A   1      37.854  31.150  28.890  1.00  0.00    -0.205 F 
ATOM     80  C   UNL A   1      36.420  31.364  32.255  1.00  0.00     0.022 A 
BRANCH  78  81
ATOM     81  S   UNL A   1      35.316  32.510  30.035  1.00  0.00     0.127 S 
ATOM     82  O   UNL A   1      34.858  31.586  29.000  1.00  0.00    -0.237 OA
ATOM     83  O   UNL A   1      34.357  32.748  31.115  1.00  0.00    -0.237 OA
ATOM     84  O   UNL A   1      35.996  33.703  29.552  1.00  0.00    -0.744 OA
ENDBRANCH  78  81
ENDBRANCH  50  74
BRANCH  62  85
ATOM     85  C   UNL A   1      44.712  33.512  29.312  1.00  0.00     0.023 A 
ATOM     86  C   UNL A   1      45.415  33.796  30.498  1.00  0.00     0.012 A 
ATOM     87  C   UNL A   1      44.646  34.479  28.289  1.00  0.00     0.148 A 
ATOM     88  C   UNL A   1      46.043  35.029  30.667  1.00  0.00     0.002 A 
ATOM     89  C   UNL A   1      45.302  35.692  28.451  1.00  0.00     0.091 A 
ATOM     90  F   UNL A   1      43.964  34.182  27.174  1.00  0.00    -0.205 F 
ATOM     91  C   UNL A   1      45.997  35.970  29.640  1.00  0.00     0.022 A 
BRANCH  89  92
ATOM     92  S   UNL A   1      45.367  36.937  27.159  1.00  0.00     0.127 S 
ATOM     93  O   UNL A   1      46.077  36.225  26.096  1.00  0.00    -0.237 OA
ATOM     94  O   UNL A   1      43.950  37.180  26.889  1.00  0.00    -0.237 OA
ATOM     95  O   UNL A   1      46.081  38.073  27.726  1.00  0.00    -0.744 OA
ENDBRANCH  89  92
ENDBRANCH  62  85
ENDBRANCH  36  37
ENDBRANCH  29  31
ENDBRANCH  28  29
ENDBRANCH   1  28
TORSDOF 18
ENDMDL
MODEL 2
REMARK VINA RESULT:     -11.8      5.188     10.235
REMARK SMILES CC(C)N(c1cc2c(cc1Cl)C=C(C(=O)OCCOC(=O)c1ccc(-c3c4nc(c(-c5cccc(S(=O)(=O)[O-])c5F)c5ccc([nH]5)c(-c5cccc(S(=O)(=O)[O-])c5F)c5nc(c(-c6cccc(S(=O)(=O)[O-])c6F)c6ccc3[nH]6)C=C5)C=C4)cc1)[C@@H](C(F)(F)F)O2)C(C)C
REMARK SMILES IDX 18 1 17 2 16 3 14 4 15 5 13 6 5 7 6 8 10 9 7 10 9 11 11 12
REMARK SMILES IDX 8 13 90 14 12 15 85 16 4 17 2 18 1 19 3 20 91 21 92 22 93 23
REMARK SMILES IDX 86 24 87 25 88 26 89 27 19 28 20 29 21 30 22 31 23 32 84 33
REMARK SMILES IDX 24 34 83 35 25 36 26 37 27 38 77 39 28 40 82 41 76 42 78 43
REMARK SMILES IDX 29 44 81 45 75 46 74 47 30 49 62 50 42 51 61 52 43 53 46 54
REMARK SMILES IDX 60 55 79 56 44 57 45 58 59 60 80 61 47 62 31 63 32 64 40 65
REMARK SMILES IDX 33 66 35 67 41 68 34 69 36 70 37 71 38 72 39 73 63 74 64 75
REMARK SMILES IDX 72 76 65 77 67 78 73 79 66 80 68 81 69 82 70 83 71 84 48 85
REMARK SMILES IDX 49 86 57 87 50 88 52 89 58 90 51 91 53 92 54 93 55 94 56 95
REMARK H PARENT 78 48 46 59
REMARK Flexibility Score: inf
ROOT
ATOM      1  C   UNL A   1      31.615  31.355  26.802  1.00  0.00     0.275 C 
ENDROOT
BRANCH   1   2
ATOM      2  C   UNL A   1      31.154  30.797  25.456  1.00  0.00     0.275 C 
BRANCH   2   3
ATOM      3  O   UNL A   1      31.390  29.375  25.363  1.00  0.00    -0.459 OA
BRANCH   3   4
ATOM      4  C   UNL A   1      30.832  28.769  24.290  1.00  0.00     0.338 C 
ATOM      5  O   UNL A   1      29.977  29.240  23.556  1.00  0.00    -0.246 OA
BRANCH   4   6
ATOM      6  C   UNL A   1      31.424  27.436  24.071  1.00  0.00     0.087 C 
ATOM      7  C   UNL A   1      33.511  22.897  24.865  1.00  0.00     0.060 A 
ATOM      8  C   UNL A   1      33.423  23.778  23.756  1.00  0.00     0.074 A 
ATOM      9  C   UNL A   1      32.809  23.271  26.033  1.00  0.00     0.065 A 
ATOM     10  C   UNL A   1      32.718  24.985  23.817  1.00  0.00     0.130 A 
ATOM     11  C   UNL A   1      32.060  24.448  26.074  1.00  0.00     0.034 A 
ATOM     12  Cl  UNL A   1      32.899  22.414  27.535  1.00  0.00    -0.082 Cl
ATOM     13  C   UNL A   1      32.038  25.310  24.979  1.00  0.00     0.019 A 
ATOM     14  O   UNL A   1      32.735  25.791  22.709  1.00  0.00    -0.475 OA
ATOM     15  C   UNL A   1      31.351  26.573  25.087  1.00  0.00     0.027 C 
ATOM     16  C   UNL A   1      32.204  27.149  22.820  1.00  0.00     0.316 C 
BRANCH   7  17
ATOM     17  N   UNL A   1      34.308  21.737  24.759  1.00  0.00    -0.365 N 
BRANCH  17  18
ATOM     18  C   UNL A   1      33.614  20.452  24.494  1.00  0.00     0.076 C 
ATOM     19  C   UNL A   1      33.190  19.742  25.779  1.00  0.00     0.030 C 
ATOM     20  C   UNL A   1      32.433  20.572  23.535  1.00  0.00     0.030 C 
ENDBRANCH  17  18
BRANCH  17  21
ATOM     21  C   UNL A   1      35.761  21.928  24.935  1.00  0.00     0.076 C 
ATOM     22  C   UNL A   1      36.111  22.864  26.087  1.00  0.00     0.030 C 
ATOM     23  C   UNL A   1      36.527  20.612  25.027  1.00  0.00     0.030 C 
ENDBRANCH  17  21
ENDBRANCH   7  17
BRANCH  16  24
ATOM     24  C   UNL A   1      33.354  28.156  22.650  1.00  0.00     0.430 C 
ATOM     25  F   UNL A   1      32.887  29.408  22.424  1.00  0.00    -0.167 F 
ATOM     26  F   UNL A   1      34.117  28.232  23.769  1.00  0.00    -0.167 F 
ATOM     27  F   UNL A   1      34.174  27.837  21.625  1.00  0.00    -0.167 F 
ENDBRANCH  16  24
ENDBRANCH   4   6
ENDBRANCH   3   4
ENDBRANCH   2   3
ENDBRANCH   1   2
BRANCH   1  28
ATOM     28  O   UNL A   1      33.020  31.113  26.994  1.00  0.00    -0.458 OA
BRANCH  28  29
ATOM     29  C   UNL A   1      33.717  32.131  27.548  1.00  0.00     0.338 C 
ATOM     30  O   UNL A   1      33.332  33.271  27.742  1.00  0.00    -0.246 OA
BRANCH  29  31
ATOM     31  C   UNL A   1      35.039  31.648  27.973  1.00  0.00     0.060 A 
ATOM     32  C   UNL A   1      36.109  32.519  28.142  1.00  0.00     0.016 A 
ATOM     33  C   UNL A   1      35.162  30.317  28.353  1.00  0.00     0.016 A 
ATOM     34  C   UNL A   1      37.304  32.032  28.687  1.00  0.00     0.010 A 
ATOM     35  C   UNL A   1      36.288  29.880  29.045  1.00  0.00     0.010 A 
ATOM     36  C   UNL A   1      37.399  30.716  29.188  1.00  0.00    -0.014 A 
BRANCH  36  37
ATOM     37  C   UNL A   1      38.642  30.217  29.850  1.00  0.00     0.031 A 
ATOM     38  C   UNL A   1      39.007  30.637  31.259  1.00  0.00     0.074 A 
ATOM     39  C   UNL A   1      39.488  29.413  29.169  1.00  0.00     0.049 A 
ATOM     40  N   UNL A   1      40.042  30.284  31.981  1.00  0.00    -0.248 NA
ATOM     41  C   UNL A   1      38.129  31.609  31.936  1.00  0.00     0.031 C 
ATOM     42  C   UNL A   1      39.346  29.032  27.761  1.00  0.00     0.029 A 
ATOM     43  N   UNL A   1      40.629  28.762  29.569  1.00  0.00    -0.354 N 
ATOM     44  C   UNL A   1      39.967  31.026  33.154  1.00  0.00     0.074 A 
ATOM     45  C   UNL A   1      38.814  31.886  33.036  1.00  0.00     0.031 C 
ATOM     46  C   UNL A   1      40.312  28.158  27.439  1.00  0.00     0.029 A 
ATOM     47  C   UNL A   1      41.163  27.940  28.603  1.00  0.00     0.049 A 
ATOM     48  H   UNL A   1      41.029  28.873  30.462  1.00  0.00     0.167 HD
ATOM     49  C   UNL A   1      40.748  30.965  34.259  1.00  0.00     0.034 A 
ATOM     50  C   UNL A   1      42.203  27.083  28.650  1.00  0.00     0.034 A 
ATOM     51  C   UNL A   1      41.819  30.025  34.434  1.00  0.00     0.049 A 
ATOM     52  C   UNL A   1      42.971  26.925  29.932  1.00  0.00     0.074 A 
ATOM     53  C   UNL A   1      42.581  29.795  35.565  1.00  0.00     0.029 A 
ATOM     54  N   UNL A   1      42.261  29.143  33.463  1.00  0.00    -0.354 N 
ATOM     55  N   UNL A   1      42.786  27.534  31.077  1.00  0.00    -0.248 NA
ATOM     56  C   UNL A   1      44.068  25.946  29.940  1.00  0.00     0.031 C 
ATOM     57  C   UNL A   1      43.481  28.764  35.281  1.00  0.00     0.029 A 
ATOM     58  C   UNL A   1      43.278  28.356  33.972  1.00  0.00     0.049 A 
ATOM     59  H   UNL A   1      41.905  29.085  32.547  1.00  0.00     0.167 HD
ATOM     60  C   UNL A   1      43.732  27.005  31.946  1.00  0.00     0.074 A 
ATOM     61  C   UNL A   1      44.475  26.009  31.203  1.00  0.00     0.031 C 
ATOM     62  C   UNL A   1      43.973  27.333  33.238  1.00  0.00     0.034 A 
BRANCH  49  63
ATOM     63  C   UNL A   1      40.403  31.857  35.422  1.00  0.00     0.023 A 
ATOM     64  C   UNL A   1      41.160  33.028  35.632  1.00  0.00     0.012 A 
ATOM     65  C   UNL A   1      39.290  31.595  36.245  1.00  0.00     0.148 A 
ATOM     66  C   UNL A   1      40.832  33.912  36.657  1.00  0.00     0.002 A 
ATOM     67  C   UNL A   1      38.949  32.501  37.244  1.00  0.00     0.091 A 
ATOM     68  F   UNL A   1      38.588  30.474  36.032  1.00  0.00    -0.205 F 
ATOM     69  C   UNL A   1      39.722  33.654  37.456  1.00  0.00     0.022 A 
BRANCH  67  70
ATOM     70  S   UNL A   1      37.502  32.304  38.292  1.00  0.00     0.127 S 
ATOM     71  O   UNL A   1      37.971  32.876  39.553  1.00  0.00    -0.237 OA
ATOM     72  O   UNL A   1      36.504  33.111  37.590  1.00  0.00    -0.237 OA
ATOM     73  O   UNL A   1      37.219  30.875  38.326  1.00  0.00    -0.744 OA
ENDBRANCH  67  70
ENDBRANCH  49  63
BRANCH  50  74
ATOM     74  C   UNL A   1      42.486  26.218  27.471  1.00  0.00     0.023 A 
ATOM     75  C   UNL A   1      43.336  26.706  26.460  1.00  0.00     0.012 A 
ATOM     76  C   UNL A   1      41.999  24.899  27.389  1.00  0.00     0.148 A 
ATOM     77  C   UNL A   1      43.694  25.897  25.380  1.00  0.00     0.002 A 
ATOM     78  C   UNL A   1      42.391  24.086  26.331  1.00  0.00     0.091 A 
ATOM     79  F   UNL A   1      41.192  24.460  28.364  1.00  0.00    -0.205 F 
ATOM     80  C   UNL A   1      43.230  24.585  25.322  1.00  0.00     0.022 A 
BRANCH  78  81
ATOM     81  S   UNL A   1      41.938  22.352  26.219  1.00  0.00     0.127 S 
ATOM     82  O   UNL A   1      42.669  21.928  25.027  1.00  0.00    -0.237 OA
ATOM     83  O   UNL A   1      42.461  21.825  27.481  1.00  0.00    -0.237 OA
ATOM     84  O   UNL A   1      40.487  22.326  26.106  1.00  0.00    -0.744 OA
ENDBRANCH  78  81
ENDBRANCH  50  74
BRANCH  62  85
ATOM     85  C   UNL A   1      45.081  26.618  33.956  1.00  0.00     0.023 A 
ATOM     86  C   UNL A   1      46.399  27.100  33.834  1.00  0.00     0.012 A 
ATOM     87  C   UNL A   1      44.800  25.571  34.855  1.00  0.00     0.148 A 
ATOM     88  C   UNL A   1      47.426  26.546  34.597  1.00  0.00     0.002 A 
ATOM     89  C   UNL A   1      45.822  25.045  35.634  1.00  0.00     0.091 A 
ATOM     90  F   UNL A   1      43.538  25.128  34.944  1.00  0.00    -0.205 F 
ATOM     91  C   UNL A   1      47.135  25.528  35.504  1.00  0.00     0.022 A 
BRANCH  89  92
ATOM     92  S   UNL A   1      45.537  23.788  36.885  1.00  0.00     0.127 S 
ATOM     93  O   UNL A   1      44.532  24.432  37.730  1.00  0.00    -0.237 OA
ATOM     94  O   UNL A   1      45.037  22.666  36.090  1.00  0.00    -0.237 OA
ATOM     95  O   UNL A   1      46.824  23.554  37.525  1.00  0.00    -0.744 OA
ENDBRANCH  89  92
ENDBRANCH  62  85
ENDBRANCH  36  37
ENDBRANCH  29  31
ENDBRANCH  28  29
ENDBRANCH   1  28
TORSDOF 18
ENDMDL
MODEL 3
REMARK VINA RESULT:     -11.4      5.969     12.372
REMARK SMILES CC(C)N(c1cc2c(cc1Cl)C=C(C(=O)OCCOC(=O)c1ccc(-c3c4nc(c(-c5cccc(S(=O)(=O)[O-])c5F)c5ccc([nH]5)c(-c5cccc(S(=O)(=O)[O-])c5F)c5nc(c(-c6cccc(S(=O)(=O)[O-])c6F)c6ccc3[nH]6)C=C5)C=C4)cc1)[C@@H](C(F)(F)F)O2)C(C)C
REMARK SMILES IDX 18 1 17 2 16 3 14 4 15 5 13 6 5 7 6 8 10 9 7 10 9 11 11 12
REMARK SMILES IDX 8 13 90 14 12 15 85 16 4 17 2 18 1 19 3 20 91 21 92 22 93 23
REMARK SMILES IDX 86 24 87 25 88 26 89 27 19 28 20 29 21 30 22 31 23 32 84 33
REMARK SMILES IDX 24 34 83 35 25 36 26 37 27 38 77 39 28 40 82 41 76 42 78 43
REMARK SMILES IDX 29 44 81 45 75 46 74 47 30 49 62 50 42 51 61 52 43 53 46 54
REMARK SMILES IDX 60 55 79 56 44 57 45 58 59 60 80 61 47 62 31 63 32 64 40 65
REMARK SMILES IDX 33 66 35 67 41 68 34 69 36 70 37 71 38 72 39 73 63 74 64 75
REMARK SMILES IDX 72 76 65 77 67 78 73 79 66 80 68 81 69 82 70 83 71 84 48 85
REMARK SMILES IDX 49 86 57 87 50 88 52 89 58 90 51 91 53 92 54 93 55 94 56 95
REMARK H PARENT 78 48 46 59
REMARK Flexibility Score: inf
ROOT
ATOM      1  C   UNL A   1      33.029  33.520  27.987  1.00  0.00     0.275 C 
ENDROOT
BRANCH   1   2
ATOM      2  C   UNL A   1      33.509  34.477  29.079  1.00  0.00     0.275 C 
BRANCH   2   3
ATOM      3  O   UNL A   1      34.419  33.826  29.993  1.00  0.00    -0.459 OA
BRANCH   3   4
ATOM      4  C   UNL A   1      34.479  34.369  31.230  1.00  0.00     0.338 C 
ATOM      5  O   UNL A   1      33.528  34.667  31.936  1.00  0.00    -0.246 OA
BRANCH   4   6
ATOM      6  C   UNL A   1      35.878  34.533  31.666  1.00  0.00     0.087 C 
ATOM      7  C   UNL A   1      40.934  34.432  31.789  1.00  0.00     0.060 A 
ATOM      8  C   UNL A   1      39.911  34.562  32.764  1.00  0.00     0.074 A 
ATOM      9  C   UNL A   1      40.524  34.397  30.437  1.00  0.00     0.065 A 
ATOM     10  C   UNL A   1      38.556  34.607  32.422  1.00  0.00     0.130 A 
ATOM     11  C   UNL A   1      39.175  34.497  30.093  1.00  0.00     0.034 A 
ATOM     12  Cl  UNL A   1      41.593  34.102  29.107  1.00  0.00    -0.082 Cl
ATOM     13  C   UNL A   1      38.198  34.575  31.084  1.00  0.00     0.019 A 
ATOM     14  O   UNL A   1      37.642  34.681  33.440  1.00  0.00    -0.475 OA
ATOM     15  C   UNL A   1      36.806  34.562  30.706  1.00  0.00     0.027 C 
ATOM     16  C   UNL A   1      36.225  34.500  33.126  1.00  0.00     0.316 C 
BRANCH   7  17
ATOM     17  N   UNL A   1      42.275  34.311  32.211  1.00  0.00    -0.365 N 
BRANCH  17  18
ATOM     18  C   UNL A   1      42.730  32.976  32.673  1.00  0.00     0.076 C 
ATOM     19  C   UNL A   1      43.052  32.036  31.512  1.00  0.00     0.030 C 
ATOM     20  C   UNL A   1      43.894  33.026  33.660  1.00  0.00     0.030 C 
ENDBRANCH  17  18
BRANCH  17  21
ATOM     21  C   UNL A   1      43.087  35.543  32.157  1.00  0.00     0.076 C 
ATOM     22  C   UNL A   1      43.343  36.158  33.529  1.00  0.00     0.030 C 
ATOM     23  C   UNL A   1      44.382  35.367  31.369  1.00  0.00     0.030 C 
ENDBRANCH  17  21
ENDBRANCH   7  17
BRANCH  16  24
ATOM     24  C   UNL A   1      35.727  33.198  33.778  1.00  0.00     0.430 C 
ATOM     25  F   UNL A   1      35.603  32.204  32.867  1.00  0.00    -0.167 F 
ATOM     26  F   UNL A   1      36.599  32.748  34.715  1.00  0.00    -0.167 F 
ATOM     27  F   UNL A   1      34.528  33.347  34.383  1.00  0.00    -0.167 F 
ENDBRANCH  16  24
ENDBRANCH   4   6
ENDBRANCH   3   4
ENDBRANCH   2   3
ENDBRANCH   1   2
BRANCH   1  28
ATOM     28  O   UNL A   1      34.142  32.806  27.419  1.00  0.00    -0.458 OA
BRANCH  28  29
ATOM     29  C   UNL A   1      34.110  31.462  27.571  1.00  0.00     0.338 C 
ATOM     30  O   UNL A   1      33.187  30.711  27.312  1.00  0.00    -0.246 OA
BRANCH  29  31
ATOM     31  C   UNL A   1      35.420  30.991  28.047  1.00  0.00     0.060 A 
ATOM     32  C   UNL A   1      36.519  31.840  28.101  1.00  0.00     0.016 A 
ATOM     33  C   UNL A   1      35.502  29.715  28.590  1.00  0.00     0.016 A 
ATOM     34  C   UNL A   1      37.702  31.384  28.698  1.00  0.00     0.010 A 
ATOM     35  C   UNL A   1      36.618  29.330  29.327  1.00  0.00     0.010 A 
ATOM     36  C   UNL A   1      37.757  30.139  29.360  1.00  0.00    -0.014 A 
BRANCH  36  37
ATOM     37  C   UNL A   1      38.989  29.685  30.074  1.00  0.00     0.031 A 
ATOM     38  C   UNL A   1      39.295  30.143  31.485  1.00  0.00     0.074 A 
ATOM     39  C   UNL A   1      39.876  28.889  29.439  1.00  0.00     0.049 A 
ATOM     40  N   UNL A   1      40.313  29.831  32.248  1.00  0.00    -0.248 NA
ATOM     41  C   UNL A   1      38.372  31.107  32.111  1.00  0.00     0.031 C 
ATOM     42  C   UNL A   1      39.792  28.474  28.036  1.00  0.00     0.029 A 
ATOM     43  N   UNL A   1      41.019  28.274  29.891  1.00  0.00    -0.354 N 
ATOM     44  C   UNL A   1      40.181  30.596  33.402  1.00  0.00     0.074 A 
ATOM     45  C   UNL A   1      39.011  31.424  33.227  1.00  0.00     0.031 C 
ATOM     46  C   UNL A   1      40.789  27.618  27.765  1.00  0.00     0.029 A 
ATOM     47  C   UNL A   1      41.605  27.446  28.962  1.00  0.00     0.049 A 
ATOM     48  H   UNL A   1      41.385  28.414  30.795  1.00  0.00     0.167 HD
ATOM     49  C   UNL A   1      40.924  30.576  34.534  1.00  0.00     0.034 A 
ATOM     50  C   UNL A   1      42.662  26.616  29.062  1.00  0.00     0.034 A 
ATOM     51  C   UNL A   1      42.012  29.667  34.765  1.00  0.00     0.049 A 
ATOM     52  C   UNL A   1      43.390  26.504  30.372  1.00  0.00     0.074 A 
ATOM     53  C   UNL A   1      42.740  29.480  35.926  1.00  0.00     0.029 A 
ATOM     54  N   UNL A   1      42.507  28.777  33.829  1.00  0.00    -0.354 N 
ATOM     55  N   UNL A   1      43.152  27.131  31.497  1.00  0.00    -0.248 NA
ATOM     56  C   UNL A   1      44.509  25.553  30.439  1.00  0.00     0.031 C 
ATOM     57  C   UNL A   1      43.673  28.466  35.694  1.00  0.00     0.029 A 
ATOM     58  C   UNL A   1      43.525  28.026  34.388  1.00  0.00     0.049 A 
ATOM     59  H   UNL A   1      42.184  28.691  32.902  1.00  0.00     0.167 HD
ATOM     60  C   UNL A   1      44.080  26.644  32.408  1.00  0.00     0.074 A 
ATOM     61  C   UNL A   1      44.872  25.652  31.713  1.00  0.00     0.031 C 
ATOM     62  C   UNL A   1      44.269  27.005  33.701  1.00  0.00     0.034 A 
BRANCH  49  63
ATOM     63  C   UNL A   1      40.518  31.484  35.665  1.00  0.00     0.023 A 
ATOM     64  C   UNL A   1      41.274  32.649  35.909  1.00  0.00     0.012 A 
ATOM     65  C   UNL A   1      39.355  31.241  36.421  1.00  0.00     0.148 A 
ATOM     66  C   UNL A   1      40.894  33.547  36.904  1.00  0.00     0.002 A 
ATOM     67  C   UNL A   1      38.963  32.161  37.388  1.00  0.00     0.091 A 
ATOM     68  F   UNL A   1      38.655  30.125  36.176  1.00  0.00    -0.205 F 
ATOM     69  C   UNL A   1      39.735  33.308  37.636  1.00  0.00     0.022 A 
BRANCH  67  70
ATOM     70  S   UNL A   1      37.453  31.989  38.348  1.00  0.00     0.127 S 
ATOM     71  O   UNL A   1      37.912  32.351  39.688  1.00  0.00    -0.237 OA
ATOM     72  O   UNL A   1      36.576  32.975  37.716  1.00  0.00    -0.237 OA
ATOM     73  O   UNL A   1      37.029  30.604  38.191  1.00  0.00    -0.744 OA
ENDBRANCH  67  70
ENDBRANCH  49  63
BRANCH  50  74
ATOM     74  C   UNL A   1      43.006  25.734  27.913  1.00  0.00     0.023 A 
ATOM     75  C   UNL A   1      44.089  26.089  27.084  1.00  0.00     0.012 A 
ATOM     76  C   UNL A   1      42.337  24.515  27.690  1.00  0.00     0.148 A 
ATOM     77  C   UNL A   1      44.496  25.248  26.048  1.00  0.00     0.002 A 
ATOM     78  C   UNL A   1      42.773  23.665  26.680  1.00  0.00     0.091 A 
ATOM     79  F   UNL A   1      41.310  24.202  28.492  1.00  0.00    -0.205 F 
ATOM     80  C   UNL A   1      43.846  24.033  25.853  1.00  0.00     0.022 A 
BRANCH  78  81
ATOM     81  S   UNL A   1      42.074  22.031  26.417  1.00  0.00     0.127 S 
ATOM     82  O   UNL A   1      42.797  21.585  25.228  1.00  0.00    -0.237 OA
ATOM     83  O   UNL A   1      42.444  21.345  27.656  1.00  0.00    -0.237 OA
ATOM     84  O   UNL A   1      40.643  22.235  26.240  1.00  0.00    -0.744 OA
ENDBRANCH  78  81
ENDBRANCH  50  74
BRANCH  62  85
ATOM     85  C   UNL A   1      45.369  26.333  34.471  1.00  0.00     0.023 A 
ATOM     86  C   UNL A   1      46.664  26.884  34.437  1.00  0.00     0.012 A 
ATOM     87  C   UNL A   1      45.090  25.254  35.332  1.00  0.00     0.148 A 
ATOM     88  C   UNL A   1      47.672  26.367  35.249  1.00  0.00     0.002 A 
ATOM     89  C   UNL A   1      46.091  24.765  36.162  1.00  0.00     0.091 A 
ATOM     90  F   UNL A   1      43.850  24.745  35.338  1.00  0.00    -0.205 F 
ATOM     91  C   UNL A   1      47.382  25.317  36.119  1.00  0.00     0.022 A 
BRANCH  89  92
ATOM     92  S   UNL A   1      45.799  23.469  37.371  1.00  0.00     0.127 S 
ATOM     93  O   UNL A   1      44.768  24.076  38.213  1.00  0.00    -0.237 OA
ATOM     94  O   UNL A   1      45.330  22.364  36.534  1.00  0.00    -0.237 OA
ATOM     95  O   UNL A   1      47.076  23.234  38.029  1.00  0.00    -0.744 OA
ENDBRANCH  89  92
ENDBRANCH  62  85
ENDBRANCH  36  37
ENDBRANCH  29  31
ENDBRANCH  28  29
ENDBRANCH   1  28
TORSDOF 18
ENDMDL
