MODEL 1
REMARK VINA RESULT:     -11.6      0.000      0.000
REMARK SMILES O=C(OCCOC(=O)[C@H]1Cc2[nH]cnc2CN1S(=O)(=O)c1cccs1)c1ccc(-c2c3nc(c(-c4cccc(S(=O)(=O)[O-])c4F)c4ccc([nH]4)c(-c4cccc(S(=O)(=O)[O-])c4F)c4nc(c(-c5cccc(S(=O)(=O)[O-])c5F)c5ccc2[nH]5)C=C4)C=C3)cc1
REMARK SMILES IDX 4 1 3 2 2 3 1 4 26 5 27 6 88 7 28 8 87 9 29 10 30 11 31 12
REMARK SMILES IDX 81 13 32 14 86 15 80 16 82 17 33 18 85 19 79 20 78 21 34 23
REMARK SMILES IDX 66 24 46 25 65 26 47 27 50 28 64 29 83 30 48 31 49 32 63 34
REMARK SMILES IDX 84 35 51 36 35 37 36 38 44 39 37 40 39 41 45 42 38 43 40 44
REMARK SMILES IDX 41 45 42 46 43 47 67 48 68 49 76 50 69 51 71 52 77 53 70 54
REMARK SMILES IDX 72 55 73 56 74 57 75 58 52 59 53 60 61 61 54 62 56 63 62 64
REMARK SMILES IDX 55 65 57 66 58 67 59 68 60 69 5 70 6 71 7 72 8 73 9 74 10 75
REMARK SMILES IDX 17 76 11 77 16 78 12 79 15 80 13 81 14 83 18 84 19 85 20 86
REMARK SMILES IDX 21 87 22 88 25 89 23 90 24 91
REMARK H PARENT 82 22 50 33 12 82
REMARK Flexibility Score: inf
ROOT
ATOM      1  C   UNL A   1      32.926  30.511  27.222  1.00  0.00     0.275 C 
ENDROOT
BRANCH   1   2
ATOM      2  O   UNL A   1      34.331  30.729  27.058  1.00  0.00    -0.458 OA
BRANCH   2   3
ATOM      3  C   UNL A   1      34.920  31.487  28.001  1.00  0.00     0.338 C 
ATOM      4  O   UNL A   1      34.405  32.449  28.549  1.00  0.00    -0.246 OA
BRANCH   3   5
ATOM      5  C   UNL A   1      36.221  30.933  28.394  1.00  0.00     0.060 A 
ATOM      6  C   UNL A   1      37.318  31.736  28.745  1.00  0.00     0.016 A 
ATOM      7  C   UNL A   1      36.272  29.548  28.531  1.00  0.00     0.016 A 
ATOM      8  C   UNL A   1      38.507  31.138  29.117  1.00  0.00     0.010 A 
ATOM      9  C   UNL A   1      37.436  28.959  28.969  1.00  0.00     0.010 A 
ATOM     10  C   UNL A   1      38.572  29.745  29.177  1.00  0.00    -0.014 A 
BRANCH  10  11
ATOM     11  C   UNL A   1      39.843  29.115  29.498  1.00  0.00     0.031 A 
ATOM     12  C   UNL A   1      40.254  29.200  30.930  1.00  0.00     0.074 A 
ATOM     13  C   UNL A   1      40.515  28.396  28.575  1.00  0.00     0.049 A 
ATOM     14  N   UNL A   1      41.240  29.855  31.448  1.00  0.00    -0.248 NA
ATOM     15  C   UNL A   1      39.368  28.598  31.928  1.00  0.00     0.031 C 
ATOM     16  C   UNL A   1      40.090  28.012  27.221  1.00  0.00     0.029 A 
ATOM     17  N   UNL A   1      41.688  27.731  28.711  1.00  0.00    -0.354 N 
ATOM     18  C   UNL A   1      41.233  29.545  32.812  1.00  0.00     0.074 A 
ATOM     19  C   UNL A   1      39.960  28.933  33.075  1.00  0.00     0.031 C 
ATOM     20  C   UNL A   1      40.843  26.977  26.790  1.00  0.00     0.029 A 
ATOM     21  C   UNL A   1      41.912  26.759  27.744  1.00  0.00     0.049 A 
ATOM     22  H   UNL A   1      42.327  27.921  29.436  1.00  0.00     0.167 HD
ATOM     23  C   UNL A   1      42.375  29.597  33.557  1.00  0.00     0.034 A 
ATOM     24  C   UNL A   1      42.886  25.817  27.758  1.00  0.00     0.034 A 
ATOM     25  C   UNL A   1      43.396  30.348  32.872  1.00  0.00     0.049 A 
ATOM     26  C   UNL A   1      43.938  26.306  28.678  1.00  0.00     0.074 A 
ATOM     27  C   UNL A   1      43.499  31.641  32.401  1.00  0.00     0.029 A 
ATOM     28  N   UNL A   1      44.352  29.623  32.202  1.00  0.00    -0.354 N 
ATOM     29  N   UNL A   1      44.635  27.384  28.446  1.00  0.00    -0.248 NA
ATOM     30  C   UNL A   1      43.871  25.884  30.067  1.00  0.00     0.031 C 
ATOM     31  C   UNL A   1      44.120  31.503  31.125  1.00  0.00     0.029 A 
ATOM     32  C   UNL A   1      44.452  30.157  30.946  1.00  0.00     0.049 A 
ATOM     33  H   UNL A   1      44.865  28.862  32.557  1.00  0.00     0.167 HD
ATOM     34  C   UNL A   1      44.694  28.023  29.677  1.00  0.00     0.074 A 
ATOM     35  C   UNL A   1      44.288  27.010  30.654  1.00  0.00     0.031 C 
ATOM     36  C   UNL A   1      44.772  29.382  29.768  1.00  0.00     0.034 A 
BRANCH  23  37
ATOM     37  C   UNL A   1      42.733  28.672  34.703  1.00  0.00     0.023 A 
ATOM     38  C   UNL A   1      43.339  29.263  35.838  1.00  0.00     0.012 A 
ATOM     39  C   UNL A   1      42.798  27.262  34.611  1.00  0.00     0.148 A 
ATOM     40  C   UNL A   1      44.046  28.507  36.779  1.00  0.00     0.002 A 
ATOM     41  C   UNL A   1      43.450  26.507  35.582  1.00  0.00     0.091 A 
ATOM     42  F   UNL A   1      42.340  26.640  33.524  1.00  0.00    -0.205 F 
ATOM     43  C   UNL A   1      44.105  27.127  36.649  1.00  0.00     0.022 A 
BRANCH  41  44
ATOM     44  S   UNL A   1      43.556  24.714  35.485  1.00  0.00     0.127 S 
ATOM     45  O   UNL A   1      44.292  24.400  36.707  1.00  0.00    -0.237 OA
ATOM     46  O   UNL A   1      42.143  24.334  35.498  1.00  0.00    -0.237 OA
ATOM     47  O   UNL A   1      44.248  24.422  34.236  1.00  0.00    -0.744 OA
ENDBRANCH  41  44
ENDBRANCH  23  37
BRANCH  24  48
ATOM     48  C   UNL A   1      42.836  24.413  27.289  1.00  0.00     0.023 A 
ATOM     49  C   UNL A   1      41.638  23.680  27.394  1.00  0.00     0.012 A 
ATOM     50  C   UNL A   1      43.869  23.893  26.477  1.00  0.00     0.148 A 
ATOM     51  C   UNL A   1      41.461  22.484  26.685  1.00  0.00     0.002 A 
ATOM     52  C   UNL A   1      43.688  22.705  25.773  1.00  0.00     0.091 A 
ATOM     53  F   UNL A   1      44.990  24.612  26.323  1.00  0.00    -0.205 F 
ATOM     54  C   UNL A   1      42.480  22.004  25.867  1.00  0.00     0.022 A 
BRANCH  52  55
ATOM     55  S   UNL A   1      44.941  22.045  24.665  1.00  0.00     0.127 S 
ATOM     56  O   UNL A   1      45.110  23.143  23.712  1.00  0.00    -0.237 OA
ATOM     57  O   UNL A   1      46.069  21.843  25.571  1.00  0.00    -0.237 OA
ATOM     58  O   UNL A   1      44.371  20.833  24.091  1.00  0.00    -0.744 OA
ENDBRANCH  52  55
ENDBRANCH  24  48
BRANCH  36  59
ATOM     59  C   UNL A   1      44.991  30.180  28.508  1.00  0.00     0.023 A 
ATOM     60  C   UNL A   1      43.931  30.720  27.748  1.00  0.00     0.012 A 
ATOM     61  C   UNL A   1      46.304  30.586  28.226  1.00  0.00     0.148 A 
ATOM     62  C   UNL A   1      44.181  31.644  26.727  1.00  0.00     0.002 A 
ATOM     63  C   UNL A   1      46.544  31.543  27.252  1.00  0.00     0.091 A 
ATOM     64  F   UNL A   1      47.296  30.061  28.962  1.00  0.00    -0.205 F 
ATOM     65  C   UNL A   1      45.486  32.070  26.492  1.00  0.00     0.022 A 
BRANCH  63  66
ATOM     66  S   UNL A   1      48.179  32.237  27.014  1.00  0.00     0.127 S 
ATOM     67  O   UNL A   1      48.483  32.758  28.345  1.00  0.00    -0.237 OA
ATOM     68  O   UNL A   1      48.962  31.064  26.621  1.00  0.00    -0.237 OA
ATOM     69  O   UNL A   1      48.043  33.241  25.965  1.00  0.00    -0.744 OA
ENDBRANCH  63  66
ENDBRANCH  36  59
ENDBRANCH  10  11
ENDBRANCH   3   5
ENDBRANCH   2   3
ENDBRANCH   1   2
BRANCH   1  70
ATOM     70  C   UNL A   1      32.463  29.053  27.250  1.00  0.00     0.274 C 
BRANCH  70  71
ATOM     71  O   UNL A   1      33.289  28.165  26.458  1.00  0.00    -0.461 OA
BRANCH  71  72
ATOM     72  C   UNL A   1      33.008  28.135  25.114  1.00  0.00     0.325 C 
ATOM     73  O   UNL A   1      33.862  28.171  24.234  1.00  0.00    -0.250 OA
BRANCH  72  74
ATOM     74  C   UNL A   1      31.513  28.102  24.805  1.00  0.00     0.189 C 
ATOM     75  C   UNL A   1      31.176  29.362  23.960  1.00  0.00     0.088 C 
ATOM     76  N   UNL A   1      31.033  26.790  24.165  1.00  0.00    -0.176 NA
ATOM     77  C   UNL A   1      29.797  29.283  23.446  1.00  0.00     0.041 A 
ATOM     78  C   UNL A   1      29.535  26.799  23.841  1.00  0.00     0.161 C 
ATOM     79  N   UNL A   1      29.012  30.257  22.895  1.00  0.00    -0.348 N 
ATOM     80  C   UNL A   1      29.071  28.125  23.368  1.00  0.00     0.077 A 
ATOM     81  C   UNL A   1      27.833  29.651  22.535  1.00  0.00     0.197 A 
ATOM     82  H   UNL A   1      29.247  31.206  22.778  1.00  0.00     0.167 HD
ATOM     83  N   UNL A   1      27.839  28.368  22.830  1.00  0.00    -0.240 NA
BRANCH  76  84
ATOM     84  S   UNL A   1      31.320  25.389  25.125  1.00  0.00     0.253 S 
ATOM     85  O   UNL A   1      31.131  25.775  26.504  1.00  0.00    -0.206 OA
ATOM     86  O   UNL A   1      30.549  24.294  24.561  1.00  0.00    -0.206 OA
BRANCH  84  87
ATOM     87  C   UNL A   1      33.013  24.839  25.066  1.00  0.00     0.135 A 
ATOM     88  C   UNL A   1      33.902  24.511  26.076  1.00  0.00     0.033 A 
ATOM     89  S   UNL A   1      33.708  24.582  23.522  1.00  0.00    -0.131 S 
ATOM     90  C   UNL A   1      35.151  24.038  25.580  1.00  0.00     0.013 A 
ATOM     91  C   UNL A   1      35.174  24.012  24.202  1.00  0.00     0.066 A 
ENDBRANCH  84  87
ENDBRANCH  76  84
ENDBRANCH  72  74
ENDBRANCH  71  72
ENDBRANCH  70  71
ENDBRANCH   1  70
TORSDOF 16
ENDMDL
MODEL 2
REMARK VINA RESULT:     -11.5      1.221      3.029
REMARK SMILES O=C(OCCOC(=O)[C@H]1Cc2[nH]cnc2CN1S(=O)(=O)c1cccs1)c1ccc(-c2c3nc(c(-c4cccc(S(=O)(=O)[O-])c4F)c4ccc([nH]4)c(-c4cccc(S(=O)(=O)[O-])c4F)c4nc(c(-c5cccc(S(=O)(=O)[O-])c5F)c5ccc2[nH]5)C=C4)C=C3)cc1
REMARK SMILES IDX 4 1 3 2 2 3 1 4 26 5 27 6 88 7 28 8 87 9 29 10 30 11 31 12
REMARK SMILES IDX 81 13 32 14 86 15 80 16 82 17 33 18 85 19 79 20 78 21 34 23
REMARK SMILES IDX 66 24 46 25 65 26 47 27 50 28 64 29 83 30 48 31 49 32 63 34
REMARK SMILES IDX 84 35 51 36 35 37 36 38 44 39 37 40 39 41 45 42 38 43 40 44
REMARK SMILES IDX 41 45 42 46 43 47 67 48 68 49 76 50 69 51 71 52 77 53 70 54
REMARK SMILES IDX 72 55 73 56 74 57 75 58 52 59 53 60 61 61 54 62 56 63 62 64
REMARK SMILES IDX 55 65 57 66 58 67 59 68 60 69 5 70 6 71 7 72 8 73 9 74 10 75
REMARK SMILES IDX 17 76 11 77 16 78 12 79 15 80 13 81 14 83 18 84 19 85 20 86
REMARK SMILES IDX 21 87 22 88 25 89 23 90 24 91
REMARK H PARENT 82 22 50 33 12 82
REMARK Flexibility Score: inf
ROOT
ATOM      1  C   UNL A   1      32.769  30.417  27.049  1.00  0.00     0.275 C 
ENDROOT
BRANCH   1   2
ATOM      2  O   UNL A   1      34.188  30.524  26.892  1.00  0.00    -0.458 OA
BRANCH   2   3
ATOM      3  C   UNL A   1      34.805  31.383  27.723  1.00  0.00     0.338 C 
ATOM      4  O   UNL A   1      34.317  32.415  28.153  1.00  0.00    -0.246 OA
BRANCH   3   5
ATOM      5  C   UNL A   1      36.104  30.858  28.162  1.00  0.00     0.060 A 
ATOM      6  C   UNL A   1      37.130  31.678  28.659  1.00  0.00     0.016 A 
ATOM      7  C   UNL A   1      36.219  29.470  28.185  1.00  0.00     0.016 A 
ATOM      8  C   UNL A   1      38.321  31.107  29.066  1.00  0.00     0.010 A 
ATOM      9  C   UNL A   1      37.380  28.901  28.656  1.00  0.00     0.010 A 
ATOM     10  C   UNL A   1      38.455  29.719  29.012  1.00  0.00    -0.014 A 
BRANCH  10  11
ATOM     11  C   UNL A   1      39.733  29.123  29.371  1.00  0.00     0.031 A 
ATOM     12  C   UNL A   1      40.108  29.235  30.811  1.00  0.00     0.074 A 
ATOM     13  C   UNL A   1      40.444  28.410  28.473  1.00  0.00     0.049 A 
ATOM     14  N   UNL A   1      41.065  29.920  31.344  1.00  0.00    -0.248 NA
ATOM     15  C   UNL A   1      39.212  28.623  31.795  1.00  0.00     0.031 C 
ATOM     16  C   UNL A   1      40.061  28.000  27.115  1.00  0.00     0.029 A 
ATOM     17  N   UNL A   1      41.629  27.775  28.646  1.00  0.00    -0.354 N 
ATOM     18  C   UNL A   1      41.033  29.626  32.712  1.00  0.00     0.074 A 
ATOM     19  C   UNL A   1      39.768  28.986  32.951  1.00  0.00     0.031 C 
ATOM     20  C   UNL A   1      40.849  26.978  26.714  1.00  0.00     0.029 A 
ATOM     21  C   UNL A   1      41.900  26.797  27.696  1.00  0.00     0.049 A 
ATOM     22  H   UNL A   1      42.246  27.989  29.383  1.00  0.00     0.167 HD
ATOM     23  C   UNL A   1      42.154  29.714  33.483  1.00  0.00     0.034 A 
ATOM     24  C   UNL A   1      42.895  25.879  27.745  1.00  0.00     0.034 A 
ATOM     25  C   UNL A   1      43.173  30.482  32.813  1.00  0.00     0.049 A 
ATOM     26  C   UNL A   1      43.913  26.405  28.684  1.00  0.00     0.074 A 
ATOM     27  C   UNL A   1      43.256  31.771  32.328  1.00  0.00     0.029 A 
ATOM     28  N   UNL A   1      44.162  29.772  32.175  1.00  0.00    -0.354 N 
ATOM     29  N   UNL A   1      44.589  27.497  28.455  1.00  0.00    -0.248 NA
ATOM     30  C   UNL A   1      43.823  25.998  30.076  1.00  0.00     0.031 C 
ATOM     31  C   UNL A   1      43.911  31.633  31.070  1.00  0.00     0.029 A 
ATOM     32  C   UNL A   1      44.280  30.294  30.915  1.00  0.00     0.049 A 
ATOM     33  H   UNL A   1      44.685  29.028  32.552  1.00  0.00     0.167 HD
ATOM     34  C   UNL A   1      44.603  28.151  29.679  1.00  0.00     0.074 A 
ATOM     35  C   UNL A   1      44.198  27.141  30.659  1.00  0.00     0.031 C 
ATOM     36  C   UNL A   1      44.647  29.513  29.755  1.00  0.00     0.034 A 
BRANCH  23  37
ATOM     37  C   UNL A   1      42.507  28.811  34.648  1.00  0.00     0.023 A 
ATOM     38  C   UNL A   1      43.022  29.437  35.810  1.00  0.00     0.012 A 
ATOM     39  C   UNL A   1      42.654  27.408  34.565  1.00  0.00     0.148 A 
ATOM     40  C   UNL A   1      43.723  28.723  36.787  1.00  0.00     0.002 A 
ATOM     41  C   UNL A   1      43.300  26.691  35.570  1.00  0.00     0.091 A 
ATOM     42  F   UNL A   1      42.286  26.760  33.459  1.00  0.00    -0.205 F 
ATOM     43  C   UNL A   1      43.865  27.348  36.665  1.00  0.00     0.022 A 
BRANCH  41  44
ATOM     44  S   UNL A   1      43.510  24.907  35.485  1.00  0.00     0.127 S 
ATOM     45  O   UNL A   1      44.288  24.648  36.693  1.00  0.00    -0.237 OA
ATOM     46  O   UNL A   1      42.123  24.444  35.531  1.00  0.00    -0.237 OA
ATOM     47  O   UNL A   1      44.191  24.645  34.224  1.00  0.00    -0.744 OA
ENDBRANCH  41  44
ENDBRANCH  23  37
BRANCH  24  48
ATOM     48  C   UNL A   1      42.890  24.469  27.292  1.00  0.00     0.023 A 
ATOM     49  C   UNL A   1      41.721  23.695  27.420  1.00  0.00     0.012 A 
ATOM     50  C   UNL A   1      43.932  23.977  26.474  1.00  0.00     0.148 A 
ATOM     51  C   UNL A   1      41.578  22.485  26.727  1.00  0.00     0.002 A 
ATOM     52  C   UNL A   1      43.786  22.775  25.786  1.00  0.00     0.091 A 
ATOM     53  F   UNL A   1      45.025  24.733  26.299  1.00  0.00    -0.205 F 
ATOM     54  C   UNL A   1      42.605  22.032  25.902  1.00  0.00     0.022 A 
BRANCH  52  55
ATOM     55  S   UNL A   1      45.049  22.148  24.670  1.00  0.00     0.127 S 
ATOM     56  O   UNL A   1      46.198  22.007  25.566  1.00  0.00    -0.237 OA
ATOM     57  O   UNL A   1      44.461  20.886  24.227  1.00  0.00    -0.237 OA
ATOM     58  O   UNL A   1      45.212  23.163  23.637  1.00  0.00    -0.744 OA
ENDBRANCH  52  55
ENDBRANCH  24  48
BRANCH  36  59
ATOM     59  C   UNL A   1      44.876  30.301  28.490  1.00  0.00     0.023 A 
ATOM     60  C   UNL A   1      43.822  30.800  27.695  1.00  0.00     0.012 A 
ATOM     61  C   UNL A   1      46.184  30.741  28.239  1.00  0.00     0.148 A 
ATOM     62  C   UNL A   1      44.073  31.719  26.670  1.00  0.00     0.002 A 
ATOM     63  C   UNL A   1      46.423  31.692  27.258  1.00  0.00     0.091 A 
ATOM     64  F   UNL A   1      47.171  30.255  29.008  1.00  0.00    -0.205 F 
ATOM     65  C   UNL A   1      45.372  32.178  26.463  1.00  0.00     0.022 A 
BRANCH  63  66
ATOM     66  S   UNL A   1      48.044  32.431  27.055  1.00  0.00     0.127 S 
ATOM     67  O   UNL A   1      48.837  31.295  26.589  1.00  0.00    -0.237 OA
ATOM     68  O   UNL A   1      47.793  33.460  26.045  1.00  0.00    -0.237 OA
ATOM     69  O   UNL A   1      48.414  32.958  28.363  1.00  0.00    -0.744 OA
ENDBRANCH  63  66
ENDBRANCH  36  59
ENDBRANCH  10  11
ENDBRANCH   3   5
ENDBRANCH   2   3
ENDBRANCH   1   2
BRANCH   1  70
ATOM     70  C   UNL A   1      32.209  29.004  27.224  1.00  0.00     0.274 C 
BRANCH  70  71
ATOM     71  O   UNL A   1      33.135  27.959  26.837  1.00  0.00    -0.461 OA
BRANCH  71  72
ATOM     72  C   UNL A   1      32.562  26.801  26.371  1.00  0.00     0.325 C 
ATOM     73  O   UNL A   1      31.399  26.476  26.588  1.00  0.00    -0.250 OA
BRANCH  72  74
ATOM     74  C   UNL A   1      33.529  25.915  25.589  1.00  0.00     0.189 C 
ATOM     75  C   UNL A   1      33.589  24.535  26.301  1.00  0.00     0.088 C 
ATOM     76  N   UNL A   1      33.216  25.816  24.088  1.00  0.00    -0.176 NA
ATOM     77  C   UNL A   1      34.335  23.565  25.480  1.00  0.00     0.041 A 
ATOM     78  C   UNL A   1      34.186  24.898  23.337  1.00  0.00     0.161 C 
ATOM     79  N   UNL A   1      34.847  22.344  25.820  1.00  0.00    -0.348 N 
ATOM     80  C   UNL A   1      34.578  23.716  24.142  1.00  0.00     0.077 A 
ATOM     81  C   UNL A   1      35.404  21.823  24.678  1.00  0.00     0.197 A 
ATOM     82  H   UNL A   1      34.819  21.920  26.709  1.00  0.00     0.167 HD
ATOM     83  N   UNL A   1      35.272  22.644  23.657  1.00  0.00    -0.240 NA
BRANCH  76  84
ATOM     84  S   UNL A   1      33.229  27.327  23.262  1.00  0.00     0.253 S 
ATOM     85  O   UNL A   1      34.108  28.205  23.999  1.00  0.00    -0.206 OA
ATOM     86  O   UNL A   1      33.472  27.065  21.854  1.00  0.00    -0.206 OA
BRANCH  84  87
ATOM     87  C   UNL A   1      31.657  28.161  23.310  1.00  0.00     0.135 A 
ATOM     88  C   UNL A   1      31.313  29.439  23.721  1.00  0.00     0.033 A 
ATOM     89  S   UNL A   1      30.297  27.323  22.691  1.00  0.00    -0.131 S 
ATOM     90  C   UNL A   1      29.934  29.732  23.516  1.00  0.00     0.013 A 
ATOM     91  C   UNL A   1      29.266  28.669  22.948  1.00  0.00     0.066 A 
ENDBRANCH  84  87
ENDBRANCH  76  84
ENDBRANCH  72  74
ENDBRANCH  71  72
ENDBRANCH  70  71
ENDBRANCH   1  70
TORSDOF 16
ENDMDL
MODEL 3
REMARK VINA RESULT:     -11.4      3.117      8.560
REMARK SMILES O=C(OCCOC(=O)[C@H]1Cc2[nH]cnc2CN1S(=O)(=O)c1cccs1)c1ccc(-c2c3nc(c(-c4cccc(S(=O)(=O)[O-])c4F)c4ccc([nH]4)c(-c4cccc(S(=O)(=O)[O-])c4F)c4nc(c(-c5cccc(S(=O)(=O)[O-])c5F)c5ccc2[nH]5)C=C4)C=C3)cc1
REMARK SMILES IDX 4 1 3 2 2 3 1 4 26 5 27 6 88 7 28 8 87 9 29 10 30 11 31 12
REMARK SMILES IDX 81 13 32 14 86 15 80 16 82 17 33 18 85 19 79 20 78 21 34 23
REMARK SMILES IDX 66 24 46 25 65 26 47 27 50 28 64 29 83 30 48 31 49 32 63 34
REMARK SMILES IDX 84 35 51 36 35 37 36 38 44 39 37 40 39 41 45 42 38 43 40 44
REMARK SMILES IDX 41 45 42 46 43 47 67 48 68 49 76 50 69 51 71 52 77 53 70 54
REMARK SMILES IDX 72 55 73 56 74 57 75 58 52 59 53 60 61 61 54 62 56 63 62 64
REMARK SMILES IDX 55 65 57 66 58 67 59 68 60 69 5 70 6 71 7 72 8 73 9 74 10 75
REMARK SMILES IDX 17 76 11 77 16 78 12 79 15 80 13 81 14 83 18 84 19 85 20 86
REMARK SMILES IDX 21 87 22 88 25 89 23 90 24 91
REMARK H PARENT 82 22 50 33 12 82
REMARK Flexibility Score: inf
ROOT
ATOM      1  C   UNL A   1      37.555  21.610  24.848  1.00  0.00     0.275 C 
ENDROOT
BRANCH   1   2
ATOM      2  O   UNL A   1      37.929  22.091  26.144  1.00  0.00    -0.458 OA
BRANCH   2   3
ATOM      3  C   UNL A   1      39.251  22.136  26.391  1.00  0.00     0.338 C 
ATOM      4  O   UNL A   1      40.047  21.254  26.112  1.00  0.00    -0.246 OA
BRANCH   3   5
ATOM      5  C   UNL A   1      39.648  23.446  26.924  1.00  0.00     0.060 A 
ATOM      6  C   UNL A   1      38.868  24.602  26.767  1.00  0.00     0.016 A 
ATOM      7  C   UNL A   1      40.792  23.453  27.720  1.00  0.00     0.016 A 
ATOM      8  C   UNL A   1      39.305  25.796  27.310  1.00  0.00     0.010 A 
ATOM      9  C   UNL A   1      41.186  24.628  28.317  1.00  0.00     0.010 A 
ATOM     10  C   UNL A   1      40.493  25.809  28.041  1.00  0.00    -0.014 A 
BRANCH  10  11
ATOM     11  C   UNL A   1      40.990  27.078  28.551  1.00  0.00     0.031 A 
ATOM     12  C   UNL A   1      42.322  27.499  28.027  1.00  0.00     0.074 A 
ATOM     13  C   UNL A   1      40.220  27.861  29.335  1.00  0.00     0.049 A 
ATOM     14  N   UNL A   1      43.443  27.598  28.661  1.00  0.00    -0.248 NA
ATOM     15  C   UNL A   1      42.453  27.692  26.581  1.00  0.00     0.031 C 
ATOM     16  C   UNL A   1      38.807  27.692  29.699  1.00  0.00     0.029 A 
ATOM     17  N   UNL A   1      40.516  29.070  29.871  1.00  0.00    -0.354 N 
ATOM     18  C   UNL A   1      44.365  28.102  27.736  1.00  0.00     0.074 A 
ATOM     19  C   UNL A   1      43.753  27.954  26.444  1.00  0.00     0.031 C 
ATOM     20  C   UNL A   1      38.311  28.869  30.139  1.00  0.00     0.029 A 
ATOM     21  C   UNL A   1      39.407  29.807  30.270  1.00  0.00     0.049 A 
ATOM     22  H   UNL A   1      41.439  29.400  29.969  1.00  0.00     0.167 HD
ATOM     23  C   UNL A   1      45.452  28.821  28.138  1.00  0.00     0.034 A 
ATOM     24  C   UNL A   1      39.395  31.112  30.637  1.00  0.00     0.034 A 
ATOM     25  C   UNL A   1      45.691  28.638  29.546  1.00  0.00     0.049 A 
ATOM     26  C   UNL A   1      40.783  31.458  31.022  1.00  0.00     0.074 A 
ATOM     27  C   UNL A   1      45.960  27.551  30.353  1.00  0.00     0.029 A 
ATOM     28  N   UNL A   1      45.236  29.628  30.384  1.00  0.00    -0.354 N 
ATOM     29  N   UNL A   1      41.390  30.915  32.041  1.00  0.00    -0.248 NA
ATOM     30  C   UNL A   1      41.647  32.024  30.000  1.00  0.00     0.031 C 
ATOM     31  C   UNL A   1      45.160  27.767  31.513  1.00  0.00     0.029 A 
ATOM     32  C   UNL A   1      44.542  29.014  31.390  1.00  0.00     0.049 A 
ATOM     33  H   UNL A   1      45.381  30.596  30.278  1.00  0.00     0.167 HD
ATOM     34  C   UNL A   1      42.671  30.654  31.575  1.00  0.00     0.074 A 
ATOM     35  C   UNL A   1      42.799  31.440  30.346  1.00  0.00     0.031 C 
ATOM     36  C   UNL A   1      43.400  29.604  32.052  1.00  0.00     0.034 A 
BRANCH  23  37
ATOM     37  C   UNL A   1      46.074  29.985  27.392  1.00  0.00     0.023 A 
ATOM     38  C   UNL A   1      47.470  30.169  27.543  1.00  0.00     0.012 A 
ATOM     39  C   UNL A   1      45.350  31.059  26.825  1.00  0.00     0.148 A 
ATOM     40  C   UNL A   1      48.095  31.381  27.233  1.00  0.00     0.002 A 
ATOM     41  C   UNL A   1      45.986  32.243  26.461  1.00  0.00     0.091 A 
ATOM     42  F   UNL A   1      44.020  31.000  26.744  1.00  0.00    -0.205 F 
ATOM     43  C   UNL A   1      47.352  32.421  26.694  1.00  0.00     0.022 A 
BRANCH  41  44
ATOM     44  S   UNL A   1      45.087  33.628  25.746  1.00  0.00     0.127 S 
ATOM     45  O   UNL A   1      44.311  34.093  26.892  1.00  0.00    -0.237 OA
ATOM     46  O   UNL A   1      46.180  34.510  25.340  1.00  0.00    -0.237 OA
ATOM     47  O   UNL A   1      44.315  33.074  24.641  1.00  0.00    -0.744 OA
ENDBRANCH  41  44
ENDBRANCH  23  37
BRANCH  24  48
ATOM     48  C   UNL A   1      38.362  32.144  30.389  1.00  0.00     0.023 A 
ATOM     49  C   UNL A   1      37.868  32.344  29.086  1.00  0.00     0.012 A 
ATOM     50  C   UNL A   1      37.657  32.723  31.468  1.00  0.00     0.148 A 
ATOM     51  C   UNL A   1      36.689  33.069  28.866  1.00  0.00     0.002 A 
ATOM     52  C   UNL A   1      36.485  33.440  31.246  1.00  0.00     0.091 A 
ATOM     53  F   UNL A   1      38.086  32.489  32.717  1.00  0.00    -0.205 F 
ATOM     54  C   UNL A   1      35.992  33.606  29.946  1.00  0.00     0.022 A 
BRANCH  52  55
ATOM     55  S   UNL A   1      35.509  34.127  32.591  1.00  0.00     0.127 S 
ATOM     56  O   UNL A   1      36.445  35.082  33.186  1.00  0.00    -0.237 OA
ATOM     57  O   UNL A   1      34.390  34.733  31.874  1.00  0.00    -0.237 OA
ATOM     58  O   UNL A   1      35.168  33.002  33.454  1.00  0.00    -0.744 OA
ENDBRANCH  52  55
ENDBRANCH  24  48
BRANCH  36  59
ATOM     59  C   UNL A   1      42.872  28.837  33.239  1.00  0.00     0.023 A 
ATOM     60  C   UNL A   1      41.911  27.810  33.123  1.00  0.00     0.012 A 
ATOM     61  C   UNL A   1      43.542  29.007  34.459  1.00  0.00     0.148 A 
ATOM     62  C   UNL A   1      41.627  26.972  34.207  1.00  0.00     0.002 A 
ATOM     63  C   UNL A   1      43.298  28.141  35.515  1.00  0.00     0.091 A 
ATOM     64  F   UNL A   1      44.453  29.989  34.547  1.00  0.00    -0.205 F 
ATOM     65  C   UNL A   1      42.334  27.126  35.398  1.00  0.00     0.022 A 
BRANCH  63  66
ATOM     66  S   UNL A   1      44.286  28.196  37.010  1.00  0.00     0.127 S 
ATOM     67  O   UNL A   1      45.640  28.036  36.483  1.00  0.00    -0.237 OA
ATOM     68  O   UNL A   1      43.985  29.529  37.533  1.00  0.00    -0.237 OA
ATOM     69  O   UNL A   1      43.808  27.104  37.849  1.00  0.00    -0.744 OA
ENDBRANCH  63  66
ENDBRANCH  36  59
ENDBRANCH  10  11
ENDBRANCH   3   5
ENDBRANCH   2   3
ENDBRANCH   1   2
BRANCH   1  70
ATOM     70  C   UNL A   1      36.800  22.592  23.950  1.00  0.00     0.274 C 
BRANCH  70  71
ATOM     71  O   UNL A   1      36.083  23.616  24.682  1.00  0.00    -0.461 OA
BRANCH  71  72
ATOM     72  C   UNL A   1      34.930  24.070  24.091  1.00  0.00     0.325 C 
ATOM     73  O   UNL A   1      34.566  23.753  22.963  1.00  0.00    -0.250 OA
BRANCH  72  74
ATOM     74  C   UNL A   1      34.151  25.059  24.956  1.00  0.00     0.189 C 
ATOM     75  C   UNL A   1      33.953  26.359  24.127  1.00  0.00     0.088 C 
ATOM     76  N   UNL A   1      32.843  24.495  25.532  1.00  0.00    -0.176 NA
ATOM     77  C   UNL A   1      33.026  27.273  24.819  1.00  0.00     0.041 A 
ATOM     78  C   UNL A   1      32.072  25.519  26.370  1.00  0.00     0.161 C 
ATOM     79  N   UNL A   1      32.776  28.598  24.595  1.00  0.00    -0.348 N 
ATOM     80  C   UNL A   1      32.162  26.888  25.808  1.00  0.00     0.077 A 
ATOM     81  C   UNL A   1      31.791  28.964  25.479  1.00  0.00     0.197 A 
ATOM     82  H   UNL A   1      33.215  29.176  23.929  1.00  0.00     0.167 HD
ATOM     83  N   UNL A   1      31.420  27.952  26.236  1.00  0.00    -0.240 NA
BRANCH  76  84
ATOM     84  S   UNL A   1      33.050  23.103  26.525  1.00  0.00     0.253 S 
ATOM     85  O   UNL A   1      34.340  23.226  27.163  1.00  0.00    -0.206 OA
ATOM     86  O   UNL A   1      31.850  22.943  27.328  1.00  0.00    -0.206 OA
BRANCH  84  87
ATOM     87  C   UNL A   1      33.182  21.593  25.589  1.00  0.00     0.135 A 
ATOM     88  C   UNL A   1      34.009  20.493  25.744  1.00  0.00     0.033 A 
ATOM     89  S   UNL A   1      32.079  21.363  24.298  1.00  0.00    -0.131 S 
ATOM     90  C   UNL A   1      33.726  19.455  24.808  1.00  0.00     0.013 A 
ATOM     91  C   UNL A   1      32.686  19.794  23.970  1.00  0.00     0.066 A 
ENDBRANCH  84  87
ENDBRANCH  76  84
ENDBRANCH  72  74
ENDBRANCH  71  72
ENDBRANCH  70  71
ENDBRANCH   1  70
TORSDOF 16
ENDMDL
