MODEL 1
REMARK VINA RESULT:     -12.3      0.000      0.000
REMARK SMILES CC1(C)[C@H](C(=O)OCCOC(=O)c2ccc(-c3c4nc(c(-c5cccc(S(=O)(=O)[O-])c5F)c5ccc([nH]5)c(-c5cccc(S(=O)(=O)[O-])c5F)c5nc(c(-c6cccc(S(=O)(=O)[O-])c6F)c6ccc3[nH]6)C=C5)C=C4)cc2)[C@@H]1C(=O)Nc1ccc(NC(=O)C2CCC2)cc1
REMARK SMILES IDX 8 1 7 2 5 3 6 4 4 5 1 6 2 7 3 8 76 9 77 10 78 11 79 12 80 14
REMARK SMILES IDX 81 15 92 16 82 17 91 18 83 19 84 20 85 21 86 23 87 24 88 25
REMARK SMILES IDX 90 26 89 27 9 28 10 29 11 30 12 31 13 32 14 33 75 34 15 35
REMARK SMILES IDX 74 36 16 37 17 38 18 39 68 40 19 41 73 42 67 43 69 44 20 45
REMARK SMILES IDX 72 46 66 47 65 48 21 50 53 51 33 52 52 53 34 54 37 55 51 56
REMARK SMILES IDX 70 57 35 58 36 59 50 61 71 62 38 63 22 64 23 65 31 66 24 67
REMARK SMILES IDX 26 68 32 69 25 70 27 71 28 72 29 73 30 74 54 75 55 76 63 77
REMARK SMILES IDX 56 78 58 79 64 80 57 81 59 82 60 83 61 84 62 85 39 86 40 87
REMARK SMILES IDX 48 88 41 89 43 90 49 91 42 92 44 93 45 94 46 95 47 96
REMARK H PARENT 79 13 84 22 69 49 37 60
REMARK Flexibility Score: inf
ROOT
ATOM      1  C   UNL A   1      35.325  20.399  25.023  1.00  0.00     0.274 C 
ENDROOT
BRANCH   1   2
ATOM      2  O   UNL A   1      34.686  21.307  24.101  1.00  0.00    -0.462 OA
BRANCH   2   3
ATOM      3  C   UNL A   1      33.391  21.595  24.411  1.00  0.00     0.310 C 
ATOM      4  O   UNL A   1      32.720  20.938  25.184  1.00  0.00    -0.252 OA
BRANCH   3   5
ATOM      5  C   UNL A   1      32.835  22.860  23.889  1.00  0.00     0.118 C 
ATOM      6  C   UNL A   1      30.752  24.283  23.684  1.00  0.00     0.013 C 
ATOM      7  C   UNL A   1      31.900  23.825  24.557  1.00  0.00    -0.009 C 
ATOM      8  C   UNL A   1      31.497  23.593  25.989  1.00  0.00     0.013 C 
ATOM      9  C   UNL A   1      33.338  24.248  24.169  1.00  0.00     0.100 C 
BRANCH   9  10
ATOM     10  C   UNL A   1      34.304  24.680  25.202  1.00  0.00     0.228 C 
ATOM     11  O   UNL A   1      35.244  23.945  25.499  1.00  0.00    -0.274 OA
ATOM     12  N   UNL A   1      34.147  25.859  25.893  1.00  0.00    -0.326 N 
ATOM     13  H   UNL A   1      34.636  25.933  26.745  1.00  0.00     0.169 HD
BRANCH  12  14
ATOM     14  C   UNL A   1      33.375  26.962  25.526  1.00  0.00     0.041 A 
ATOM     15  C   UNL A   1      32.228  27.156  26.282  1.00  0.00     0.028 A 
ATOM     16  C   UNL A   1      33.716  27.880  24.535  1.00  0.00     0.028 A 
ATOM     17  C   UNL A   1      31.514  28.342  26.150  1.00  0.00     0.028 A 
ATOM     18  C   UNL A   1      32.900  29.013  24.330  1.00  0.00     0.028 A 
ATOM     19  C   UNL A   1      31.798  29.269  25.166  1.00  0.00     0.041 A 
BRANCH  19  20
ATOM     20  N   UNL A   1      31.107  30.481  25.022  1.00  0.00    -0.326 N 
ATOM     21  C   UNL A   1      30.039  30.916  24.265  1.00  0.00     0.227 C 
ATOM     22  H   UNL A   1      31.471  31.190  25.599  1.00  0.00     0.169 HD
ATOM     23  O   UNL A   1      29.673  32.080  24.522  1.00  0.00    -0.274 OA
BRANCH  21  24
ATOM     24  C   UNL A   1      29.271  30.122  23.182  1.00  0.00     0.079 C 
ATOM     25  C   UNL A   1      27.791  30.630  22.992  1.00  0.00     0.013 C 
ATOM     26  C   UNL A   1      29.367  30.306  21.637  1.00  0.00     0.013 C 
ATOM     27  C   UNL A   1      27.852  30.109  21.556  1.00  0.00     0.002 C 
ENDBRANCH  21  24
ENDBRANCH  19  20
ENDBRANCH  12  14
ENDBRANCH   9  10
ENDBRANCH   3   5
ENDBRANCH   2   3
ENDBRANCH   1   2
BRANCH   1  28
ATOM     28  C   UNL A   1      36.851  20.285  24.871  1.00  0.00     0.275 C 
BRANCH  28  29
ATOM     29  O   UNL A   1      37.572  21.461  25.287  1.00  0.00    -0.458 OA
BRANCH  29  30
ATOM     30  C   UNL A   1      38.784  21.209  25.837  1.00  0.00     0.338 C 
ATOM     31  O   UNL A   1      39.468  20.211  25.660  1.00  0.00    -0.246 OA
BRANCH  30  32
ATOM     32  C   UNL A   1      39.282  22.364  26.603  1.00  0.00     0.060 A 
ATOM     33  C   UNL A   1      38.827  23.632  26.232  1.00  0.00     0.016 A 
ATOM     34  C   UNL A   1      40.313  22.238  27.529  1.00  0.00     0.016 A 
ATOM     35  C   UNL A   1      39.422  24.784  26.722  1.00  0.00     0.010 A 
ATOM     36  C   UNL A   1      40.911  23.398  28.036  1.00  0.00     0.010 A 
ATOM     37  C   UNL A   1      40.493  24.672  27.602  1.00  0.00    -0.014 A 
BRANCH  37  38
ATOM     38  C   UNL A   1      41.262  25.884  27.957  1.00  0.00     0.031 A 
ATOM     39  C   UNL A   1      40.579  26.967  28.739  1.00  0.00     0.074 A 
ATOM     40  C   UNL A   1      42.554  25.997  27.601  1.00  0.00     0.049 A 
ATOM     41  N   UNL A   1      40.987  28.177  29.004  1.00  0.00    -0.248 NA
ATOM     42  C   UNL A   1      39.254  26.641  29.297  1.00  0.00     0.031 C 
ATOM     43  C   UNL A   1      43.334  24.970  26.912  1.00  0.00     0.029 A 
ATOM     44  N   UNL A   1      43.426  27.046  27.744  1.00  0.00    -0.354 N 
ATOM     45  C   UNL A   1      39.945  28.783  29.693  1.00  0.00     0.074 A 
ATOM     46  C   UNL A   1      38.893  27.801  29.828  1.00  0.00     0.031 C 
ATOM     47  C   UNL A   1      44.560  25.454  26.655  1.00  0.00     0.029 A 
ATOM     48  C   UNL A   1      44.626  26.839  27.107  1.00  0.00     0.049 A 
ATOM     49  H   UNL A   1      43.214  27.862  28.252  1.00  0.00     0.167 HD
ATOM     50  C   UNL A   1      39.877  30.050  30.166  1.00  0.00     0.034 A 
ATOM     51  C   UNL A   1      45.638  27.695  26.866  1.00  0.00     0.034 A 
ATOM     52  C   UNL A   1      40.951  30.996  30.058  1.00  0.00     0.049 A 
ATOM     53  C   UNL A   1      45.524  29.109  27.371  1.00  0.00     0.074 A 
ATOM     54  C   UNL A   1      41.000  32.300  30.517  1.00  0.00     0.029 A 
ATOM     55  N   UNL A   1      42.169  30.739  29.446  1.00  0.00    -0.354 N 
ATOM     56  N   UNL A   1      44.552  29.665  28.053  1.00  0.00    -0.248 NA
ATOM     57  C   UNL A   1      46.651  30.009  27.091  1.00  0.00     0.031 C 
ATOM     58  C   UNL A   1      42.242  32.837  30.165  1.00  0.00     0.029 A 
ATOM     59  C   UNL A   1      42.977  31.859  29.513  1.00  0.00     0.049 A 
ATOM     60  H   UNL A   1      42.421  29.886  29.026  1.00  0.00     0.167 HD
ATOM     61  C   UNL A   1      44.965  30.964  28.321  1.00  0.00     0.074 A 
ATOM     62  C   UNL A   1      46.282  31.110  27.734  1.00  0.00     0.031 C 
ATOM     63  C   UNL A   1      44.313  31.953  28.981  1.00  0.00     0.034 A 
BRANCH  50  64
ATOM     64  C   UNL A   1      38.601  30.480  30.838  1.00  0.00     0.023 A 
ATOM     65  C   UNL A   1      38.407  30.227  32.211  1.00  0.00     0.012 A 
ATOM     66  C   UNL A   1      37.611  31.177  30.117  1.00  0.00     0.148 A 
ATOM     67  C   UNL A   1      37.235  30.634  32.848  1.00  0.00     0.002 A 
ATOM     68  C   UNL A   1      36.466  31.618  30.768  1.00  0.00     0.091 A 
ATOM     69  F   UNL A   1      37.804  31.385  28.807  1.00  0.00    -0.205 F 
ATOM     70  C   UNL A   1      36.271  31.339  32.131  1.00  0.00     0.022 A 
BRANCH  68  71
ATOM     71  S   UNL A   1      35.203  32.597  29.947  1.00  0.00     0.127 S 
ATOM     72  O   UNL A   1      35.994  33.699  29.399  1.00  0.00    -0.237 OA
ATOM     73  O   UNL A   1      34.689  31.661  28.947  1.00  0.00    -0.237 OA
ATOM     74  O   UNL A   1      34.247  32.967  30.980  1.00  0.00    -0.744 OA
ENDBRANCH  68  71
ENDBRANCH  50  64
BRANCH  51  75
ATOM     75  C   UNL A   1      46.842  27.235  26.118  1.00  0.00     0.023 A 
ATOM     76  C   UNL A   1      46.923  27.459  24.731  1.00  0.00     0.012 A 
ATOM     77  C   UNL A   1      47.917  26.606  26.777  1.00  0.00     0.148 A 
ATOM     78  C   UNL A   1      48.042  27.043  24.009  1.00  0.00     0.002 A 
ATOM     79  C   UNL A   1      49.053  26.245  26.061  1.00  0.00     0.091 A 
ATOM     80  F   UNL A   1      47.814  26.385  28.095  1.00  0.00    -0.205 F 
ATOM     81  C   UNL A   1      49.110  26.448  24.675  1.00  0.00     0.022 A 
BRANCH  79  82
ATOM     82  S   UNL A   1      50.527  25.594  26.855  1.00  0.00     0.127 S 
ATOM     83  O   UNL A   1      51.426  25.422  25.717  1.00  0.00    -0.237 OA
ATOM     84  O   UNL A   1      50.885  26.683  27.764  1.00  0.00    -0.237 OA
ATOM     85  O   UNL A   1      50.105  24.369  27.520  1.00  0.00    -0.744 OA
ENDBRANCH  79  82
ENDBRANCH  51  75
BRANCH  63  86
ATOM     86  C   UNL A   1      45.032  33.260  29.169  1.00  0.00     0.023 A 
ATOM     87  C   UNL A   1      45.885  33.444  30.274  1.00  0.00     0.012 A 
ATOM     88  C   UNL A   1      44.939  34.267  28.187  1.00  0.00     0.148 A 
ATOM     89  C   UNL A   1      46.618  34.621  30.412  1.00  0.00     0.002 A 
ATOM     90  C   UNL A   1      45.709  35.416  28.307  1.00  0.00     0.091 A 
ATOM     91  F   UNL A   1      44.106  34.077  27.154  1.00  0.00    -0.205 F 
ATOM     92  C   UNL A   1      46.540  35.601  29.423  1.00  0.00     0.022 A 
BRANCH  90  93
ATOM     93  S   UNL A   1      45.750  36.682  27.032  1.00  0.00     0.127 S 
ATOM     94  O   UNL A   1      46.321  35.950  25.903  1.00  0.00    -0.237 OA
ATOM     95  O   UNL A   1      44.333  37.020  26.886  1.00  0.00    -0.237 OA
ATOM     96  O   UNL A   1      46.576  37.759  27.560  1.00  0.00    -0.744 OA
ENDBRANCH  90  93
ENDBRANCH  63  86
ENDBRANCH  37  38
ENDBRANCH  30  32
ENDBRANCH  29  30
ENDBRANCH  28  29
ENDBRANCH   1  28
TORSDOF 18
ENDMDL
MODEL 2
REMARK VINA RESULT:     -12.3      1.774      7.805
REMARK SMILES CC1(C)[C@H](C(=O)OCCOC(=O)c2ccc(-c3c4nc(c(-c5cccc(S(=O)(=O)[O-])c5F)c5ccc([nH]5)c(-c5cccc(S(=O)(=O)[O-])c5F)c5nc(c(-c6cccc(S(=O)(=O)[O-])c6F)c6ccc3[nH]6)C=C5)C=C4)cc2)[C@@H]1C(=O)Nc1ccc(NC(=O)C2CCC2)cc1
REMARK SMILES IDX 8 1 7 2 5 3 6 4 4 5 1 6 2 7 3 8 76 9 77 10 78 11 79 12 80 14
REMARK SMILES IDX 81 15 92 16 82 17 91 18 83 19 84 20 85 21 86 23 87 24 88 25
REMARK SMILES IDX 90 26 89 27 9 28 10 29 11 30 12 31 13 32 14 33 75 34 15 35
REMARK SMILES IDX 74 36 16 37 17 38 18 39 68 40 19 41 73 42 67 43 69 44 20 45
REMARK SMILES IDX 72 46 66 47 65 48 21 50 53 51 33 52 52 53 34 54 37 55 51 56
REMARK SMILES IDX 70 57 35 58 36 59 50 61 71 62 38 63 22 64 23 65 31 66 24 67
REMARK SMILES IDX 26 68 32 69 25 70 27 71 28 72 29 73 30 74 54 75 55 76 63 77
REMARK SMILES IDX 56 78 58 79 64 80 57 81 59 82 60 83 61 84 62 85 39 86 40 87
REMARK SMILES IDX 48 88 41 89 43 90 49 91 42 92 44 93 45 94 46 95 47 96
REMARK H PARENT 79 13 84 22 69 49 37 60
REMARK Flexibility Score: inf
ROOT
ATOM      1  C   UNL A   1      36.675  19.345  24.839  1.00  0.00     0.274 C 
ENDROOT
BRANCH   1   2
ATOM      2  O   UNL A   1      35.930  20.581  24.805  1.00  0.00    -0.462 OA
BRANCH   2   3
ATOM      3  C   UNL A   1      34.586  20.424  24.960  1.00  0.00     0.310 C 
ATOM      4  O   UNL A   1      34.017  19.353  24.875  1.00  0.00    -0.252 OA
BRANCH   3   5
ATOM      5  C   UNL A   1      33.813  21.604  25.402  1.00  0.00     0.118 C 
ATOM      6  C   UNL A   1      33.951  24.029  26.112  1.00  0.00     0.013 C 
ATOM      7  C   UNL A   1      33.949  23.034  24.971  1.00  0.00    -0.009 C 
ATOM      8  C   UNL A   1      34.920  23.388  23.876  1.00  0.00     0.013 C 
ATOM      9  C   UNL A   1      32.652  22.237  24.689  1.00  0.00     0.100 C 
BRANCH   9  10
ATOM     10  C   UNL A   1      32.193  22.006  23.302  1.00  0.00     0.228 C 
ATOM     11  O   UNL A   1      32.218  20.868  22.837  1.00  0.00    -0.274 OA
ATOM     12  N   UNL A   1      31.798  23.040  22.487  1.00  0.00    -0.326 N 
ATOM     13  H   UNL A   1      31.798  22.858  21.520  1.00  0.00     0.169 HD
BRANCH  12  14
ATOM     14  C   UNL A   1      31.397  24.320  22.875  1.00  0.00     0.041 A 
ATOM     15  C   UNL A   1      32.151  25.359  22.349  1.00  0.00     0.028 A 
ATOM     16  C   UNL A   1      30.283  24.602  23.664  1.00  0.00     0.028 A 
ATOM     17  C   UNL A   1      31.702  26.668  22.486  1.00  0.00     0.028 A 
ATOM     18  C   UNL A   1      29.924  25.946  23.899  1.00  0.00     0.028 A 
ATOM     19  C   UNL A   1      30.621  26.998  23.280  1.00  0.00     0.041 A 
BRANCH  19  20
ATOM     20  N   UNL A   1      30.136  28.307  23.421  1.00  0.00    -0.326 N 
ATOM     21  C   UNL A   1      30.541  29.433  24.107  1.00  0.00     0.227 C 
ATOM     22  H   UNL A   1      29.310  28.456  22.908  1.00  0.00     0.169 HD
ATOM     23  O   UNL A   1      29.853  30.447  23.873  1.00  0.00    -0.274 OA
BRANCH  21  24
ATOM     24  C   UNL A   1      31.733  29.558  25.086  1.00  0.00     0.079 C 
ATOM     25  C   UNL A   1      31.694  28.475  26.229  1.00  0.00     0.013 C 
ATOM     26  C   UNL A   1      33.189  29.047  24.863  1.00  0.00     0.013 C 
ATOM     27  C   UNL A   1      33.215  28.599  26.326  1.00  0.00     0.002 C 
ENDBRANCH  21  24
ENDBRANCH  19  20
ENDBRANCH  12  14
ENDBRANCH   9  10
ENDBRANCH   3   5
ENDBRANCH   2   3
ENDBRANCH   1   2
BRANCH   1  28
ATOM     28  C   UNL A   1      38.194  19.507  25.019  1.00  0.00     0.275 C 
BRANCH  28  29
ATOM     29  O   UNL A   1      38.588  20.784  25.556  1.00  0.00    -0.458 OA
BRANCH  29  30
ATOM     30  C   UNL A   1      39.721  20.754  26.297  1.00  0.00     0.338 C 
ATOM     31  O   UNL A   1      40.493  19.812  26.405  1.00  0.00    -0.246 OA
BRANCH  30  32
ATOM     32  C   UNL A   1      40.018  22.070  26.888  1.00  0.00     0.060 A 
ATOM     33  C   UNL A   1      39.297  23.170  26.414  1.00  0.00     0.016 A 
ATOM     34  C   UNL A   1      41.102  22.263  27.739  1.00  0.00     0.016 A 
ATOM     35  C   UNL A   1      39.674  24.467  26.724  1.00  0.00     0.010 A 
ATOM     36  C   UNL A   1      41.481  23.571  28.065  1.00  0.00     0.010 A 
ATOM     37  C   UNL A   1      40.792  24.675  27.525  1.00  0.00    -0.014 A 
BRANCH  37  38
ATOM     38  C   UNL A   1      41.320  26.047  27.680  1.00  0.00     0.031 A 
ATOM     39  C   UNL A   1      42.682  26.361  27.136  1.00  0.00     0.074 A 
ATOM     40  C   UNL A   1      40.578  26.997  28.277  1.00  0.00     0.049 A 
ATOM     41  N   UNL A   1      43.417  27.425  27.311  1.00  0.00    -0.248 NA
ATOM     42  C   UNL A   1      43.304  25.333  26.282  1.00  0.00     0.031 C 
ATOM     43  C   UNL A   1      39.211  26.819  28.766  1.00  0.00     0.029 A 
ATOM     44  N   UNL A   1      40.888  28.293  28.602  1.00  0.00    -0.354 N 
ATOM     45  C   UNL A   1      44.612  27.169  26.653  1.00  0.00     0.074 A 
ATOM     46  C   UNL A   1      44.500  25.858  26.054  1.00  0.00     0.031 C 
ATOM     47  C   UNL A   1      38.813  27.952  29.368  1.00  0.00     0.029 A 
ATOM     48  C   UNL A   1      39.916  28.907  29.356  1.00  0.00     0.049 A 
ATOM     49  H   UNL A   1      41.721  28.738  28.323  1.00  0.00     0.167 HD
ATOM     50  C   UNL A   1      45.707  27.961  26.563  1.00  0.00     0.034 A 
ATOM     51  C   UNL A   1      39.941  30.084  30.010  1.00  0.00     0.034 A 
ATOM     52  C   UNL A   1      45.782  29.278  27.131  1.00  0.00     0.049 A 
ATOM     53  C   UNL A   1      41.183  30.931  29.926  1.00  0.00     0.074 A 
ATOM     54  C   UNL A   1      46.832  30.177  27.086  1.00  0.00     0.029 A 
ATOM     55  N   UNL A   1      44.763  29.886  27.849  1.00  0.00    -0.354 N 
ATOM     56  N   UNL A   1      42.296  30.699  29.271  1.00  0.00    -0.248 NA
ATOM     57  C   UNL A   1      41.168  32.209  30.650  1.00  0.00     0.031 C 
ATOM     58  C   UNL A   1      46.454  31.322  27.794  1.00  0.00     0.029 A 
ATOM     59  C   UNL A   1      45.157  31.147  28.255  1.00  0.00     0.049 A 
ATOM     60  H   UNL A   1      43.887  29.480  28.041  1.00  0.00     0.167 HD
ATOM     61  C   UNL A   1      43.097  31.817  29.471  1.00  0.00     0.074 A 
ATOM     62  C   UNL A   1      42.336  32.731  30.299  1.00  0.00     0.031 C 
ATOM     63  C   UNL A   1      44.352  32.064  29.020  1.00  0.00     0.034 A 
BRANCH  50  64
ATOM     64  C   UNL A   1      46.905  27.423  25.829  1.00  0.00     0.023 A 
ATOM     65  C   UNL A   1      47.769  26.509  26.464  1.00  0.00     0.012 A 
ATOM     66  C   UNL A   1      47.148  27.788  24.490  1.00  0.00     0.148 A 
ATOM     67  C   UNL A   1      48.874  25.991  25.788  1.00  0.00     0.002 A 
ATOM     68  C   UNL A   1      48.225  27.235  23.809  1.00  0.00     0.091 A 
ATOM     69  F   UNL A   1      46.328  28.678  23.912  1.00  0.00    -0.205 F 
ATOM     70  C   UNL A   1      49.095  26.345  24.459  1.00  0.00     0.022 A 
BRANCH  68  71
ATOM     71  S   UNL A   1      48.548  27.571  22.074  1.00  0.00     0.127 S 
ATOM     72  O   UNL A   1      49.684  28.488  22.157  1.00  0.00    -0.237 OA
ATOM     73  O   UNL A   1      48.875  26.241  21.558  1.00  0.00    -0.237 OA
ATOM     74  O   UNL A   1      47.320  28.143  21.540  1.00  0.00    -0.744 OA
ENDBRANCH  68  71
ENDBRANCH  50  64
BRANCH  51  75
ATOM     75  C   UNL A   1      38.754  30.526  30.795  1.00  0.00     0.023 A 
ATOM     76  C   UNL A   1      38.714  30.292  32.182  1.00  0.00     0.012 A 
ATOM     77  C   UNL A   1      37.681  31.203  30.180  1.00  0.00     0.148 A 
ATOM     78  C   UNL A   1      37.616  30.702  32.940  1.00  0.00     0.002 A 
ATOM     79  C   UNL A   1      36.618  31.658  30.951  1.00  0.00     0.091 A 
ATOM     80  F   UNL A   1      37.730  31.401  28.856  1.00  0.00    -0.205 F 
ATOM     81  C   UNL A   1      36.575  31.394  32.327  1.00  0.00     0.022 A 
BRANCH  79  82
ATOM     82  S   UNL A   1      35.299  32.672  30.272  1.00  0.00     0.127 S 
ATOM     83  O   UNL A   1      36.032  33.851  29.819  1.00  0.00    -0.237 OA
ATOM     84  O   UNL A   1      34.784  31.818  29.201  1.00  0.00    -0.237 OA
ATOM     85  O   UNL A   1      34.366  32.888  31.369  1.00  0.00    -0.744 OA
ENDBRANCH  79  82
ENDBRANCH  51  75
BRANCH  63  86
ATOM     86  C   UNL A   1      44.963  33.398  29.351  1.00  0.00     0.023 A 
ATOM     87  C   UNL A   1      45.760  33.542  30.504  1.00  0.00     0.012 A 
ATOM     88  C   UNL A   1      44.830  34.480  28.458  1.00  0.00     0.148 A 
ATOM     89  C   UNL A   1      46.396  34.752  30.774  1.00  0.00     0.002 A 
ATOM     90  C   UNL A   1      45.507  35.666  28.709  1.00  0.00     0.091 A 
ATOM     91  F   UNL A   1      44.051  34.324  27.377  1.00  0.00    -0.205 F 
ATOM     92  C   UNL A   1      46.281  35.808  29.871  1.00  0.00     0.022 A 
BRANCH  90  93
ATOM     93  S   UNL A   1      45.498  37.040  27.553  1.00  0.00     0.127 S 
ATOM     94  O   UNL A   1      46.220  38.066  28.303  1.00  0.00    -0.237 OA
ATOM     95  O   UNL A   1      46.231  36.490  26.411  1.00  0.00    -0.237 OA
ATOM     96  O   UNL A   1      44.096  37.333  27.285  1.00  0.00    -0.744 OA
ENDBRANCH  90  93
ENDBRANCH  63  86
ENDBRANCH  37  38
ENDBRANCH  30  32
ENDBRANCH  29  30
ENDBRANCH  28  29
ENDBRANCH   1  28
TORSDOF 18
ENDMDL
MODEL 3
REMARK VINA RESULT:     -11.9      1.046      7.793
REMARK SMILES CC1(C)[C@H](C(=O)OCCOC(=O)c2ccc(-c3c4nc(c(-c5cccc(S(=O)(=O)[O-])c5F)c5ccc([nH]5)c(-c5cccc(S(=O)(=O)[O-])c5F)c5nc(c(-c6cccc(S(=O)(=O)[O-])c6F)c6ccc3[nH]6)C=C5)C=C4)cc2)[C@@H]1C(=O)Nc1ccc(NC(=O)C2CCC2)cc1
REMARK SMILES IDX 8 1 7 2 5 3 6 4 4 5 1 6 2 7 3 8 76 9 77 10 78 11 79 12 80 14
REMARK SMILES IDX 81 15 92 16 82 17 91 18 83 19 84 20 85 21 86 23 87 24 88 25
REMARK SMILES IDX 90 26 89 27 9 28 10 29 11 30 12 31 13 32 14 33 75 34 15 35
REMARK SMILES IDX 74 36 16 37 17 38 18 39 68 40 19 41 73 42 67 43 69 44 20 45
REMARK SMILES IDX 72 46 66 47 65 48 21 50 53 51 33 52 52 53 34 54 37 55 51 56
REMARK SMILES IDX 70 57 35 58 36 59 50 61 71 62 38 63 22 64 23 65 31 66 24 67
REMARK SMILES IDX 26 68 32 69 25 70 27 71 28 72 29 73 30 74 54 75 55 76 63 77
REMARK SMILES IDX 56 78 58 79 64 80 57 81 59 82 60 83 61 84 62 85 39 86 40 87
REMARK SMILES IDX 48 88 41 89 43 90 49 91 42 92 44 93 45 94 46 95 47 96
REMARK H PARENT 79 13 84 22 69 49 37 60
REMARK Flexibility Score: inf
ROOT
ATOM      1  C   UNL A   1      36.159  19.895  25.003  1.00  0.00     0.274 C 
ENDROOT
BRANCH   1   2
ATOM      2  O   UNL A   1      35.434  20.961  24.353  1.00  0.00    -0.462 OA
BRANCH   2   3
ATOM      3  C   UNL A   1      34.199  21.192  24.876  1.00  0.00     0.310 C 
ATOM      4  O   UNL A   1      33.416  20.311  25.175  1.00  0.00    -0.252 OA
BRANCH   3   5
ATOM      5  C   UNL A   1      33.864  22.587  25.231  1.00  0.00     0.118 C 
ATOM      6  C   UNL A   1      34.741  24.956  25.391  1.00  0.00     0.013 C 
ATOM      7  C   UNL A   1      34.207  23.852  24.502  1.00  0.00    -0.009 C 
ATOM      8  C   UNL A   1      34.909  23.774  23.172  1.00  0.00     0.013 C 
ATOM      9  C   UNL A   1      32.735  23.409  24.679  1.00  0.00     0.100 C 
BRANCH   9  10
ATOM     10  C   UNL A   1      31.885  23.125  23.502  1.00  0.00     0.228 C 
ATOM     11  O   UNL A   1      31.621  21.959  23.212  1.00  0.00    -0.274 OA
ATOM     12  N   UNL A   1      31.430  24.126  22.677  1.00  0.00    -0.326 N 
ATOM     13  H   UNL A   1      31.138  23.851  21.777  1.00  0.00     0.169 HD
BRANCH  12  14
ATOM     14  C   UNL A   1      31.333  25.488  22.968  1.00  0.00     0.041 A 
ATOM     15  C   UNL A   1      30.271  25.841  23.788  1.00  0.00     0.028 A 
ATOM     16  C   UNL A   1      32.248  26.457  22.562  1.00  0.00     0.028 A 
ATOM     17  C   UNL A   1      30.216  27.124  24.321  1.00  0.00     0.028 A 
ATOM     18  C   UNL A   1      32.093  27.786  23.010  1.00  0.00     0.028 A 
ATOM     19  C   UNL A   1      31.083  28.126  23.927  1.00  0.00     0.041 A 
BRANCH  19  20
ATOM     20  N   UNL A   1      31.060  29.422  24.460  1.00  0.00    -0.326 N 
ATOM     21  C   UNL A   1      30.263  30.536  24.296  1.00  0.00     0.227 C 
ATOM     22  H   UNL A   1      31.787  29.573  25.107  1.00  0.00     0.169 HD
ATOM     23  O   UNL A   1      30.544  31.481  25.060  1.00  0.00    -0.274 OA
BRANCH  21  24
ATOM     24  C   UNL A   1      29.088  30.711  23.305  1.00  0.00     0.079 C 
ATOM     25  C   UNL A   1      29.495  30.385  21.818  1.00  0.00     0.013 C 
ATOM     26  C   UNL A   1      27.924  29.708  23.043  1.00  0.00     0.013 C 
ATOM     27  C   UNL A   1      28.032  30.031  21.551  1.00  0.00     0.002 C 
ENDBRANCH  21  24
ENDBRANCH  19  20
ENDBRANCH  12  14
ENDBRANCH   9  10
ENDBRANCH   3   5
ENDBRANCH   2   3
ENDBRANCH   1   2
BRANCH   1  28
ATOM     28  C   UNL A   1      37.689  19.969  24.864  1.00  0.00     0.275 C 
BRANCH  28  29
ATOM     29  O   UNL A   1      38.257  21.221  25.297  1.00  0.00    -0.458 OA
BRANCH  29  30
ATOM     30  C   UNL A   1      39.320  21.096  26.126  1.00  0.00     0.338 C 
ATOM     31  O   UNL A   1      40.004  20.094  26.284  1.00  0.00    -0.246 OA
BRANCH  30  32
ATOM     32  C   UNL A   1      39.672  22.380  26.755  1.00  0.00     0.060 A 
ATOM     33  C   UNL A   1      38.914  23.501  26.404  1.00  0.00     0.016 A 
ATOM     34  C   UNL A   1      40.828  22.531  27.515  1.00  0.00     0.016 A 
ATOM     35  C   UNL A   1      39.320  24.781  26.746  1.00  0.00     0.010 A 
ATOM     36  C   UNL A   1      41.238  23.821  27.872  1.00  0.00     0.010 A 
ATOM     37  C   UNL A   1      40.506  24.951  27.453  1.00  0.00    -0.014 A 
BRANCH  37  38
ATOM     38  C   UNL A   1      41.049  26.314  27.631  1.00  0.00     0.031 A 
ATOM     39  C   UNL A   1      42.427  26.613  27.121  1.00  0.00     0.074 A 
ATOM     40  C   UNL A   1      40.308  27.269  28.220  1.00  0.00     0.049 A 
ATOM     41  N   UNL A   1      43.172  27.665  27.320  1.00  0.00    -0.248 NA
ATOM     42  C   UNL A   1      43.054  25.583  26.271  1.00  0.00     0.031 C 
ATOM     43  C   UNL A   1      38.928  27.106  28.677  1.00  0.00     0.029 A 
ATOM     44  N   UNL A   1      40.628  28.558  28.562  1.00  0.00    -0.354 N 
ATOM     45  C   UNL A   1      44.379  27.398  26.687  1.00  0.00     0.074 A 
ATOM     46  C   UNL A   1      44.261  26.094  26.075  1.00  0.00     0.031 C 
ATOM     47  C   UNL A   1      38.532  28.240  29.279  1.00  0.00     0.029 A 
ATOM     48  C   UNL A   1      39.647  29.179  29.299  1.00  0.00     0.049 A 
ATOM     49  H   UNL A   1      41.472  28.993  28.305  1.00  0.00     0.167 HD
ATOM     50  C   UNL A   1      45.485  28.176  26.627  1.00  0.00     0.034 A 
ATOM     51  C   UNL A   1      39.674  30.351  29.964  1.00  0.00     0.034 A 
ATOM     52  C   UNL A   1      45.566  29.487  27.207  1.00  0.00     0.049 A 
ATOM     53  C   UNL A   1      40.929  31.181  29.913  1.00  0.00     0.074 A 
ATOM     54  C   UNL A   1      46.629  30.372  27.193  1.00  0.00     0.029 A 
ATOM     55  N   UNL A   1      44.539  30.103  27.907  1.00  0.00    -0.354 N 
ATOM     56  N   UNL A   1      42.053  30.940  29.282  1.00  0.00    -0.248 NA
ATOM     57  C   UNL A   1      40.915  32.454  30.648  1.00  0.00     0.031 C 
ATOM     58  C   UNL A   1      46.250  31.516  27.902  1.00  0.00     0.029 A 
ATOM     59  C   UNL A   1      44.942  31.356  28.333  1.00  0.00     0.049 A 
ATOM     60  H   UNL A   1      43.654  29.708  28.077  1.00  0.00     0.167 HD
ATOM     61  C   UNL A   1      42.864  32.044  29.508  1.00  0.00     0.074 A 
ATOM     62  C   UNL A   1      42.097  32.962  30.327  1.00  0.00     0.031 C 
ATOM     63  C   UNL A   1      44.132  32.278  29.087  1.00  0.00     0.034 A 
BRANCH  50  64
ATOM     64  C   UNL A   1      46.692  27.627  25.915  1.00  0.00     0.023 A 
ATOM     65  C   UNL A   1      46.854  27.845  24.532  1.00  0.00     0.012 A 
ATOM     66  C   UNL A   1      47.689  26.931  26.627  1.00  0.00     0.148 A 
ATOM     67  C   UNL A   1      47.976  27.354  23.864  1.00  0.00     0.002 A 
ATOM     68  C   UNL A   1      48.824  26.483  25.964  1.00  0.00     0.091 A 
ATOM     69  F   UNL A   1      47.503  26.712  27.936  1.00  0.00    -0.205 F 
ATOM     70  C   UNL A   1      48.964  26.684  24.581  1.00  0.00     0.022 A 
BRANCH  68  71
ATOM     71  S   UNL A   1      50.186  25.676  26.814  1.00  0.00     0.127 S 
ATOM     72  O   UNL A   1      51.144  25.488  25.725  1.00  0.00    -0.237 OA
ATOM     73  O   UNL A   1      50.575  26.685  27.799  1.00  0.00    -0.237 OA
ATOM     74  O   UNL A   1      49.636  24.453  27.382  1.00  0.00    -0.744 OA
ENDBRANCH  68  71
ENDBRANCH  50  64
BRANCH  51  75
ATOM     75  C   UNL A   1      38.476  30.803  30.725  1.00  0.00     0.023 A 
ATOM     76  C   UNL A   1      38.422  30.599  32.117  1.00  0.00     0.012 A 
ATOM     77  C   UNL A   1      37.406  31.460  30.085  1.00  0.00     0.148 A 
ATOM     78  C   UNL A   1      37.314  31.019  32.854  1.00  0.00     0.002 A 
ATOM     79  C   UNL A   1      36.332  31.926  30.833  1.00  0.00     0.091 A 
ATOM     80  F   UNL A   1      37.468  31.629  28.757  1.00  0.00    -0.205 F 
ATOM     81  C   UNL A   1      36.276  31.692  32.215  1.00  0.00     0.022 A 
BRANCH  79  82
ATOM     82  S   UNL A   1      35.015  32.917  30.118  1.00  0.00     0.127 S 
ATOM     83  O   UNL A   1      35.757  34.047  29.567  1.00  0.00    -0.237 OA
ATOM     84  O   UNL A   1      34.457  32.001  29.122  1.00  0.00    -0.237 OA
ATOM     85  O   UNL A   1      34.114  33.226  31.220  1.00  0.00    -0.744 OA
ENDBRANCH  79  82
ENDBRANCH  51  75
BRANCH  63  86
ATOM     86  C   UNL A   1      44.754  33.600  29.442  1.00  0.00     0.023 A 
ATOM     87  C   UNL A   1      45.496  33.733  30.632  1.00  0.00     0.012 A 
ATOM     88  C   UNL A   1      44.687  34.680  28.540  1.00  0.00     0.148 A 
ATOM     89  C   UNL A   1      46.144  34.931  30.928  1.00  0.00     0.002 A 
ATOM     90  C   UNL A   1      45.375  35.853  28.819  1.00  0.00     0.091 A 
ATOM     91  F   UNL A   1      43.959  34.535  27.423  1.00  0.00    -0.205 F 
ATOM     92  C   UNL A   1      46.095  35.985  30.017  1.00  0.00     0.022 A 
BRANCH  90  93
ATOM     93  S   UNL A   1      45.451  37.222  27.658  1.00  0.00     0.127 S 
ATOM     94  O   UNL A   1      44.040  37.409  27.325  1.00  0.00    -0.237 OA
ATOM     95  O   UNL A   1      46.032  38.289  28.475  1.00  0.00    -0.237 OA
ATOM     96  O   UNL A   1      46.298  36.773  26.561  1.00  0.00    -0.744 OA
ENDBRANCH  90  93
ENDBRANCH  63  86
ENDBRANCH  37  38
ENDBRANCH  30  32
ENDBRANCH  29  30
ENDBRANCH  28  29
ENDBRANCH   1  28
TORSDOF 18
ENDMDL
