MODEL 1
REMARK VINA RESULT:     -12.3      0.000      0.000
REMARK SMILES Cn1c(C(=O)OCCOC(=O)c2ccc(-c3c4nc(c(-c5cccc(S(=O)(=O)[O-])c5F)c5ccc([nH]5)c(-c5cccc(S(=O)(=O)[O-])c5F)c5nc(c(-c6cccc(S(=O)(=O)[O-])c6F)c6ccc3[nH]6)C=C5)C=C4)cc2)cc2cc(OCc3ccccc3)ccc21
REMARK SMILES IDX 7 1 6 2 4 3 5 4 3 5 1 6 2 7 89 8 75 9 76 10 88 11 77 12
REMARK SMILES IDX 87 13 78 14 79 15 80 16 81 17 82 18 86 19 83 20 85 21 84 22
REMARK SMILES IDX 8 23 9 24 10 25 11 26 12 27 13 28 74 29 14 30 73 31 15 32
REMARK SMILES IDX 16 33 17 34 67 35 18 36 72 37 66 38 68 39 19 40 71 41 65 42
REMARK SMILES IDX 64 43 20 45 52 46 32 47 51 48 33 49 36 50 50 51 69 52 34 53
REMARK SMILES IDX 35 54 49 56 70 57 37 58 21 59 22 60 30 61 23 62 25 63 31 64
REMARK SMILES IDX 24 65 26 66 27 67 28 68 29 69 53 70 54 71 62 72 55 73 57 74
REMARK SMILES IDX 63 75 56 76 58 77 59 78 60 79 61 80 38 81 39 82 47 83 40 84
REMARK SMILES IDX 42 85 48 86 41 87 43 88 44 89 45 90 46 91
REMARK H PARENT 68 44 36 55
REMARK Flexibility Score: inf
ROOT
ATOM      1  C   UNL A   1      31.486  29.449  24.255  1.00  0.00     0.275 C 
ENDROOT
BRANCH   1   2
ATOM      2  O   UNL A   1      30.561  28.347  24.343  1.00  0.00    -0.457 OA
BRANCH   2   3
ATOM      3  C   UNL A   1      30.454  27.568  23.229  1.00  0.00     0.355 C 
ATOM      4  O   UNL A   1      29.850  27.892  22.217  1.00  0.00    -0.244 OA
BRANCH   3   5
ATOM      5  C   UNL A   1      31.228  26.348  23.357  1.00  0.00     0.128 A 
ATOM      6  C   UNL A   1      33.421  26.952  22.229  1.00  0.00     0.150 C 
ATOM      7  N   UNL A   1      32.507  26.067  22.917  1.00  0.00    -0.338 N 
ATOM      8  C   UNL A   1      32.881  24.790  23.313  1.00  0.00     0.049 A 
ATOM      9  C   UNL A   1      30.796  25.206  24.021  1.00  0.00     0.044 A 
ATOM     10  C   UNL A   1      31.777  24.200  23.917  1.00  0.00     0.004 A 
ATOM     11  C   UNL A   1      34.096  24.106  23.198  1.00  0.00     0.031 A 
ATOM     12  C   UNL A   1      31.838  22.851  24.317  1.00  0.00     0.056 A 
ATOM     13  C   UNL A   1      34.155  22.787  23.670  1.00  0.00     0.048 A 
ATOM     14  C   UNL A   1      33.034  22.140  24.184  1.00  0.00     0.120 A 
BRANCH  14  15
ATOM     15  O   UNL A   1      32.961  20.829  24.571  1.00  0.00    -0.489 OA
BRANCH  15  16
ATOM     16  C   UNL A   1      32.471  19.854  23.646  1.00  0.00     0.265 C 
BRANCH  16  17
ATOM     17  C   UNL A   1      32.814  18.431  24.027  1.00  0.00    -0.011 A 
ATOM     18  C   UNL A   1      33.517  17.602  23.144  1.00  0.00     0.007 A 
ATOM     19  C   UNL A   1      32.467  17.935  25.294  1.00  0.00     0.007 A 
ATOM     20  C   UNL A   1      33.908  16.322  23.539  1.00  0.00     0.000 A 
ATOM     21  C   UNL A   1      32.880  16.666  25.696  1.00  0.00     0.000 A 
ATOM     22  C   UNL A   1      33.604  15.861  24.820  1.00  0.00     0.000 A 
ENDBRANCH  16  17
ENDBRANCH  15  16
ENDBRANCH  14  15
ENDBRANCH   3   5
ENDBRANCH   2   3
ENDBRANCH   1   2
BRANCH   1  23
ATOM     23  C   UNL A   1      31.522  30.251  25.556  1.00  0.00     0.275 C 
BRANCH  23  24
ATOM     24  O   UNL A   1      32.819  30.161  26.170  1.00  0.00    -0.458 OA
BRANCH  24  25
ATOM     25  C   UNL A   1      33.167  31.213  26.944  1.00  0.00     0.338 C 
ATOM     26  O   UNL A   1      32.478  32.175  27.242  1.00  0.00    -0.246 OA
BRANCH  25  27
ATOM     27  C   UNL A   1      34.512  30.993  27.493  1.00  0.00     0.060 A 
ATOM     28  C   UNL A   1      34.881  29.685  27.787  1.00  0.00     0.016 A 
ATOM     29  C   UNL A   1      35.346  32.051  27.839  1.00  0.00     0.016 A 
ATOM     30  C   UNL A   1      36.047  29.420  28.497  1.00  0.00     0.010 A 
ATOM     31  C   UNL A   1      36.561  31.779  28.485  1.00  0.00     0.010 A 
ATOM     32  C   UNL A   1      36.908  30.464  28.853  1.00  0.00    -0.014 A 
BRANCH  32  33
ATOM     33  C   UNL A   1      38.142  30.180  29.640  1.00  0.00     0.031 A 
ATOM     34  C   UNL A   1      39.209  29.279  29.073  1.00  0.00     0.074 A 
ATOM     35  C   UNL A   1      38.312  30.725  30.862  1.00  0.00     0.049 A 
ATOM     36  N   UNL A   1      40.274  28.791  29.655  1.00  0.00    -0.248 NA
ATOM     37  C   UNL A   1      39.049  28.859  27.672  1.00  0.00     0.031 C 
ATOM     38  C   UNL A   1      37.374  31.634  31.522  1.00  0.00     0.029 A 
ATOM     39  N   UNL A   1      39.331  30.583  31.774  1.00  0.00    -0.354 N 
ATOM     40  C   UNL A   1      40.869  27.950  28.720  1.00  0.00     0.074 A 
ATOM     41  C   UNL A   1      40.048  28.000  27.530  1.00  0.00     0.031 C 
ATOM     42  C   UNL A   1      37.860  31.975  32.725  1.00  0.00     0.029 A 
ATOM     43  C   UNL A   1      39.106  31.251  32.956  1.00  0.00     0.049 A 
ATOM     44  H   UNL A   1      40.142  30.054  31.599  1.00  0.00     0.167 HD
ATOM     45  C   UNL A   1      41.999  27.212  28.839  1.00  0.00     0.034 A 
ATOM     46  C   UNL A   1      39.796  31.250  34.114  1.00  0.00     0.034 A 
ATOM     47  C   UNL A   1      42.852  27.220  29.998  1.00  0.00     0.049 A 
ATOM     48  C   UNL A   1      41.046  30.422  34.219  1.00  0.00     0.074 A 
ATOM     49  C   UNL A   1      44.044  26.547  30.193  1.00  0.00     0.029 A 
ATOM     50  N   UNL A   1      42.606  27.942  31.157  1.00  0.00    -0.354 N 
ATOM     51  N   UNL A   1      41.622  29.676  33.307  1.00  0.00    -0.248 NA
ATOM     52  C   UNL A   1      41.751  30.446  35.509  1.00  0.00     0.031 C 
ATOM     53  C   UNL A   1      44.509  26.842  31.479  1.00  0.00     0.029 A 
ATOM     54  C   UNL A   1      43.620  27.723  32.075  1.00  0.00     0.049 A 
ATOM     55  H   UNL A   1      41.827  28.523  31.306  1.00  0.00     0.167 HD
ATOM     56  C   UNL A   1      42.769  29.163  33.902  1.00  0.00     0.074 A 
ATOM     57  C   UNL A   1      42.819  29.704  35.246  1.00  0.00     0.031 C 
ATOM     58  C   UNL A   1      43.686  28.307  33.390  1.00  0.00     0.034 A 
BRANCH  45  59
ATOM     59  C   UNL A   1      42.391  26.338  27.674  1.00  0.00     0.023 A 
ATOM     60  C   UNL A   1      43.238  26.843  26.667  1.00  0.00     0.012 A 
ATOM     61  C   UNL A   1      41.961  24.997  27.606  1.00  0.00     0.148 A 
ATOM     62  C   UNL A   1      43.618  26.041  25.591  1.00  0.00     0.002 A 
ATOM     63  C   UNL A   1      42.382  24.190  26.555  1.00  0.00     0.091 A 
ATOM     64  F   UNL A   1      41.141  24.539  28.562  1.00  0.00    -0.205 F 
ATOM     65  C   UNL A   1      43.200  24.714  25.540  1.00  0.00     0.022 A 
BRANCH  63  66
ATOM     66  S   UNL A   1      41.960  22.447  26.445  1.00  0.00     0.127 S 
ATOM     67  O   UNL A   1      40.503  22.502  26.329  1.00  0.00    -0.237 OA
ATOM     68  O   UNL A   1      42.653  22.039  25.222  1.00  0.00    -0.237 OA
ATOM     69  O   UNL A   1      42.470  21.834  27.663  1.00  0.00    -0.744 OA
ENDBRANCH  63  66
ENDBRANCH  45  59
BRANCH  46  70
ATOM     70  C   UNL A   1      39.318  32.071  35.263  1.00  0.00     0.023 A 
ATOM     71  C   UNL A   1      38.443  31.499  36.207  1.00  0.00     0.012 A 
ATOM     72  C   UNL A   1      39.753  33.398  35.447  1.00  0.00     0.148 A 
ATOM     73  C   UNL A   1      37.993  32.241  37.300  1.00  0.00     0.002 A 
ATOM     74  C   UNL A   1      39.350  34.111  36.570  1.00  0.00     0.091 A 
ATOM     75  F   UNL A   1      40.569  33.932  34.527  1.00  0.00    -0.205 F 
ATOM     76  C   UNL A   1      38.457  33.540  37.490  1.00  0.00     0.022 A 
BRANCH  74  77
ATOM     77  S   UNL A   1      40.006  35.737  36.964  1.00  0.00     0.127 S 
ATOM     78  O   UNL A   1      39.309  36.046  38.210  1.00  0.00    -0.237 OA
ATOM     79  O   UNL A   1      41.435  35.458  37.111  1.00  0.00    -0.237 OA
ATOM     80  O   UNL A   1      39.674  36.582  35.825  1.00  0.00    -0.744 OA
ENDBRANCH  74  77
ENDBRANCH  46  70
BRANCH  58  81
ATOM     81  C   UNL A   1      44.847  27.923  34.270  1.00  0.00     0.023 A 
ATOM     82  C   UNL A   1      46.008  28.722  34.285  1.00  0.00     0.012 A 
ATOM     83  C   UNL A   1      44.762  26.810  35.130  1.00  0.00     0.148 A 
ATOM     84  C   UNL A   1      47.079  28.400  35.118  1.00  0.00     0.002 A 
ATOM     85  C   UNL A   1      45.813  26.525  35.993  1.00  0.00     0.091 A 
ATOM     86  F   UNL A   1      43.657  26.052  35.087  1.00  0.00    -0.205 F 
ATOM     87  C   UNL A   1      46.977  27.311  35.980  1.00  0.00     0.022 A 
BRANCH  85  88
ATOM     88  S   UNL A   1      45.732  25.200  37.203  1.00  0.00     0.127 S 
ATOM     89  O   UNL A   1      44.558  25.582  37.987  1.00  0.00    -0.237 OA
ATOM     90  O   UNL A   1      45.543  24.019  36.360  1.00  0.00    -0.237 OA
ATOM     91  O   UNL A   1      46.999  25.232  37.919  1.00  0.00    -0.744 OA
ENDBRANCH  85  88
ENDBRANCH  58  81
ENDBRANCH  32  33
ENDBRANCH  25  27
ENDBRANCH  24  25
ENDBRANCH  23  24
ENDBRANCH   1  23
TORSDOF 17
ENDMDL
MODEL 2
REMARK VINA RESULT:     -12.3      4.793     10.328
REMARK SMILES Cn1c(C(=O)OCCOC(=O)c2ccc(-c3c4nc(c(-c5cccc(S(=O)(=O)[O-])c5F)c5ccc([nH]5)c(-c5cccc(S(=O)(=O)[O-])c5F)c5nc(c(-c6cccc(S(=O)(=O)[O-])c6F)c6ccc3[nH]6)C=C5)C=C4)cc2)cc2cc(OCc3ccccc3)ccc21
REMARK SMILES IDX 7 1 6 2 4 3 5 4 3 5 1 6 2 7 89 8 75 9 76 10 88 11 77 12
REMARK SMILES IDX 87 13 78 14 79 15 80 16 81 17 82 18 86 19 83 20 85 21 84 22
REMARK SMILES IDX 8 23 9 24 10 25 11 26 12 27 13 28 74 29 14 30 73 31 15 32
REMARK SMILES IDX 16 33 17 34 67 35 18 36 72 37 66 38 68 39 19 40 71 41 65 42
REMARK SMILES IDX 64 43 20 45 52 46 32 47 51 48 33 49 36 50 50 51 69 52 34 53
REMARK SMILES IDX 35 54 49 56 70 57 37 58 21 59 22 60 30 61 23 62 25 63 31 64
REMARK SMILES IDX 24 65 26 66 27 67 28 68 29 69 53 70 54 71 62 72 55 73 57 74
REMARK SMILES IDX 63 75 56 76 58 77 59 78 60 79 61 80 38 81 39 82 47 83 40 84
REMARK SMILES IDX 42 85 48 86 41 87 43 88 44 89 45 90 46 91
REMARK H PARENT 68 44 36 55
REMARK Flexibility Score: inf
ROOT
ATOM      1  C   UNL A   1      34.984  20.773  25.484  1.00  0.00     0.275 C 
ENDROOT
BRANCH   1   2
ATOM      2  O   UNL A   1      34.006  20.458  24.473  1.00  0.00    -0.457 OA
BRANCH   2   3
ATOM      3  C   UNL A   1      32.714  20.773  24.775  1.00  0.00     0.355 C 
ATOM      4  O   UNL A   1      31.854  19.954  25.064  1.00  0.00    -0.244 OA
BRANCH   3   5
ATOM      5  C   UNL A   1      32.509  22.209  24.805  1.00  0.00     0.128 A 
ATOM      6  C   UNL A   1      32.287  22.693  27.287  1.00  0.00     0.150 C 
ATOM      7  N   UNL A   1      32.312  23.047  25.885  1.00  0.00    -0.338 N 
ATOM      8  C   UNL A   1      32.225  24.366  25.459  1.00  0.00     0.049 A 
ATOM      9  C   UNL A   1      32.522  23.030  23.684  1.00  0.00     0.044 A 
ATOM     10  C   UNL A   1      32.250  24.359  24.070  1.00  0.00     0.004 A 
ATOM     11  C   UNL A   1      32.131  25.564  26.176  1.00  0.00     0.031 A 
ATOM     12  C   UNL A   1      32.063  25.562  23.361  1.00  0.00     0.056 A 
ATOM     13  C   UNL A   1      32.019  26.757  25.449  1.00  0.00     0.048 A 
ATOM     14  C   UNL A   1      31.939  26.766  24.060  1.00  0.00     0.120 A 
BRANCH  14  15
ATOM     15  O   UNL A   1      31.724  27.861  23.266  1.00  0.00    -0.489 OA
BRANCH  15  16
ATOM     16  C   UNL A   1      30.565  27.900  22.429  1.00  0.00     0.265 C 
BRANCH  16  17
ATOM     17  C   UNL A   1      29.524  28.901  22.881  1.00  0.00    -0.011 A 
ATOM     18  C   UNL A   1      29.896  30.192  23.277  1.00  0.00     0.007 A 
ATOM     19  C   UNL A   1      28.162  28.560  22.868  1.00  0.00     0.007 A 
ATOM     20  C   UNL A   1      28.922  31.137  23.605  1.00  0.00     0.000 A 
ATOM     21  C   UNL A   1      27.190  29.511  23.172  1.00  0.00     0.000 A 
ATOM     22  C   UNL A   1      27.570  30.801  23.536  1.00  0.00     0.000 A 
ENDBRANCH  16  17
ENDBRANCH  15  16
ENDBRANCH  14  15
ENDBRANCH   3   5
ENDBRANCH   2   3
ENDBRANCH   1   2
BRANCH   1  23
ATOM     23  C   UNL A   1      36.405  20.511  24.986  1.00  0.00     0.275 C 
BRANCH  23  24
ATOM     24  O   UNL A   1      37.275  21.597  25.346  1.00  0.00    -0.458 OA
BRANCH  24  25
ATOM     25  C   UNL A   1      38.499  21.233  25.794  1.00  0.00     0.338 C 
ATOM     26  O   UNL A   1      39.057  20.160  25.637  1.00  0.00    -0.246 OA
BRANCH  25  27
ATOM     27  C   UNL A   1      39.145  22.385  26.438  1.00  0.00     0.060 A 
ATOM     28  C   UNL A   1      38.678  23.652  26.109  1.00  0.00     0.016 A 
ATOM     29  C   UNL A   1      40.271  22.240  27.242  1.00  0.00     0.016 A 
ATOM     30  C   UNL A   1      39.370  24.790  26.512  1.00  0.00     0.010 A 
ATOM     31  C   UNL A   1      40.924  23.387  27.715  1.00  0.00     0.010 A 
ATOM     32  C   UNL A   1      40.502  24.674  27.326  1.00  0.00    -0.014 A 
BRANCH  32  33
ATOM     33  C   UNL A   1      41.258  25.893  27.733  1.00  0.00     0.031 A 
ATOM     34  C   UNL A   1      40.586  26.960  28.557  1.00  0.00     0.074 A 
ATOM     35  C   UNL A   1      42.546  26.050  27.365  1.00  0.00     0.049 A 
ATOM     36  N   UNL A   1      41.019  28.151  28.881  1.00  0.00    -0.248 NA
ATOM     37  C   UNL A   1      39.243  26.652  29.075  1.00  0.00     0.031 C 
ATOM     38  C   UNL A   1      43.329  25.087  26.588  1.00  0.00     0.029 A 
ATOM     39  N   UNL A   1      43.423  27.086  27.584  1.00  0.00    -0.354 N 
ATOM     40  C   UNL A   1      39.978  28.761  29.572  1.00  0.00     0.074 A 
ATOM     41  C   UNL A   1      38.893  27.805  29.627  1.00  0.00     0.031 C 
ATOM     42  C   UNL A   1      44.567  25.571  26.402  1.00  0.00     0.029 A 
ATOM     43  C   UNL A   1      44.646  26.908  26.979  1.00  0.00     0.049 A 
ATOM     44  H   UNL A   1      43.196  27.879  28.122  1.00  0.00     0.167 HD
ATOM     45  C   UNL A   1      39.933  30.000  30.119  1.00  0.00     0.034 A 
ATOM     46  C   UNL A   1      45.699  27.741  26.860  1.00  0.00     0.034 A 
ATOM     47  C   UNL A   1      41.038  30.922  30.125  1.00  0.00     0.049 A 
ATOM     48  C   UNL A   1      45.623  29.110  27.475  1.00  0.00     0.074 A 
ATOM     49  C   UNL A   1      41.106  32.179  30.698  1.00  0.00     0.029 A 
ATOM     50  N   UNL A   1      42.270  30.685  29.535  1.00  0.00    -0.354 N 
ATOM     51  N   UNL A   1      44.651  29.649  28.171  1.00  0.00    -0.248 NA
ATOM     52  C   UNL A   1      46.793  29.982  27.302  1.00  0.00     0.031 C 
ATOM     53  C   UNL A   1      42.372  32.713  30.436  1.00  0.00     0.029 A 
ATOM     54  C   UNL A   1      43.103  31.776  29.723  1.00  0.00     0.049 A 
ATOM     55  H   UNL A   1      42.518  29.863  29.054  1.00  0.00     0.167 HD
ATOM     56  C   UNL A   1      45.101  30.911  28.541  1.00  0.00     0.074 A 
ATOM     57  C   UNL A   1      46.444  31.046  28.013  1.00  0.00     0.031 C 
ATOM     58  C   UNL A   1      44.455  31.878  29.237  1.00  0.00     0.034 A 
BRANCH  45  59
ATOM     59  C   UNL A   1      38.644  30.431  30.773  1.00  0.00     0.023 A 
ATOM     60  C   UNL A   1      38.426  30.175  32.141  1.00  0.00     0.012 A 
ATOM     61  C   UNL A   1      37.668  31.138  30.040  1.00  0.00     0.148 A 
ATOM     62  C   UNL A   1      37.244  30.579  32.761  1.00  0.00     0.002 A 
ATOM     63  C   UNL A   1      36.513  31.579  30.675  1.00  0.00     0.091 A 
ATOM     64  F   UNL A   1      37.883  31.357  28.735  1.00  0.00    -0.205 F 
ATOM     65  C   UNL A   1      36.293  31.289  32.032  1.00  0.00     0.022 A 
BRANCH  63  66
ATOM     66  S   UNL A   1      35.267  32.569  29.840  1.00  0.00     0.127 S 
ATOM     67  O   UNL A   1      34.807  31.650  28.801  1.00  0.00    -0.237 OA
ATOM     68  O   UNL A   1      34.299  32.813  30.910  1.00  0.00    -0.237 OA
ATOM     69  O   UNL A   1      35.956  33.760  29.364  1.00  0.00    -0.744 OA
ENDBRANCH  63  66
ENDBRANCH  45  59
BRANCH  46  70
ATOM     70  C   UNL A   1      46.920  27.292  26.132  1.00  0.00     0.023 A 
ATOM     71  C   UNL A   1      47.045  27.562  24.756  1.00  0.00     0.012 A 
ATOM     72  C   UNL A   1      47.972  26.635  26.800  1.00  0.00     0.148 A 
ATOM     73  C   UNL A   1      48.185  27.167  24.054  1.00  0.00     0.002 A 
ATOM     74  C   UNL A   1      49.130  26.298  26.109  1.00  0.00     0.091 A 
ATOM     75  F   UNL A   1      47.826  26.367  28.105  1.00  0.00    -0.205 F 
ATOM     76  C   UNL A   1      49.233  26.548  24.732  1.00  0.00     0.022 A 
BRANCH  74  77
ATOM     77  S   UNL A   1      50.580  25.626  26.931  1.00  0.00     0.127 S 
ATOM     78  O   UNL A   1      50.054  24.386  27.497  1.00  0.00    -0.237 OA
ATOM     79  O   UNL A   1      51.506  25.448  25.812  1.00  0.00    -0.237 OA
ATOM     80  O   UNL A   1      50.991  26.638  27.894  1.00  0.00    -0.744 OA
ENDBRANCH  74  77
ENDBRANCH  46  70
BRANCH  58  81
ATOM     81  C   UNL A   1      45.200  33.160  29.502  1.00  0.00     0.023 A 
ATOM     82  C   UNL A   1      45.985  33.286  30.666  1.00  0.00     0.012 A 
ATOM     83  C   UNL A   1      45.175  34.214  28.567  1.00  0.00     0.148 A 
ATOM     84  C   UNL A   1      46.708  34.453  30.911  1.00  0.00     0.002 A 
ATOM     85  C   UNL A   1      45.937  35.354  28.794  1.00  0.00     0.091 A 
ATOM     86  F   UNL A   1      44.407  34.084  27.476  1.00  0.00    -0.205 F 
ATOM     87  C   UNL A   1      46.694  35.481  29.971  1.00  0.00     0.022 A 
BRANCH  85  88
ATOM     88  S   UNL A   1      46.055  36.687  27.596  1.00  0.00     0.127 S 
ATOM     89  O   UNL A   1      44.690  37.213  27.599  1.00  0.00    -0.237 OA
ATOM     90  O   UNL A   1      47.049  37.570  28.208  1.00  0.00    -0.237 OA
ATOM     91  O   UNL A   1      46.484  36.070  26.349  1.00  0.00    -0.744 OA
ENDBRANCH  85  88
ENDBRANCH  58  81
ENDBRANCH  32  33
ENDBRANCH  25  27
ENDBRANCH  24  25
ENDBRANCH  23  24
ENDBRANCH   1  23
TORSDOF 17
ENDMDL
MODEL 3
REMARK VINA RESULT:     -12.1      5.196      8.321
REMARK SMILES Cn1c(C(=O)OCCOC(=O)c2ccc(-c3c4nc(c(-c5cccc(S(=O)(=O)[O-])c5F)c5ccc([nH]5)c(-c5cccc(S(=O)(=O)[O-])c5F)c5nc(c(-c6cccc(S(=O)(=O)[O-])c6F)c6ccc3[nH]6)C=C5)C=C4)cc2)cc2cc(OCc3ccccc3)ccc21
REMARK SMILES IDX 7 1 6 2 4 3 5 4 3 5 1 6 2 7 89 8 75 9 76 10 88 11 77 12
REMARK SMILES IDX 87 13 78 14 79 15 80 16 81 17 82 18 86 19 83 20 85 21 84 22
REMARK SMILES IDX 8 23 9 24 10 25 11 26 12 27 13 28 74 29 14 30 73 31 15 32
REMARK SMILES IDX 16 33 17 34 67 35 18 36 72 37 66 38 68 39 19 40 71 41 65 42
REMARK SMILES IDX 64 43 20 45 52 46 32 47 51 48 33 49 36 50 50 51 69 52 34 53
REMARK SMILES IDX 35 54 49 56 70 57 37 58 21 59 22 60 30 61 23 62 25 63 31 64
REMARK SMILES IDX 24 65 26 66 27 67 28 68 29 69 53 70 54 71 62 72 55 73 57 74
REMARK SMILES IDX 63 75 56 76 58 77 59 78 60 79 61 80 38 81 39 82 47 83 40 84
REMARK SMILES IDX 42 85 48 86 41 87 43 88 44 89 45 90 46 91
REMARK H PARENT 68 44 36 55
REMARK Flexibility Score: inf
ROOT
ATOM      1  C   UNL A   1      35.364  21.070  25.303  1.00  0.00     0.275 C 
ENDROOT
BRANCH   1   2
ATOM      2  O   UNL A   1      34.309  20.581  24.451  1.00  0.00    -0.457 OA
BRANCH   2   3
ATOM      3  C   UNL A   1      33.071  20.507  25.018  1.00  0.00     0.355 C 
ATOM      4  O   UNL A   1      32.595  19.491  25.503  1.00  0.00    -0.244 OA
BRANCH   3   5
ATOM      5  C   UNL A   1      32.427  21.806  25.062  1.00  0.00     0.128 A 
ATOM      6  C   UNL A   1      32.810  22.544  27.461  1.00  0.00     0.150 C 
ATOM      7  N   UNL A   1      32.298  22.690  26.116  1.00  0.00    -0.338 N 
ATOM      8  C   UNL A   1      31.661  23.849  25.695  1.00  0.00     0.049 A 
ATOM      9  C   UNL A   1      31.835  22.430  23.970  1.00  0.00     0.044 A 
ATOM     10  C   UNL A   1      31.272  23.657  24.375  1.00  0.00     0.004 A 
ATOM     11  C   UNL A   1      31.400  25.053  26.360  1.00  0.00     0.031 A 
ATOM     12  C   UNL A   1      30.499  24.638  23.724  1.00  0.00     0.056 A 
ATOM     13  C   UNL A   1      30.692  26.045  25.667  1.00  0.00     0.048 A 
ATOM     14  C   UNL A   1      30.202  25.836  24.381  1.00  0.00     0.120 A 
BRANCH  14  15
ATOM     15  O   UNL A   1      29.414  26.695  23.663  1.00  0.00    -0.489 OA
BRANCH  15  16
ATOM     16  C   UNL A   1      30.032  27.690  22.842  1.00  0.00     0.265 C 
BRANCH  16  17
ATOM     17  C   UNL A   1      29.427  29.068  23.002  1.00  0.00    -0.011 A 
ATOM     18  C   UNL A   1      28.261  29.423  22.312  1.00  0.00     0.007 A 
ATOM     19  C   UNL A   1      30.007  29.997  23.879  1.00  0.00     0.007 A 
ATOM     20  C   UNL A   1      27.660  30.662  22.535  1.00  0.00     0.000 A 
ATOM     21  C   UNL A   1      29.393  31.226  24.119  1.00  0.00     0.000 A 
ATOM     22  C   UNL A   1      28.216  31.556  23.450  1.00  0.00     0.000 A 
ENDBRANCH  16  17
ENDBRANCH  15  16
ENDBRANCH  14  15
ENDBRANCH   3   5
ENDBRANCH   2   3
ENDBRANCH   1   2
BRANCH   1  23
ATOM     23  C   UNL A   1      36.691  20.374  25.001  1.00  0.00     0.275 C 
BRANCH  23  24
ATOM     24  O   UNL A   1      37.771  21.323  25.002  1.00  0.00    -0.458 OA
BRANCH  24  25
ATOM     25  C   UNL A   1      38.788  21.040  25.847  1.00  0.00     0.338 C 
ATOM     26  O   UNL A   1      39.277  19.946  26.080  1.00  0.00    -0.246 OA
BRANCH  25  27
ATOM     27  C   UNL A   1      39.326  22.290  26.401  1.00  0.00     0.060 A 
ATOM     28  C   UNL A   1      38.680  23.474  26.064  1.00  0.00     0.016 A 
ATOM     29  C   UNL A   1      40.514  22.322  27.123  1.00  0.00     0.016 A 
ATOM     30  C   UNL A   1      39.247  24.705  26.375  1.00  0.00     0.010 A 
ATOM     31  C   UNL A   1      41.047  23.561  27.507  1.00  0.00     0.010 A 
ATOM     32  C   UNL A   1      40.438  24.767  27.106  1.00  0.00    -0.014 A 
BRANCH  32  33
ATOM     33  C   UNL A   1      41.059  26.087  27.413  1.00  0.00     0.031 A 
ATOM     34  C   UNL A   1      42.464  26.385  26.956  1.00  0.00     0.074 A 
ATOM     35  C   UNL A   1      40.371  27.022  28.100  1.00  0.00     0.049 A 
ATOM     36  N   UNL A   1      43.231  27.404  27.249  1.00  0.00    -0.248 NA
ATOM     37  C   UNL A   1      43.095  25.401  26.062  1.00  0.00     0.031 C 
ATOM     38  C   UNL A   1      38.997  26.878  28.582  1.00  0.00     0.029 A 
ATOM     39  N   UNL A   1      40.741  28.276  28.526  1.00  0.00    -0.354 N 
ATOM     40  C   UNL A   1      44.455  27.148  26.641  1.00  0.00     0.074 A 
ATOM     41  C   UNL A   1      44.327  25.879  25.957  1.00  0.00     0.031 C 
ATOM     42  C   UNL A   1      38.635  27.997  29.228  1.00  0.00     0.029 A 
ATOM     43  C   UNL A   1      39.774  28.908  29.274  1.00  0.00     0.049 A 
ATOM     44  H   UNL A   1      41.612  28.681  28.316  1.00  0.00     0.167 HD
ATOM     45  C   UNL A   1      45.580  27.903  26.645  1.00  0.00     0.034 A 
ATOM     46  C   UNL A   1      39.809  30.068  29.958  1.00  0.00     0.034 A 
ATOM     47  C   UNL A   1      45.683  29.197  27.267  1.00  0.00     0.049 A 
ATOM     48  C   UNL A   1      41.069  30.887  29.947  1.00  0.00     0.074 A 
ATOM     49  C   UNL A   1      46.763  30.061  27.281  1.00  0.00     0.029 A 
ATOM     50  N   UNL A   1      44.667  29.816  27.979  1.00  0.00    -0.354 N 
ATOM     51  N   UNL A   1      42.198  30.655  29.322  1.00  0.00    -0.248 NA
ATOM     52  C   UNL A   1      41.057  32.136  30.723  1.00  0.00     0.031 C 
ATOM     53  C   UNL A   1      46.409  31.194  28.022  1.00  0.00     0.029 A 
ATOM     54  C   UNL A   1      45.097  31.048  28.445  1.00  0.00     0.049 A 
ATOM     55  H   UNL A   1      43.772  29.437  28.132  1.00  0.00     0.167 HD
ATOM     56  C   UNL A   1      43.021  31.739  29.608  1.00  0.00     0.074 A 
ATOM     57  C   UNL A   1      42.251  32.640  30.441  1.00  0.00     0.031 C 
ATOM     58  C   UNL A   1      44.305  31.958  29.231  1.00  0.00     0.034 A 
BRANCH  45  59
ATOM     59  C   UNL A   1      46.796  27.354  25.941  1.00  0.00     0.023 A 
ATOM     60  C   UNL A   1      47.646  26.448  26.604  1.00  0.00     0.012 A 
ATOM     61  C   UNL A   1      47.066  27.700  24.601  1.00  0.00     0.148 A 
ATOM     62  C   UNL A   1      48.767  25.923  25.959  1.00  0.00     0.002 A 
ATOM     63  C   UNL A   1      48.158  27.137  23.950  1.00  0.00     0.091 A 
ATOM     64  F   UNL A   1      46.258  28.579  23.991  1.00  0.00    -0.205 F 
ATOM     65  C   UNL A   1      49.016  26.259  24.631  1.00  0.00     0.022 A 
BRANCH  63  66
ATOM     66  S   UNL A   1      48.517  27.447  22.216  1.00  0.00     0.127 S 
ATOM     67  O   UNL A   1      49.768  28.198  22.302  1.00  0.00    -0.237 OA
ATOM     68  O   UNL A   1      48.655  26.091  21.683  1.00  0.00    -0.237 OA
ATOM     69  O   UNL A   1      47.375  28.188  21.697  1.00  0.00    -0.744 OA
ENDBRANCH  63  66
ENDBRANCH  45  59
BRANCH  46  70
ATOM     70  C   UNL A   1      38.602  30.525  30.706  1.00  0.00     0.023 A 
ATOM     71  C   UNL A   1      38.499  30.260  32.085  1.00  0.00     0.012 A 
ATOM     72  C   UNL A   1      37.576  31.251  30.069  1.00  0.00     0.148 A 
ATOM     73  C   UNL A   1      37.388  30.690  32.811  1.00  0.00     0.002 A 
ATOM     74  C   UNL A   1      36.501  31.729  30.809  1.00  0.00     0.091 A 
ATOM     75  F   UNL A   1      37.681  31.475  28.751  1.00  0.00    -0.205 F 
ATOM     76  C   UNL A   1      36.397  31.436  32.178  1.00  0.00     0.022 A 
BRANCH  74  77
ATOM     77  S   UNL A   1      35.253  32.812  30.104  1.00  0.00     0.127 S 
ATOM     78  O   UNL A   1      34.656  31.955  29.083  1.00  0.00    -0.237 OA
ATOM     79  O   UNL A   1      34.397  33.080  31.261  1.00  0.00    -0.237 OA
ATOM     80  O   UNL A   1      35.976  33.977  29.611  1.00  0.00    -0.744 OA
ENDBRANCH  74  77
ENDBRANCH  46  70
BRANCH  58  81
ATOM     81  C   UNL A   1      44.954  33.240  29.684  1.00  0.00     0.023 A 
ATOM     82  C   UNL A   1      45.607  33.291  30.932  1.00  0.00     0.012 A 
ATOM     83  C   UNL A   1      44.974  34.372  28.845  1.00  0.00     0.148 A 
ATOM     84  C   UNL A   1      46.242  34.460  31.351  1.00  0.00     0.002 A 
ATOM     85  C   UNL A   1      45.651  35.516  29.249  1.00  0.00     0.091 A 
ATOM     86  F   UNL A   1      44.330  34.310  27.671  1.00  0.00    -0.205 F 
ATOM     87  C   UNL A   1      46.275  35.567  30.507  1.00  0.00     0.022 A 
BRANCH  85  88
ATOM     88  S   UNL A   1      45.825  36.956  28.189  1.00  0.00     0.127 S 
ATOM     89  O   UNL A   1      46.478  36.384  27.013  1.00  0.00    -0.237 OA
ATOM     90  O   UNL A   1      44.434  37.358  27.979  1.00  0.00    -0.237 OA
ATOM     91  O   UNL A   1      46.622  37.914  28.942  1.00  0.00    -0.744 OA
ENDBRANCH  85  88
ENDBRANCH  58  81
ENDBRANCH  32  33
ENDBRANCH  25  27
ENDBRANCH  24  25
ENDBRANCH  23  24
ENDBRANCH   1  23
TORSDOF 17
ENDMDL
