MODEL 1
REMARK VINA RESULT:     -12.3      0.000      0.000
REMARK SMILES O=C(OCCOC(=O)[C@@]1(Cc2cn3ccccc3n2)CCC[NH2+]C1)c1ccc(-c2c3nc(c(-c4cccc(S(=O)(=O)[O-])c4F)c4ccc([nH]4)c(-c4cccc(S(=O)(=O)[O-])c4F)c4nc(c(-c5cccc(S(=O)(=O)[O-])c5F)c5ccc2[nH]5)C=C4)C=C3)cc1
REMARK SMILES IDX 4 1 3 2 2 3 1 4 25 5 26 6 87 7 27 8 86 9 28 10 29 11 30 12
REMARK SMILES IDX 80 13 31 14 85 15 79 16 81 17 32 18 84 19 78 20 77 21 33 23
REMARK SMILES IDX 65 24 45 25 64 26 46 27 49 28 63 29 82 30 47 31 48 32 62 34
REMARK SMILES IDX 83 35 50 36 34 37 35 38 43 39 36 40 38 41 44 42 37 43 39 44
REMARK SMILES IDX 40 45 41 46 42 47 66 48 67 49 75 50 68 51 70 52 76 53 69 54
REMARK SMILES IDX 71 55 72 56 73 57 74 58 51 59 52 60 60 61 53 62 55 63 61 64
REMARK SMILES IDX 54 65 56 66 57 67 58 68 59 69 5 70 6 71 7 72 8 73 9 74 20 75
REMARK SMILES IDX 24 76 21 77 23 78 22 79 10 82 11 83 12 84 19 85 13 86 18 87
REMARK SMILES IDX 14 88 17 89 15 90 16 91
REMARK H PARENT 81 22 49 33 23 80 23 81
REMARK Flexibility Score: inf
ROOT
ATOM      1  C   UNL A   1      31.791  29.801  26.755  1.00  0.00     0.275 C 
ENDROOT
BRANCH   1   2
ATOM      2  O   UNL A   1      32.886  30.687  26.476  1.00  0.00    -0.458 OA
BRANCH   2   3
ATOM      3  C   UNL A   1      33.590  31.450  27.350  1.00  0.00     0.338 C 
ATOM      4  O   UNL A   1      33.135  32.547  27.669  1.00  0.00    -0.246 OA
BRANCH   3   5
ATOM      5  C   UNL A   1      34.984  31.105  27.782  1.00  0.00     0.060 A 
ATOM      6  C   UNL A   1      36.044  31.996  27.973  1.00  0.00     0.016 A 
ATOM      7  C   UNL A   1      35.194  29.759  28.111  1.00  0.00     0.016 A 
ATOM      8  C   UNL A   1      37.219  31.596  28.621  1.00  0.00     0.010 A 
ATOM      9  C   UNL A   1      36.344  29.366  28.800  1.00  0.00     0.010 A 
ATOM     10  C   UNL A   1      37.366  30.286  29.072  1.00  0.00    -0.014 A 
BRANCH  10  11
ATOM     11  C   UNL A   1      38.643  29.830  29.672  1.00  0.00     0.031 A 
ATOM     12  C   UNL A   1      39.021  30.407  31.004  1.00  0.00     0.074 A 
ATOM     13  C   UNL A   1      39.451  28.937  29.061  1.00  0.00     0.049 A 
ATOM     14  N   UNL A   1      40.038  30.121  31.769  1.00  0.00    -0.248 NA
ATOM     15  C   UNL A   1      38.140  31.459  31.544  1.00  0.00     0.031 C 
ATOM     16  C   UNL A   1      39.216  28.330  27.751  1.00  0.00     0.029 A 
ATOM     17  N   UNL A   1      40.649  28.394  29.457  1.00  0.00    -0.354 N 
ATOM     18  C   UNL A   1      39.911  30.959  32.868  1.00  0.00     0.074 A 
ATOM     19  C   UNL A   1      38.806  31.847  32.614  1.00  0.00     0.031 C 
ATOM     20  C   UNL A   1      40.252  27.529  27.436  1.00  0.00     0.029 A 
ATOM     21  C   UNL A   1      41.211  27.539  28.535  1.00  0.00     0.049 A 
ATOM     22  H   UNL A   1      41.069  28.598  30.324  1.00  0.00     0.167 HD
ATOM     23  C   UNL A   1      40.591  30.934  34.035  1.00  0.00     0.034 A 
ATOM     24  C   UNL A   1      42.356  26.827  28.593  1.00  0.00     0.034 A 
ATOM     25  C   UNL A   1      41.673  30.036  34.292  1.00  0.00     0.049 A 
ATOM     26  C   UNL A   1      43.148  26.854  29.881  1.00  0.00     0.074 A 
ATOM     27  C   UNL A   1      42.410  29.881  35.447  1.00  0.00     0.029 A 
ATOM     28  N   UNL A   1      42.185  29.152  33.355  1.00  0.00    -0.354 N 
ATOM     29  N   UNL A   1      42.894  27.505  30.993  1.00  0.00    -0.248 NA
ATOM     30  C   UNL A   1      44.339  25.996  29.953  1.00  0.00     0.031 C 
ATOM     31  C   UNL A   1      43.398  28.924  35.196  1.00  0.00     0.029 A 
ATOM     32  C   UNL A   1      43.245  28.456  33.898  1.00  0.00     0.049 A 
ATOM     33  H   UNL A   1      41.841  29.037  32.439  1.00  0.00     0.167 HD
ATOM     34  C   UNL A   1      43.850  27.085  31.912  1.00  0.00     0.074 A 
ATOM     35  C   UNL A   1      44.690  26.124  31.226  1.00  0.00     0.031 C 
ATOM     36  C   UNL A   1      44.019  27.455  33.206  1.00  0.00     0.034 A 
BRANCH  23  37
ATOM     37  C   UNL A   1      40.116  31.888  35.092  1.00  0.00     0.023 A 
ATOM     38  C   UNL A   1      40.761  33.137  35.242  1.00  0.00     0.012 A 
ATOM     39  C   UNL A   1      39.118  31.509  36.005  1.00  0.00     0.148 A 
ATOM     40  C   UNL A   1      40.479  33.956  36.333  1.00  0.00     0.002 A 
ATOM     41  C   UNL A   1      38.805  32.355  37.061  1.00  0.00     0.091 A 
ATOM     42  F   UNL A   1      38.537  30.311  35.858  1.00  0.00    -0.205 F 
ATOM     43  C   UNL A   1      39.500  33.565  37.241  1.00  0.00     0.022 A 
BRANCH  41  44
ATOM     44  S   UNL A   1      37.523  31.975  38.257  1.00  0.00     0.127 S 
ATOM     45  O   UNL A   1      38.197  32.274  39.518  1.00  0.00    -0.237 OA
ATOM     46  O   UNL A   1      36.472  32.919  37.885  1.00  0.00    -0.237 OA
ATOM     47  O   UNL A   1      37.184  30.571  38.049  1.00  0.00    -0.744 OA
ENDBRANCH  41  44
ENDBRANCH  23  37
BRANCH  24  48
ATOM     48  C   UNL A   1      42.771  25.927  27.472  1.00  0.00     0.023 A 
ATOM     49  C   UNL A   1      43.586  26.444  26.443  1.00  0.00     0.012 A 
ATOM     50  C   UNL A   1      42.340  24.588  27.392  1.00  0.00     0.148 A 
ATOM     51  C   UNL A   1      43.924  25.664  25.334  1.00  0.00     0.002 A 
ATOM     52  C   UNL A   1      42.710  23.804  26.300  1.00  0.00     0.091 A 
ATOM     53  F   UNL A   1      41.567  24.110  28.376  1.00  0.00    -0.205 F 
ATOM     54  C   UNL A   1      43.487  24.345  25.263  1.00  0.00     0.022 A 
BRANCH  52  55
ATOM     55  S   UNL A   1      42.260  22.071  26.135  1.00  0.00     0.127 S 
ATOM     56  O   UNL A   1      43.042  21.667  24.969  1.00  0.00    -0.237 OA
ATOM     57  O   UNL A   1      42.725  21.520  27.408  1.00  0.00    -0.237 OA
ATOM     58  O   UNL A   1      40.815  22.050  25.955  1.00  0.00    -0.744 OA
ENDBRANCH  52  55
ENDBRANCH  24  48
BRANCH  36  59
ATOM     59  C   UNL A   1      45.106  26.786  34.000  1.00  0.00     0.023 A 
ATOM     60  C   UNL A   1      46.401  27.338  34.029  1.00  0.00     0.012 A 
ATOM     61  C   UNL A   1      44.798  25.691  34.832  1.00  0.00     0.148 A 
ATOM     62  C   UNL A   1      47.378  26.798  34.864  1.00  0.00     0.002 A 
ATOM     63  C   UNL A   1      45.757  25.199  35.705  1.00  0.00     0.091 A 
ATOM     64  F   UNL A   1      43.563  25.171  34.771  1.00  0.00    -0.205 F 
ATOM     65  C   UNL A   1      47.051  25.744  35.714  1.00  0.00     0.022 A 
BRANCH  63  66
ATOM     66  S   UNL A   1      45.384  23.935  36.926  1.00  0.00     0.127 S 
ATOM     67  O   UNL A   1      46.664  23.804  37.619  1.00  0.00    -0.237 OA
ATOM     68  O   UNL A   1      44.324  24.568  37.712  1.00  0.00    -0.237 OA
ATOM     69  O   UNL A   1      44.958  22.762  36.173  1.00  0.00    -0.744 OA
ENDBRANCH  63  66
ENDBRANCH  36  59
ENDBRANCH  10  11
ENDBRANCH   3   5
ENDBRANCH   2   3
ENDBRANCH   1   2
BRANCH   1  70
ATOM     70  C   UNL A   1      32.115  28.306  26.624  1.00  0.00     0.274 C 
BRANCH  70  71
ATOM     71  O   UNL A   1      32.183  27.869  25.256  1.00  0.00    -0.461 OA
BRANCH  71  72
ATOM     72  C   UNL A   1      31.063  27.275  24.748  1.00  0.00     0.318 C 
ATOM     73  O   UNL A   1      30.414  26.446  25.379  1.00  0.00    -0.251 OA
BRANCH  72  74
ATOM     74  C   UNL A   1      30.677  27.756  23.323  1.00  0.00     0.122 C 
ATOM     75  C   UNL A   1      29.192  28.175  23.375  1.00  0.00     0.031 C 
ATOM     76  C   UNL A   1      31.585  28.970  23.050  1.00  0.00     0.279 C 
ATOM     77  C   UNL A   1      28.791  29.141  22.267  1.00  0.00     0.063 C 
ATOM     78  N   UNL A   1      31.157  29.798  21.923  1.00  0.00    -0.345 N 
ATOM     79  C   UNL A   1      29.787  30.282  22.128  1.00  0.00     0.260 C 
ATOM     80  H   UNL A   1      31.785  30.597  21.839  1.00  0.00     0.346 HD
ATOM     81  H   UNL A   1      31.183  29.235  21.073  1.00  0.00     0.346 HD
BRANCH  74  82
ATOM     82  C   UNL A   1      30.919  26.613  22.329  1.00  0.00     0.082 C 
BRANCH  82  83
ATOM     83  C   UNL A   1      31.854  25.464  22.551  1.00  0.00     0.061 A 
ATOM     84  C   UNL A   1      33.232  25.529  22.672  1.00  0.00     0.116 A 
ATOM     85  N   UNL A   1      31.406  24.245  23.011  1.00  0.00    -0.234 NA
ATOM     86  N   UNL A   1      33.624  24.333  23.219  1.00  0.00    -0.307 N 
ATOM     87  C   UNL A   1      32.478  23.562  23.354  1.00  0.00     0.136 A 
ATOM     88  C   UNL A   1      34.890  23.921  23.636  1.00  0.00     0.093 A 
ATOM     89  C   UNL A   1      32.646  22.248  23.884  1.00  0.00     0.048 A 
ATOM     90  C   UNL A   1      35.039  22.692  24.162  1.00  0.00     0.018 A 
ATOM     91  C   UNL A   1      33.870  21.828  24.263  1.00  0.00     0.005 A 
ENDBRANCH  82  83
ENDBRANCH  74  82
ENDBRANCH  72  74
ENDBRANCH  71  72
ENDBRANCH  70  71
ENDBRANCH   1  70
TORSDOF 16
ENDMDL
MODEL 2
REMARK VINA RESULT:     -12.3      0.924      2.979
REMARK SMILES O=C(OCCOC(=O)[C@@]1(Cc2cn3ccccc3n2)CCC[NH2+]C1)c1ccc(-c2c3nc(c(-c4cccc(S(=O)(=O)[O-])c4F)c4ccc([nH]4)c(-c4cccc(S(=O)(=O)[O-])c4F)c4nc(c(-c5cccc(S(=O)(=O)[O-])c5F)c5ccc2[nH]5)C=C4)C=C3)cc1
REMARK SMILES IDX 4 1 3 2 2 3 1 4 25 5 26 6 87 7 27 8 86 9 28 10 29 11 30 12
REMARK SMILES IDX 80 13 31 14 85 15 79 16 81 17 32 18 84 19 78 20 77 21 33 23
REMARK SMILES IDX 65 24 45 25 64 26 46 27 49 28 63 29 82 30 47 31 48 32 62 34
REMARK SMILES IDX 83 35 50 36 34 37 35 38 43 39 36 40 38 41 44 42 37 43 39 44
REMARK SMILES IDX 40 45 41 46 42 47 66 48 67 49 75 50 68 51 70 52 76 53 69 54
REMARK SMILES IDX 71 55 72 56 73 57 74 58 51 59 52 60 60 61 53 62 55 63 61 64
REMARK SMILES IDX 54 65 56 66 57 67 58 68 59 69 5 70 6 71 7 72 8 73 9 74 20 75
REMARK SMILES IDX 24 76 21 77 23 78 22 79 10 82 11 83 12 84 19 85 13 86 18 87
REMARK SMILES IDX 14 88 17 89 15 90 16 91
REMARK H PARENT 81 22 49 33 23 80 23 81
REMARK Flexibility Score: inf
ROOT
ATOM      1  C   UNL A   1      31.636  29.873  26.801  1.00  0.00     0.275 C 
ENDROOT
BRANCH   1   2
ATOM      2  O   UNL A   1      32.851  30.582  26.518  1.00  0.00    -0.458 OA
BRANCH   2   3
ATOM      3  C   UNL A   1      33.566  31.385  27.346  1.00  0.00     0.338 C 
ATOM      4  O   UNL A   1      33.125  32.504  27.602  1.00  0.00    -0.246 OA
BRANCH   3   5
ATOM      5  C   UNL A   1      34.955  31.048  27.797  1.00  0.00     0.060 A 
ATOM      6  C   UNL A   1      36.010  31.944  27.996  1.00  0.00     0.016 A 
ATOM      7  C   UNL A   1      35.167  29.704  28.136  1.00  0.00     0.016 A 
ATOM      8  C   UNL A   1      37.179  31.551  28.660  1.00  0.00     0.010 A 
ATOM      9  C   UNL A   1      36.310  29.319  28.841  1.00  0.00     0.010 A 
ATOM     10  C   UNL A   1      37.325  30.244  29.120  1.00  0.00    -0.014 A 
BRANCH  10  11
ATOM     11  C   UNL A   1      38.596  29.796  29.738  1.00  0.00     0.031 A 
ATOM     12  C   UNL A   1      38.948  30.371  31.078  1.00  0.00     0.074 A 
ATOM     13  C   UNL A   1      39.420  28.912  29.138  1.00  0.00     0.049 A 
ATOM     14  N   UNL A   1      39.955  30.091  31.859  1.00  0.00    -0.248 NA
ATOM     15  C   UNL A   1      38.050  31.414  31.608  1.00  0.00     0.031 C 
ATOM     16  C   UNL A   1      39.211  28.308  27.821  1.00  0.00     0.029 A 
ATOM     17  N   UNL A   1      40.616  28.377  29.550  1.00  0.00    -0.354 N 
ATOM     18  C   UNL A   1      39.805  30.923  32.958  1.00  0.00     0.074 A 
ATOM     19  C   UNL A   1      38.696  31.803  32.691  1.00  0.00     0.031 C 
ATOM     20  C   UNL A   1      40.258  27.517  27.519  1.00  0.00     0.029 A 
ATOM     21  C   UNL A   1      41.199  27.530  28.634  1.00  0.00     0.049 A 
ATOM     22  H   UNL A   1      41.021  28.581  30.424  1.00  0.00     0.167 HD
ATOM     23  C   UNL A   1      40.467  30.899  34.135  1.00  0.00     0.034 A 
ATOM     24  C   UNL A   1      42.349  26.827  28.707  1.00  0.00     0.034 A 
ATOM     25  C   UNL A   1      41.551  30.009  34.406  1.00  0.00     0.049 A 
ATOM     26  C   UNL A   1      43.120  26.856  30.008  1.00  0.00     0.074 A 
ATOM     27  C   UNL A   1      42.272  29.855  35.573  1.00  0.00     0.029 A 
ATOM     28  N   UNL A   1      42.085  29.132  33.474  1.00  0.00    -0.354 N 
ATOM     29  N   UNL A   1      42.844  27.500  31.118  1.00  0.00    -0.248 NA
ATOM     30  C   UNL A   1      44.317  26.006  30.094  1.00  0.00     0.031 C 
ATOM     31  C   UNL A   1      43.271  28.907  35.333  1.00  0.00     0.029 A 
ATOM     32  C   UNL A   1      43.142  28.443  34.031  1.00  0.00     0.049 A 
ATOM     33  H   UNL A   1      41.757  29.018  32.553  1.00  0.00     0.167 HD
ATOM     34  C   UNL A   1      43.789  27.084  32.050  1.00  0.00     0.074 A 
ATOM     35  C   UNL A   1      44.647  26.132  31.373  1.00  0.00     0.031 C 
ATOM     36  C   UNL A   1      43.935  27.451  33.348  1.00  0.00     0.034 A 
BRANCH  23  37
ATOM     37  C   UNL A   1      39.967  31.846  35.189  1.00  0.00     0.023 A 
ATOM     38  C   UNL A   1      40.569  33.118  35.322  1.00  0.00     0.012 A 
ATOM     39  C   UNL A   1      38.992  31.440  36.114  1.00  0.00     0.148 A 
ATOM     40  C   UNL A   1      40.268  33.936  36.408  1.00  0.00     0.002 A 
ATOM     41  C   UNL A   1      38.658  32.284  37.165  1.00  0.00     0.091 A 
ATOM     42  F   UNL A   1      38.452  30.220  35.983  1.00  0.00    -0.205 F 
ATOM     43  C   UNL A   1      39.311  33.519  37.328  1.00  0.00     0.022 A 
BRANCH  41  44
ATOM     44  S   UNL A   1      37.402  31.869  38.377  1.00  0.00     0.127 S 
ATOM     45  O   UNL A   1      38.100  32.137  39.632  1.00  0.00    -0.237 OA
ATOM     46  O   UNL A   1      36.341  32.820  38.050  1.00  0.00    -0.237 OA
ATOM     47  O   UNL A   1      37.061  30.470  38.140  1.00  0.00    -0.744 OA
ENDBRANCH  41  44
ENDBRANCH  23  37
BRANCH  24  48
ATOM     48  C   UNL A   1      42.789  25.935  27.589  1.00  0.00     0.023 A 
ATOM     49  C   UNL A   1      43.654  26.449  26.601  1.00  0.00     0.012 A 
ATOM     50  C   UNL A   1      42.333  24.606  27.472  1.00  0.00     0.148 A 
ATOM     51  C   UNL A   1      44.018  25.678  25.494  1.00  0.00     0.002 A 
ATOM     52  C   UNL A   1      42.730  23.830  26.383  1.00  0.00     0.091 A 
ATOM     53  F   UNL A   1      41.513  24.131  28.418  1.00  0.00    -0.205 F 
ATOM     54  C   UNL A   1      43.557  24.370  25.385  1.00  0.00     0.022 A 
BRANCH  52  55
ATOM     55  S   UNL A   1      42.250  22.110  26.175  1.00  0.00     0.127 S 
ATOM     56  O   UNL A   1      40.810  22.224  25.959  1.00  0.00    -0.237 OA
ATOM     57  O   UNL A   1      43.021  21.727  24.992  1.00  0.00    -0.237 OA
ATOM     58  O   UNL A   1      42.646  21.434  27.403  1.00  0.00    -0.744 OA
ENDBRANCH  52  55
ENDBRANCH  24  48
BRANCH  36  59
ATOM     59  C   UNL A   1      45.015  26.788  34.156  1.00  0.00     0.023 A 
ATOM     60  C   UNL A   1      46.309  27.340  34.193  1.00  0.00     0.012 A 
ATOM     61  C   UNL A   1      44.699  25.698  34.992  1.00  0.00     0.148 A 
ATOM     62  C   UNL A   1      47.278  26.806  35.041  1.00  0.00     0.002 A 
ATOM     63  C   UNL A   1      45.650  25.212  35.877  1.00  0.00     0.091 A 
ATOM     64  F   UNL A   1      43.465  25.177  34.923  1.00  0.00    -0.205 F 
ATOM     65  C   UNL A   1      46.944  25.758  35.894  1.00  0.00     0.022 A 
BRANCH  63  66
ATOM     66  S   UNL A   1      45.267  23.956  37.102  1.00  0.00     0.127 S 
ATOM     67  O   UNL A   1      44.920  22.814  36.259  1.00  0.00    -0.237 OA
ATOM     68  O   UNL A   1      46.537  23.824  37.818  1.00  0.00    -0.237 OA
ATOM     69  O   UNL A   1      44.176  24.494  37.904  1.00  0.00    -0.744 OA
ENDBRANCH  63  66
ENDBRANCH  36  59
ENDBRANCH  10  11
ENDBRANCH   3   5
ENDBRANCH   2   3
ENDBRANCH   1   2
BRANCH   1  70
ATOM     70  C   UNL A   1      31.815  28.555  27.568  1.00  0.00     0.274 C 
BRANCH  70  71
ATOM     71  O   UNL A   1      31.419  27.406  26.799  1.00  0.00    -0.461 OA
BRANCH  71  72
ATOM     72  C   UNL A   1      32.418  26.713  26.179  1.00  0.00     0.318 C 
ATOM     73  O   UNL A   1      33.601  27.025  26.284  1.00  0.00    -0.251 OA
BRANCH  72  74
ATOM     74  C   UNL A   1      31.928  25.490  25.354  1.00  0.00     0.122 C 
ATOM     75  C   UNL A   1      33.071  24.452  25.365  1.00  0.00     0.031 C 
ATOM     76  C   UNL A   1      30.695  24.964  26.111  1.00  0.00     0.279 C 
ATOM     77  C   UNL A   1      32.605  23.029  25.084  1.00  0.00     0.063 C 
ATOM     78  N   UNL A   1      30.282  23.617  25.722  1.00  0.00    -0.345 N 
ATOM     79  C   UNL A   1      31.381  22.664  25.911  1.00  0.00     0.260 C 
ATOM     80  H   UNL A   1      29.489  23.331  26.297  1.00  0.00     0.346 HD
ATOM     81  H   UNL A   1      30.020  23.625  24.737  1.00  0.00     0.346 HD
BRANCH  74  82
ATOM     82  C   UNL A   1      31.585  25.954  23.932  1.00  0.00     0.082 C 
BRANCH  82  83
ATOM     83  C   UNL A   1      30.817  27.195  23.595  1.00  0.00     0.061 A 
ATOM     84  C   UNL A   1      31.258  28.257  22.823  1.00  0.00     0.116 A 
ATOM     85  N   UNL A   1      29.448  27.259  23.732  1.00  0.00    -0.234 NA
ATOM     86  N   UNL A   1      30.137  28.972  22.482  1.00  0.00    -0.307 N 
ATOM     87  C   UNL A   1      29.063  28.354  23.109  1.00  0.00     0.136 A 
ATOM     88  C   UNL A   1      30.009  30.073  21.635  1.00  0.00     0.093 A 
ATOM     89  C   UNL A   1      27.780  28.945  22.920  1.00  0.00     0.048 A 
ATOM     90  C   UNL A   1      28.793  30.610  21.437  1.00  0.00     0.018 A 
ATOM     91  C   UNL A   1      27.650  30.029  22.127  1.00  0.00     0.005 A 
ENDBRANCH  82  83
ENDBRANCH  74  82
ENDBRANCH  72  74
ENDBRANCH  71  72
ENDBRANCH  70  71
ENDBRANCH   1  70
TORSDOF 16
ENDMDL
MODEL 3
REMARK VINA RESULT:     -12.2      5.304     10.230
REMARK SMILES O=C(OCCOC(=O)[C@@]1(Cc2cn3ccccc3n2)CCC[NH2+]C1)c1ccc(-c2c3nc(c(-c4cccc(S(=O)(=O)[O-])c4F)c4ccc([nH]4)c(-c4cccc(S(=O)(=O)[O-])c4F)c4nc(c(-c5cccc(S(=O)(=O)[O-])c5F)c5ccc2[nH]5)C=C4)C=C3)cc1
REMARK SMILES IDX 4 1 3 2 2 3 1 4 25 5 26 6 87 7 27 8 86 9 28 10 29 11 30 12
REMARK SMILES IDX 80 13 31 14 85 15 79 16 81 17 32 18 84 19 78 20 77 21 33 23
REMARK SMILES IDX 65 24 45 25 64 26 46 27 49 28 63 29 82 30 47 31 48 32 62 34
REMARK SMILES IDX 83 35 50 36 34 37 35 38 43 39 36 40 38 41 44 42 37 43 39 44
REMARK SMILES IDX 40 45 41 46 42 47 66 48 67 49 75 50 68 51 70 52 76 53 69 54
REMARK SMILES IDX 71 55 72 56 73 57 74 58 51 59 52 60 60 61 53 62 55 63 61 64
REMARK SMILES IDX 54 65 56 66 57 67 58 68 59 69 5 70 6 71 7 72 8 73 9 74 20 75
REMARK SMILES IDX 24 76 21 77 23 78 22 79 10 82 11 83 12 84 19 85 13 86 18 87
REMARK SMILES IDX 14 88 17 89 15 90 16 91
REMARK H PARENT 81 22 49 33 23 80 23 81
REMARK Flexibility Score: inf
ROOT
ATOM      1  C   UNL A   1      37.250  20.446  24.938  1.00  0.00     0.275 C 
ENDROOT
BRANCH   1   2
ATOM      2  O   UNL A   1      38.053  21.578  25.308  1.00  0.00    -0.458 OA
BRANCH   2   3
ATOM      3  C   UNL A   1      39.212  21.589  26.014  1.00  0.00     0.338 C 
ATOM      4  O   UNL A   1      39.788  20.520  26.212  1.00  0.00    -0.246 OA
BRANCH   3   5
ATOM      5  C   UNL A   1      39.711  22.809  26.728  1.00  0.00     0.060 A 
ATOM      6  C   UNL A   1      40.667  22.847  27.747  1.00  0.00     0.016 A 
ATOM      7  C   UNL A   1      39.223  24.030  26.243  1.00  0.00     0.016 A 
ATOM      8  C   UNL A   1      41.238  24.058  28.159  1.00  0.00     0.010 A 
ATOM      9  C   UNL A   1      39.824  25.235  26.615  1.00  0.00     0.010 A 
ATOM     10  C   UNL A   1      40.848  25.259  27.572  1.00  0.00    -0.014 A 
BRANCH  10  11
ATOM     11  C   UNL A   1      41.378  26.552  28.068  1.00  0.00     0.031 A 
ATOM     12  C   UNL A   1      42.824  26.851  27.799  1.00  0.00     0.074 A 
ATOM     13  C   UNL A   1      40.613  27.438  28.739  1.00  0.00     0.049 A 
ATOM     14  N   UNL A   1      43.506  27.931  28.058  1.00  0.00    -0.248 NA
ATOM     15  C   UNL A   1      43.613  25.780  27.162  1.00  0.00     0.031 C 
ATOM     16  C   UNL A   1      39.205  27.252  29.096  1.00  0.00     0.029 A 
ATOM     17  N   UNL A   1      40.916  28.672  29.260  1.00  0.00    -0.354 N 
ATOM     18  C   UNL A   1      44.793  27.662  27.617  1.00  0.00     0.074 A 
ATOM     19  C   UNL A   1      44.832  26.284  27.198  1.00  0.00     0.031 C 
ATOM     20  C   UNL A   1      38.779  28.313  29.807  1.00  0.00     0.029 A 
ATOM     21  C   UNL A   1      39.873  29.272  29.930  1.00  0.00     0.049 A 
ATOM     22  H   UNL A   1      41.802  29.091  29.164  1.00  0.00     0.167 HD
ATOM     23  C   UNL A   1      45.836  28.510  27.478  1.00  0.00     0.034 A 
ATOM     24  C   UNL A   1      39.807  30.472  30.545  1.00  0.00     0.034 A 
ATOM     25  C   UNL A   1      45.788  29.882  27.874  1.00  0.00     0.049 A 
ATOM     26  C   UNL A   1      41.004  31.391  30.441  1.00  0.00     0.074 A 
ATOM     27  C   UNL A   1      46.759  30.853  27.744  1.00  0.00     0.029 A 
ATOM     28  N   UNL A   1      44.701  30.469  28.504  1.00  0.00    -0.354 N 
ATOM     29  N   UNL A   1      42.151  31.189  29.836  1.00  0.00    -0.248 NA
ATOM     30  C   UNL A   1      40.873  32.729  31.036  1.00  0.00     0.031 C 
ATOM     31  C   UNL A   1      46.271  32.024  28.332  1.00  0.00     0.029 A 
ATOM     32  C   UNL A   1      44.981  31.789  28.789  1.00  0.00     0.049 A 
ATOM     33  H   UNL A   1      43.855  30.011  28.715  1.00  0.00     0.167 HD
ATOM     34  C   UNL A   1      42.848  32.390  29.919  1.00  0.00     0.074 A 
ATOM     35  C   UNL A   1      41.993  33.315  30.635  1.00  0.00     0.031 C 
ATOM     36  C   UNL A   1      44.080  32.703  29.445  1.00  0.00     0.034 A 
BRANCH  23  37
ATOM     37  C   UNL A   1      47.065  27.939  26.831  1.00  0.00     0.023 A 
ATOM     38  C   UNL A   1      48.156  27.544  27.639  1.00  0.00     0.012 A 
ATOM     39  C   UNL A   1      47.188  27.900  25.433  1.00  0.00     0.148 A 
ATOM     40  C   UNL A   1      49.378  27.200  27.064  1.00  0.00     0.002 A 
ATOM     41  C   UNL A   1      48.392  27.505  24.866  1.00  0.00     0.091 A 
ATOM     42  F   UNL A   1      46.149  28.302  24.687  1.00  0.00    -0.205 F 
ATOM     43  C   UNL A   1      49.494  27.179  25.678  1.00  0.00     0.022 A 
BRANCH  41  44
ATOM     44  S   UNL A   1      48.635  27.391  23.093  1.00  0.00     0.127 S 
ATOM     45  O   UNL A   1      47.666  28.365  22.597  1.00  0.00    -0.237 OA
ATOM     46  O   UNL A   1      50.034  27.791  22.951  1.00  0.00    -0.237 OA
ATOM     47  O   UNL A   1      48.359  26.002  22.738  1.00  0.00    -0.744 OA
ENDBRANCH  41  44
ENDBRANCH  23  37
BRANCH  24  48
ATOM     48  C   UNL A   1      38.548  30.944  31.199  1.00  0.00     0.023 A 
ATOM     49  C   UNL A   1      38.348  30.685  32.571  1.00  0.00     0.012 A 
ATOM     50  C   UNL A   1      37.535  31.607  30.476  1.00  0.00     0.148 A 
ATOM     51  C   UNL A   1      37.149  31.031  33.200  1.00  0.00     0.002 A 
ATOM     52  C   UNL A   1      36.356  31.982  31.119  1.00  0.00     0.091 A 
ATOM     53  F   UNL A   1      37.739  31.847  29.174  1.00  0.00    -0.205 F 
ATOM     54  C   UNL A   1      36.155  31.679  32.475  1.00  0.00     0.022 A 
BRANCH  52  55
ATOM     55  S   UNL A   1      35.033  32.882  30.299  1.00  0.00     0.127 S 
ATOM     56  O   UNL A   1      34.637  31.945  29.251  1.00  0.00    -0.237 OA
ATOM     57  O   UNL A   1      34.062  33.037  31.383  1.00  0.00    -0.237 OA
ATOM     58  O   UNL A   1      35.626  34.127  29.832  1.00  0.00    -0.744 OA
ENDBRANCH  52  55
ENDBRANCH  24  48
BRANCH  36  59
ATOM     59  C   UNL A   1      44.570  34.114  29.619  1.00  0.00     0.023 A 
ATOM     60  C   UNL A   1      45.181  34.505  30.825  1.00  0.00     0.012 A 
ATOM     61  C   UNL A   1      44.552  35.005  28.527  1.00  0.00     0.148 A 
ATOM     62  C   UNL A   1      45.753  35.771  30.947  1.00  0.00     0.002 A 
ATOM     63  C   UNL A   1      45.177  36.238  28.636  1.00  0.00     0.091 A 
ATOM     64  F   UNL A   1      43.946  34.615  27.395  1.00  0.00    -0.205 F 
ATOM     65  C   UNL A   1      45.768  36.627  29.848  1.00  0.00     0.022 A 
BRANCH  63  66
ATOM     66  S   UNL A   1      45.360  37.346  27.234  1.00  0.00     0.127 S 
ATOM     67  O   UNL A   1      45.904  36.451  26.215  1.00  0.00    -0.237 OA
ATOM     68  O   UNL A   1      43.981  37.776  26.998  1.00  0.00    -0.237 OA
ATOM     69  O   UNL A   1      46.256  38.408  27.674  1.00  0.00    -0.744 OA
ENDBRANCH  63  66
ENDBRANCH  36  59
ENDBRANCH  10  11
ENDBRANCH   3   5
ENDBRANCH   2   3
ENDBRANCH   1   2
BRANCH   1  70
ATOM     70  C   UNL A   1      35.734  20.683  24.977  1.00  0.00     0.274 C 
BRANCH  70  71
ATOM     71  O   UNL A   1      35.350  21.931  24.374  1.00  0.00    -0.461 OA
BRANCH  71  72
ATOM     72  C   UNL A   1      34.376  22.643  25.013  1.00  0.00     0.318 C 
ATOM     73  O   UNL A   1      34.435  22.913  26.210  1.00  0.00    -0.251 OA
BRANCH  72  74
ATOM     74  C   UNL A   1      33.211  23.097  24.093  1.00  0.00     0.122 C 
ATOM     75  C   UNL A   1      32.857  24.546  24.493  1.00  0.00     0.031 C 
ATOM     76  C   UNL A   1      33.783  23.042  22.664  1.00  0.00     0.279 C 
ATOM     77  C   UNL A   1      32.138  25.324  23.398  1.00  0.00     0.063 C 
ATOM     78  N   UNL A   1      32.986  23.759  21.670  1.00  0.00    -0.345 N 
ATOM     79  C   UNL A   1      32.829  25.168  22.052  1.00  0.00     0.260 C 
ATOM     80  H   UNL A   1      33.455  23.708  20.766  1.00  0.00     0.346 HD
ATOM     81  H   UNL A   1      32.063  23.329  21.616  1.00  0.00     0.346 HD
BRANCH  74  82
ATOM     82  C   UNL A   1      32.025  22.142  24.283  1.00  0.00     0.082 C 
BRANCH  82  83
ATOM     83  C   UNL A   1      32.116  20.646  24.265  1.00  0.00     0.061 A 
ATOM     84  C   UNL A   1      32.461  19.851  23.185  1.00  0.00     0.116 A 
ATOM     85  N   UNL A   1      32.202  19.913  25.428  1.00  0.00    -0.234 NA
ATOM     86  N   UNL A   1      32.767  18.617  23.703  1.00  0.00    -0.307 N 
ATOM     87  C   UNL A   1      32.538  18.690  25.070  1.00  0.00     0.136 A 
ATOM     88  C   UNL A   1      33.268  17.484  23.061  1.00  0.00     0.093 A 
ATOM     89  C   UNL A   1      32.765  17.502  25.825  1.00  0.00     0.048 A 
ATOM     90  C   UNL A   1      33.508  16.375  23.781  1.00  0.00     0.018 A 
ATOM     91  C   UNL A   1      33.221  16.392  25.210  1.00  0.00     0.005 A 
ENDBRANCH  82  83
ENDBRANCH  74  82
ENDBRANCH  72  74
ENDBRANCH  71  72
ENDBRANCH  70  71
ENDBRANCH   1  70
TORSDOF 16
ENDMDL
