MODEL 1
REMARK VINA RESULT:     -13.0      0.000      0.000
REMARK SMILES Cc1cc(C)c(NC(=O)C2(C)CCCC2)c(C(=O)OCCOC(=O)c2ccc(-c3c4nc(c(-c5cccc(S(=O)(=O)[O-])c5F)c5ccc([nH]5)c(-c5cccc(S(=O)(=O)[O-])c5F)c5nc(c(-c6cccc(S(=O)(=O)[O-])c6F)c6ccc3[nH]6)C=C5)C=C4)cc2)c1
REMARK SMILES IDX 21 1 20 2 19 3 17 4 18 5 16 6 1 7 2 8 3 9 88 10 4 11 5 12
REMARK SMILES IDX 6 13 7 14 8 15 9 17 10 18 11 19 12 20 15 21 13 22 14 23
REMARK SMILES IDX 22 24 23 25 24 26 25 27 26 28 87 29 27 30 86 31 28 32 29 33
REMARK SMILES IDX 30 34 80 35 31 36 85 37 79 38 81 39 32 40 84 41 78 42 77 43
REMARK SMILES IDX 33 45 65 46 45 47 64 48 46 49 49 50 63 51 82 52 47 53 48 54
REMARK SMILES IDX 62 56 83 57 50 58 34 59 35 60 43 61 36 62 38 63 44 64 37 65
REMARK SMILES IDX 39 66 40 67 41 68 42 69 66 70 67 71 75 72 68 73 70 74 76 75
REMARK SMILES IDX 69 76 71 77 72 78 73 79 74 80 51 81 52 82 60 83 53 84 55 85
REMARK SMILES IDX 61 86 54 87 56 88 57 89 58 90 59 91
REMARK H PARENT 7 16 81 44 49 55
REMARK Flexibility Score: inf
ROOT
ATOM      1  C   UNL A   1      32.316  30.413  26.211  1.00  0.00     0.275 C 
ENDROOT
BRANCH   1   2
ATOM      2  C   UNL A   1      33.150  29.392  25.441  1.00  0.00     0.275 C 
BRANCH   2   3
ATOM      3  O   UNL A   1      32.891  29.475  24.024  1.00  0.00    -0.458 OA
BRANCH   3   4
ATOM      4  C   UNL A   1      32.934  28.337  23.284  1.00  0.00     0.340 C 
ATOM      5  O   UNL A   1      33.632  28.108  22.311  1.00  0.00    -0.246 OA
BRANCH   4   6
ATOM      6  C   UNL A   1      31.963  27.367  23.848  1.00  0.00     0.084 A 
ATOM      7  C   UNL A   1      32.228  24.003  25.605  1.00  0.00     0.044 C 
ATOM      8  C   UNL A   1      31.677  25.199  24.897  1.00  0.00    -0.050 A 
ATOM      9  C   UNL A   1      30.301  25.363  24.768  1.00  0.00     0.009 A 
ATOM     10  C   UNL A   1      32.508  26.185  24.380  1.00  0.00     0.021 A 
ATOM     11  C   UNL A   1      29.729  26.512  24.182  1.00  0.00    -0.026 A 
ATOM     12  C   UNL A   1      28.243  26.451  23.981  1.00  0.00     0.046 C 
ATOM     13  C   UNL A   1      30.566  27.601  23.853  1.00  0.00     0.058 A 
BRANCH  13  14
ATOM     14  N   UNL A   1      30.094  28.939  23.718  1.00  0.00    -0.325 N 
ATOM     15  C   UNL A   1      29.600  29.558  22.589  1.00  0.00     0.230 C 
ATOM     16  H   UNL A   1      30.127  29.491  24.534  1.00  0.00     0.169 HD
ATOM     17  O   UNL A   1      30.280  29.659  21.569  1.00  0.00    -0.274 OA
BRANCH  15  18
ATOM     18  C   UNL A   1      28.132  30.092  22.664  1.00  0.00     0.047 C 
ATOM     19  C   UNL A   1      27.101  28.988  22.920  1.00  0.00     0.022 C 
ATOM     20  C   UNL A   1      27.995  31.220  23.702  1.00  0.00     0.016 C 
ATOM     21  C   UNL A   1      27.773  30.875  21.387  1.00  0.00     0.016 C 
ATOM     22  C   UNL A   1      28.518  32.494  23.033  1.00  0.00     0.001 C 
ATOM     23  C   UNL A   1      28.507  32.210  21.534  1.00  0.00     0.001 C 
ENDBRANCH  15  18
ENDBRANCH  13  14
ENDBRANCH   4   6
ENDBRANCH   3   4
ENDBRANCH   2   3
ENDBRANCH   1   2
BRANCH   1  24
ATOM     24  O   UNL A   1      32.894  30.608  27.512  1.00  0.00    -0.458 OA
BRANCH  24  25
ATOM     25  C   UNL A   1      33.679  31.701  27.642  1.00  0.00     0.338 C 
ATOM     26  O   UNL A   1      33.327  32.868  27.615  1.00  0.00    -0.246 OA
BRANCH  25  27
ATOM     27  C   UNL A   1      35.067  31.283  27.902  1.00  0.00     0.060 A 
ATOM     28  C   UNL A   1      35.328  29.937  28.109  1.00  0.00     0.016 A 
ATOM     29  C   UNL A   1      36.063  32.228  28.130  1.00  0.00     0.016 A 
ATOM     30  C   UNL A   1      36.523  29.558  28.710  1.00  0.00     0.010 A 
ATOM     31  C   UNL A   1      37.320  31.815  28.598  1.00  0.00     0.010 A 
ATOM     32  C   UNL A   1      37.551  30.479  28.975  1.00  0.00    -0.014 A 
BRANCH  32  33
ATOM     33  C   UNL A   1      38.797  30.061  29.712  1.00  0.00     0.031 A 
ATOM     34  C   UNL A   1      39.828  29.164  29.053  1.00  0.00     0.074 A 
ATOM     35  C   UNL A   1      39.082  30.530  30.948  1.00  0.00     0.049 A 
ATOM     36  N   UNL A   1      40.822  28.508  29.601  1.00  0.00    -0.248 NA
ATOM     37  C   UNL A   1      39.709  28.947  27.603  1.00  0.00     0.031 C 
ATOM     38  C   UNL A   1      38.251  31.454  31.721  1.00  0.00     0.029 A 
ATOM     39  N   UNL A   1      40.182  30.339  31.755  1.00  0.00    -0.354 N 
ATOM     40  C   UNL A   1      41.351  27.700  28.597  1.00  0.00     0.074 A 
ATOM     41  C   UNL A   1      40.589  27.975  27.398  1.00  0.00     0.031 C 
ATOM     42  C   UNL A   1      38.915  31.842  32.816  1.00  0.00     0.029 A 
ATOM     43  C   UNL A   1      40.130  31.047  32.934  1.00  0.00     0.049 A 
ATOM     44  H   UNL A   1      40.934  29.751  31.511  1.00  0.00     0.167 HD
ATOM     45  C   UNL A   1      42.373  26.810  28.669  1.00  0.00     0.034 A 
ATOM     46  C   UNL A   1      40.908  31.012  34.035  1.00  0.00     0.034 A 
ATOM     47  C   UNL A   1      43.226  26.650  29.821  1.00  0.00     0.049 A 
ATOM     48  C   UNL A   1      42.048  30.040  34.093  1.00  0.00     0.074 A 
ATOM     49  C   UNL A   1      44.311  25.804  29.977  1.00  0.00     0.029 A 
ATOM     50  N   UNL A   1      43.118  27.374  30.998  1.00  0.00    -0.354 N 
ATOM     51  N   UNL A   1      42.485  29.227  33.166  1.00  0.00    -0.248 NA
ATOM     52  C   UNL A   1      42.790  29.966  35.360  1.00  0.00     0.031 C 
ATOM     53  C   UNL A   1      44.843  26.000  31.256  1.00  0.00     0.029 A 
ATOM     54  C   UNL A   1      44.112  26.994  31.885  1.00  0.00     0.049 A 
ATOM     55  H   UNL A   1      42.433  28.060  31.178  1.00  0.00     0.167 HD
ATOM     56  C   UNL A   1      43.552  28.543  33.732  1.00  0.00     0.074 A 
ATOM     57  C   UNL A   1      43.721  29.067  35.072  1.00  0.00     0.031 C 
ATOM     58  C   UNL A   1      44.303  27.549  33.200  1.00  0.00     0.034 A 
BRANCH  45  59
ATOM     59  C   UNL A   1      42.633  25.920  27.476  1.00  0.00     0.023 A 
ATOM     60  C   UNL A   1      43.438  26.360  26.408  1.00  0.00     0.012 A 
ATOM     61  C   UNL A   1      42.127  24.601  27.456  1.00  0.00     0.148 A 
ATOM     62  C   UNL A   1      43.701  25.521  25.322  1.00  0.00     0.002 A 
ATOM     63  C   UNL A   1      42.437  23.753  26.398  1.00  0.00     0.091 A 
ATOM     64  F   UNL A   1      41.352  24.198  28.473  1.00  0.00    -0.205 F 
ATOM     65  C   UNL A   1      43.211  24.217  25.323  1.00  0.00     0.022 A 
BRANCH  63  66
ATOM     66  S   UNL A   1      41.933  22.028  26.359  1.00  0.00     0.127 S 
ATOM     67  O   UNL A   1      40.494  22.144  26.132  1.00  0.00    -0.237 OA
ATOM     68  O   UNL A   1      42.689  21.511  25.218  1.00  0.00    -0.237 OA
ATOM     69  O   UNL A   1      42.321  21.466  27.645  1.00  0.00    -0.744 OA
ENDBRANCH  63  66
ENDBRANCH  45  59
BRANCH  46  70
ATOM     70  C   UNL A   1      40.572  31.881  35.203  1.00  0.00     0.023 A 
ATOM     71  C   UNL A   1      41.251  33.098  35.397  1.00  0.00     0.012 A 
ATOM     72  C   UNL A   1      39.529  31.530  36.084  1.00  0.00     0.148 A 
ATOM     73  C   UNL A   1      40.895  33.948  36.446  1.00  0.00     0.002 A 
ATOM     74  C   UNL A   1      39.120  32.421  37.065  1.00  0.00     0.091 A 
ATOM     75  F   UNL A   1      38.924  30.346  35.915  1.00  0.00    -0.205 F 
ATOM     76  C   UNL A   1      39.814  33.622  37.263  1.00  0.00     0.022 A 
BRANCH  74  77
ATOM     77  S   UNL A   1      37.616  32.163  38.012  1.00  0.00     0.127 S 
ATOM     78  O   UNL A   1      37.984  32.710  39.315  1.00  0.00    -0.237 OA
ATOM     79  O   UNL A   1      36.644  32.958  37.260  1.00  0.00    -0.237 OA
ATOM     80  O   UNL A   1      37.367  30.728  37.969  1.00  0.00    -0.744 OA
ENDBRANCH  74  77
ENDBRANCH  46  70
BRANCH  58  81
ATOM     81  C   UNL A   1      45.411  26.987  34.053  1.00  0.00     0.023 A 
ATOM     82  C   UNL A   1      46.692  27.574  34.019  1.00  0.00     0.012 A 
ATOM     83  C   UNL A   1      45.169  25.903  34.920  1.00  0.00     0.148 A 
ATOM     84  C   UNL A   1      47.725  27.065  34.805  1.00  0.00     0.002 A 
ATOM     85  C   UNL A   1      46.190  25.433  35.735  1.00  0.00     0.091 A 
ATOM     86  F   UNL A   1      43.949  25.348  34.922  1.00  0.00    -0.205 F 
ATOM     87  C   UNL A   1      47.472  26.003  35.670  1.00  0.00     0.022 A 
BRANCH  85  88
ATOM     88  S   UNL A   1      45.936  24.126  36.942  1.00  0.00     0.127 S 
ATOM     89  O   UNL A   1      44.875  24.693  37.774  1.00  0.00    -0.237 OA
ATOM     90  O   UNL A   1      45.518  23.006  36.100  1.00  0.00    -0.237 OA
ATOM     91  O   UNL A   1      47.217  23.938  37.609  1.00  0.00    -0.744 OA
ENDBRANCH  85  88
ENDBRANCH  58  81
ENDBRANCH  32  33
ENDBRANCH  25  27
ENDBRANCH  24  25
ENDBRANCH   1  24
TORSDOF 16
ENDMDL
MODEL 2
REMARK VINA RESULT:     -12.7      1.784      3.539
REMARK SMILES Cc1cc(C)c(NC(=O)C2(C)CCCC2)c(C(=O)OCCOC(=O)c2ccc(-c3c4nc(c(-c5cccc(S(=O)(=O)[O-])c5F)c5ccc([nH]5)c(-c5cccc(S(=O)(=O)[O-])c5F)c5nc(c(-c6cccc(S(=O)(=O)[O-])c6F)c6ccc3[nH]6)C=C5)C=C4)cc2)c1
REMARK SMILES IDX 21 1 20 2 19 3 17 4 18 5 16 6 1 7 2 8 3 9 88 10 4 11 5 12
REMARK SMILES IDX 6 13 7 14 8 15 9 17 10 18 11 19 12 20 15 21 13 22 14 23
REMARK SMILES IDX 22 24 23 25 24 26 25 27 26 28 87 29 27 30 86 31 28 32 29 33
REMARK SMILES IDX 30 34 80 35 31 36 85 37 79 38 81 39 32 40 84 41 78 42 77 43
REMARK SMILES IDX 33 45 65 46 45 47 64 48 46 49 49 50 63 51 82 52 47 53 48 54
REMARK SMILES IDX 62 56 83 57 50 58 34 59 35 60 43 61 36 62 38 63 44 64 37 65
REMARK SMILES IDX 39 66 40 67 41 68 42 69 66 70 67 71 75 72 68 73 70 74 76 75
REMARK SMILES IDX 69 76 71 77 72 78 73 79 74 80 51 81 52 82 60 83 53 84 55 85
REMARK SMILES IDX 61 86 54 87 56 88 57 89 58 90 59 91
REMARK H PARENT 7 16 81 44 49 55
REMARK Flexibility Score: inf
ROOT
ATOM      1  C   UNL A   1      31.804  30.417  25.690  1.00  0.00     0.275 C 
ENDROOT
BRANCH   1   2
ATOM      2  C   UNL A   1      32.631  29.293  25.071  1.00  0.00     0.275 C 
BRANCH   2   3
ATOM      3  O   UNL A   1      32.473  29.263  23.637  1.00  0.00    -0.458 OA
BRANCH   3   4
ATOM      4  C   UNL A   1      32.470  28.061  23.005  1.00  0.00     0.340 C 
ATOM      5  O   UNL A   1      33.229  27.679  22.130  1.00  0.00    -0.246 OA
BRANCH   4   6
ATOM      6  C   UNL A   1      31.360  27.242  23.548  1.00  0.00     0.084 A 
ATOM      7  C   UNL A   1      27.563  27.481  23.505  1.00  0.00     0.044 C 
ATOM      8  C   UNL A   1      28.959  27.063  23.840  1.00  0.00    -0.050 A 
ATOM      9  C   UNL A   1      29.180  25.953  24.651  1.00  0.00     0.009 A 
ATOM     10  C   UNL A   1      30.061  27.740  23.336  1.00  0.00     0.021 A 
ATOM     11  C   UNL A   1      30.475  25.469  24.930  1.00  0.00    -0.026 A 
ATOM     12  C   UNL A   1      30.536  24.365  25.946  1.00  0.00     0.046 C 
ATOM     13  C   UNL A   1      31.577  26.028  24.247  1.00  0.00     0.058 A 
BRANCH  13  14
ATOM     14  N   UNL A   1      32.817  25.348  24.069  1.00  0.00    -0.325 N 
ATOM     15  C   UNL A   1      33.832  25.175  24.987  1.00  0.00     0.230 C 
ATOM     16  H   UNL A   1      32.968  24.954  23.179  1.00  0.00     0.169 HD
ATOM     17  O   UNL A   1      34.395  26.138  25.504  1.00  0.00    -0.274 OA
BRANCH  15  18
ATOM     18  C   UNL A   1      34.202  23.700  25.356  1.00  0.00     0.047 C 
ATOM     19  C   UNL A   1      33.884  23.344  26.812  1.00  0.00     0.022 C 
ATOM     20  C   UNL A   1      33.547  22.696  24.391  1.00  0.00     0.016 C 
ATOM     21  C   UNL A   1      35.685  23.420  25.047  1.00  0.00     0.016 C 
ATOM     22  C   UNL A   1      34.404  22.688  23.123  1.00  0.00     0.001 C 
ATOM     23  C   UNL A   1      35.746  23.294  23.523  1.00  0.00     0.001 C 
ENDBRANCH  15  18
ENDBRANCH  13  14
ENDBRANCH   4   6
ENDBRANCH   3   4
ENDBRANCH   2   3
ENDBRANCH   1   2
BRANCH   1  24
ATOM     24  O   UNL A   1      32.230  30.623  27.046  1.00  0.00    -0.458 OA
BRANCH  24  25
ATOM     25  C   UNL A   1      32.960  31.740  27.265  1.00  0.00     0.338 C 
ATOM     26  O   UNL A   1      32.564  32.893  27.252  1.00  0.00    -0.246 OA
BRANCH  25  27
ATOM     27  C   UNL A   1      34.343  31.366  27.603  1.00  0.00     0.060 A 
ATOM     28  C   UNL A   1      34.630  30.031  27.851  1.00  0.00     0.016 A 
ATOM     29  C   UNL A   1      35.301  32.343  27.862  1.00  0.00     0.016 A 
ATOM     30  C   UNL A   1      35.802  29.698  28.520  1.00  0.00     0.010 A 
ATOM     31  C   UNL A   1      36.542  31.973  28.403  1.00  0.00     0.010 A 
ATOM     32  C   UNL A   1      36.789  30.652  28.818  1.00  0.00    -0.014 A 
BRANCH  32  33
ATOM     33  C   UNL A   1      38.007  30.284  29.626  1.00  0.00     0.031 A 
ATOM     34  C   UNL A   1      39.138  29.483  29.009  1.00  0.00     0.074 A 
ATOM     35  C   UNL A   1      38.174  30.717  30.896  1.00  0.00     0.049 A 
ATOM     36  N   UNL A   1      40.134  28.869  29.602  1.00  0.00    -0.248 NA
ATOM     37  C   UNL A   1      39.134  29.319  27.548  1.00  0.00     0.031 C 
ATOM     38  C   UNL A   1      37.232  31.553  31.642  1.00  0.00     0.029 A 
ATOM     39  N   UNL A   1      39.226  30.562  31.772  1.00  0.00    -0.354 N 
ATOM     40  C   UNL A   1      40.783  28.139  28.609  1.00  0.00     0.074 A 
ATOM     41  C   UNL A   1      40.088  28.415  27.369  1.00  0.00     0.031 C 
ATOM     42  C   UNL A   1      37.792  31.936  32.796  1.00  0.00     0.029 A 
ATOM     43  C   UNL A   1      39.046  31.215  32.970  1.00  0.00     0.049 A 
ATOM     44  H   UNL A   1      40.030  30.035  31.560  1.00  0.00     0.167 HD
ATOM     45  C   UNL A   1      41.854  27.314  28.720  1.00  0.00     0.034 A 
ATOM     46  C   UNL A   1      39.746  31.183  34.122  1.00  0.00     0.034 A 
ATOM     47  C   UNL A   1      42.635  27.160  29.923  1.00  0.00     0.049 A 
ATOM     48  C   UNL A   1      40.942  30.284  34.225  1.00  0.00     0.074 A 
ATOM     49  C   UNL A   1      43.760  26.378  30.124  1.00  0.00     0.029 A 
ATOM     50  N   UNL A   1      42.397  27.825  31.116  1.00  0.00    -0.354 N 
ATOM     51  N   UNL A   1      41.495  29.540  33.301  1.00  0.00    -0.248 NA
ATOM     52  C   UNL A   1      41.598  30.203  35.538  1.00  0.00     0.031 C 
ATOM     53  C   UNL A   1      44.188  26.553  31.445  1.00  0.00     0.029 A 
ATOM     54  C   UNL A   1      43.351  27.472  32.056  1.00  0.00     0.049 A 
ATOM     55  H   UNL A   1      41.657  28.457  31.272  1.00  0.00     0.167 HD
ATOM     56  C   UNL A   1      42.563  28.902  33.916  1.00  0.00     0.074 A 
ATOM     57  C   UNL A   1      42.605  29.379  35.284  1.00  0.00     0.031 C 
ATOM     58  C   UNL A   1      43.414  27.981  33.402  1.00  0.00     0.034 A 
BRANCH  45  59
ATOM     59  C   UNL A   1      42.254  26.493  27.516  1.00  0.00     0.023 A 
ATOM     60  C   UNL A   1      43.068  27.041  26.506  1.00  0.00     0.012 A 
ATOM     61  C   UNL A   1      41.872  25.136  27.428  1.00  0.00     0.148 A 
ATOM     62  C   UNL A   1      43.462  26.267  25.411  1.00  0.00     0.002 A 
ATOM     63  C   UNL A   1      42.311  24.357  26.363  1.00  0.00     0.091 A 
ATOM     64  F   UNL A   1      41.087  24.629  28.390  1.00  0.00    -0.205 F 
ATOM     65  C   UNL A   1      43.094  24.925  25.346  1.00  0.00     0.022 A 
BRANCH  63  66
ATOM     66  S   UNL A   1      41.970  22.596  26.244  1.00  0.00     0.127 S 
ATOM     67  O   UNL A   1      42.654  22.244  25.001  1.00  0.00    -0.237 OA
ATOM     68  O   UNL A   1      42.604  22.076  27.455  1.00  0.00    -0.237 OA
ATOM     69  O   UNL A   1      40.519  22.468  26.218  1.00  0.00    -0.744 OA
ENDBRANCH  63  66
ENDBRANCH  45  59
BRANCH  46  70
ATOM     70  C   UNL A   1      39.274  31.979  35.294  1.00  0.00     0.023 A 
ATOM     71  C   UNL A   1      38.506  31.364  36.302  1.00  0.00     0.012 A 
ATOM     72  C   UNL A   1      39.643  33.330  35.443  1.00  0.00     0.148 A 
ATOM     73  C   UNL A   1      38.120  32.084  37.435  1.00  0.00     0.002 A 
ATOM     74  C   UNL A   1      39.335  34.010  36.612  1.00  0.00     0.091 A 
ATOM     75  F   UNL A   1      40.333  33.915  34.453  1.00  0.00    -0.205 F 
ATOM     76  C   UNL A   1      38.555  33.397  37.601  1.00  0.00     0.022 A 
BRANCH  74  77
ATOM     77  S   UNL A   1      40.035  35.622  36.984  1.00  0.00     0.127 S 
ATOM     78  O   UNL A   1      39.416  35.929  38.270  1.00  0.00    -0.237 OA
ATOM     79  O   UNL A   1      41.467  35.325  37.042  1.00  0.00    -0.237 OA
ATOM     80  O   UNL A   1      39.653  36.481  35.871  1.00  0.00    -0.744 OA
ENDBRANCH  74  77
ENDBRANCH  46  70
BRANCH  58  81
ATOM     81  C   UNL A   1      44.495  27.456  34.310  1.00  0.00     0.023 A 
ATOM     82  C   UNL A   1      45.720  28.144  34.417  1.00  0.00     0.012 A 
ATOM     83  C   UNL A   1      44.279  26.302  35.089  1.00  0.00     0.148 A 
ATOM     84  C   UNL A   1      46.728  27.669  35.256  1.00  0.00     0.002 A 
ATOM     85  C   UNL A   1      45.269  25.863  35.959  1.00  0.00     0.091 A 
ATOM     86  F   UNL A   1      43.113  25.652  34.958  1.00  0.00    -0.205 F 
ATOM     87  C   UNL A   1      46.499  26.536  36.034  1.00  0.00     0.022 A 
BRANCH  85  88
ATOM     88  S   UNL A   1      45.033  24.464  37.061  1.00  0.00     0.127 S 
ATOM     89  O   UNL A   1      46.243  24.525  37.881  1.00  0.00    -0.237 OA
ATOM     90  O   UNL A   1      43.802  24.829  37.763  1.00  0.00    -0.237 OA
ATOM     91  O   UNL A   1      44.918  23.291  36.206  1.00  0.00    -0.744 OA
ENDBRANCH  85  88
ENDBRANCH  58  81
ENDBRANCH  32  33
ENDBRANCH  25  27
ENDBRANCH  24  25
ENDBRANCH   1  24
TORSDOF 16
ENDMDL
MODEL 3
REMARK VINA RESULT:     -12.5      5.235      9.852
REMARK SMILES Cc1cc(C)c(NC(=O)C2(C)CCCC2)c(C(=O)OCCOC(=O)c2ccc(-c3c4nc(c(-c5cccc(S(=O)(=O)[O-])c5F)c5ccc([nH]5)c(-c5cccc(S(=O)(=O)[O-])c5F)c5nc(c(-c6cccc(S(=O)(=O)[O-])c6F)c6ccc3[nH]6)C=C5)C=C4)cc2)c1
REMARK SMILES IDX 21 1 20 2 19 3 17 4 18 5 16 6 1 7 2 8 3 9 88 10 4 11 5 12
REMARK SMILES IDX 6 13 7 14 8 15 9 17 10 18 11 19 12 20 15 21 13 22 14 23
REMARK SMILES IDX 22 24 23 25 24 26 25 27 26 28 87 29 27 30 86 31 28 32 29 33
REMARK SMILES IDX 30 34 80 35 31 36 85 37 79 38 81 39 32 40 84 41 78 42 77 43
REMARK SMILES IDX 33 45 65 46 45 47 64 48 46 49 49 50 63 51 82 52 47 53 48 54
REMARK SMILES IDX 62 56 83 57 50 58 34 59 35 60 43 61 36 62 38 63 44 64 37 65
REMARK SMILES IDX 39 66 40 67 41 68 42 69 66 70 67 71 75 72 68 73 70 74 76 75
REMARK SMILES IDX 69 76 71 77 72 78 73 79 74 80 51 81 52 82 60 83 53 84 55 85
REMARK SMILES IDX 61 86 54 87 56 88 57 89 58 90 59 91
REMARK H PARENT 7 16 81 44 49 55
REMARK Flexibility Score: inf
ROOT
ATOM      1  C   UNL A   1      36.951  22.247  23.801  1.00  0.00     0.275 C 
ENDROOT
BRANCH   1   2
ATOM      2  C   UNL A   1      35.849  23.284  23.597  1.00  0.00     0.275 C 
BRANCH   2   3
ATOM      3  O   UNL A   1      35.125  23.035  22.373  1.00  0.00    -0.458 OA
BRANCH   3   4
ATOM      4  C   UNL A   1      33.804  23.347  22.321  1.00  0.00     0.340 C 
ATOM      5  O   UNL A   1      33.233  24.022  21.481  1.00  0.00    -0.246 OA
BRANCH   4   6
ATOM      6  C   UNL A   1      33.123  22.728  23.483  1.00  0.00     0.084 A 
ATOM      7  C   UNL A   1      32.600  19.167  24.717  1.00  0.00     0.044 C 
ATOM      8  C   UNL A   1      32.484  20.650  24.557  1.00  0.00    -0.050 A 
ATOM      9  C   UNL A   1      31.742  21.395  25.470  1.00  0.00     0.009 A 
ATOM     10  C   UNL A   1      33.129  21.322  23.528  1.00  0.00     0.021 A 
ATOM     11  C   UNL A   1      31.669  22.803  25.410  1.00  0.00    -0.026 A 
ATOM     12  C   UNL A   1      30.701  23.429  26.371  1.00  0.00     0.046 C 
ATOM     13  C   UNL A   1      32.494  23.494  24.496  1.00  0.00     0.058 A 
BRANCH  13  14
ATOM     14  N   UNL A   1      32.869  24.860  24.655  1.00  0.00    -0.325 N 
ATOM     15  C   UNL A   1      32.159  25.985  24.291  1.00  0.00     0.230 C 
ATOM     16  H   UNL A   1      33.744  25.019  25.077  1.00  0.00     0.169 HD
ATOM     17  O   UNL A   1      31.825  26.177  23.123  1.00  0.00    -0.274 OA
BRANCH  15  18
ATOM     18  C   UNL A   1      31.778  26.979  25.438  1.00  0.00     0.047 C 
ATOM     19  C   UNL A   1      30.390  26.714  26.029  1.00  0.00     0.022 C 
ATOM     20  C   UNL A   1      32.849  27.000  26.543  1.00  0.00     0.016 C 
ATOM     21  C   UNL A   1      31.885  28.436  24.951  1.00  0.00     0.016 C 
ATOM     22  C   UNL A   1      33.986  27.888  26.032  1.00  0.00     0.001 C 
ATOM     23  C   UNL A   1      33.389  28.716  24.898  1.00  0.00     0.001 C 
ENDBRANCH  15  18
ENDBRANCH  13  14
ENDBRANCH   4   6
ENDBRANCH   3   4
ENDBRANCH   2   3
ENDBRANCH   1   2
BRANCH   1  24
ATOM     24  O   UNL A   1      36.981  21.859  25.184  1.00  0.00    -0.458 OA
BRANCH  24  25
ATOM     25  C   UNL A   1      38.183  21.450  25.648  1.00  0.00     0.338 C 
ATOM     26  O   UNL A   1      38.738  20.388  25.421  1.00  0.00    -0.246 OA
BRANCH  25  27
ATOM     27  C   UNL A   1      38.796  22.526  26.443  1.00  0.00     0.060 A 
ATOM     28  C   UNL A   1      38.201  23.780  26.437  1.00  0.00     0.016 A 
ATOM     29  C   UNL A   1      40.046  22.352  27.032  1.00  0.00     0.016 A 
ATOM     30  C   UNL A   1      38.933  24.884  26.857  1.00  0.00     0.010 A 
ATOM     31  C   UNL A   1      40.712  23.456  27.588  1.00  0.00     0.010 A 
ATOM     32  C   UNL A   1      40.205  24.760  27.441  1.00  0.00    -0.014 A 
BRANCH  32  33
ATOM     33  C   UNL A   1      41.017  25.977  27.802  1.00  0.00     0.031 A 
ATOM     34  C   UNL A   1      40.457  27.038  28.731  1.00  0.00     0.074 A 
ATOM     35  C   UNL A   1      42.292  26.130  27.381  1.00  0.00     0.049 A 
ATOM     36  N   UNL A   1      40.897  28.253  28.958  1.00  0.00    -0.248 NA
ATOM     37  C   UNL A   1      39.231  26.711  29.474  1.00  0.00     0.031 C 
ATOM     38  C   UNL A   1      43.031  25.189  26.539  1.00  0.00     0.029 A 
ATOM     39  N   UNL A   1      43.221  27.112  27.652  1.00  0.00    -0.354 N 
ATOM     40  C   UNL A   1      39.933  28.872  29.749  1.00  0.00     0.074 A 
ATOM     41  C   UNL A   1      38.901  27.887  29.992  1.00  0.00     0.031 C 
ATOM     42  C   UNL A   1      44.313  25.566  26.465  1.00  0.00     0.029 A 
ATOM     43  C   UNL A   1      44.451  26.879  27.082  1.00  0.00     0.049 A 
ATOM     44  H   UNL A   1      43.022  27.904  28.203  1.00  0.00     0.167 HD
ATOM     45  C   UNL A   1      39.908  30.142  30.224  1.00  0.00     0.034 A 
ATOM     46  C   UNL A   1      45.550  27.653  26.974  1.00  0.00     0.034 A 
ATOM     47  C   UNL A   1      41.005  31.071  30.108  1.00  0.00     0.049 A 
ATOM     48  C   UNL A   1      45.517  29.047  27.524  1.00  0.00     0.074 A 
ATOM     49  C   UNL A   1      41.091  32.366  30.591  1.00  0.00     0.029 A 
ATOM     50  N   UNL A   1      42.220  30.795  29.500  1.00  0.00    -0.354 N 
ATOM     51  N   UNL A   1      44.568  29.645  28.199  1.00  0.00    -0.248 NA
ATOM     52  C   UNL A   1      46.701  29.884  27.278  1.00  0.00     0.031 C 
ATOM     53  C   UNL A   1      42.348  32.880  30.254  1.00  0.00     0.029 A 
ATOM     54  C   UNL A   1      43.060  31.893  29.593  1.00  0.00     0.049 A 
ATOM     55  H   UNL A   1      42.453  29.941  29.065  1.00  0.00     0.167 HD
ATOM     56  C   UNL A   1      45.036  30.925  28.459  1.00  0.00     0.074 A 
ATOM     57  C   UNL A   1      46.372  31.004  27.905  1.00  0.00     0.031 C 
ATOM     58  C   UNL A   1      44.403  31.952  29.077  1.00  0.00     0.034 A 
BRANCH  45  59
ATOM     59  C   UNL A   1      38.651  30.626  30.910  1.00  0.00     0.023 A 
ATOM     60  C   UNL A   1      38.505  30.525  32.306  1.00  0.00     0.012 A 
ATOM     61  C   UNL A   1      37.634  31.255  30.158  1.00  0.00     0.148 A 
ATOM     62  C   UNL A   1      37.354  31.003  32.938  1.00  0.00     0.002 A 
ATOM     63  C   UNL A   1      36.516  31.776  30.800  1.00  0.00     0.091 A 
ATOM     64  F   UNL A   1      37.780  31.335  28.827  1.00  0.00    -0.205 F 
ATOM     65  C   UNL A   1      36.368  31.638  32.188  1.00  0.00     0.022 A 
BRANCH  63  66
ATOM     66  S   UNL A   1      35.240  32.697  29.929  1.00  0.00     0.127 S 
ATOM     67  O   UNL A   1      35.999  33.829  29.401  1.00  0.00    -0.237 OA
ATOM     68  O   UNL A   1      34.800  31.735  28.919  1.00  0.00    -0.237 OA
ATOM     69  O   UNL A   1      34.232  33.030  30.927  1.00  0.00    -0.744 OA
ENDBRANCH  63  66
ENDBRANCH  45  59
BRANCH  46  70
ATOM     70  C   UNL A   1      46.745  27.138  26.241  1.00  0.00     0.023 A 
ATOM     71  C   UNL A   1      46.877  27.362  24.858  1.00  0.00     0.012 A 
ATOM     72  C   UNL A   1      47.786  26.485  26.932  1.00  0.00     0.148 A 
ATOM     73  C   UNL A   1      48.025  26.945  24.180  1.00  0.00     0.002 A 
ATOM     74  C   UNL A   1      48.960  26.157  26.270  1.00  0.00     0.091 A 
ATOM     75  F   UNL A   1      47.624  26.236  28.240  1.00  0.00    -0.205 F 
ATOM     76  C   UNL A   1      49.075  26.366  24.889  1.00  0.00     0.022 A 
BRANCH  74  77
ATOM     77  S   UNL A   1      50.423  25.604  27.153  1.00  0.00     0.127 S 
ATOM     78  O   UNL A   1      49.998  24.298  27.650  1.00  0.00    -0.237 OA
ATOM     79  O   UNL A   1      51.424  25.563  26.087  1.00  0.00    -0.237 OA
ATOM     80  O   UNL A   1      50.676  26.620  28.166  1.00  0.00    -0.744 OA
ENDBRANCH  74  77
ENDBRANCH  46  70
BRANCH  58  81
ATOM     81  C   UNL A   1      45.164  33.244  29.225  1.00  0.00     0.023 A 
ATOM     82  C   UNL A   1      46.007  33.440  30.338  1.00  0.00     0.012 A 
ATOM     83  C   UNL A   1      45.075  34.246  28.240  1.00  0.00     0.148 A 
ATOM     84  C   UNL A   1      46.718  34.631  30.486  1.00  0.00     0.002 A 
ATOM     85  C   UNL A   1      45.823  35.409  28.370  1.00  0.00     0.091 A 
ATOM     86  F   UNL A   1      44.252  34.047  27.200  1.00  0.00    -0.205 F 
ATOM     87  C   UNL A   1      46.635  35.609  29.498  1.00  0.00     0.022 A 
BRANCH  85  88
ATOM     88  S   UNL A   1      45.846  36.687  27.108  1.00  0.00     0.127 S 
ATOM     89  O   UNL A   1      46.806  37.639  27.667  1.00  0.00    -0.237 OA
ATOM     90  O   UNL A   1      46.327  35.955  25.936  1.00  0.00    -0.237 OA
ATOM     91  O   UNL A   1      44.477  37.173  27.000  1.00  0.00    -0.744 OA
ENDBRANCH  85  88
ENDBRANCH  58  81
ENDBRANCH  32  33
ENDBRANCH  25  27
ENDBRANCH  24  25
ENDBRANCH   1  24
TORSDOF 16
ENDMDL
