MODEL 1
REMARK VINA RESULT:     -10.4      0.000      0.000
REMARK SMILES CCn1nc(C)c2nc(SCC(=O)OCCOC(=O)c3ccc(-c4c5nc(c(-c6cccc(S(=O)(=O)[O-])c6F)c6ccc([nH]6)c(-c6cccc(S(=O)(=O)[O-])c6F)c6nc(c(-c7cccc(S(=O)(=O)[O-])c7F)c7ccc4[nH]7)C=C6)C=C5)cc3)n(CC3CC3)c21
REMARK SMILES IDX 15 1 14 2 12 3 13 4 11 5 10 6 9 7 3 8 4 9 88 10 5 11 7 12
REMARK SMILES IDX 83 13 6 14 8 15 2 16 1 17 84 18 85 19 86 20 87 21 16 22
REMARK SMILES IDX 17 23 18 24 19 25 20 26 21 27 82 28 22 29 81 30 23 31 24 32
REMARK SMILES IDX 25 33 75 34 26 35 80 36 74 37 76 38 27 39 79 40 73 41 72 42
REMARK SMILES IDX 28 44 60 45 40 46 59 47 41 48 44 49 58 50 77 51 42 52 43 53
REMARK SMILES IDX 57 55 78 56 45 57 29 58 30 59 38 60 31 61 33 62 39 63 32 64
REMARK SMILES IDX 34 65 35 66 36 67 37 68 61 69 62 70 70 71 63 72 65 73 71 74
REMARK SMILES IDX 64 75 66 76 67 77 68 78 69 79 46 80 47 81 55 82 48 83 50 84
REMARK SMILES IDX 56 85 49 86 51 87 52 88 53 89 54 90
REMARK H PARENT 76 43 44 54
REMARK Flexibility Score: inf
ROOT
ATOM      1  C   UNL A   1      37.471  20.552  25.104  1.00  0.00     0.274 C 
ENDROOT
BRANCH   1   2
ATOM      2  O   UNL A   1      36.284  21.075  25.728  1.00  0.00    -0.461 OA
BRANCH   2   3
ATOM      3  C   UNL A   1      35.157  21.145  24.979  1.00  0.00     0.316 C 
ATOM      4  O   UNL A   1      34.245  20.322  25.013  1.00  0.00    -0.251 OA
BRANCH   3   5
ATOM      5  C   UNL A   1      35.074  22.435  24.187  1.00  0.00     0.200 C 
BRANCH   5   6
ATOM      6  S   UNL A   1      35.283  23.940  25.152  1.00  0.00    -0.076 SA
BRANCH   6   7
ATOM      7  C   UNL A   1      33.803  24.483  25.898  1.00  0.00     0.170 A 
ATOM      8  N   UNL A   1      30.680  26.079  25.893  1.00  0.00    -0.247 N 
ATOM      9  N   UNL A   1      29.715  25.217  26.299  1.00  0.00    -0.174 NA
ATOM     10  C   UNL A   1      31.921  25.560  26.082  1.00  0.00     0.159 A 
ATOM     11  C   UNL A   1      30.385  24.088  26.613  1.00  0.00     0.087 A 
ATOM     12  C   UNL A   1      31.751  24.266  26.383  1.00  0.00     0.132 A 
ATOM     13  N   UNL A   1      33.268  25.758  25.973  1.00  0.00    -0.304 N 
ATOM     14  C   UNL A   1      29.640  22.909  27.091  1.00  0.00     0.071 C 
ATOM     15  N   UNL A   1      32.911  23.578  26.319  1.00  0.00    -0.219 NA
BRANCH   8  16
ATOM     16  C   UNL A   1      30.332  27.164  24.989  1.00  0.00     0.143 C 
ATOM     17  C   UNL A   1      30.970  26.935  23.624  1.00  0.00     0.029 C 
ENDBRANCH   8  16
BRANCH  13  18
ATOM     18  C   UNL A   1      33.842  27.080  25.841  1.00  0.00     0.130 C 
BRANCH  18  19
ATOM     19  C   UNL A   1      33.597  28.102  26.910  1.00  0.00     0.009 C 
ATOM     20  C   UNL A   1      34.462  29.327  27.035  1.00  0.00     0.006 C 
ATOM     21  C   UNL A   1      32.999  29.472  26.719  1.00  0.00     0.006 C 
ENDBRANCH  18  19
ENDBRANCH  13  18
ENDBRANCH   6   7
ENDBRANCH   5   6
ENDBRANCH   3   5
ENDBRANCH   2   3
ENDBRANCH   1   2
BRANCH   1  22
ATOM     22  C   UNL A   1      38.493  21.683  25.123  1.00  0.00     0.275 C 
BRANCH  22  23
ATOM     23  O   UNL A   1      38.635  22.290  26.420  1.00  0.00    -0.458 OA
BRANCH  23  24
ATOM     24  C   UNL A   1      39.889  22.241  26.939  1.00  0.00     0.338 C 
ATOM     25  O   UNL A   1      40.399  21.280  27.473  1.00  0.00    -0.246 OA
BRANCH  24  26
ATOM     26  C   UNL A   1      40.429  23.620  27.051  1.00  0.00     0.060 A 
ATOM     27  C   UNL A   1      41.577  23.779  27.824  1.00  0.00     0.016 A 
ATOM     28  C   UNL A   1      39.690  24.739  26.651  1.00  0.00     0.016 A 
ATOM     29  C   UNL A   1      41.812  25.004  28.423  1.00  0.00     0.010 A 
ATOM     30  C   UNL A   1      39.992  25.992  27.171  1.00  0.00     0.010 A 
ATOM     31  C   UNL A   1      40.974  26.104  28.151  1.00  0.00    -0.014 A 
BRANCH  31  32
ATOM     32  C   UNL A   1      41.276  27.381  28.823  1.00  0.00     0.031 A 
ATOM     33  C   UNL A   1      42.672  27.816  28.515  1.00  0.00     0.074 A 
ATOM     34  C   UNL A   1      40.402  28.080  29.590  1.00  0.00     0.049 A 
ATOM     35  N   UNL A   1      43.644  28.037  29.340  1.00  0.00    -0.248 NA
ATOM     36  C   UNL A   1      43.095  27.740  27.099  1.00  0.00     0.031 C 
ATOM     37  C   UNL A   1      38.976  27.793  29.796  1.00  0.00     0.029 A 
ATOM     38  N   UNL A   1      40.550  29.262  30.283  1.00  0.00    -0.354 N 
ATOM     39  C   UNL A   1      44.714  28.400  28.524  1.00  0.00     0.074 A 
ATOM     40  C   UNL A   1      44.405  27.951  27.195  1.00  0.00     0.031 C 
ATOM     41  C   UNL A   1      38.369  28.831  30.394  1.00  0.00     0.029 A 
ATOM     42  C   UNL A   1      39.328  29.895  30.544  1.00  0.00     0.049 A 
ATOM     43  H   UNL A   1      41.422  29.622  30.566  1.00  0.00     0.167 HD
ATOM     44  C   UNL A   1      45.591  29.363  28.909  1.00  0.00     0.034 A 
ATOM     45  C   UNL A   1      39.052  31.222  30.670  1.00  0.00     0.034 A 
ATOM     46  C   UNL A   1      45.627  29.517  30.332  1.00  0.00     0.049 A 
ATOM     47  C   UNL A   1      40.312  31.912  31.003  1.00  0.00     0.074 A 
ATOM     48  C   UNL A   1      45.928  28.684  31.389  1.00  0.00     0.029 A 
ATOM     49  N   UNL A   1      44.942  30.583  30.856  1.00  0.00    -0.354 N 
ATOM     50  N   UNL A   1      40.931  31.746  32.135  1.00  0.00    -0.248 NA
ATOM     51  C   UNL A   1      41.130  32.373  29.894  1.00  0.00     0.031 C 
ATOM     52  C   UNL A   1      45.036  29.067  32.428  1.00  0.00     0.029 A 
ATOM     53  C   UNL A   1      44.295  30.164  31.986  1.00  0.00     0.049 A 
ATOM     54  H   UNL A   1      44.919  31.494  30.482  1.00  0.00     0.167 HD
ATOM     55  C   UNL A   1      42.256  31.576  31.761  1.00  0.00     0.074 A 
ATOM     56  C   UNL A   1      42.333  32.064  30.384  1.00  0.00     0.031 C 
ATOM     57  C   UNL A   1      43.085  30.773  32.486  1.00  0.00     0.034 A 
BRANCH  44  58
ATOM     58  C   UNL A   1      46.060  30.437  27.959  1.00  0.00     0.023 A 
ATOM     59  C   UNL A   1      47.439  30.710  27.894  1.00  0.00     0.012 A 
ATOM     60  C   UNL A   1      45.189  31.362  27.331  1.00  0.00     0.148 A 
ATOM     61  C   UNL A   1      47.921  31.849  27.236  1.00  0.00     0.002 A 
ATOM     62  C   UNL A   1      45.674  32.434  26.598  1.00  0.00     0.091 A 
ATOM     63  F   UNL A   1      43.873  31.302  27.558  1.00  0.00    -0.205 F 
ATOM     64  C   UNL A   1      47.042  32.700  26.571  1.00  0.00     0.022 A 
BRANCH  62  65
ATOM     65  S   UNL A   1      44.572  33.517  25.681  1.00  0.00     0.127 S 
ATOM     66  O   UNL A   1      43.812  34.144  26.759  1.00  0.00    -0.237 OA
ATOM     67  O   UNL A   1      45.521  34.395  24.996  1.00  0.00    -0.237 OA
ATOM     68  O   UNL A   1      43.816  32.647  24.789  1.00  0.00    -0.744 OA
ENDBRANCH  62  65
ENDBRANCH  44  58
BRANCH  45  69
ATOM     69  C   UNL A   1      37.849  31.942  30.145  1.00  0.00     0.023 A 
ATOM     70  C   UNL A   1      37.478  31.835  28.789  1.00  0.00     0.012 A 
ATOM     71  C   UNL A   1      36.917  32.553  31.018  1.00  0.00     0.148 A 
ATOM     72  C   UNL A   1      36.237  32.316  28.334  1.00  0.00     0.002 A 
ATOM     73  C   UNL A   1      35.710  33.067  30.558  1.00  0.00     0.091 A 
ATOM     74  F   UNL A   1      37.139  32.541  32.337  1.00  0.00    -0.205 F 
ATOM     75  C   UNL A   1      35.355  32.939  29.217  1.00  0.00     0.022 A 
BRANCH  73  76
ATOM     76  S   UNL A   1      34.569  33.874  31.692  1.00  0.00     0.127 S 
ATOM     77  O   UNL A   1      34.102  32.757  32.514  1.00  0.00    -0.237 OA
ATOM     78  O   UNL A   1      35.444  34.819  32.379  1.00  0.00    -0.237 OA
ATOM     79  O   UNL A   1      33.531  34.461  30.850  1.00  0.00    -0.744 OA
ENDBRANCH  73  76
ENDBRANCH  45  69
BRANCH  57  80
ATOM     80  C   UNL A   1      42.620  30.309  33.842  1.00  0.00     0.023 A 
ATOM     81  C   UNL A   1      42.027  29.049  34.067  1.00  0.00     0.012 A 
ATOM     82  C   UNL A   1      42.967  31.107  34.944  1.00  0.00     0.148 A 
ATOM     83  C   UNL A   1      41.778  28.604  35.370  1.00  0.00     0.002 A 
ATOM     84  C   UNL A   1      42.757  30.645  36.235  1.00  0.00     0.091 A 
ATOM     85  F   UNL A   1      43.532  32.300  34.705  1.00  0.00    -0.205 F 
ATOM     86  C   UNL A   1      42.156  29.396  36.455  1.00  0.00     0.022 A 
BRANCH  84  87
ATOM     87  S   UNL A   1      43.340  31.572  37.655  1.00  0.00     0.127 S 
ATOM     88  O   UNL A   1      42.212  31.455  38.578  1.00  0.00    -0.237 OA
ATOM     89  O   UNL A   1      44.536  30.829  38.050  1.00  0.00    -0.237 OA
ATOM     90  O   UNL A   1      43.614  32.920  37.168  1.00  0.00    -0.744 OA
ENDBRANCH  84  87
ENDBRANCH  57  80
ENDBRANCH  31  32
ENDBRANCH  24  26
ENDBRANCH  23  24
ENDBRANCH  22  23
ENDBRANCH   1  22
TORSDOF 19
ENDMDL
MODEL 2
REMARK VINA RESULT:     -10.3      2.439      3.763
REMARK SMILES CCn1nc(C)c2nc(SCC(=O)OCCOC(=O)c3ccc(-c4c5nc(c(-c6cccc(S(=O)(=O)[O-])c6F)c6ccc([nH]6)c(-c6cccc(S(=O)(=O)[O-])c6F)c6nc(c(-c7cccc(S(=O)(=O)[O-])c7F)c7ccc4[nH]7)C=C6)C=C5)cc3)n(CC3CC3)c21
REMARK SMILES IDX 15 1 14 2 12 3 13 4 11 5 10 6 9 7 3 8 4 9 88 10 5 11 7 12
REMARK SMILES IDX 83 13 6 14 8 15 2 16 1 17 84 18 85 19 86 20 87 21 16 22
REMARK SMILES IDX 17 23 18 24 19 25 20 26 21 27 82 28 22 29 81 30 23 31 24 32
REMARK SMILES IDX 25 33 75 34 26 35 80 36 74 37 76 38 27 39 79 40 73 41 72 42
REMARK SMILES IDX 28 44 60 45 40 46 59 47 41 48 44 49 58 50 77 51 42 52 43 53
REMARK SMILES IDX 57 55 78 56 45 57 29 58 30 59 38 60 31 61 33 62 39 63 32 64
REMARK SMILES IDX 34 65 35 66 36 67 37 68 61 69 62 70 70 71 63 72 65 73 71 74
REMARK SMILES IDX 64 75 66 76 67 77 68 78 69 79 46 80 47 81 55 82 48 83 50 84
REMARK SMILES IDX 56 85 49 86 51 87 52 88 53 89 54 90
REMARK H PARENT 76 43 44 54
REMARK Flexibility Score: inf
ROOT
ATOM      1  C   UNL A   1      39.900  21.084  26.494  1.00  0.00     0.274 C 
ENDROOT
BRANCH   1   2
ATOM      2  O   UNL A   1      39.137  21.816  25.518  1.00  0.00    -0.461 OA
BRANCH   2   3
ATOM      3  C   UNL A   1      37.884  21.381  25.240  1.00  0.00     0.316 C 
ATOM      4  O   UNL A   1      37.567  20.200  25.119  1.00  0.00    -0.251 OA
BRANCH   3   5
ATOM      5  C   UNL A   1      36.873  22.511  25.232  1.00  0.00     0.200 C 
BRANCH   5   6
ATOM      6  S   UNL A   1      36.225  22.946  23.609  1.00  0.00    -0.076 SA
BRANCH   6   7
ATOM      7  C   UNL A   1      34.619  23.622  23.676  1.00  0.00     0.170 A 
ATOM      8  N   UNL A   1      31.582  24.362  25.265  1.00  0.00    -0.247 N 
ATOM      9  N   UNL A   1      31.357  25.699  25.243  1.00  0.00    -0.174 NA
ATOM     10  C   UNL A   1      32.638  24.023  24.482  1.00  0.00     0.159 A 
ATOM     11  C   UNL A   1      32.392  26.201  24.536  1.00  0.00     0.087 A 
ATOM     12  C   UNL A   1      33.246  25.167  24.145  1.00  0.00     0.132 A 
ATOM     13  N   UNL A   1      33.417  23.013  23.994  1.00  0.00    -0.304 N 
ATOM     14  C   UNL A   1      32.485  27.655  24.315  1.00  0.00     0.071 C 
ATOM     15  N   UNL A   1      34.463  24.949  23.602  1.00  0.00    -0.219 NA
BRANCH   8  16
ATOM     16  C   UNL A   1      31.022  23.564  26.345  1.00  0.00     0.143 C 
ATOM     17  C   UNL A   1      32.141  22.973  27.196  1.00  0.00     0.029 C 
ENDBRANCH   8  16
BRANCH  13  18
ATOM     18  C   UNL A   1      32.980  21.633  24.001  1.00  0.00     0.130 C 
BRANCH  18  19
ATOM     19  C   UNL A   1      33.559  20.679  25.003  1.00  0.00     0.009 C 
ATOM     20  C   UNL A   1      32.886  19.370  25.317  1.00  0.00     0.006 C 
ATOM     21  C   UNL A   1      34.257  19.378  24.701  1.00  0.00     0.006 C 
ENDBRANCH  18  19
ENDBRANCH  13  18
ENDBRANCH   6   7
ENDBRANCH   5   6
ENDBRANCH   3   5
ENDBRANCH   2   3
ENDBRANCH   1   2
BRANCH   1  22
ATOM     22  C   UNL A   1      40.604  22.129  27.351  1.00  0.00     0.275 C 
BRANCH  22  23
ATOM     23  O   UNL A   1      39.890  23.377  27.415  1.00  0.00    -0.458 OA
BRANCH  23  24
ATOM     24  C   UNL A   1      40.587  24.456  26.979  1.00  0.00     0.338 C 
ATOM     25  O   UNL A   1      41.424  24.454  26.101  1.00  0.00    -0.246 OA
BRANCH  24  26
ATOM     26  C   UNL A   1      40.418  25.575  27.942  1.00  0.00     0.060 A 
ATOM     27  C   UNL A   1      39.393  26.478  27.675  1.00  0.00     0.016 A 
ATOM     28  C   UNL A   1      41.392  25.879  28.900  1.00  0.00     0.016 A 
ATOM     29  C   UNL A   1      39.507  27.775  28.146  1.00  0.00     0.010 A 
ATOM     30  C   UNL A   1      41.445  27.152  29.455  1.00  0.00     0.010 A 
ATOM     31  C   UNL A   1      40.579  28.135  28.987  1.00  0.00    -0.014 A 
BRANCH  31  32
ATOM     32  C   UNL A   1      40.646  29.533  29.453  1.00  0.00     0.031 A 
ATOM     33  C   UNL A   1      41.982  30.124  29.138  1.00  0.00     0.074 A 
ATOM     34  C   UNL A   1      39.631  30.200  30.057  1.00  0.00     0.049 A 
ATOM     35  N   UNL A   1      42.855  30.618  29.956  1.00  0.00    -0.248 NA
ATOM     36  C   UNL A   1      42.505  29.895  27.772  1.00  0.00     0.031 C 
ATOM     37  C   UNL A   1      38.251  29.733  30.246  1.00  0.00     0.029 A 
ATOM     38  N   UNL A   1      39.560  31.484  30.552  1.00  0.00    -0.354 N 
ATOM     39  C   UNL A   1      43.913  31.010  29.138  1.00  0.00     0.074 A 
ATOM     40  C   UNL A   1      43.762  30.317  27.889  1.00  0.00     0.031 C 
ATOM     41  C   UNL A   1      37.461  30.745  30.638  1.00  0.00     0.029 A 
ATOM     42  C   UNL A   1      38.244  31.954  30.653  1.00  0.00     0.049 A 
ATOM     43  H   UNL A   1      40.349  32.013  30.809  1.00  0.00     0.167 HD
ATOM     44  C   UNL A   1      44.613  32.145  29.397  1.00  0.00     0.034 A 
ATOM     45  C   UNL A   1      37.770  33.226  30.547  1.00  0.00     0.034 A 
ATOM     46  C   UNL A   1      44.531  32.522  30.776  1.00  0.00     0.049 A 
ATOM     47  C   UNL A   1      38.891  34.145  30.816  1.00  0.00     0.074 A 
ATOM     48  C   UNL A   1      44.878  31.920  31.967  1.00  0.00     0.029 A 
ATOM     49  N   UNL A   1      43.664  33.538  31.087  1.00  0.00    -0.354 N 
ATOM     50  N   UNL A   1      39.451  34.255  31.986  1.00  0.00    -0.248 NA
ATOM     51  C   UNL A   1      39.707  34.548  29.682  1.00  0.00     0.031 C 
ATOM     52  C   UNL A   1      43.872  32.318  32.890  1.00  0.00     0.029 A 
ATOM     53  C   UNL A   1      43.011  33.206  32.242  1.00  0.00     0.049 A 
ATOM     54  H   UNL A   1      43.535  34.365  30.569  1.00  0.00     0.167 HD
ATOM     55  C   UNL A   1      40.809  34.234  31.702  1.00  0.00     0.074 A 
ATOM     56  C   UNL A   1      40.906  34.508  30.268  1.00  0.00     0.031 C 
ATOM     57  C   UNL A   1      41.695  33.691  32.583  1.00  0.00     0.034 A 
BRANCH  44  58
ATOM     58  C   UNL A   1      44.984  33.117  28.305  1.00  0.00     0.023 A 
ATOM     59  C   UNL A   1      43.950  33.674  27.532  1.00  0.00     0.012 A 
ATOM     60  C   UNL A   1      46.310  33.301  27.837  1.00  0.00     0.148 A 
ATOM     61  C   UNL A   1      44.226  34.377  26.351  1.00  0.00     0.002 A 
ATOM     62  C   UNL A   1      46.585  34.079  26.725  1.00  0.00     0.091 A 
ATOM     63  F   UNL A   1      47.312  32.602  28.379  1.00  0.00    -0.205 F 
ATOM     64  C   UNL A   1      45.544  34.598  25.958  1.00  0.00     0.022 A 
BRANCH  62  65
ATOM     65  S   UNL A   1      48.275  34.431  26.223  1.00  0.00     0.127 S 
ATOM     66  O   UNL A   1      48.762  33.099  25.877  1.00  0.00    -0.237 OA
ATOM     67  O   UNL A   1      48.066  35.332  25.090  1.00  0.00    -0.237 OA
ATOM     68  O   UNL A   1      48.905  35.062  27.376  1.00  0.00    -0.744 OA
ENDBRANCH  62  65
ENDBRANCH  44  58
BRANCH  45  69
ATOM     69  C   UNL A   1      36.513  33.661  29.861  1.00  0.00     0.023 A 
ATOM     70  C   UNL A   1      36.138  33.105  28.620  1.00  0.00     0.012 A 
ATOM     71  C   UNL A   1      35.548  34.456  30.524  1.00  0.00     0.148 A 
ATOM     72  C   UNL A   1      34.862  33.335  28.076  1.00  0.00     0.002 A 
ATOM     73  C   UNL A   1      34.303  34.717  29.964  1.00  0.00     0.091 A 
ATOM     74  F   UNL A   1      35.783  34.879  31.771  1.00  0.00    -0.205 F 
ATOM     75  C   UNL A   1      33.945  34.146  28.744  1.00  0.00     0.022 A 
BRANCH  73  76
ATOM     76  S   UNL A   1      33.117  35.766  30.820  1.00  0.00     0.127 S 
ATOM     77  O   UNL A   1      32.159  36.084  29.761  1.00  0.00    -0.237 OA
ATOM     78  O   UNL A   1      32.613  34.869  31.856  1.00  0.00    -0.237 OA
ATOM     79  O   UNL A   1      33.882  36.917  31.289  1.00  0.00    -0.744 OA
ENDBRANCH  73  76
ENDBRANCH  45  69
BRANCH  57  80
ATOM     80  C   UNL A   1      41.213  33.379  33.976  1.00  0.00     0.023 A 
ATOM     81  C   UNL A   1      41.119  34.349  34.997  1.00  0.00     0.012 A 
ATOM     82  C   UNL A   1      40.669  32.104  34.194  1.00  0.00     0.148 A 
ATOM     83  C   UNL A   1      40.500  34.041  36.214  1.00  0.00     0.002 A 
ATOM     84  C   UNL A   1      40.019  31.815  35.386  1.00  0.00     0.091 A 
ATOM     85  F   UNL A   1      40.768  31.200  33.208  1.00  0.00    -0.205 F 
ATOM     86  C   UNL A   1      39.938  32.778  36.403  1.00  0.00     0.022 A 
BRANCH  84  87
ATOM     87  S   UNL A   1      39.175  30.251  35.623  1.00  0.00     0.127 S 
ATOM     88  O   UNL A   1      38.288  30.552  36.746  1.00  0.00    -0.237 OA
ATOM     89  O   UNL A   1      38.499  30.057  34.341  1.00  0.00    -0.237 OA
ATOM     90  O   UNL A   1      40.219  29.270  35.896  1.00  0.00    -0.744 OA
ENDBRANCH  84  87
ENDBRANCH  57  80
ENDBRANCH  31  32
ENDBRANCH  24  26
ENDBRANCH  23  24
ENDBRANCH  22  23
ENDBRANCH   1  22
TORSDOF 19
ENDMDL
MODEL 3
REMARK VINA RESULT:     -10.2      4.096      9.561
REMARK SMILES CCn1nc(C)c2nc(SCC(=O)OCCOC(=O)c3ccc(-c4c5nc(c(-c6cccc(S(=O)(=O)[O-])c6F)c6ccc([nH]6)c(-c6cccc(S(=O)(=O)[O-])c6F)c6nc(c(-c7cccc(S(=O)(=O)[O-])c7F)c7ccc4[nH]7)C=C6)C=C5)cc3)n(CC3CC3)c21
REMARK SMILES IDX 15 1 14 2 12 3 13 4 11 5 10 6 9 7 3 8 4 9 88 10 5 11 7 12
REMARK SMILES IDX 83 13 6 14 8 15 2 16 1 17 84 18 85 19 86 20 87 21 16 22
REMARK SMILES IDX 17 23 18 24 19 25 20 26 21 27 82 28 22 29 81 30 23 31 24 32
REMARK SMILES IDX 25 33 75 34 26 35 80 36 74 37 76 38 27 39 79 40 73 41 72 42
REMARK SMILES IDX 28 44 60 45 40 46 59 47 41 48 44 49 58 50 77 51 42 52 43 53
REMARK SMILES IDX 57 55 78 56 45 57 29 58 30 59 38 60 31 61 33 62 39 63 32 64
REMARK SMILES IDX 34 65 35 66 36 67 37 68 61 69 62 70 70 71 63 72 65 73 71 74
REMARK SMILES IDX 64 75 66 76 67 77 68 78 69 79 46 80 47 81 55 82 48 83 50 84
REMARK SMILES IDX 56 85 49 86 51 87 52 88 53 89 54 90
REMARK H PARENT 76 43 44 54
REMARK Flexibility Score: inf
ROOT
ATOM      1  C   UNL A   1      34.362  31.566  27.635  1.00  0.00     0.274 C 
ENDROOT
BRANCH   1   2
ATOM      2  O   UNL A   1      33.718  30.302  27.874  1.00  0.00    -0.461 OA
BRANCH   2   3
ATOM      3  C   UNL A   1      33.116  29.691  26.824  1.00  0.00     0.316 C 
ATOM      4  O   UNL A   1      33.123  30.117  25.672  1.00  0.00    -0.251 OA
BRANCH   3   5
ATOM      5  C   UNL A   1      32.543  28.339  27.200  1.00  0.00     0.200 C 
BRANCH   5   6
ATOM      6  S   UNL A   1      31.325  27.678  26.051  1.00  0.00    -0.076 SA
BRANCH   6   7
ATOM      7  C   UNL A   1      31.408  25.943  25.892  1.00  0.00     0.170 A 
ATOM      8  N   UNL A   1      32.697  22.965  24.562  1.00  0.00    -0.247 N 
ATOM      9  N   UNL A   1      33.154  22.167  25.560  1.00  0.00    -0.174 NA
ATOM     10  C   UNL A   1      32.007  24.027  25.052  1.00  0.00     0.159 A 
ATOM     11  C   UNL A   1      32.851  22.840  26.691  1.00  0.00     0.087 A 
ATOM     12  C   UNL A   1      32.225  24.047  26.373  1.00  0.00     0.132 A 
ATOM     13  N   UNL A   1      31.291  25.153  24.761  1.00  0.00    -0.304 N 
ATOM     14  C   UNL A   1      33.218  22.266  27.998  1.00  0.00     0.071 C 
ATOM     15  N   UNL A   1      31.825  25.209  26.931  1.00  0.00    -0.219 NA
BRANCH   8  16
ATOM     16  C   UNL A   1      33.297  22.866  23.241  1.00  0.00     0.143 C 
ATOM     17  C   UNL A   1      32.518  21.873  22.384  1.00  0.00     0.029 C 
ENDBRANCH   8  16
BRANCH  13  18
ATOM     18  C   UNL A   1      30.708  25.376  23.456  1.00  0.00     0.130 C 
BRANCH  18  19
ATOM     19  C   UNL A   1      31.399  26.284  22.482  1.00  0.00     0.009 C 
ATOM     20  C   UNL A   1      32.901  26.345  22.400  1.00  0.00     0.006 C 
ATOM     21  C   UNL A   1      32.105  25.869  21.217  1.00  0.00     0.006 C 
ENDBRANCH  18  19
ENDBRANCH  13  18
ENDBRANCH   6   7
ENDBRANCH   5   6
ENDBRANCH   3   5
ENDBRANCH   2   3
ENDBRANCH   1   2
BRANCH   1  22
ATOM     22  C   UNL A   1      34.923  32.017  28.978  1.00  0.00     0.275 C 
BRANCH  22  23
ATOM     23  O   UNL A   1      36.321  31.707  29.134  1.00  0.00    -0.458 OA
BRANCH  23  24
ATOM     24  C   UNL A   1      36.585  30.668  29.966  1.00  0.00     0.338 C 
ATOM     25  O   UNL A   1      36.232  30.577  31.122  1.00  0.00    -0.246 OA
BRANCH  24  26
ATOM     26  C   UNL A   1      37.639  29.811  29.365  1.00  0.00     0.060 A 
ATOM     27  C   UNL A   1      37.676  28.483  29.782  1.00  0.00     0.016 A 
ATOM     28  C   UNL A   1      38.710  30.352  28.644  1.00  0.00     0.016 A 
ATOM     29  C   UNL A   1      38.879  27.801  29.730  1.00  0.00     0.010 A 
ATOM     30  C   UNL A   1      39.885  29.625  28.498  1.00  0.00     0.010 A 
ATOM     31  C   UNL A   1      40.013  28.400  29.146  1.00  0.00    -0.014 A 
BRANCH  31  32
ATOM     32  C   UNL A   1      41.266  27.623  29.124  1.00  0.00     0.031 A 
ATOM     33  C   UNL A   1      42.101  27.944  30.321  1.00  0.00     0.074 A 
ATOM     34  C   UNL A   1      41.604  26.721  28.168  1.00  0.00     0.049 A 
ATOM     35  N   UNL A   1      43.302  28.425  30.357  1.00  0.00    -0.248 NA
ATOM     36  C   UNL A   1      41.406  27.972  31.628  1.00  0.00     0.031 C 
ATOM     37  C   UNL A   1      40.763  26.244  27.063  1.00  0.00     0.029 A 
ATOM     38  N   UNL A   1      42.733  25.947  28.013  1.00  0.00    -0.354 N 
ATOM     39  C   UNL A   1      43.588  28.541  31.717  1.00  0.00     0.074 A 
ATOM     40  C   UNL A   1      42.334  28.507  32.417  1.00  0.00     0.031 C 
ATOM     41  C   UNL A   1      41.320  25.171  26.477  1.00  0.00     0.029 A 
ATOM     42  C   UNL A   1      42.514  24.823  27.205  1.00  0.00     0.049 A 
ATOM     43  H   UNL A   1      43.601  26.160  28.425  1.00  0.00     0.167 HD
ATOM     44  C   UNL A   1      44.831  28.275  32.194  1.00  0.00     0.034 A 
ATOM     45  C   UNL A   1      43.109  23.600  27.245  1.00  0.00     0.034 A 
ATOM     46  C   UNL A   1      45.836  28.426  31.186  1.00  0.00     0.049 A 
ATOM     47  C   UNL A   1      44.402  23.754  27.937  1.00  0.00     0.074 A 
ATOM     48  C   UNL A   1      46.259  29.469  30.388  1.00  0.00     0.029 A 
ATOM     49  N   UNL A   1      46.315  27.276  30.613  1.00  0.00    -0.354 N 
ATOM     50  N   UNL A   1      45.397  24.426  27.434  1.00  0.00    -0.248 NA
ATOM     51  C   UNL A   1      44.406  23.602  29.382  1.00  0.00     0.031 C 
ATOM     52  C   UNL A   1      46.598  28.869  29.144  1.00  0.00     0.029 A 
ATOM     53  C   UNL A   1      46.446  27.487  29.269  1.00  0.00     0.049 A 
ATOM     54  H   UNL A   1      46.527  26.440  31.089  1.00  0.00     0.167 HD
ATOM     55  C   UNL A   1      45.840  25.199  28.497  1.00  0.00     0.074 A 
ATOM     56  C   UNL A   1      45.257  24.583  29.690  1.00  0.00     0.031 C 
ATOM     57  C   UNL A   1      46.372  26.434  28.283  1.00  0.00     0.034 A 
BRANCH  44  58
ATOM     58  C   UNL A   1      45.045  27.459  33.445  1.00  0.00     0.023 A 
ATOM     59  C   UNL A   1      45.903  27.973  34.435  1.00  0.00     0.012 A 
ATOM     60  C   UNL A   1      44.654  26.103  33.572  1.00  0.00     0.148 A 
ATOM     61  C   UNL A   1      46.348  27.172  35.494  1.00  0.00     0.002 A 
ATOM     62  C   UNL A   1      45.016  25.343  34.673  1.00  0.00     0.091 A 
ATOM     63  F   UNL A   1      44.048  25.484  32.554  1.00  0.00    -0.205 F 
ATOM     64  C   UNL A   1      45.889  25.864  35.626  1.00  0.00     0.022 A 
BRANCH  62  65
ATOM     65  S   UNL A   1      44.396  23.672  34.902  1.00  0.00     0.127 S 
ATOM     66  O   UNL A   1      42.955  23.876  34.797  1.00  0.00    -0.237 OA
ATOM     67  O   UNL A   1      45.010  22.970  33.775  1.00  0.00    -0.237 OA
ATOM     68  O   UNL A   1      44.887  23.245  36.208  1.00  0.00    -0.744 OA
ENDBRANCH  62  65
ENDBRANCH  44  58
BRANCH  45  69
ATOM     69  C   UNL A   1      42.444  22.272  27.058  1.00  0.00     0.023 A 
ATOM     70  C   UNL A   1      41.052  22.130  27.233  1.00  0.00     0.012 A 
ATOM     71  C   UNL A   1      43.132  21.179  26.477  1.00  0.00     0.148 A 
ATOM     72  C   UNL A   1      40.387  20.953  26.845  1.00  0.00     0.002 A 
ATOM     73  C   UNL A   1      42.478  20.001  26.135  1.00  0.00     0.091 A 
ATOM     74  F   UNL A   1      44.419  21.311  26.139  1.00  0.00    -0.205 F 
ATOM     75  C   UNL A   1      41.100  19.885  26.302  1.00  0.00     0.022 A 
BRANCH  73  76
ATOM     76  S   UNL A   1      43.394  18.618  25.436  1.00  0.00     0.127 S 
ATOM     77  O   UNL A   1      42.534  17.479  25.760  1.00  0.00    -0.237 OA
ATOM     78  O   UNL A   1      43.439  18.970  24.020  1.00  0.00    -0.237 OA
ATOM     79  O   UNL A   1      44.676  18.607  26.133  1.00  0.00    -0.744 OA
ENDBRANCH  73  76
ENDBRANCH  45  69
BRANCH  57  80
ATOM     80  C   UNL A   1      46.731  26.821  26.872  1.00  0.00     0.023 A 
ATOM     81  C   UNL A   1      45.794  27.334  25.949  1.00  0.00     0.012 A 
ATOM     82  C   UNL A   1      48.094  26.831  26.537  1.00  0.00     0.148 A 
ATOM     83  C   UNL A   1      46.217  27.840  24.715  1.00  0.00     0.002 A 
ATOM     84  C   UNL A   1      48.514  27.371  25.330  1.00  0.00     0.091 A 
ATOM     85  F   UNL A   1      48.965  26.340  27.431  1.00  0.00    -0.205 F 
ATOM     86  C   UNL A   1      47.579  27.871  24.412  1.00  0.00     0.022 A 
BRANCH  84  87
ATOM     87  S   UNL A   1      50.258  27.546  24.952  1.00  0.00     0.127 S 
ATOM     88  O   UNL A   1      50.707  26.155  24.942  1.00  0.00    -0.237 OA
ATOM     89  O   UNL A   1      50.235  28.194  23.641  1.00  0.00    -0.237 OA
ATOM     90  O   UNL A   1      50.817  28.376  26.014  1.00  0.00    -0.744 OA
ENDBRANCH  84  87
ENDBRANCH  57  80
ENDBRANCH  31  32
ENDBRANCH  24  26
ENDBRANCH  23  24
ENDBRANCH  22  23
ENDBRANCH   1  22
TORSDOF 19
ENDMDL
