MODEL 1
REMARK VINA RESULT:     -13.6      0.000      0.000
REMARK SMILES Cc1ccc(C(=O)N2C[C@@H](C(=O)OCCOC(=O)c3ccc(-c4c5nc(c(-c6cccc(S(=O)(=O)[O-])c6F)c6ccc([nH]6)c(-c6cccc(S(=O)(=O)[O-])c6F)c6nc(c(-c7cccc(S(=O)(=O)[O-])c7F)c7ccc4[nH]7)C=C6)C=C5)cc3)C[C@H](C(=O)N3CCOCC3)C2)cc1F
REMARK SMILES IDX 15 1 14 2 13 3 11 4 12 5 10 6 8 7 9 8 92 9 83 10 82 11 6 12
REMARK SMILES IDX 7 13 5 14 1 15 2 16 3 17 94 18 4 19 93 20 95 21 84 22 85 23
REMARK SMILES IDX 86 24 87 25 91 26 88 27 90 28 89 29 16 30 17 31 18 32 19 33
REMARK SMILES IDX 20 34 81 35 21 36 80 37 22 38 23 39 24 40 74 41 25 42 79 43
REMARK SMILES IDX 73 44 75 45 26 46 78 47 72 48 71 49 27 51 59 52 39 53 58 54
REMARK SMILES IDX 40 55 43 56 57 57 76 58 41 59 42 60 56 62 77 63 44 64 28 65
REMARK SMILES IDX 29 66 37 67 30 68 32 69 38 70 31 71 33 72 34 73 35 74 36 75
REMARK SMILES IDX 60 76 61 77 69 78 62 79 64 80 70 81 63 82 65 83 66 84 67 85
REMARK SMILES IDX 68 86 45 87 46 88 54 89 47 90 49 91 55 92 48 93 50 94 51 95
REMARK SMILES IDX 52 96 53 97
REMARK H PARENT 75 50 43 61
REMARK Flexibility Score: inf
ROOT
ATOM      1  C   UNL A   1      39.572  20.971  26.136  1.00  0.00     0.275 C 
ENDROOT
BRANCH   1   2
ATOM      2  C   UNL A   1      38.369  21.308  25.244  1.00  0.00     0.274 C 
BRANCH   2   3
ATOM      3  O   UNL A   1      37.211  21.780  25.969  1.00  0.00    -0.462 OA
BRANCH   3   4
ATOM      4  C   UNL A   1      36.472  22.747  25.362  1.00  0.00     0.310 C 
ATOM      5  O   UNL A   1      36.832  23.914  25.229  1.00  0.00    -0.252 OA
BRANCH   4   6
ATOM      6  C   UNL A   1      35.096  22.279  24.924  1.00  0.00     0.119 C 
ATOM      7  N   UNL A   1      32.850  23.112  24.528  1.00  0.00    -0.337 N 
ATOM      8  C   UNL A   1      34.168  23.463  25.022  1.00  0.00     0.135 C 
ATOM      9  C   UNL A   1      32.167  22.031  25.241  1.00  0.00     0.133 C 
ATOM     10  C   UNL A   1      33.026  20.753  25.319  1.00  0.00     0.099 C 
ATOM     11  C   UNL A   1      34.504  21.048  25.635  1.00  0.00     0.032 C 
BRANCH   7  12
ATOM     12  C   UNL A   1      32.412  23.666  23.337  1.00  0.00     0.254 C 
ATOM     13  O   UNL A   1      32.693  23.200  22.235  1.00  0.00    -0.269 OA
BRANCH  12  14
ATOM     14  C   UNL A   1      31.728  24.980  23.388  1.00  0.00     0.042 A 
ATOM     15  C   UNL A   1      29.356  28.511  22.794  1.00  0.00     0.047 C 
ATOM     16  C   UNL A   1      30.219  27.315  23.052  1.00  0.00    -0.015 A 
ATOM     17  C   UNL A   1      31.509  27.234  22.520  1.00  0.00     0.007 A 
ATOM     18  C   UNL A   1      29.716  26.231  23.780  1.00  0.00     0.126 A 
ATOM     19  C   UNL A   1      32.257  26.069  22.680  1.00  0.00     0.014 A 
ATOM     20  C   UNL A   1      30.454  25.064  23.951  1.00  0.00     0.053 A 
ATOM     21  F   UNL A   1      28.475  26.291  24.285  1.00  0.00    -0.207 F 
ENDBRANCH  12  14
ENDBRANCH   7  12
BRANCH  10  22
ATOM     22  C   UNL A   1      32.550  19.812  24.192  1.00  0.00     0.227 C 
ATOM     23  O   UNL A   1      32.212  20.345  23.124  1.00  0.00    -0.275 OA
ATOM     24  N   UNL A   1      32.710  18.447  24.224  1.00  0.00    -0.338 N 
ATOM     25  C   UNL A   1      32.483  17.541  25.341  1.00  0.00     0.148 C 
ATOM     26  C   UNL A   1      32.889  17.720  22.964  1.00  0.00     0.148 C 
ATOM     27  C   UNL A   1      33.625  16.525  25.448  1.00  0.00     0.181 C 
ATOM     28  C   UNL A   1      34.032  16.708  23.124  1.00  0.00     0.181 C 
ATOM     29  O   UNL A   1      33.778  15.802  24.213  1.00  0.00    -0.378 OA
ENDBRANCH  10  22
ENDBRANCH   4   6
ENDBRANCH   3   4
ENDBRANCH   2   3
ENDBRANCH   1   2
BRANCH   1  30
ATOM     30  O   UNL A   1      39.769  21.914  27.201  1.00  0.00    -0.458 OA
BRANCH  30  31
ATOM     31  C   UNL A   1      40.537  22.949  26.804  1.00  0.00     0.338 C 
ATOM     32  O   UNL A   1      41.712  22.906  26.485  1.00  0.00    -0.246 OA
BRANCH  31  33
ATOM     33  C   UNL A   1      39.885  24.247  26.901  1.00  0.00     0.060 A 
ATOM     34  C   UNL A   1      40.415  25.254  26.079  1.00  0.00     0.016 A 
ATOM     35  C   UNL A   1      39.292  24.524  28.126  1.00  0.00     0.016 A 
ATOM     36  C   UNL A   1      40.577  26.530  26.589  1.00  0.00     0.010 A 
ATOM     37  C   UNL A   1      39.441  25.798  28.624  1.00  0.00     0.010 A 
ATOM     38  C   UNL A   1      40.160  26.763  27.898  1.00  0.00    -0.014 A 
BRANCH  38  39
ATOM     39  C   UNL A   1      40.401  28.007  28.601  1.00  0.00     0.031 A 
ATOM     40  C   UNL A   1      39.358  29.048  28.619  1.00  0.00     0.074 A 
ATOM     41  C   UNL A   1      41.503  28.146  29.371  1.00  0.00     0.049 A 
ATOM     42  N   UNL A   1      39.570  30.282  28.932  1.00  0.00    -0.248 NA
ATOM     43  C   UNL A   1      37.973  28.776  28.237  1.00  0.00     0.031 C 
ATOM     44  C   UNL A   1      41.649  29.070  30.490  1.00  0.00     0.029 A 
ATOM     45  N   UNL A   1      42.773  27.587  29.245  1.00  0.00    -0.354 N 
ATOM     46  C   UNL A   1      38.340  30.849  29.153  1.00  0.00     0.074 A 
ATOM     47  C   UNL A   1      37.383  29.926  28.581  1.00  0.00     0.031 C 
ATOM     48  C   UNL A   1      42.953  29.216  30.764  1.00  0.00     0.029 A 
ATOM     49  C   UNL A   1      43.679  28.566  29.689  1.00  0.00     0.049 A 
ATOM     50  H   UNL A   1      42.991  26.687  28.911  1.00  0.00     0.167 HD
ATOM     51  C   UNL A   1      38.226  31.949  29.948  1.00  0.00     0.034 A 
ATOM     52  C   UNL A   1      44.625  29.179  28.911  1.00  0.00     0.034 A 
ATOM     53  C   UNL A   1      39.506  32.376  30.499  1.00  0.00     0.049 A 
ATOM     54  C   UNL A   1      44.556  30.698  28.919  1.00  0.00     0.074 A 
ATOM     55  C   UNL A   1      40.112  32.217  31.735  1.00  0.00     0.029 A 
ATOM     56  N   UNL A   1      40.495  32.840  29.651  1.00  0.00    -0.354 N 
ATOM     57  N   UNL A   1      43.572  31.369  29.447  1.00  0.00    -0.248 NA
ATOM     58  C   UNL A   1      45.500  31.574  28.221  1.00  0.00     0.031 C 
ATOM     59  C   UNL A   1      41.458  32.659  31.637  1.00  0.00     0.029 A 
ATOM     60  C   UNL A   1      41.670  33.074  30.338  1.00  0.00     0.049 A 
ATOM     61  H   UNL A   1      40.377  32.984  28.684  1.00  0.00     0.167 HD
ATOM     62  C   UNL A   1      43.726  32.703  29.191  1.00  0.00     0.074 A 
ATOM     63  C   UNL A   1      44.937  32.784  28.399  1.00  0.00     0.031 C 
ATOM     64  C   UNL A   1      42.811  33.618  29.620  1.00  0.00     0.034 A 
BRANCH  51  65
ATOM     65  C   UNL A   1      36.890  32.466  30.422  1.00  0.00     0.023 A 
ATOM     66  C   UNL A   1      36.471  32.309  31.761  1.00  0.00     0.012 A 
ATOM     67  C   UNL A   1      35.995  33.134  29.558  1.00  0.00     0.148 A 
ATOM     68  C   UNL A   1      35.306  32.913  32.252  1.00  0.00     0.002 A 
ATOM     69  C   UNL A   1      34.810  33.691  30.038  1.00  0.00     0.091 A 
ATOM     70  F   UNL A   1      36.274  33.254  28.255  1.00  0.00    -0.205 F 
ATOM     71  C   UNL A   1      34.478  33.616  31.390  1.00  0.00     0.022 A 
BRANCH  69  72
ATOM     72  S   UNL A   1      33.700  34.503  28.883  1.00  0.00     0.127 S 
ATOM     73  O   UNL A   1      33.353  33.435  27.951  1.00  0.00    -0.237 OA
ATOM     74  O   UNL A   1      32.635  34.998  29.749  1.00  0.00    -0.237 OA
ATOM     75  O   UNL A   1      34.537  35.555  28.302  1.00  0.00    -0.744 OA
ENDBRANCH  69  72
ENDBRANCH  51  65
BRANCH  52  76
ATOM     76  C   UNL A   1      45.033  28.392  27.719  1.00  0.00     0.023 A 
ATOM     77  C   UNL A   1      44.262  28.476  26.545  1.00  0.00     0.012 A 
ATOM     78  C   UNL A   1      45.893  27.293  27.908  1.00  0.00     0.148 A 
ATOM     79  C   UNL A   1      44.265  27.422  25.630  1.00  0.00     0.002 A 
ATOM     80  C   UNL A   1      45.839  26.222  27.027  1.00  0.00     0.091 A 
ATOM     81  F   UNL A   1      46.651  27.243  29.014  1.00  0.00    -0.205 F 
ATOM     82  C   UNL A   1      45.020  26.281  25.894  1.00  0.00     0.022 A 
BRANCH  80  83
ATOM     83  S   UNL A   1      46.631  24.676  27.484  1.00  0.00     0.127 S 
ATOM     84  O   UNL A   1      46.319  23.800  26.360  1.00  0.00    -0.237 OA
ATOM     85  O   UNL A   1      48.029  25.066  27.640  1.00  0.00    -0.237 OA
ATOM     86  O   UNL A   1      45.964  24.308  28.734  1.00  0.00    -0.744 OA
ENDBRANCH  80  83
ENDBRANCH  52  76
BRANCH  64  87
ATOM     87  C   UNL A   1      42.862  35.099  29.358  1.00  0.00     0.023 A 
ATOM     88  C   UNL A   1      42.150  35.614  28.246  1.00  0.00     0.012 A 
ATOM     89  C   UNL A   1      43.504  36.028  30.187  1.00  0.00     0.148 A 
ATOM     90  C   UNL A   1      42.127  36.973  27.935  1.00  0.00     0.002 A 
ATOM     91  C   UNL A   1      43.522  37.383  29.847  1.00  0.00     0.091 A 
ATOM     92  F   UNL A   1      44.063  35.622  31.337  1.00  0.00    -0.205 F 
ATOM     93  C   UNL A   1      42.836  37.862  28.725  1.00  0.00     0.022 A 
BRANCH  91  94
ATOM     94  S   UNL A   1      44.521  38.508  30.822  1.00  0.00     0.127 S 
ATOM     95  O   UNL A   1      45.848  37.907  30.770  1.00  0.00    -0.237 OA
ATOM     96  O   UNL A   1      44.352  39.778  30.120  1.00  0.00    -0.237 OA
ATOM     97  O   UNL A   1      43.889  38.468  32.142  1.00  0.00    -0.744 OA
ENDBRANCH  91  94
ENDBRANCH  64  87
ENDBRANCH  38  39
ENDBRANCH  31  33
ENDBRANCH  30  31
ENDBRANCH   1  30
TORSDOF 17
ENDMDL
MODEL 2
REMARK VINA RESULT:     -13.5      3.729      9.457
REMARK SMILES Cc1ccc(C(=O)N2C[C@@H](C(=O)OCCOC(=O)c3ccc(-c4c5nc(c(-c6cccc(S(=O)(=O)[O-])c6F)c6ccc([nH]6)c(-c6cccc(S(=O)(=O)[O-])c6F)c6nc(c(-c7cccc(S(=O)(=O)[O-])c7F)c7ccc4[nH]7)C=C6)C=C5)cc3)C[C@H](C(=O)N3CCOCC3)C2)cc1F
REMARK SMILES IDX 15 1 14 2 13 3 11 4 12 5 10 6 8 7 9 8 92 9 83 10 82 11 6 12
REMARK SMILES IDX 7 13 5 14 1 15 2 16 3 17 94 18 4 19 93 20 95 21 84 22 85 23
REMARK SMILES IDX 86 24 87 25 91 26 88 27 90 28 89 29 16 30 17 31 18 32 19 33
REMARK SMILES IDX 20 34 81 35 21 36 80 37 22 38 23 39 24 40 74 41 25 42 79 43
REMARK SMILES IDX 73 44 75 45 26 46 78 47 72 48 71 49 27 51 59 52 39 53 58 54
REMARK SMILES IDX 40 55 43 56 57 57 76 58 41 59 42 60 56 62 77 63 44 64 28 65
REMARK SMILES IDX 29 66 37 67 30 68 32 69 38 70 31 71 33 72 34 73 35 74 36 75
REMARK SMILES IDX 60 76 61 77 69 78 62 79 64 80 70 81 63 82 65 83 66 84 67 85
REMARK SMILES IDX 68 86 45 87 46 88 54 89 47 90 49 91 55 92 48 93 50 94 51 95
REMARK SMILES IDX 52 96 53 97
REMARK H PARENT 75 50 43 61
REMARK Flexibility Score: inf
ROOT
ATOM      1  C   UNL A   1      33.508  31.218  27.652  1.00  0.00     0.275 C 
ENDROOT
BRANCH   1   2
ATOM      2  C   UNL A   1      33.226  30.102  26.636  1.00  0.00     0.274 C 
BRANCH   2   3
ATOM      3  O   UNL A   1      33.467  28.769  27.139  1.00  0.00    -0.462 OA
BRANCH   3   4
ATOM      4  C   UNL A   1      32.406  27.920  27.134  1.00  0.00     0.310 C 
ATOM      5  O   UNL A   1      31.515  27.918  27.980  1.00  0.00    -0.252 OA
BRANCH   4   6
ATOM      6  C   UNL A   1      32.453  26.892  26.019  1.00  0.00     0.119 C 
ATOM      7  N   UNL A   1      31.046  25.875  24.321  1.00  0.00    -0.337 N 
ATOM      8  C   UNL A   1      31.058  26.776  25.458  1.00  0.00     0.135 C 
ATOM      9  C   UNL A   1      31.465  24.498  24.591  1.00  0.00     0.133 C 
ATOM     10  C   UNL A   1      32.852  24.434  25.262  1.00  0.00     0.099 C 
ATOM     11  C   UNL A   1      33.036  25.506  26.352  1.00  0.00     0.032 C 
BRANCH   7  12
ATOM     12  C   UNL A   1      30.832  26.396  23.057  1.00  0.00     0.254 C 
ATOM     13  O   UNL A   1      31.345  25.930  22.042  1.00  0.00    -0.269 OA
BRANCH  12  14
ATOM     14  C   UNL A   1      30.098  27.680  22.945  1.00  0.00     0.042 A 
ATOM     15  C   UNL A   1      27.731  31.086  21.831  1.00  0.00     0.047 C 
ATOM     16  C   UNL A   1      28.581  29.936  22.274  1.00  0.00    -0.015 A 
ATOM     17  C   UNL A   1      29.947  29.899  21.978  1.00  0.00     0.007 A 
ATOM     18  C   UNL A   1      28.001  28.849  22.938  1.00  0.00     0.126 A 
ATOM     19  C   UNL A   1      30.700  28.773  22.304  1.00  0.00     0.014 A 
ATOM     20  C   UNL A   1      28.743  27.721  23.273  1.00  0.00     0.053 A 
ATOM     21  F   UNL A   1      26.690  28.867  23.217  1.00  0.00    -0.207 F 
ENDBRANCH  12  14
ENDBRANCH   7  12
BRANCH  10  22
ATOM     22  C   UNL A   1      33.884  24.140  24.152  1.00  0.00     0.227 C 
ATOM     23  O   UNL A   1      34.142  25.067  23.368  1.00  0.00    -0.275 OA
ATOM     24  N   UNL A   1      34.686  23.025  24.138  1.00  0.00    -0.338 N 
ATOM     25  C   UNL A   1      34.315  21.647  24.428  1.00  0.00     0.148 C 
ATOM     26  C   UNL A   1      36.019  23.111  23.535  1.00  0.00     0.148 C 
ATOM     27  C   UNL A   1      35.370  20.984  25.320  1.00  0.00     0.181 C 
ATOM     28  C   UNL A   1      37.036  22.425  24.457  1.00  0.00     0.181 C 
ATOM     29  O   UNL A   1      36.671  21.057  24.709  1.00  0.00    -0.378 OA
ENDBRANCH  10  22
ENDBRANCH   4   6
ENDBRANCH   3   4
ENDBRANCH   2   3
ENDBRANCH   1   2
BRANCH   1  30
ATOM     30  O   UNL A   1      34.756  31.890  27.423  1.00  0.00    -0.458 OA
BRANCH  30  31
ATOM     31  C   UNL A   1      35.628  31.658  28.426  1.00  0.00     0.338 C 
ATOM     32  O   UNL A   1      36.000  32.455  29.268  1.00  0.00    -0.246 OA
BRANCH  31  33
ATOM     33  C   UNL A   1      36.254  30.344  28.380  1.00  0.00     0.060 A 
ATOM     34  C   UNL A   1      36.348  29.674  29.610  1.00  0.00     0.016 A 
ATOM     35  C   UNL A   1      37.183  30.164  27.364  1.00  0.00     0.016 A 
ATOM     36  C   UNL A   1      37.514  29.001  29.928  1.00  0.00     0.010 A 
ATOM     37  C   UNL A   1      38.335  29.480  27.677  1.00  0.00     0.010 A 
ATOM     38  C   UNL A   1      38.533  28.986  28.978  1.00  0.00    -0.014 A 
BRANCH  38  39
ATOM     39  C   UNL A   1      39.853  28.444  29.235  1.00  0.00     0.031 A 
ATOM     40  C   UNL A   1      40.171  27.069  28.810  1.00  0.00     0.074 A 
ATOM     41  C   UNL A   1      40.833  29.246  29.708  1.00  0.00     0.049 A 
ATOM     42  N   UNL A   1      41.174  26.387  29.251  1.00  0.00    -0.248 NA
ATOM     43  C   UNL A   1      39.337  26.328  27.865  1.00  0.00     0.031 C 
ATOM     44  C   UNL A   1      42.265  29.021  29.552  1.00  0.00     0.029 A 
ATOM     45  N   UNL A   1      40.768  30.362  30.538  1.00  0.00    -0.354 N 
ATOM     46  C   UNL A   1      41.328  25.320  28.403  1.00  0.00     0.074 A 
ATOM     47  C   UNL A   1      40.095  25.247  27.648  1.00  0.00     0.031 C 
ATOM     48  C   UNL A   1      42.921  29.771  30.449  1.00  0.00     0.029 A 
ATOM     49  C   UNL A   1      41.920  30.320  31.344  1.00  0.00     0.049 A 
ATOM     50  H   UNL A   1      40.057  31.044  30.557  1.00  0.00     0.167 HD
ATOM     51  C   UNL A   1      42.538  24.705  28.287  1.00  0.00     0.034 A 
ATOM     52  C   UNL A   1      41.928  30.166  32.704  1.00  0.00     0.034 A 
ATOM     53  C   UNL A   1      43.562  25.326  29.119  1.00  0.00     0.049 A 
ATOM     54  C   UNL A   1      42.780  29.007  33.199  1.00  0.00     0.074 A 
ATOM     55  C   UNL A   1      44.596  26.210  28.856  1.00  0.00     0.029 A 
ATOM     56  N   UNL A   1      43.443  25.284  30.496  1.00  0.00    -0.354 N 
ATOM     57  N   UNL A   1      43.299  28.110  32.410  1.00  0.00    -0.248 NA
ATOM     58  C   UNL A   1      42.999  28.685  34.611  1.00  0.00     0.031 C 
ATOM     59  C   UNL A   1      45.144  26.643  30.092  1.00  0.00     0.029 A 
ATOM     60  C   UNL A   1      44.433  26.030  31.104  1.00  0.00     0.049 A 
ATOM     61  H   UNL A   1      42.744  24.787  30.979  1.00  0.00     0.167 HD
ATOM     62  C   UNL A   1      43.903  27.131  33.150  1.00  0.00     0.074 A 
ATOM     63  C   UNL A   1      43.670  27.520  34.526  1.00  0.00     0.031 C 
ATOM     64  C   UNL A   1      44.503  26.061  32.555  1.00  0.00     0.034 A 
BRANCH  51  65
ATOM     65  C   UNL A   1      42.830  23.696  27.204  1.00  0.00     0.023 A 
ATOM     66  C   UNL A   1      43.673  24.006  26.115  1.00  0.00     0.012 A 
ATOM     67  C   UNL A   1      42.283  22.395  27.224  1.00  0.00     0.148 A 
ATOM     68  C   UNL A   1      44.075  23.038  25.185  1.00  0.00     0.002 A 
ATOM     69  C   UNL A   1      42.643  21.446  26.268  1.00  0.00     0.091 A 
ATOM     70  F   UNL A   1      41.408  22.044  28.173  1.00  0.00    -0.205 F 
ATOM     71  C   UNL A   1      43.566  21.750  25.268  1.00  0.00     0.022 A 
BRANCH  69  72
ATOM     72  S   UNL A   1      41.888  19.818  26.331  1.00  0.00     0.127 S 
ATOM     73  O   UNL A   1      42.494  19.128  25.198  1.00  0.00    -0.237 OA
ATOM     74  O   UNL A   1      42.248  19.345  27.664  1.00  0.00    -0.237 OA
ATOM     75  O   UNL A   1      40.463  20.106  26.162  1.00  0.00    -0.744 OA
ENDBRANCH  69  72
ENDBRANCH  51  65
BRANCH  52  76
ATOM     76  C   UNL A   1      40.670  30.590  33.371  1.00  0.00     0.023 A 
ATOM     77  C   UNL A   1      39.598  29.682  33.454  1.00  0.00     0.012 A 
ATOM     78  C   UNL A   1      40.425  31.969  33.517  1.00  0.00     0.148 A 
ATOM     79  C   UNL A   1      38.290  30.154  33.566  1.00  0.00     0.002 A 
ATOM     80  C   UNL A   1      39.117  32.431  33.561  1.00  0.00     0.091 A 
ATOM     81  F   UNL A   1      41.460  32.822  33.473  1.00  0.00    -0.205 F 
ATOM     82  C   UNL A   1      38.049  31.526  33.577  1.00  0.00     0.022 A 
BRANCH  80  83
ATOM     83  S   UNL A   1      38.804  34.187  33.346  1.00  0.00     0.127 S 
ATOM     84  O   UNL A   1      37.377  34.234  33.047  1.00  0.00    -0.237 OA
ATOM     85  O   UNL A   1      39.221  34.746  34.629  1.00  0.00    -0.237 OA
ATOM     86  O   UNL A   1      39.666  34.552  32.221  1.00  0.00    -0.744 OA
ENDBRANCH  80  83
ENDBRANCH  52  76
BRANCH  64  87
ATOM     87  C   UNL A   1      45.157  24.912  33.273  1.00  0.00     0.023 A 
ATOM     88  C   UNL A   1      44.378  23.764  33.564  1.00  0.00     0.012 A 
ATOM     89  C   UNL A   1      46.516  24.859  33.610  1.00  0.00     0.148 A 
ATOM     90  C   UNL A   1      44.903  22.646  34.210  1.00  0.00     0.002 A 
ATOM     91  C   UNL A   1      47.029  23.760  34.303  1.00  0.00     0.091 A 
ATOM     92  F   UNL A   1      47.337  25.847  33.225  1.00  0.00    -0.205 F 
ATOM     93  C   UNL A   1      46.230  22.651  34.604  1.00  0.00     0.022 A 
BRANCH  91  94
ATOM     94  S   UNL A   1      48.722  23.819  34.892  1.00  0.00     0.127 S 
ATOM     95  O   UNL A   1      48.849  22.593  35.669  1.00  0.00    -0.237 OA
ATOM     96  O   UNL A   1      49.490  23.888  33.651  1.00  0.00    -0.237 OA
ATOM     97  O   UNL A   1      48.762  25.048  35.687  1.00  0.00    -0.744 OA
ENDBRANCH  91  94
ENDBRANCH  64  87
ENDBRANCH  38  39
ENDBRANCH  31  33
ENDBRANCH  30  31
ENDBRANCH   1  30
TORSDOF 17
ENDMDL
MODEL 3
REMARK VINA RESULT:     -13.2      1.627      3.389
REMARK SMILES Cc1ccc(C(=O)N2C[C@@H](C(=O)OCCOC(=O)c3ccc(-c4c5nc(c(-c6cccc(S(=O)(=O)[O-])c6F)c6ccc([nH]6)c(-c6cccc(S(=O)(=O)[O-])c6F)c6nc(c(-c7cccc(S(=O)(=O)[O-])c7F)c7ccc4[nH]7)C=C6)C=C5)cc3)C[C@H](C(=O)N3CCOCC3)C2)cc1F
REMARK SMILES IDX 15 1 14 2 13 3 11 4 12 5 10 6 8 7 9 8 92 9 83 10 82 11 6 12
REMARK SMILES IDX 7 13 5 14 1 15 2 16 3 17 94 18 4 19 93 20 95 21 84 22 85 23
REMARK SMILES IDX 86 24 87 25 91 26 88 27 90 28 89 29 16 30 17 31 18 32 19 33
REMARK SMILES IDX 20 34 81 35 21 36 80 37 22 38 23 39 24 40 74 41 25 42 79 43
REMARK SMILES IDX 73 44 75 45 26 46 78 47 72 48 71 49 27 51 59 52 39 53 58 54
REMARK SMILES IDX 40 55 43 56 57 57 76 58 41 59 42 60 56 62 77 63 44 64 28 65
REMARK SMILES IDX 29 66 37 67 30 68 32 69 38 70 31 71 33 72 34 73 35 74 36 75
REMARK SMILES IDX 60 76 61 77 69 78 62 79 64 80 70 81 63 82 65 83 66 84 67 85
REMARK SMILES IDX 68 86 45 87 46 88 54 89 47 90 49 91 55 92 48 93 50 94 51 95
REMARK SMILES IDX 52 96 53 97
REMARK H PARENT 75 50 43 61
REMARK Flexibility Score: inf
ROOT
ATOM      1  C   UNL A   1      39.080  21.266  26.037  1.00  0.00     0.275 C 
ENDROOT
BRANCH   1   2
ATOM      2  C   UNL A   1      37.816  21.575  25.222  1.00  0.00     0.274 C 
BRANCH   2   3
ATOM      3  O   UNL A   1      36.606  21.641  26.010  1.00  0.00    -0.462 OA
BRANCH   3   4
ATOM      4  C   UNL A   1      35.441  21.428  25.344  1.00  0.00     0.310 C 
ATOM      5  O   UNL A   1      35.052  20.329  24.959  1.00  0.00    -0.252 OA
BRANCH   4   6
ATOM      6  C   UNL A   1      34.675  22.701  25.033  1.00  0.00     0.119 C 
ATOM      7  N   UNL A   1      34.233  24.248  23.214  1.00  0.00    -0.337 N 
ATOM      8  C   UNL A   1      35.005  23.086  23.613  1.00  0.00     0.135 C 
ATOM      9  C   UNL A   1      34.452  25.463  24.000  1.00  0.00     0.133 C 
ATOM     10  C   UNL A   1      34.246  25.224  25.509  1.00  0.00     0.099 C 
ATOM     11  C   UNL A   1      34.858  23.894  25.989  1.00  0.00     0.032 C 
BRANCH   7  12
ATOM     12  C   UNL A   1      33.230  24.093  22.272  1.00  0.00     0.254 C 
ATOM     13  O   UNL A   1      33.366  23.427  21.248  1.00  0.00    -0.269 OA
BRANCH  12  14
ATOM     14  C   UNL A   1      32.003  24.913  22.416  1.00  0.00     0.042 A 
ATOM     15  C   UNL A   1      28.826  27.556  23.585  1.00  0.00     0.047 C 
ATOM     16  C   UNL A   1      29.891  26.609  23.127  1.00  0.00    -0.015 A 
ATOM     17  C   UNL A   1      29.865  25.264  23.506  1.00  0.00     0.007 A 
ATOM     18  C   UNL A   1      30.965  27.077  22.361  1.00  0.00     0.126 A 
ATOM     19  C   UNL A   1      30.920  24.422  23.160  1.00  0.00     0.014 A 
ATOM     20  C   UNL A   1      32.021  26.245  22.005  1.00  0.00     0.053 A 
ATOM     21  F   UNL A   1      31.007  28.368  22.000  1.00  0.00    -0.207 F 
ENDBRANCH  12  14
ENDBRANCH   7  12
BRANCH  10  22
ATOM     22  C   UNL A   1      32.820  25.699  25.858  1.00  0.00     0.227 C 
ATOM     23  O   UNL A   1      32.038  24.842  26.299  1.00  0.00    -0.275 OA
ATOM     24  N   UNL A   1      32.459  27.022  25.936  1.00  0.00    -0.338 N 
ATOM     25  C   UNL A   1      32.805  28.104  25.026  1.00  0.00     0.148 C 
ATOM     26  C   UNL A   1      31.405  27.421  26.874  1.00  0.00     0.148 C 
ATOM     27  C   UNL A   1      33.209  29.357  25.811  1.00  0.00     0.181 C 
ATOM     28  C   UNL A   1      31.849  28.682  27.626  1.00  0.00     0.181 C 
ATOM     29  O   UNL A   1      32.159  29.750  26.713  1.00  0.00    -0.378 OA
ENDBRANCH  10  22
ENDBRANCH   4   6
ENDBRANCH   3   4
ENDBRANCH   2   3
ENDBRANCH   1   2
BRANCH   1  30
ATOM     30  O   UNL A   1      40.119  22.241  25.862  1.00  0.00    -0.458 OA
BRANCH  30  31
ATOM     31  C   UNL A   1      40.353  22.918  27.005  1.00  0.00     0.338 C 
ATOM     32  O   UNL A   1      40.931  22.504  27.994  1.00  0.00    -0.246 OA
BRANCH  31  33
ATOM     33  C   UNL A   1      39.723  24.230  27.061  1.00  0.00     0.060 A 
ATOM     34  C   UNL A   1      40.276  25.204  26.214  1.00  0.00     0.016 A 
ATOM     35  C   UNL A   1      39.126  24.551  28.272  1.00  0.00     0.016 A 
ATOM     36  C   UNL A   1      40.456  26.491  26.689  1.00  0.00     0.010 A 
ATOM     37  C   UNL A   1      39.293  25.836  28.736  1.00  0.00     0.010 A 
ATOM     38  C   UNL A   1      40.034  26.767  27.988  1.00  0.00    -0.014 A 
BRANCH  38  39
ATOM     39  C   UNL A   1      40.292  28.026  28.658  1.00  0.00     0.031 A 
ATOM     40  C   UNL A   1      39.249  29.068  28.678  1.00  0.00     0.074 A 
ATOM     41  C   UNL A   1      41.412  28.182  29.398  1.00  0.00     0.049 A 
ATOM     42  N   UNL A   1      39.468  30.309  28.958  1.00  0.00    -0.248 NA
ATOM     43  C   UNL A   1      37.856  28.789  28.334  1.00  0.00     0.031 C 
ATOM     44  C   UNL A   1      41.584  29.131  30.492  1.00  0.00     0.029 A 
ATOM     45  N   UNL A   1      42.679  27.620  29.254  1.00  0.00    -0.354 N 
ATOM     46  C   UNL A   1      38.245  30.880  29.196  1.00  0.00     0.074 A 
ATOM     47  C   UNL A   1      37.274  29.946  28.667  1.00  0.00     0.031 C 
ATOM     48  C   UNL A   1      42.895  29.282  30.732  1.00  0.00     0.029 A 
ATOM     49  C   UNL A   1      43.595  28.608  29.654  1.00  0.00     0.049 A 
ATOM     50  H   UNL A   1      42.889  26.712  28.935  1.00  0.00     0.167 HD
ATOM     51  C   UNL A   1      38.149  31.998  29.968  1.00  0.00     0.034 A 
ATOM     52  C   UNL A   1      44.522  29.203  28.841  1.00  0.00     0.034 A 
ATOM     53  C   UNL A   1      39.442  32.437  30.480  1.00  0.00     0.049 A 
ATOM     54  C   UNL A   1      44.453  30.722  28.817  1.00  0.00     0.074 A 
ATOM     55  C   UNL A   1      40.077  32.305  31.704  1.00  0.00     0.029 A 
ATOM     56  N   UNL A   1      40.410  32.882  29.598  1.00  0.00    -0.354 N 
ATOM     57  N   UNL A   1      43.482  31.405  29.354  1.00  0.00    -0.248 NA
ATOM     58  C   UNL A   1      45.380  31.582  28.078  1.00  0.00     0.031 C 
ATOM     59  C   UNL A   1      41.420  32.744  31.565  1.00  0.00     0.029 A 
ATOM     60  C   UNL A   1      41.601  33.130  30.252  1.00  0.00     0.049 A 
ATOM     61  H   UNL A   1      40.270  33.004  28.632  1.00  0.00     0.167 HD
ATOM     62  C   UNL A   1      43.629  32.733  29.065  1.00  0.00     0.074 A 
ATOM     63  C   UNL A   1      44.821  32.796  28.242  1.00  0.00     0.031 C 
ATOM     64  C   UNL A   1      42.724  33.658  29.495  1.00  0.00     0.034 A 
BRANCH  51  65
ATOM     65  C   UNL A   1      36.825  32.526  30.463  1.00  0.00     0.023 A 
ATOM     66  C   UNL A   1      36.425  32.373  31.808  1.00  0.00     0.012 A 
ATOM     67  C   UNL A   1      35.922  33.201  29.613  1.00  0.00     0.148 A 
ATOM     68  C   UNL A   1      35.273  32.986  32.317  1.00  0.00     0.002 A 
ATOM     69  C   UNL A   1      34.749  33.767  30.111  1.00  0.00     0.091 A 
ATOM     70  F   UNL A   1      36.182  33.317  28.306  1.00  0.00    -0.205 F 
ATOM     71  C   UNL A   1      34.437  33.696  31.468  1.00  0.00     0.022 A 
BRANCH  69  72
ATOM     72  S   UNL A   1      33.628  34.587  28.972  1.00  0.00     0.127 S 
ATOM     73  O   UNL A   1      32.507  34.965  29.825  1.00  0.00    -0.237 OA
ATOM     74  O   UNL A   1      34.446  35.670  28.435  1.00  0.00    -0.237 OA
ATOM     75  O   UNL A   1      33.313  33.536  28.002  1.00  0.00    -0.744 OA
ENDBRANCH  69  72
ENDBRANCH  51  65
BRANCH  52  76
ATOM     76  C   UNL A   1      44.901  28.390  27.657  1.00  0.00     0.023 A 
ATOM     77  C   UNL A   1      44.096  28.440  26.504  1.00  0.00     0.012 A 
ATOM     78  C   UNL A   1      45.775  27.303  27.848  1.00  0.00     0.148 A 
ATOM     79  C   UNL A   1      44.081  27.364  25.616  1.00  0.00     0.002 A 
ATOM     80  C   UNL A   1      45.704  26.209  26.996  1.00  0.00     0.091 A 
ATOM     81  F   UNL A   1      46.565  27.285  28.933  1.00  0.00    -0.205 F 
ATOM     82  C   UNL A   1      44.852  26.235  25.886  1.00  0.00     0.022 A 
BRANCH  80  83
ATOM     83  S   UNL A   1      46.521  24.681  27.467  1.00  0.00     0.127 S 
ATOM     84  O   UNL A   1      46.016  24.439  28.814  1.00  0.00    -0.237 OA
ATOM     85  O   UNL A   1      46.086  23.751  26.430  1.00  0.00    -0.237 OA
ATOM     86  O   UNL A   1      47.943  25.024  27.412  1.00  0.00    -0.744 OA
ENDBRANCH  80  83
ENDBRANCH  52  76
BRANCH  64  87
ATOM     87  C   UNL A   1      42.769  35.132  29.199  1.00  0.00     0.023 A 
ATOM     88  C   UNL A   1      42.069  35.617  28.067  1.00  0.00     0.012 A 
ATOM     89  C   UNL A   1      43.394  36.085  30.015  1.00  0.00     0.148 A 
ATOM     90  C   UNL A   1      42.040  36.968  27.724  1.00  0.00     0.002 A 
ATOM     91  C   UNL A   1      43.408  37.432  29.643  1.00  0.00     0.091 A 
ATOM     92  F   UNL A   1      43.942  35.710  31.180  1.00  0.00    -0.205 F 
ATOM     93  C   UNL A   1      42.733  37.880  28.502  1.00  0.00     0.022 A 
BRANCH  91  94
ATOM     94  S   UNL A   1      44.387  38.586  30.604  1.00  0.00     0.127 S 
ATOM     95  O   UNL A   1      44.195  39.851  29.905  1.00  0.00    -0.237 OA
ATOM     96  O   UNL A   1      43.793  38.480  31.935  1.00  0.00    -0.237 OA
ATOM     97  O   UNL A   1      45.743  38.042  30.511  1.00  0.00    -0.744 OA
ENDBRANCH  91  94
ENDBRANCH  64  87
ENDBRANCH  38  39
ENDBRANCH  31  33
ENDBRANCH  30  31
ENDBRANCH   1  30
TORSDOF 17
ENDMDL
