MODEL 1
REMARK VINA RESULT:     -12.0      0.000      0.000
REMARK SMILES COc1ccc([C@@H]2CC[NH2+][C@H]2C(=O)OCCOC(=O)c2ccc(-c3c4nc(c(-c5cccc(S(=O)(=O)[O-])c5F)c5ccc([nH]5)c(-c5cccc(S(=O)(=O)[O-])c5F)c5nc(c(-c6cccc(S(=O)(=O)[O-])c6F)c6ccc3[nH]6)C=C5)C=C4)cc2)c2ccccc12
REMARK SMILES IDX 16 1 15 2 14 3 12 4 13 5 11 6 7 7 8 8 9 9 10 10 6 13 3 14
REMARK SMILES IDX 4 15 88 16 5 17 83 18 87 19 84 20 86 21 85 22 2 23 1 24
REMARK SMILES IDX 17 25 18 26 19 27 20 28 21 29 82 30 22 31 81 32 23 33 24 34
REMARK SMILES IDX 25 35 75 36 26 37 80 38 74 39 76 40 27 41 79 42 73 43 72 44
REMARK SMILES IDX 28 46 60 47 40 48 59 49 41 50 44 51 58 52 77 53 42 54 43 55
REMARK SMILES IDX 57 57 78 58 45 59 29 60 30 61 38 62 31 63 33 64 39 65 32 66
REMARK SMILES IDX 34 67 35 68 36 69 37 70 61 71 62 72 70 73 63 74 65 75 71 76
REMARK SMILES IDX 64 77 66 78 67 79 68 80 69 81 46 82 47 83 55 84 48 85 50 86
REMARK SMILES IDX 56 87 49 88 51 89 52 90 53 91 54 92
REMARK H PARENT 10 11 10 12 76 45 44 56
REMARK Flexibility Score: inf
ROOT
ATOM      1  C   UNL A   1      36.231  20.558  25.000  1.00  0.00     0.275 C 
ENDROOT
BRANCH   1   2
ATOM      2  C   UNL A   1      34.780  21.045  24.916  1.00  0.00     0.274 C 
BRANCH   2   3
ATOM      3  O   UNL A   1      34.580  22.318  25.564  1.00  0.00    -0.458 OA
BRANCH   3   4
ATOM      4  C   UNL A   1      33.894  22.280  26.743  1.00  0.00     0.365 C 
ATOM      5  O   UNL A   1      34.090  21.452  27.625  1.00  0.00    -0.245 OA
BRANCH   4   6
ATOM      6  C   UNL A   1      32.767  23.327  26.813  1.00  0.00     0.301 C 
ATOM      7  C   UNL A   1      32.510  24.104  25.495  1.00  0.00     0.095 C 
ATOM      8  C   UNL A   1      31.052  23.769  25.164  1.00  0.00     0.076 C 
ATOM      9  C   UNL A   1      30.434  23.401  26.498  1.00  0.00     0.262 C 
ATOM     10  N   UNL A   1      31.485  22.655  27.192  1.00  0.00    -0.334 N 
ATOM     11  H   UNL A   1      31.490  21.682  26.890  1.00  0.00     0.347 HD
ATOM     12  H   UNL A   1      31.343  22.653  28.201  1.00  0.00     0.347 HD
BRANCH   7  13
ATOM     13  C   UNL A   1      32.726  25.627  25.547  1.00  0.00    -0.030 A 
ATOM     14  C   UNL A   1      33.084  28.422  25.756  1.00  0.00     0.126 A 
ATOM     15  C   UNL A   1      32.694  27.684  26.869  1.00  0.00     0.047 A 
ATOM     16  C   UNL A   1      33.271  27.800  24.507  1.00  0.00     0.024 A 
ATOM     17  C   UNL A   1      32.526  26.306  26.766  1.00  0.00     0.009 A 
ATOM     18  C   UNL A   1      33.080  26.393  24.383  1.00  0.00    -0.011 A 
ATOM     19  C   UNL A   1      33.656  28.556  23.377  1.00  0.00     0.012 A 
ATOM     20  C   UNL A   1      33.260  25.842  23.089  1.00  0.00     0.009 A 
ATOM     21  C   UNL A   1      33.856  27.969  22.132  1.00  0.00     0.001 A 
ATOM     22  C   UNL A   1      33.653  26.609  21.988  1.00  0.00     0.001 A 
BRANCH  14  23
ATOM     23  O   UNL A   1      33.197  29.792  25.833  1.00  0.00    -0.496 OA
ATOM     24  C   UNL A   1      32.102  30.404  26.514  1.00  0.00     0.278 C 
ENDBRANCH  14  23
ENDBRANCH   7  13
ENDBRANCH   4   6
ENDBRANCH   3   4
ENDBRANCH   2   3
ENDBRANCH   1   2
BRANCH   1  25
ATOM     25  O   UNL A   1      37.155  21.640  25.215  1.00  0.00    -0.458 OA
BRANCH  25  26
ATOM     26  C   UNL A   1      38.340  21.265  25.751  1.00  0.00     0.338 C 
ATOM     27  O   UNL A   1      38.833  20.153  25.704  1.00  0.00    -0.246 OA
BRANCH  26  28
ATOM     28  C   UNL A   1      39.035  22.431  26.315  1.00  0.00     0.060 A 
ATOM     29  C   UNL A   1      38.521  23.705  26.058  1.00  0.00     0.016 A 
ATOM     30  C   UNL A   1      40.231  22.274  27.013  1.00  0.00     0.016 A 
ATOM     31  C   UNL A   1      39.201  24.836  26.501  1.00  0.00     0.010 A 
ATOM     32  C   UNL A   1      40.913  23.410  27.458  1.00  0.00     0.010 A 
ATOM     33  C   UNL A   1      40.407  24.696  27.196  1.00  0.00    -0.014 A 
BRANCH  33  34
ATOM     34  C   UNL A   1      41.171  25.892  27.621  1.00  0.00     0.031 A 
ATOM     35  C   UNL A   1      40.480  26.970  28.406  1.00  0.00     0.074 A 
ATOM     36  C   UNL A   1      42.462  26.022  27.268  1.00  0.00     0.049 A 
ATOM     37  N   UNL A   1      40.923  28.149  28.752  1.00  0.00    -0.248 NA
ATOM     38  C   UNL A   1      39.108  26.684  28.858  1.00  0.00     0.031 C 
ATOM     39  C   UNL A   1      43.237  25.029  26.525  1.00  0.00     0.029 A 
ATOM     40  N   UNL A   1      43.341  27.058  27.461  1.00  0.00    -0.354 N 
ATOM     41  C   UNL A   1      39.874  28.767  29.421  1.00  0.00     0.074 A 
ATOM     42  C   UNL A   1      38.772  27.828  29.439  1.00  0.00     0.031 C 
ATOM     43  C   UNL A   1      44.468  25.514  26.298  1.00  0.00     0.029 A 
ATOM     44  C   UNL A   1      44.556  26.865  26.846  1.00  0.00     0.049 A 
ATOM     45  H   UNL A   1      43.123  27.861  27.987  1.00  0.00     0.167 HD
ATOM     46  C   UNL A   1      39.838  30.001  29.975  1.00  0.00     0.034 A 
ATOM     47  C   UNL A   1      45.608  27.699  26.711  1.00  0.00     0.034 A 
ATOM     48  C   UNL A   1      40.950  30.913  29.982  1.00  0.00     0.049 A 
ATOM     49  C   UNL A   1      45.535  29.069  27.330  1.00  0.00     0.074 A 
ATOM     50  C   UNL A   1      41.022  32.178  30.539  1.00  0.00     0.029 A 
ATOM     51  N   UNL A   1      42.186  30.658  29.407  1.00  0.00    -0.354 N 
ATOM     52  N   UNL A   1      44.565  29.609  28.026  1.00  0.00    -0.248 NA
ATOM     53  C   UNL A   1      46.711  29.936  27.168  1.00  0.00     0.031 C 
ATOM     54  C   UNL A   1      42.302  32.689  30.297  1.00  0.00     0.029 A 
ATOM     55  C   UNL A   1      43.030  31.737  29.601  1.00  0.00     0.049 A 
ATOM     56  H   UNL A   1      42.427  29.830  28.932  1.00  0.00     0.167 HD
ATOM     57  C   UNL A   1      45.026  30.861  28.417  1.00  0.00     0.074 A 
ATOM     58  C   UNL A   1      46.369  30.994  27.892  1.00  0.00     0.031 C 
ATOM     59  C   UNL A   1      44.389  31.820  29.134  1.00  0.00     0.034 A 
BRANCH  46  60
ATOM     60  C   UNL A   1      38.565  30.429  30.656  1.00  0.00     0.023 A 
ATOM     61  C   UNL A   1      38.394  30.167  32.030  1.00  0.00     0.012 A 
ATOM     62  C   UNL A   1      37.574  31.145  29.958  1.00  0.00     0.148 A 
ATOM     63  C   UNL A   1      37.244  30.592  32.694  1.00  0.00     0.002 A 
ATOM     64  C   UNL A   1      36.448  31.599  30.636  1.00  0.00     0.091 A 
ATOM     65  F   UNL A   1      37.746  31.363  28.646  1.00  0.00    -0.205 F 
ATOM     66  C   UNL A   1      36.279  31.316  32.001  1.00  0.00     0.022 A 
BRANCH  64  67
ATOM     67  S   UNL A   1      35.182  32.600  29.845  1.00  0.00     0.127 S 
ATOM     68  O   UNL A   1      35.965  33.737  29.362  1.00  0.00    -0.237 OA
ATOM     69  O   UNL A   1      34.692  31.707  28.794  1.00  0.00    -0.237 OA
ATOM     70  O   UNL A   1      34.207  32.904  30.883  1.00  0.00    -0.744 OA
ENDBRANCH  64  67
ENDBRANCH  46  60
BRANCH  47  71
ATOM     71  C   UNL A   1      46.831  27.242  25.993  1.00  0.00     0.023 A 
ATOM     72  C   UNL A   1      46.933  27.449  24.604  1.00  0.00     0.012 A 
ATOM     73  C   UNL A   1      47.902  26.634  26.677  1.00  0.00     0.148 A 
ATOM     74  C   UNL A   1      48.068  27.037  23.904  1.00  0.00     0.002 A 
ATOM     75  C   UNL A   1      49.052  26.274  25.982  1.00  0.00     0.091 A 
ATOM     76  F   UNL A   1      47.779  26.421  27.995  1.00  0.00    -0.205 F 
ATOM     77  C   UNL A   1      49.131  26.461  24.594  1.00  0.00     0.022 A 
BRANCH  75  78
ATOM     78  S   UNL A   1      50.513  25.645  26.819  1.00  0.00     0.127 S 
ATOM     79  O   UNL A   1      51.427  25.422  25.701  1.00  0.00    -0.237 OA
ATOM     80  O   UNL A   1      50.872  26.761  27.694  1.00  0.00    -0.237 OA
ATOM     81  O   UNL A   1      50.068  24.453  27.528  1.00  0.00    -0.744 OA
ENDBRANCH  75  78
ENDBRANCH  47  71
BRANCH  59  82
ATOM     82  C   UNL A   1      45.147  33.082  29.444  1.00  0.00     0.023 A 
ATOM     83  C   UNL A   1      45.962  33.143  30.591  1.00  0.00     0.012 A 
ATOM     84  C   UNL A   1      45.127  34.168  28.547  1.00  0.00     0.148 A 
ATOM     85  C   UNL A   1      46.733  34.277  30.850  1.00  0.00     0.002 A 
ATOM     86  C   UNL A   1      45.930  35.276  28.789  1.00  0.00     0.091 A 
ATOM     87  F   UNL A   1      44.329  34.095  27.471  1.00  0.00    -0.205 F 
ATOM     88  C   UNL A   1      46.728  35.335  29.943  1.00  0.00     0.022 A 
BRANCH  86  89
ATOM     89  S   UNL A   1      46.054  36.644  27.632  1.00  0.00     0.127 S 
ATOM     90  O   UNL A   1      44.792  37.345  27.863  1.00  0.00    -0.237 OA
ATOM     91  O   UNL A   1      47.242  37.352  28.112  1.00  0.00    -0.237 OA
ATOM     92  O   UNL A   1      46.204  36.041  26.314  1.00  0.00    -0.744 OA
ENDBRANCH  86  89
ENDBRANCH  59  82
ENDBRANCH  33  34
ENDBRANCH  26  28
ENDBRANCH  25  26
ENDBRANCH   1  25
TORSDOF 16
ENDMDL
MODEL 2
REMARK VINA RESULT:     -11.9      4.780      9.973
REMARK SMILES COc1ccc([C@@H]2CC[NH2+][C@H]2C(=O)OCCOC(=O)c2ccc(-c3c4nc(c(-c5cccc(S(=O)(=O)[O-])c5F)c5ccc([nH]5)c(-c5cccc(S(=O)(=O)[O-])c5F)c5nc(c(-c6cccc(S(=O)(=O)[O-])c6F)c6ccc3[nH]6)C=C5)C=C4)cc2)c2ccccc12
REMARK SMILES IDX 16 1 15 2 14 3 12 4 13 5 11 6 7 7 8 8 9 9 10 10 6 13 3 14
REMARK SMILES IDX 4 15 88 16 5 17 83 18 87 19 84 20 86 21 85 22 2 23 1 24
REMARK SMILES IDX 17 25 18 26 19 27 20 28 21 29 82 30 22 31 81 32 23 33 24 34
REMARK SMILES IDX 25 35 75 36 26 37 80 38 74 39 76 40 27 41 79 42 73 43 72 44
REMARK SMILES IDX 28 46 60 47 40 48 59 49 41 50 44 51 58 52 77 53 42 54 43 55
REMARK SMILES IDX 57 57 78 58 45 59 29 60 30 61 38 62 31 63 33 64 39 65 32 66
REMARK SMILES IDX 34 67 35 68 36 69 37 70 61 71 62 72 70 73 63 74 65 75 71 76
REMARK SMILES IDX 64 77 66 78 67 79 68 80 69 81 46 82 47 83 55 84 48 85 50 86
REMARK SMILES IDX 56 87 49 88 51 89 52 90 53 91 54 92
REMARK H PARENT 10 11 10 12 76 45 44 56
REMARK Flexibility Score: inf
ROOT
ATOM      1  C   UNL A   1      31.694  29.827  26.003  1.00  0.00     0.275 C 
ENDROOT
BRANCH   1   2
ATOM      2  C   UNL A   1      31.529  28.750  24.924  1.00  0.00     0.274 C 
BRANCH   2   3
ATOM      3  O   UNL A   1      32.705  27.930  24.769  1.00  0.00    -0.458 OA
BRANCH   3   4
ATOM      4  C   UNL A   1      33.326  28.009  23.556  1.00  0.00     0.365 C 
ATOM      5  O   UNL A   1      33.539  29.058  22.961  1.00  0.00    -0.245 OA
BRANCH   4   6
ATOM      6  C   UNL A   1      33.643  26.626  22.957  1.00  0.00     0.301 C 
ATOM      7  C   UNL A   1      33.014  25.424  23.710  1.00  0.00     0.095 C 
ATOM      8  C   UNL A   1      32.129  24.764  22.646  1.00  0.00     0.076 C 
ATOM      9  C   UNL A   1      32.743  25.185  21.327  1.00  0.00     0.262 C 
ATOM     10  N   UNL A   1      33.156  26.572  21.544  1.00  0.00    -0.334 N 
ATOM     11  H   UNL A   1      32.366  27.204  21.414  1.00  0.00     0.347 HD
ATOM     12  H   UNL A   1      33.878  26.859  20.883  1.00  0.00     0.347 HD
BRANCH   7  13
ATOM     13  C   UNL A   1      33.998  24.407  24.315  1.00  0.00    -0.030 A 
ATOM     14  C   UNL A   1      35.873  22.553  25.329  1.00  0.00     0.126 A 
ATOM     15  C   UNL A   1      36.137  23.236  24.147  1.00  0.00     0.047 A 
ATOM     16  C   UNL A   1      34.660  22.746  26.018  1.00  0.00     0.024 A 
ATOM     17  C   UNL A   1      35.215  24.154  23.652  1.00  0.00     0.009 A 
ATOM     18  C   UNL A   1      33.699  23.667  25.510  1.00  0.00    -0.011 A 
ATOM     19  C   UNL A   1      34.392  22.042  27.214  1.00  0.00     0.012 A 
ATOM     20  C   UNL A   1      32.490  23.788  26.243  1.00  0.00     0.009 A 
ATOM     21  C   UNL A   1      33.207  22.217  27.920  1.00  0.00     0.001 A 
ATOM     22  C   UNL A   1      32.252  23.089  27.431  1.00  0.00     0.001 A 
BRANCH  14  23
ATOM     23  O   UNL A   1      36.751  21.601  25.797  1.00  0.00    -0.496 OA
ATOM     24  C   UNL A   1      36.957  20.532  24.873  1.00  0.00     0.278 C 
ENDBRANCH  14  23
ENDBRANCH   7  13
ENDBRANCH   4   6
ENDBRANCH   3   4
ENDBRANCH   2   3
ENDBRANCH   1   2
BRANCH   1  25
ATOM     25  O   UNL A   1      32.967  30.491  25.916  1.00  0.00    -0.458 OA
BRANCH  25  26
ATOM     26  C   UNL A   1      33.207  31.372  26.915  1.00  0.00     0.338 C 
ATOM     27  O   UNL A   1      32.445  32.234  27.315  1.00  0.00    -0.246 OA
BRANCH  26  28
ATOM     28  C   UNL A   1      34.497  31.078  27.555  1.00  0.00     0.060 A 
ATOM     29  C   UNL A   1      34.769  29.761  27.939  1.00  0.00     0.016 A 
ATOM     30  C   UNL A   1      35.390  32.104  27.856  1.00  0.00     0.016 A 
ATOM     31  C   UNL A   1      35.940  29.461  28.626  1.00  0.00     0.010 A 
ATOM     32  C   UNL A   1      36.567  31.802  28.545  1.00  0.00     0.010 A 
ATOM     33  C   UNL A   1      36.844  30.481  28.943  1.00  0.00    -0.014 A 
BRANCH  33  34
ATOM     34  C   UNL A   1      38.066  30.185  29.725  1.00  0.00     0.031 A 
ATOM     35  C   UNL A   1      39.082  29.226  29.175  1.00  0.00     0.074 A 
ATOM     36  C   UNL A   1      38.237  30.744  30.937  1.00  0.00     0.049 A 
ATOM     37  N   UNL A   1      40.142  28.727  29.754  1.00  0.00    -0.248 NA
ATOM     38  C   UNL A   1      38.877  28.766  27.791  1.00  0.00     0.031 C 
ATOM     39  C   UNL A   1      37.325  31.703  31.559  1.00  0.00     0.029 A 
ATOM     40  N   UNL A   1      39.222  30.561  31.875  1.00  0.00    -0.354 N 
ATOM     41  C   UNL A   1      40.706  27.859  28.828  1.00  0.00     0.074 A 
ATOM     42  C   UNL A   1      39.874  27.905  27.643  1.00  0.00     0.031 C 
ATOM     43  C   UNL A   1      37.777  32.004  32.788  1.00  0.00     0.029 A 
ATOM     44  C   UNL A   1      38.987  31.230  33.053  1.00  0.00     0.049 A 
ATOM     45  H   UNL A   1      40.020  30.004  31.719  1.00  0.00     0.167 HD
ATOM     46  C   UNL A   1      41.820  27.101  28.952  1.00  0.00     0.034 A 
ATOM     47  C   UNL A   1      39.654  31.195  34.224  1.00  0.00     0.034 A 
ATOM     48  C   UNL A   1      42.658  27.088  30.122  1.00  0.00     0.049 A 
ATOM     49  C   UNL A   1      40.884  30.335  34.337  1.00  0.00     0.074 A 
ATOM     50  C   UNL A   1      43.823  26.372  30.338  1.00  0.00     0.029 A 
ATOM     51  N   UNL A   1      42.425  27.829  31.270  1.00  0.00    -0.354 N 
ATOM     52  N   UNL A   1      41.448  29.579  33.426  1.00  0.00    -0.248 NA
ATOM     53  C   UNL A   1      41.585  30.340  35.629  1.00  0.00     0.031 C 
ATOM     54  C   UNL A   1      44.290  26.677  31.620  1.00  0.00     0.029 A 
ATOM     55  C   UNL A   1      43.425  27.594  32.197  1.00  0.00     0.049 A 
ATOM     56  H   UNL A   1      41.660  28.434  31.406  1.00  0.00     0.167 HD
ATOM     57  C   UNL A   1      42.589  29.052  34.021  1.00  0.00     0.074 A 
ATOM     58  C   UNL A   1      42.642  29.584  35.366  1.00  0.00     0.031 C 
ATOM     59  C   UNL A   1      43.501  28.191  33.504  1.00  0.00     0.034 A 
BRANCH  46  60
ATOM     60  C   UNL A   1      42.222  26.244  27.782  1.00  0.00     0.023 A 
ATOM     61  C   UNL A   1      43.092  26.770  26.807  1.00  0.00     0.012 A 
ATOM     62  C   UNL A   1      41.797  24.905  27.682  1.00  0.00     0.148 A 
ATOM     63  C   UNL A   1      43.516  25.983  25.736  1.00  0.00     0.002 A 
ATOM     64  C   UNL A   1      42.254  24.116  26.633  1.00  0.00     0.091 A 
ATOM     65  F   UNL A   1      40.951  24.431  28.608  1.00  0.00    -0.205 F 
ATOM     66  C   UNL A   1      43.106  24.655  25.656  1.00  0.00     0.022 A 
BRANCH  64  67
ATOM     67  S   UNL A   1      41.838  22.374  26.482  1.00  0.00     0.127 S 
ATOM     68  O   UNL A   1      42.570  21.999  25.272  1.00  0.00    -0.237 OA
ATOM     69  O   UNL A   1      42.383  21.816  27.720  1.00  0.00    -0.237 OA
ATOM     70  O   UNL A   1      40.386  22.317  26.380  1.00  0.00    -0.744 OA
ENDBRANCH  64  67
ENDBRANCH  46  60
BRANCH  47  71
ATOM     71  C   UNL A   1      39.193  32.032  35.367  1.00  0.00     0.023 A 
ATOM     72  C   UNL A   1      38.272  31.495  36.288  1.00  0.00     0.012 A 
ATOM     73  C   UNL A   1      39.678  33.339  35.566  1.00  0.00     0.148 A 
ATOM     74  C   UNL A   1      37.825  32.251  37.371  1.00  0.00     0.002 A 
ATOM     75  C   UNL A   1      39.269  34.069  36.678  1.00  0.00     0.091 A 
ATOM     76  F   UNL A   1      40.535  33.845  34.668  1.00  0.00    -0.205 F 
ATOM     77  C   UNL A   1      38.331  33.533  37.573  1.00  0.00     0.022 A 
BRANCH  75  78
ATOM     78  S   UNL A   1      39.972  35.674  37.076  1.00  0.00     0.127 S 
ATOM     79  O   UNL A   1      41.387  35.348  37.244  1.00  0.00    -0.237 OA
ATOM     80  O   UNL A   1      39.658  36.454  35.878  1.00  0.00    -0.237 OA
ATOM     81  O   UNL A   1      39.271  36.115  38.273  1.00  0.00    -0.744 OA
ENDBRANCH  75  78
ENDBRANCH  47  71
BRANCH  59  82
ATOM     82  C   UNL A   1      44.669  27.806  34.370  1.00  0.00     0.023 A 
ATOM     83  C   UNL A   1      45.828  28.607  34.375  1.00  0.00     0.012 A 
ATOM     84  C   UNL A   1      44.578  26.708  35.247  1.00  0.00     0.148 A 
ATOM     85  C   UNL A   1      46.888  28.308  35.232  1.00  0.00     0.002 A 
ATOM     86  C   UNL A   1      45.621  26.443  36.127  1.00  0.00     0.091 A 
ATOM     87  F   UNL A   1      43.474  25.948  35.210  1.00  0.00    -0.205 F 
ATOM     88  C   UNL A   1      46.779  27.237  36.115  1.00  0.00     0.022 A 
BRANCH  86  89
ATOM     89  S   UNL A   1      45.529  25.139  37.360  1.00  0.00     0.127 S 
ATOM     90  O   UNL A   1      45.690  23.940  36.539  1.00  0.00    -0.237 OA
ATOM     91  O   UNL A   1      46.671  25.445  38.223  1.00  0.00    -0.237 OA
ATOM     92  O   UNL A   1      44.231  25.288  38.004  1.00  0.00    -0.744 OA
ENDBRANCH  86  89
ENDBRANCH  59  82
ENDBRANCH  33  34
ENDBRANCH  26  28
ENDBRANCH  25  26
ENDBRANCH   1  25
TORSDOF 16
ENDMDL
MODEL 3
REMARK VINA RESULT:     -11.9      1.609      1.880
REMARK SMILES COc1ccc([C@@H]2CC[NH2+][C@H]2C(=O)OCCOC(=O)c2ccc(-c3c4nc(c(-c5cccc(S(=O)(=O)[O-])c5F)c5ccc([nH]5)c(-c5cccc(S(=O)(=O)[O-])c5F)c5nc(c(-c6cccc(S(=O)(=O)[O-])c6F)c6ccc3[nH]6)C=C5)C=C4)cc2)c2ccccc12
REMARK SMILES IDX 16 1 15 2 14 3 12 4 13 5 11 6 7 7 8 8 9 9 10 10 6 13 3 14
REMARK SMILES IDX 4 15 88 16 5 17 83 18 87 19 84 20 86 21 85 22 2 23 1 24
REMARK SMILES IDX 17 25 18 26 19 27 20 28 21 29 82 30 22 31 81 32 23 33 24 34
REMARK SMILES IDX 25 35 75 36 26 37 80 38 74 39 76 40 27 41 79 42 73 43 72 44
REMARK SMILES IDX 28 46 60 47 40 48 59 49 41 50 44 51 58 52 77 53 42 54 43 55
REMARK SMILES IDX 57 57 78 58 45 59 29 60 30 61 38 62 31 63 33 64 39 65 32 66
REMARK SMILES IDX 34 67 35 68 36 69 37 70 61 71 62 72 70 73 63 74 65 75 71 76
REMARK SMILES IDX 64 77 66 78 67 79 68 80 69 81 46 82 47 83 55 84 48 85 50 86
REMARK SMILES IDX 56 87 49 88 51 89 52 90 53 91 54 92
REMARK H PARENT 10 11 10 12 76 45 44 56
REMARK Flexibility Score: inf
ROOT
ATOM      1  C   UNL A   1      36.570  20.354  25.001  1.00  0.00     0.275 C 
ENDROOT
BRANCH   1   2
ATOM      2  C   UNL A   1      35.097  20.703  24.764  1.00  0.00     0.274 C 
BRANCH   2   3
ATOM      3  O   UNL A   1      34.881  22.117  24.578  1.00  0.00    -0.458 OA
BRANCH   3   4
ATOM      4  C   UNL A   1      33.600  22.486  24.287  1.00  0.00     0.365 C 
ATOM      5  O   UNL A   1      33.027  22.210  23.240  1.00  0.00    -0.245 OA
BRANCH   4   6
ATOM      6  C   UNL A   1      32.975  23.382  25.373  1.00  0.00     0.301 C 
ATOM      7  C   UNL A   1      31.911  24.388  24.862  1.00  0.00     0.095 C 
ATOM      8  C   UNL A   1      30.647  23.990  25.632  1.00  0.00     0.076 C 
ATOM      9  C   UNL A   1      31.164  23.294  26.875  1.00  0.00     0.262 C 
ATOM     10  N   UNL A   1      32.318  22.525  26.408  1.00  0.00    -0.334 N 
ATOM     11  H   UNL A   1      32.016  21.641  26.000  1.00  0.00     0.347 HD
ATOM     12  H   UNL A   1      32.955  22.298  27.171  1.00  0.00     0.347 HD
BRANCH   7  13
ATOM     13  C   UNL A   1      32.230  25.881  25.063  1.00  0.00    -0.030 A 
ATOM     14  C   UNL A   1      32.902  28.588  25.510  1.00  0.00     0.126 A 
ATOM     15  C   UNL A   1      33.654  27.577  26.099  1.00  0.00     0.047 A 
ATOM     16  C   UNL A   1      31.779  28.284  24.716  1.00  0.00     0.024 A 
ATOM     17  C   UNL A   1      33.326  26.244  25.871  1.00  0.00     0.009 A 
ATOM     18  C   UNL A   1      31.421  26.923  24.494  1.00  0.00    -0.011 A 
ATOM     19  C   UNL A   1      31.012  29.316  24.130  1.00  0.00     0.012 A 
ATOM     20  C   UNL A   1      30.263  26.695  23.707  1.00  0.00     0.009 A 
ATOM     21  C   UNL A   1      29.904  29.046  23.334  1.00  0.00     0.001 A 
ATOM     22  C   UNL A   1      29.527  27.732  23.126  1.00  0.00     0.001 A 
BRANCH  14  23
ATOM     23  O   UNL A   1      33.182  29.910  25.775  1.00  0.00    -0.496 OA
ATOM     24  C   UNL A   1      32.657  30.351  27.027  1.00  0.00     0.278 C 
ENDBRANCH  14  23
ENDBRANCH   7  13
ENDBRANCH   4   6
ENDBRANCH   3   4
ENDBRANCH   2   3
ENDBRANCH   1   2
BRANCH   1  25
ATOM     25  O   UNL A   1      37.311  21.463  25.540  1.00  0.00    -0.458 OA
BRANCH  25  26
ATOM     26  C   UNL A   1      38.578  21.162  25.911  1.00  0.00     0.338 C 
ATOM     27  O   UNL A   1      39.141  20.095  25.752  1.00  0.00    -0.246 OA
BRANCH  26  28
ATOM     28  C   UNL A   1      39.249  22.357  26.442  1.00  0.00     0.060 A 
ATOM     29  C   UNL A   1      38.756  23.616  26.088  1.00  0.00     0.016 A 
ATOM     30  C   UNL A   1      40.408  22.238  27.207  1.00  0.00     0.016 A 
ATOM     31  C   UNL A   1      39.418  24.768  26.499  1.00  0.00     0.010 A 
ATOM     32  C   UNL A   1      41.073  23.395  27.620  1.00  0.00     0.010 A 
ATOM     33  C   UNL A   1      40.588  24.666  27.261  1.00  0.00    -0.014 A 
BRANCH  33  34
ATOM     34  C   UNL A   1      41.335  25.882  27.655  1.00  0.00     0.031 A 
ATOM     35  C   UNL A   1      40.647  26.942  28.466  1.00  0.00     0.074 A 
ATOM     36  C   UNL A   1      42.608  26.046  27.251  1.00  0.00     0.049 A 
ATOM     37  N   UNL A   1      41.072  28.133  28.795  1.00  0.00    -0.248 NA
ATOM     38  C   UNL A   1      39.303  26.620  28.973  1.00  0.00     0.031 C 
ATOM     39  C   UNL A   1      43.379  25.073  26.478  1.00  0.00     0.029 A 
ATOM     40  N   UNL A   1      43.466  27.106  27.408  1.00  0.00    -0.354 N 
ATOM     41  C   UNL A   1      40.034  28.723  29.505  1.00  0.00     0.074 A 
ATOM     42  C   UNL A   1      38.960  27.755  29.566  1.00  0.00     0.031 C 
ATOM     43  C   UNL A   1      44.587  25.591  26.203  1.00  0.00     0.029 A 
ATOM     44  C   UNL A   1      44.660  26.945  26.746  1.00  0.00     0.049 A 
ATOM     45  H   UNL A   1      43.247  27.903  27.943  1.00  0.00     0.167 HD
ATOM     46  C   UNL A   1      39.987  29.956  30.060  1.00  0.00     0.034 A 
ATOM     47  C   UNL A   1      45.682  27.806  26.569  1.00  0.00     0.034 A 
ATOM     48  C   UNL A   1      41.074  30.898  30.022  1.00  0.00     0.049 A 
ATOM     49  C   UNL A   1      45.598  29.175  27.190  1.00  0.00     0.074 A 
ATOM     50  C   UNL A   1      41.134  32.165  30.576  1.00  0.00     0.029 A 
ATOM     51  N   UNL A   1      42.292  30.675  29.399  1.00  0.00    -0.354 N 
ATOM     52  N   UNL A   1      44.642  29.689  27.924  1.00  0.00    -0.248 NA
ATOM     53  C   UNL A   1      46.743  30.073  26.982  1.00  0.00     0.031 C 
ATOM     54  C   UNL A   1      42.388  32.710  30.283  1.00  0.00     0.029 A 
ATOM     55  C   UNL A   1      43.114  31.777  29.559  1.00  0.00     0.049 A 
ATOM     56  H   UNL A   1      42.537  29.854  28.915  1.00  0.00     0.167 HD
ATOM     57  C   UNL A   1      45.084  30.953  28.297  1.00  0.00     0.074 A 
ATOM     58  C   UNL A   1      46.401  31.122  27.719  1.00  0.00     0.031 C 
ATOM     59  C   UNL A   1      44.451  31.896  29.039  1.00  0.00     0.034 A 
BRANCH  46  60
ATOM     60  C   UNL A   1      38.731  30.351  30.791  1.00  0.00     0.023 A 
ATOM     61  C   UNL A   1      38.570  29.978  32.140  1.00  0.00     0.012 A 
ATOM     62  C   UNL A   1      37.747  31.143  30.168  1.00  0.00     0.148 A 
ATOM     63  C   UNL A   1      37.437  30.369  32.852  1.00  0.00     0.002 A 
ATOM     64  C   UNL A   1      36.639  31.560  30.896  1.00  0.00     0.091 A 
ATOM     65  F   UNL A   1      37.909  31.467  28.877  1.00  0.00    -0.205 F 
ATOM     66  C   UNL A   1      36.479  31.167  32.235  1.00  0.00     0.022 A 
BRANCH  64  67
ATOM     67  S   UNL A   1      35.385  32.649  30.209  1.00  0.00     0.127 S 
ATOM     68  O   UNL A   1      36.179  33.826  29.856  1.00  0.00    -0.237 OA
ATOM     69  O   UNL A   1      34.899  31.878  29.064  1.00  0.00    -0.237 OA
ATOM     70  O   UNL A   1      34.404  32.847  31.266  1.00  0.00    -0.744 OA
ENDBRANCH  64  67
ENDBRANCH  46  60
BRANCH  47  71
ATOM     71  C   UNL A   1      46.888  27.382  25.804  1.00  0.00     0.023 A 
ATOM     72  C   UNL A   1      47.846  26.559  26.427  1.00  0.00     0.012 A 
ATOM     73  C   UNL A   1      47.080  27.762  24.462  1.00  0.00     0.148 A 
ATOM     74  C   UNL A   1      48.984  26.141  25.736  1.00  0.00     0.002 A 
ATOM     75  C   UNL A   1      48.189  27.298  23.762  1.00  0.00     0.091 A 
ATOM     76  F   UNL A   1      46.172  28.566  23.890  1.00  0.00    -0.205 F 
ATOM     77  C   UNL A   1      49.150  26.501  24.401  1.00  0.00     0.022 A 
BRANCH  75  78
ATOM     78  S   UNL A   1      48.407  27.612  22.006  1.00  0.00     0.127 S 
ATOM     79  O   UNL A   1      49.570  28.496  22.001  1.00  0.00    -0.237 OA
ATOM     80  O   UNL A   1      48.653  26.268  21.481  1.00  0.00    -0.237 OA
ATOM     81  O   UNL A   1      47.153  28.203  21.561  1.00  0.00    -0.744 OA
ENDBRANCH  75  78
ENDBRANCH  47  71
BRANCH  59  82
ATOM     82  C   UNL A   1      45.186  33.178  29.318  1.00  0.00     0.023 A 
ATOM     83  C   UNL A   1      46.001  33.280  30.462  1.00  0.00     0.012 A 
ATOM     84  C   UNL A   1      45.145  34.242  28.396  1.00  0.00     0.148 A 
ATOM     85  C   UNL A   1      46.752  34.433  30.693  1.00  0.00     0.002 A 
ATOM     86  C   UNL A   1      45.929  35.369  28.612  1.00  0.00     0.091 A 
ATOM     87  F   UNL A   1      44.348  34.130  27.324  1.00  0.00    -0.205 F 
ATOM     88  C   UNL A   1      46.727  35.470  29.763  1.00  0.00     0.022 A 
BRANCH  86  89
ATOM     89  S   UNL A   1      46.026  36.713  27.423  1.00  0.00     0.127 S 
ATOM     90  O   UNL A   1      44.643  37.184  27.392  1.00  0.00    -0.237 OA
ATOM     91  O   UNL A   1      46.969  37.630  28.066  1.00  0.00    -0.237 OA
ATOM     92  O   UNL A   1      46.514  36.118  26.185  1.00  0.00    -0.744 OA
ENDBRANCH  86  89
ENDBRANCH  59  82
ENDBRANCH  33  34
ENDBRANCH  26  28
ENDBRANCH  25  26
ENDBRANCH   1  25
TORSDOF 16
ENDMDL
