MODEL 1
REMARK VINA RESULT:     -11.9      0.000      0.000
REMARK SMILES O=C(OCCOC(=O)[C@H]1Cc2[nH]cnc2CN1C(=O)NCc1nc[nH]n1)c1ccc(-c2c3nc(c(-c4cccc(S(=O)(=O)[O-])c4F)c4ccc([nH]4)c(-c4cccc(S(=O)(=O)[O-])c4F)c4nc(c(-c5cccc(S(=O)(=O)[O-])c5F)c5ccc2[nH]5)C=C4)C=C3)cc1
REMARK SMILES IDX 4 1 3 2 2 3 1 4 27 5 28 6 89 7 29 8 88 9 30 10 31 11 32 12
REMARK SMILES IDX 82 13 33 14 87 15 81 16 83 17 34 18 86 19 80 20 79 21 35 23
REMARK SMILES IDX 67 24 47 25 66 26 48 27 51 28 65 29 84 30 49 31 50 32 64 34
REMARK SMILES IDX 85 35 52 36 36 37 37 38 45 39 38 40 40 41 46 42 39 43 41 44
REMARK SMILES IDX 42 45 43 46 44 47 68 48 69 49 77 50 70 51 72 52 78 53 71 54
REMARK SMILES IDX 73 55 74 56 75 57 76 58 53 59 54 60 62 61 55 62 57 63 63 64
REMARK SMILES IDX 56 65 58 66 59 67 60 68 61 69 5 70 6 71 7 72 8 73 9 74 10 75
REMARK SMILES IDX 17 76 11 77 16 78 12 79 15 80 13 81 14 83 18 84 19 85 20 86
REMARK SMILES IDX 21 88 22 89 23 90 26 91 24 92 25 93
REMARK H PARENT 83 22 51 33 12 82 20 87 25 94
REMARK Flexibility Score: inf
ROOT
ATOM      1  C   UNL A   1      37.269  21.064  25.534  1.00  0.00     0.275 C 
ENDROOT
BRANCH   1   2
ATOM      2  O   UNL A   1      38.477  21.801  25.312  1.00  0.00    -0.458 OA
BRANCH   2   3
ATOM      3  C   UNL A   1      39.528  21.958  26.141  1.00  0.00     0.338 C 
ATOM      4  O   UNL A   1      40.457  21.154  26.082  1.00  0.00    -0.246 OA
BRANCH   3   5
ATOM      5  C   UNL A   1      39.686  23.179  26.984  1.00  0.00     0.060 A 
ATOM      6  C   UNL A   1      38.916  24.343  26.894  1.00  0.00     0.016 A 
ATOM      7  C   UNL A   1      40.804  23.181  27.837  1.00  0.00     0.016 A 
ATOM      8  C   UNL A   1      39.333  25.517  27.493  1.00  0.00     0.010 A 
ATOM      9  C   UNL A   1      41.224  24.348  28.451  1.00  0.00     0.010 A 
ATOM     10  C   UNL A   1      40.524  25.524  28.206  1.00  0.00    -0.014 A 
BRANCH  10  11
ATOM     11  C   UNL A   1      40.993  26.796  28.713  1.00  0.00     0.031 A 
ATOM     12  C   UNL A   1      42.314  27.223  28.193  1.00  0.00     0.074 A 
ATOM     13  C   UNL A   1      40.228  27.574  29.500  1.00  0.00     0.049 A 
ATOM     14  N   UNL A   1      43.446  27.280  28.812  1.00  0.00    -0.248 NA
ATOM     15  C   UNL A   1      42.411  27.464  26.749  1.00  0.00     0.031 C 
ATOM     16  C   UNL A   1      38.809  27.418  29.831  1.00  0.00     0.029 A 
ATOM     17  N   UNL A   1      40.543  28.770  30.057  1.00  0.00    -0.354 N 
ATOM     18  C   UNL A   1      44.353  27.799  27.888  1.00  0.00     0.074 A 
ATOM     19  C   UNL A   1      43.720  27.679  26.603  1.00  0.00     0.031 C 
ATOM     20  C   UNL A   1      38.335  28.595  30.298  1.00  0.00     0.029 A 
ATOM     21  C   UNL A   1      39.442  29.526  30.434  1.00  0.00     0.049 A 
ATOM     22  H   UNL A   1      41.472  29.074  30.183  1.00  0.00     0.167 HD
ATOM     23  C   UNL A   1      45.443  28.520  28.275  1.00  0.00     0.034 A 
ATOM     24  C   UNL A   1      39.453  30.845  30.752  1.00  0.00     0.034 A 
ATOM     25  C   UNL A   1      45.701  28.355  29.682  1.00  0.00     0.049 A 
ATOM     26  C   UNL A   1      40.853  31.205  31.081  1.00  0.00     0.074 A 
ATOM     27  C   UNL A   1      45.951  27.277  30.506  1.00  0.00     0.029 A 
ATOM     28  N   UNL A   1      45.311  29.381  30.511  1.00  0.00    -0.354 N 
ATOM     29  N   UNL A   1      41.481  30.744  32.127  1.00  0.00    -0.248 NA
ATOM     30  C   UNL A   1      41.702  31.705  30.010  1.00  0.00     0.031 C 
ATOM     31  C   UNL A   1      45.193  27.549  31.683  1.00  0.00     0.029 A 
ATOM     32  C   UNL A   1      44.613  28.812  31.541  1.00  0.00     0.049 A 
ATOM     33  H   UNL A   1      45.500  30.340  30.387  1.00  0.00     0.167 HD
ATOM     34  C   UNL A   1      42.761  30.467  31.666  1.00  0.00     0.074 A 
ATOM     35  C   UNL A   1      42.868  31.174  30.389  1.00  0.00     0.031 C 
ATOM     36  C   UNL A   1      43.503  29.455  32.204  1.00  0.00     0.034 A 
BRANCH  23  37
ATOM     37  C   UNL A   1      46.060  29.670  27.504  1.00  0.00     0.023 A 
ATOM     38  C   UNL A   1      47.471  29.775  27.521  1.00  0.00     0.012 A 
ATOM     39  C   UNL A   1      45.348  30.790  27.021  1.00  0.00     0.148 A 
ATOM     40  C   UNL A   1      48.128  30.956  27.160  1.00  0.00     0.002 A 
ATOM     41  C   UNL A   1      46.008  31.936  26.590  1.00  0.00     0.091 A 
ATOM     42  F   UNL A   1      44.015  30.822  27.090  1.00  0.00    -0.205 F 
ATOM     43  C   UNL A   1      47.396  32.038  26.692  1.00  0.00     0.022 A 
BRANCH  41  44
ATOM     44  S   UNL A   1      45.111  33.347  25.933  1.00  0.00     0.127 S 
ATOM     45  O   UNL A   1      44.344  33.772  27.098  1.00  0.00    -0.237 OA
ATOM     46  O   UNL A   1      46.202  34.238  25.543  1.00  0.00    -0.237 OA
ATOM     47  O   UNL A   1      44.334  32.825  24.810  1.00  0.00    -0.744 OA
ENDBRANCH  41  44
ENDBRANCH  23  37
BRANCH  24  48
ATOM     48  C   UNL A   1      38.411  31.877  30.551  1.00  0.00     0.023 A 
ATOM     49  C   UNL A   1      37.859  32.066  29.269  1.00  0.00     0.012 A 
ATOM     50  C   UNL A   1      37.760  32.473  31.653  1.00  0.00     0.148 A 
ATOM     51  C   UNL A   1      36.676  32.794  29.093  1.00  0.00     0.002 A 
ATOM     52  C   UNL A   1      36.587  33.199  31.475  1.00  0.00     0.091 A 
ATOM     53  F   UNL A   1      38.238  32.247  32.884  1.00  0.00    -0.205 F 
ATOM     54  C   UNL A   1      36.036  33.353  30.196  1.00  0.00     0.022 A 
BRANCH  52  55
ATOM     55  S   UNL A   1      35.682  33.914  32.854  1.00  0.00     0.127 S 
ATOM     56  O   UNL A   1      34.495  34.453  32.189  1.00  0.00    -0.237 OA
ATOM     57  O   UNL A   1      35.437  32.744  33.692  1.00  0.00    -0.237 OA
ATOM     58  O   UNL A   1      36.561  34.926  33.424  1.00  0.00    -0.744 OA
ENDBRANCH  52  55
ENDBRANCH  24  48
BRANCH  36  59
ATOM     59  C   UNL A   1      42.999  28.773  33.450  1.00  0.00     0.023 A 
ATOM     60  C   UNL A   1      41.995  27.782  33.423  1.00  0.00     0.012 A 
ATOM     61  C   UNL A   1      43.706  28.990  34.643  1.00  0.00     0.148 A 
ATOM     62  C   UNL A   1      41.697  27.035  34.567  1.00  0.00     0.002 A 
ATOM     63  C   UNL A   1      43.446  28.208  35.759  1.00  0.00     0.091 A 
ATOM     64  F   UNL A   1      44.656  29.938  34.654  1.00  0.00    -0.205 F 
ATOM     65  C   UNL A   1      42.435  27.237  35.731  1.00  0.00     0.022 A 
BRANCH  63  66
ATOM     66  S   UNL A   1      44.474  28.327  37.224  1.00  0.00     0.127 S 
ATOM     67  O   UNL A   1      44.037  27.170  37.999  1.00  0.00    -0.237 OA
ATOM     68  O   UNL A   1      45.826  28.219  36.672  1.00  0.00    -0.237 OA
ATOM     69  O   UNL A   1      44.180  29.630  37.808  1.00  0.00    -0.744 OA
ENDBRANCH  63  66
ENDBRANCH  36  59
ENDBRANCH  10  11
ENDBRANCH   3   5
ENDBRANCH   2   3
ENDBRANCH   1   2
BRANCH   1  70
ATOM     70  C   UNL A   1      36.115  21.404  24.601  1.00  0.00     0.274 C 
BRANCH  70  71
ATOM     71  O   UNL A   1      35.147  22.431  24.928  1.00  0.00    -0.461 OA
BRANCH  71  72
ATOM     72  C   UNL A   1      34.821  23.305  23.923  1.00  0.00     0.329 C 
ATOM     73  O   UNL A   1      35.440  23.365  22.867  1.00  0.00    -0.250 OA
BRANCH  72  74
ATOM     74  C   UNL A   1      33.513  24.099  24.120  1.00  0.00     0.203 C 
ATOM     75  C   UNL A   1      33.637  25.172  22.963  1.00  0.00     0.093 C 
ATOM     76  N   UNL A   1      32.112  23.480  24.246  1.00  0.00    -0.305 N 
ATOM     77  C   UNL A   1      32.417  25.979  22.848  1.00  0.00     0.042 A 
ATOM     78  C   UNL A   1      30.988  24.474  24.249  1.00  0.00     0.180 C 
ATOM     79  N   UNL A   1      32.207  27.145  22.174  1.00  0.00    -0.348 N 
ATOM     80  C   UNL A   1      31.211  25.645  23.388  1.00  0.00     0.081 A 
ATOM     81  C   UNL A   1      30.878  27.452  22.311  1.00  0.00     0.197 A 
ATOM     82  H   UNL A   1      32.882  27.667  21.682  1.00  0.00     0.167 HD
ATOM     83  N   UNL A   1      30.254  26.569  23.061  1.00  0.00    -0.240 NA
BRANCH  76  84
ATOM     84  C   UNL A   1      31.692  22.415  25.023  1.00  0.00     0.318 C 
ATOM     85  O   UNL A   1      30.762  22.514  25.835  1.00  0.00    -0.249 OA
ATOM     86  N   UNL A   1      32.290  21.223  25.078  1.00  0.00    -0.331 N 
ATOM     87  H   UNL A   1      32.598  20.958  25.974  1.00  0.00     0.165 HD
BRANCH  86  88
ATOM     88  C   UNL A   1      32.562  20.264  24.041  1.00  0.00     0.197 C 
BRANCH  88  89
ATOM     89  C   UNL A   1      32.862  18.928  24.640  1.00  0.00     0.169 A 
ATOM     90  N   UNL A   1      33.510  17.921  23.963  1.00  0.00    -0.218 NA
ATOM     91  N   UNL A   1      32.564  18.618  25.903  1.00  0.00    -0.157 NA
ATOM     92  C   UNL A   1      33.598  16.966  24.864  1.00  0.00     0.216 A 
ATOM     93  N   UNL A   1      33.024  17.374  26.024  1.00  0.00    -0.266 N 
ATOM     94  H   UNL A   1      32.956  16.828  26.841  1.00  0.00     0.191 HD
ENDBRANCH  88  89
ENDBRANCH  86  88
ENDBRANCH  76  84
ENDBRANCH  72  74
ENDBRANCH  71  72
ENDBRANCH  70  71
ENDBRANCH   1  70
TORSDOF 17
ENDMDL
MODEL 2
REMARK VINA RESULT:     -11.9      3.160      8.891
REMARK SMILES O=C(OCCOC(=O)[C@H]1Cc2[nH]cnc2CN1C(=O)NCc1nc[nH]n1)c1ccc(-c2c3nc(c(-c4cccc(S(=O)(=O)[O-])c4F)c4ccc([nH]4)c(-c4cccc(S(=O)(=O)[O-])c4F)c4nc(c(-c5cccc(S(=O)(=O)[O-])c5F)c5ccc2[nH]5)C=C4)C=C3)cc1
REMARK SMILES IDX 4 1 3 2 2 3 1 4 27 5 28 6 89 7 29 8 88 9 30 10 31 11 32 12
REMARK SMILES IDX 82 13 33 14 87 15 81 16 83 17 34 18 86 19 80 20 79 21 35 23
REMARK SMILES IDX 67 24 47 25 66 26 48 27 51 28 65 29 84 30 49 31 50 32 64 34
REMARK SMILES IDX 85 35 52 36 36 37 37 38 45 39 38 40 40 41 46 42 39 43 41 44
REMARK SMILES IDX 42 45 43 46 44 47 68 48 69 49 77 50 70 51 72 52 78 53 71 54
REMARK SMILES IDX 73 55 74 56 75 57 76 58 53 59 54 60 62 61 55 62 57 63 63 64
REMARK SMILES IDX 56 65 58 66 59 67 60 68 61 69 5 70 6 71 7 72 8 73 9 74 10 75
REMARK SMILES IDX 17 76 11 77 16 78 12 79 15 80 13 81 14 83 18 84 19 85 20 86
REMARK SMILES IDX 21 88 22 89 23 90 26 91 24 92 25 93
REMARK H PARENT 83 22 51 33 12 82 20 87 25 94
REMARK Flexibility Score: inf
ROOT
ATOM      1  C   UNL A   1      33.248  30.127  27.190  1.00  0.00     0.275 C 
ENDROOT
BRANCH   1   2
ATOM      2  O   UNL A   1      34.298  31.099  27.250  1.00  0.00    -0.458 OA
BRANCH   2   3
ATOM      3  C   UNL A   1      34.892  31.626  28.339  1.00  0.00     0.338 C 
ATOM      4  O   UNL A   1      34.272  32.445  29.017  1.00  0.00    -0.246 OA
BRANCH   3   5
ATOM      5  C   UNL A   1      36.192  31.105  28.853  1.00  0.00     0.060 A 
ATOM      6  C   UNL A   1      37.330  31.868  29.130  1.00  0.00     0.016 A 
ATOM      7  C   UNL A   1      36.294  29.703  28.920  1.00  0.00     0.016 A 
ATOM      8  C   UNL A   1      38.563  31.266  29.300  1.00  0.00     0.010 A 
ATOM      9  C   UNL A   1      37.522  29.091  29.101  1.00  0.00     0.010 A 
ATOM     10  C   UNL A   1      38.658  29.884  29.210  1.00  0.00    -0.014 A 
BRANCH  10  11
ATOM     11  C   UNL A   1      39.981  29.299  29.268  1.00  0.00     0.031 A 
ATOM     12  C   UNL A   1      40.542  29.170  30.635  1.00  0.00     0.074 A 
ATOM     13  C   UNL A   1      40.591  28.808  28.175  1.00  0.00     0.049 A 
ATOM     14  N   UNL A   1      41.505  29.836  31.179  1.00  0.00    -0.248 NA
ATOM     15  C   UNL A   1      39.826  28.290  31.565  1.00  0.00     0.031 C 
ATOM     16  C   UNL A   1      40.030  28.596  26.839  1.00  0.00     0.029 A 
ATOM     17  N   UNL A   1      41.826  28.255  28.081  1.00  0.00    -0.354 N 
ATOM     18  C   UNL A   1      41.671  29.285  32.449  1.00  0.00     0.074 A 
ATOM     19  C   UNL A   1      40.487  28.511  32.702  1.00  0.00     0.031 C 
ATOM     20  C   UNL A   1      40.822  27.732  26.163  1.00  0.00     0.029 A 
ATOM     21  C   UNL A   1      42.004  27.457  26.960  1.00  0.00     0.049 A 
ATOM     22  H   UNL A   1      42.533  28.408  28.750  1.00  0.00     0.167 HD
ATOM     23  C   UNL A   1      42.876  29.296  33.087  1.00  0.00     0.034 A 
ATOM     24  C   UNL A   1      43.019  26.579  26.761  1.00  0.00     0.034 A 
ATOM     25  C   UNL A   1      43.785  30.222  32.464  1.00  0.00     0.049 A 
ATOM     26  C   UNL A   1      44.113  26.956  27.689  1.00  0.00     0.074 A 
ATOM     27  C   UNL A   1      43.762  31.575  32.193  1.00  0.00     0.029 A 
ATOM     28  N   UNL A   1      44.753  29.690  31.644  1.00  0.00    -0.354 N 
ATOM     29  N   UNL A   1      44.788  28.067  27.582  1.00  0.00    -0.248 NA
ATOM     30  C   UNL A   1      44.148  26.325  29.000  1.00  0.00     0.031 C 
ATOM     31  C   UNL A   1      44.311  31.681  30.881  1.00  0.00     0.029 A 
ATOM     32  C   UNL A   1      44.721  30.408  30.480  1.00  0.00     0.049 A 
ATOM     33  H   UNL A   1      45.352  28.937  31.855  1.00  0.00     0.167 HD
ATOM     34  C   UNL A   1      44.936  28.507  28.890  1.00  0.00     0.074 A 
ATOM     35  C   UNL A   1      44.615  27.347  29.722  1.00  0.00     0.031 C 
ATOM     36  C   UNL A   1      45.006  29.839  29.184  1.00  0.00     0.034 A 
BRANCH  23  37
ATOM     37  C   UNL A   1      43.389  28.220  34.024  1.00  0.00     0.023 A 
ATOM     38  C   UNL A   1      43.952  28.647  35.250  1.00  0.00     0.012 A 
ATOM     39  C   UNL A   1      43.612  26.874  33.660  1.00  0.00     0.148 A 
ATOM     40  C   UNL A   1      44.761  27.807  36.023  1.00  0.00     0.002 A 
ATOM     41  C   UNL A   1      44.353  26.019  34.469  1.00  0.00     0.091 A 
ATOM     42  F   UNL A   1      43.224  26.426  32.464  1.00  0.00    -0.205 F 
ATOM     43  C   UNL A   1      44.961  26.490  35.633  1.00  0.00     0.022 A 
BRANCH  41  44
ATOM     44  S   UNL A   1      44.603  24.294  34.033  1.00  0.00     0.127 S 
ATOM     45  O   UNL A   1      45.652  23.907  34.969  1.00  0.00    -0.237 OA
ATOM     46  O   UNL A   1      43.284  23.724  34.301  1.00  0.00    -0.237 OA
ATOM     47  O   UNL A   1      44.976  24.301  32.620  1.00  0.00    -0.744 OA
ENDBRANCH  41  44
ENDBRANCH  23  37
BRANCH  24  48
ATOM     48  C   UNL A   1      43.031  25.294  26.026  1.00  0.00     0.023 A 
ATOM     49  C   UNL A   1      44.037  25.051  25.070  1.00  0.00     0.012 A 
ATOM     50  C   UNL A   1      42.241  24.206  26.456  1.00  0.00     0.148 A 
ATOM     51  C   UNL A   1      44.274  23.760  24.585  1.00  0.00     0.002 A 
ATOM     52  C   UNL A   1      42.477  22.924  25.969  1.00  0.00     0.091 A 
ATOM     53  F   UNL A   1      41.326  24.411  27.412  1.00  0.00    -0.205 F 
ATOM     54  C   UNL A   1      43.501  22.696  25.040  1.00  0.00     0.022 A 
BRANCH  52  55
ATOM     55  S   UNL A   1      41.548  21.495  26.540  1.00  0.00     0.127 S 
ATOM     56  O   UNL A   1      41.918  21.440  27.954  1.00  0.00    -0.237 OA
ATOM     57  O   UNL A   1      40.171  21.909  26.283  1.00  0.00    -0.237 OA
ATOM     58  O   UNL A   1      42.026  20.368  25.751  1.00  0.00    -0.744 OA
ENDBRANCH  52  55
ENDBRANCH  24  48
BRANCH  36  59
ATOM     59  C   UNL A   1      45.134  30.823  28.050  1.00  0.00     0.023 A 
ATOM     60  C   UNL A   1      44.016  31.377  27.390  1.00  0.00     0.012 A 
ATOM     61  C   UNL A   1      46.406  31.357  27.790  1.00  0.00     0.148 A 
ATOM     62  C   UNL A   1      44.169  32.430  26.483  1.00  0.00     0.002 A 
ATOM     63  C   UNL A   1      46.547  32.439  26.933  1.00  0.00     0.091 A 
ATOM     64  F   UNL A   1      47.461  30.818  28.422  1.00  0.00    -0.205 F 
ATOM     65  C   UNL A   1      45.433  32.972  26.268  1.00  0.00     0.022 A 
BRANCH  63  66
ATOM     66  S   UNL A   1      48.128  33.265  26.748  1.00  0.00     0.127 S 
ATOM     67  O   UNL A   1      47.849  34.224  25.683  1.00  0.00    -0.237 OA
ATOM     68  O   UNL A   1      48.332  33.860  28.070  1.00  0.00    -0.237 OA
ATOM     69  O   UNL A   1      49.086  32.215  26.421  1.00  0.00    -0.744 OA
ENDBRANCH  63  66
ENDBRANCH  36  59
ENDBRANCH  10  11
ENDBRANCH   3   5
ENDBRANCH   2   3
ENDBRANCH   1   2
BRANCH   1  70
ATOM     70  C   UNL A   1      33.177  29.319  25.902  1.00  0.00     0.274 C 
BRANCH  70  71
ATOM     71  O   UNL A   1      31.987  28.585  25.525  1.00  0.00    -0.461 OA
BRANCH  71  72
ATOM     72  C   UNL A   1      31.950  27.260  25.872  1.00  0.00     0.329 C 
ATOM     73  O   UNL A   1      31.144  26.805  26.676  1.00  0.00    -0.250 OA
BRANCH  72  74
ATOM     74  C   UNL A   1      32.869  26.326  25.059  1.00  0.00     0.203 C 
ATOM     75  C   UNL A   1      32.718  24.976  25.871  1.00  0.00     0.093 C 
ATOM     76  N   UNL A   1      32.821  26.143  23.533  1.00  0.00    -0.305 N 
ATOM     77  C   UNL A   1      33.404  23.866  25.198  1.00  0.00     0.042 A 
ATOM     78  C   UNL A   1      33.697  25.044  23.007  1.00  0.00     0.180 C 
ATOM     79  N   UNL A   1      33.728  22.630  25.672  1.00  0.00    -0.348 N 
ATOM     80  C   UNL A   1      33.805  23.877  23.895  1.00  0.00     0.081 A 
ATOM     81  C   UNL A   1      34.286  21.936  24.629  1.00  0.00     0.197 A 
ATOM     82  H   UNL A   1      33.588  22.299  26.589  1.00  0.00     0.167 HD
ATOM     83  N   UNL A   1      34.365  22.677  23.544  1.00  0.00    -0.240 NA
BRANCH  76  84
ATOM     84  C   UNL A   1      32.758  27.102  22.539  1.00  0.00     0.318 C 
ATOM     85  O   UNL A   1      33.629  27.206  21.664  1.00  0.00    -0.249 OA
ATOM     86  N   UNL A   1      31.848  28.075  22.467  1.00  0.00    -0.331 N 
ATOM     87  H   UNL A   1      32.219  28.987  22.469  1.00  0.00     0.165 HD
BRANCH  86  88
ATOM     88  C   UNL A   1      30.413  28.010  22.390  1.00  0.00     0.197 C 
BRANCH  88  89
ATOM     89  C   UNL A   1      29.834  29.387  22.388  1.00  0.00     0.169 A 
ATOM     90  N   UNL A   1      29.334  29.999  21.261  1.00  0.00    -0.218 NA
ATOM     91  N   UNL A   1      29.710  30.123  23.495  1.00  0.00    -0.157 NA
ATOM     92  C   UNL A   1      28.899  31.154  21.717  1.00  0.00     0.216 A 
ATOM     93  N   UNL A   1      29.131  31.237  23.052  1.00  0.00    -0.266 N 
ATOM     94  H   UNL A   1      28.903  32.013  23.615  1.00  0.00     0.191 HD
ENDBRANCH  88  89
ENDBRANCH  86  88
ENDBRANCH  76  84
ENDBRANCH  72  74
ENDBRANCH  71  72
ENDBRANCH  70  71
ENDBRANCH   1  70
TORSDOF 17
ENDMDL
MODEL 3
REMARK VINA RESULT:     -11.8      1.915      3.731
REMARK SMILES O=C(OCCOC(=O)[C@H]1Cc2[nH]cnc2CN1C(=O)NCc1nc[nH]n1)c1ccc(-c2c3nc(c(-c4cccc(S(=O)(=O)[O-])c4F)c4ccc([nH]4)c(-c4cccc(S(=O)(=O)[O-])c4F)c4nc(c(-c5cccc(S(=O)(=O)[O-])c5F)c5ccc2[nH]5)C=C4)C=C3)cc1
REMARK SMILES IDX 4 1 3 2 2 3 1 4 27 5 28 6 89 7 29 8 88 9 30 10 31 11 32 12
REMARK SMILES IDX 82 13 33 14 87 15 81 16 83 17 34 18 86 19 80 20 79 21 35 23
REMARK SMILES IDX 67 24 47 25 66 26 48 27 51 28 65 29 84 30 49 31 50 32 64 34
REMARK SMILES IDX 85 35 52 36 36 37 37 38 45 39 38 40 40 41 46 42 39 43 41 44
REMARK SMILES IDX 42 45 43 46 44 47 68 48 69 49 77 50 70 51 72 52 78 53 71 54
REMARK SMILES IDX 73 55 74 56 75 57 76 58 53 59 54 60 62 61 55 62 57 63 63 64
REMARK SMILES IDX 56 65 58 66 59 67 60 68 61 69 5 70 6 71 7 72 8 73 9 74 10 75
REMARK SMILES IDX 17 76 11 77 16 78 12 79 15 80 13 81 14 83 18 84 19 85 20 86
REMARK SMILES IDX 21 88 22 89 23 90 26 91 24 92 25 93
REMARK H PARENT 83 22 51 33 12 82 20 87 25 94
REMARK Flexibility Score: inf
ROOT
ATOM      1  C   UNL A   1      37.754  21.862  25.648  1.00  0.00     0.275 C 
ENDROOT
BRANCH   1   2
ATOM      2  O   UNL A   1      39.111  22.303  25.772  1.00  0.00    -0.458 OA
BRANCH   2   3
ATOM      3  C   UNL A   1      39.828  22.509  26.895  1.00  0.00     0.338 C 
ATOM      4  O   UNL A   1      40.240  21.535  27.524  1.00  0.00    -0.246 OA
BRANCH   3   5
ATOM      5  C   UNL A   1      40.298  23.870  27.286  1.00  0.00     0.060 A 
ATOM      6  C   UNL A   1      41.473  24.162  27.984  1.00  0.00     0.016 A 
ATOM      7  C   UNL A   1      39.389  24.914  27.039  1.00  0.00     0.016 A 
ATOM      8  C   UNL A   1      41.663  25.403  28.564  1.00  0.00     0.010 A 
ATOM      9  C   UNL A   1      39.575  26.163  27.605  1.00  0.00     0.010 A 
ATOM     10  C   UNL A   1      40.675  26.369  28.430  1.00  0.00    -0.014 A 
BRANCH  10  11
ATOM     11  C   UNL A   1      40.850  27.610  29.153  1.00  0.00     0.031 A 
ATOM     12  C   UNL A   1      41.940  28.477  28.643  1.00  0.00     0.074 A 
ATOM     13  C   UNL A   1      40.010  27.988  30.133  1.00  0.00     0.049 A 
ATOM     14  N   UNL A   1      43.084  28.739  29.182  1.00  0.00    -0.248 NA
ATOM     15  C   UNL A   1      41.793  28.989  27.276  1.00  0.00     0.031 C 
ATOM     16  C   UNL A   1      38.734  27.382  30.521  1.00  0.00     0.029 A 
ATOM     17  N   UNL A   1      40.066  29.105  30.901  1.00  0.00    -0.354 N 
ATOM     18  C   UNL A   1      43.703  29.648  28.324  1.00  0.00     0.074 A 
ATOM     19  C   UNL A   1      42.971  29.587  27.088  1.00  0.00     0.031 C 
ATOM     20  C   UNL A   1      38.028  28.276  31.251  1.00  0.00     0.029 A 
ATOM     21  C   UNL A   1      38.859  29.441  31.499  1.00  0.00     0.049 A 
ATOM     22  H   UNL A   1      40.890  29.630  31.023  1.00  0.00     0.167 HD
ATOM     23  C   UNL A   1      44.604  30.566  28.776  1.00  0.00     0.034 A 
ATOM     24  C   UNL A   1      38.562  30.630  32.079  1.00  0.00     0.034 A 
ATOM     25  C   UNL A   1      45.066  30.233  30.098  1.00  0.00     0.049 A 
ATOM     26  C   UNL A   1      39.848  31.305  32.379  1.00  0.00     0.074 A 
ATOM     27  C   UNL A   1      45.689  29.139  30.665  1.00  0.00     0.029 A 
ATOM     28  N   UNL A   1      44.525  30.943  31.145  1.00  0.00    -0.354 N 
ATOM     29  N   UNL A   1      40.698  30.861  33.263  1.00  0.00    -0.248 NA
ATOM     30  C   UNL A   1      40.399  32.207  31.378  1.00  0.00     0.031 C 
ATOM     31  C   UNL A   1      45.035  28.973  31.921  1.00  0.00     0.029 A 
ATOM     32  C   UNL A   1      44.131  30.026  32.081  1.00  0.00     0.049 A 
ATOM     33  H   UNL A   1      44.438  31.921  31.207  1.00  0.00     0.167 HD
ATOM     34  C   UNL A   1      41.939  31.043  32.668  1.00  0.00     0.074 A 
ATOM     35  C   UNL A   1      41.700  31.967  31.559  1.00  0.00     0.031 C 
ATOM     36  C   UNL A   1      42.981  30.201  32.935  1.00  0.00     0.034 A 
BRANCH  23  37
ATOM     37  C   UNL A   1      44.799  31.961  28.217  1.00  0.00     0.023 A 
ATOM     38  C   UNL A   1      46.100  32.307  27.783  1.00  0.00     0.012 A 
ATOM     39  C   UNL A   1      43.876  33.022  28.358  1.00  0.00     0.148 A 
ATOM     40  C   UNL A   1      46.483  33.638  27.585  1.00  0.00     0.002 A 
ATOM     41  C   UNL A   1      44.239  34.337  28.087  1.00  0.00     0.091 A 
ATOM     42  F   UNL A   1      42.669  32.800  28.883  1.00  0.00    -0.205 F 
ATOM     43  C   UNL A   1      45.551  34.655  27.735  1.00  0.00     0.022 A 
BRANCH  41  44
ATOM     44  S   UNL A   1      43.059  35.685  28.222  1.00  0.00     0.127 S 
ATOM     45  O   UNL A   1      43.916  36.845  28.007  1.00  0.00    -0.237 OA
ATOM     46  O   UNL A   1      42.132  35.380  27.134  1.00  0.00    -0.237 OA
ATOM     47  O   UNL A   1      42.476  35.558  29.557  1.00  0.00    -0.744 OA
ENDBRANCH  41  44
ENDBRANCH  23  37
BRANCH  24  48
ATOM     48  C   UNL A   1      37.269  31.346  32.166  1.00  0.00     0.023 A 
ATOM     49  C   UNL A   1      36.839  31.855  33.407  1.00  0.00     0.012 A 
ATOM     50  C   UNL A   1      36.600  31.778  31.000  1.00  0.00     0.148 A 
ATOM     51  C   UNL A   1      35.801  32.790  33.484  1.00  0.00     0.002 A 
ATOM     52  C   UNL A   1      35.566  32.706  31.079  1.00  0.00     0.091 A 
ATOM     53  F   UNL A   1      37.041  31.353  29.809  1.00  0.00    -0.205 F 
ATOM     54  C   UNL A   1      35.171  33.222  32.320  1.00  0.00     0.022 A 
BRANCH  52  55
ATOM     55  S   UNL A   1      34.733  33.341  29.618  1.00  0.00     0.127 S 
ATOM     56  O   UNL A   1      35.807  34.083  28.957  1.00  0.00    -0.237 OA
ATOM     57  O   UNL A   1      34.333  32.110  28.941  1.00  0.00    -0.237 OA
ATOM     58  O   UNL A   1      33.644  34.173  30.111  1.00  0.00    -0.744 OA
ENDBRANCH  52  55
ENDBRANCH  24  48
BRANCH  36  59
ATOM     59  C   UNL A   1      42.830  29.194  34.046  1.00  0.00     0.023 A 
ATOM     60  C   UNL A   1      42.155  27.967  33.877  1.00  0.00     0.012 A 
ATOM     61  C   UNL A   1      43.569  29.404  35.221  1.00  0.00     0.148 A 
ATOM     62  C   UNL A   1      42.206  26.979  34.864  1.00  0.00     0.002 A 
ATOM     63  C   UNL A   1      43.664  28.400  36.174  1.00  0.00     0.091 A 
ATOM     64  F   UNL A   1      44.202  30.577  35.370  1.00  0.00    -0.205 F 
ATOM     65  C   UNL A   1      42.976  27.189  36.006  1.00  0.00     0.022 A 
BRANCH  63  66
ATOM     66  S   UNL A   1      44.766  28.567  37.579  1.00  0.00     0.127 S 
ATOM     67  O   UNL A   1      44.293  29.805  38.192  1.00  0.00    -0.237 OA
ATOM     68  O   UNL A   1      44.484  27.355  38.350  1.00  0.00    -0.237 OA
ATOM     69  O   UNL A   1      46.113  28.610  37.021  1.00  0.00    -0.744 OA
ENDBRANCH  63  66
ENDBRANCH  36  59
ENDBRANCH  10  11
ENDBRANCH   3   5
ENDBRANCH   2   3
ENDBRANCH   1   2
BRANCH   1  70
ATOM     70  C   UNL A   1      36.746  22.943  25.285  1.00  0.00     0.274 C 
BRANCH  70  71
ATOM     71  O   UNL A   1      35.669  23.314  26.180  1.00  0.00    -0.461 OA
BRANCH  71  72
ATOM     72  C   UNL A   1      34.413  23.368  25.635  1.00  0.00     0.329 C 
ATOM     73  O   UNL A   1      33.747  24.397  25.598  1.00  0.00    -0.250 OA
BRANCH  72  74
ATOM     74  C   UNL A   1      33.941  22.095  24.903  1.00  0.00     0.203 C 
ATOM     75  C   UNL A   1      33.763  21.099  26.120  1.00  0.00     0.093 C 
ATOM     76  N   UNL A   1      32.798  22.035  23.877  1.00  0.00    -0.305 N 
ATOM     77  C   UNL A   1      33.170  19.827  25.689  1.00  0.00     0.042 A 
ATOM     78  C   UNL A   1      32.418  20.649  23.446  1.00  0.00     0.180 C 
ATOM     79  N   UNL A   1      33.087  18.639  26.352  1.00  0.00    -0.348 N 
ATOM     80  C   UNL A   1      32.524  19.633  24.504  1.00  0.00     0.081 A 
ATOM     81  C   UNL A   1      32.371  17.785  25.553  1.00  0.00     0.197 A 
ATOM     82  H   UNL A   1      33.469  18.433  27.235  1.00  0.00     0.167 HD
ATOM     83  N   UNL A   1      32.035  18.357  24.416  1.00  0.00    -0.240 NA
BRANCH  76  84
ATOM     84  C   UNL A   1      32.547  22.861  22.797  1.00  0.00     0.318 C 
ATOM     85  O   UNL A   1      32.999  22.630  21.667  1.00  0.00    -0.249 OA
ATOM     86  N   UNL A   1      31.907  24.031  22.859  1.00  0.00    -0.331 N 
ATOM     87  H   UNL A   1      32.429  24.803  22.542  1.00  0.00     0.165 HD
BRANCH  86  88
ATOM     88  C   UNL A   1      30.581  24.349  23.316  1.00  0.00     0.197 C 
BRANCH  88  89
ATOM     89  C   UNL A   1      30.647  25.249  24.507  1.00  0.00     0.169 A 
ATOM     90  N   UNL A   1      31.049  26.563  24.445  1.00  0.00    -0.218 NA
ATOM     91  N   UNL A   1      30.276  24.860  25.729  1.00  0.00    -0.157 NA
ATOM     92  C   UNL A   1      30.916  26.975  25.687  1.00  0.00     0.216 A 
ATOM     93  N   UNL A   1      30.463  25.956  26.462  1.00  0.00    -0.266 N 
ATOM     94  H   UNL A   1      30.296  26.018  27.430  1.00  0.00     0.191 HD
ENDBRANCH  88  89
ENDBRANCH  86  88
ENDBRANCH  76  84
ENDBRANCH  72  74
ENDBRANCH  71  72
ENDBRANCH  70  71
ENDBRANCH   1  70
TORSDOF 17
ENDMDL
