MODEL 1
REMARK VINA RESULT:     -13.4      0.000      0.000
REMARK SMILES O=C1Nc2ccccc2/C1=C/c1cccc(C(=O)OCCOC(=O)c2ccc(-c3c4nc(c(-c5cccc(S(=O)(=O)[O-])c5F)c5ccc([nH]5)c(-c5cccc(S(=O)(=O)[O-])c5F)c5nc(c(-c6cccc(S(=O)(=O)[O-])c6F)c6ccc3[nH]6)C=C5)C=C4)cc2)c1
REMARK SMILES IDX 21 1 20 2 19 3 17 4 18 5 16 6 12 7 13 8 88 9 14 10 15 11
REMARK SMILES IDX 11 12 1 13 2 14 3 15 10 16 4 17 9 19 5 20 8 21 6 22 7 23
REMARK SMILES IDX 22 24 23 25 24 26 25 27 26 28 87 29 27 30 86 31 28 32 29 33
REMARK SMILES IDX 30 34 80 35 31 36 85 37 79 38 81 39 32 40 84 41 78 42 77 43
REMARK SMILES IDX 33 45 65 46 45 47 64 48 46 49 49 50 63 51 82 52 47 53 48 54
REMARK SMILES IDX 62 56 83 57 50 58 34 59 35 60 43 61 36 62 38 63 44 64 37 65
REMARK SMILES IDX 39 66 40 67 41 68 42 69 66 70 67 71 75 72 68 73 70 74 76 75
REMARK SMILES IDX 69 76 71 77 72 78 73 79 74 80 51 81 52 82 60 83 53 84 55 85
REMARK SMILES IDX 61 86 54 87 56 88 57 89 58 90 59 91
REMARK H PARENT 3 18 81 44 49 55
REMARK Flexibility Score: inf
ROOT
ATOM      1  C   UNL A   1      36.428  20.533  24.990  1.00  0.00     0.275 C 
ENDROOT
BRANCH   1   2
ATOM      2  C   UNL A   1      35.040  21.105  24.696  1.00  0.00     0.275 C 
BRANCH   2   3
ATOM      3  O   UNL A   1      35.107  22.527  24.479  1.00  0.00    -0.458 OA
BRANCH   3   4
ATOM      4  C   UNL A   1      34.069  23.083  23.801  1.00  0.00     0.338 C 
ATOM      5  O   UNL A   1      33.411  22.547  22.926  1.00  0.00    -0.246 OA
BRANCH   4   6
ATOM      6  C   UNL A   1      33.772  24.436  24.338  1.00  0.00     0.060 A 
ATOM      7  C   UNL A   1      32.344  26.376  24.414  1.00  0.00    -0.024 A 
ATOM      8  C   UNL A   1      33.083  26.901  25.478  1.00  0.00     0.008 A 
ATOM      9  C   UNL A   1      32.752  25.198  23.780  1.00  0.00     0.023 A 
ATOM     10  C   UNL A   1      34.146  26.171  26.000  1.00  0.00     0.002 A 
ATOM     11  C   UNL A   1      34.437  24.911  25.477  1.00  0.00     0.016 A 
BRANCH   7  12
ATOM     12  C   UNL A   1      31.040  26.940  24.076  1.00  0.00     0.022 C 
ATOM     13  O   UNL A   1      33.226  28.486  22.465  1.00  0.00    -0.269 OA
ATOM     14  C   UNL A   1      32.038  28.721  22.510  1.00  0.00     0.256 C 
ATOM     15  N   UNL A   1      31.408  29.771  21.864  1.00  0.00    -0.321 N 
ATOM     16  C   UNL A   1      30.925  27.987  23.240  1.00  0.00     0.050 C 
ATOM     17  C   UNL A   1      30.037  29.749  22.078  1.00  0.00     0.049 A 
ATOM     18  H   UNL A   1      31.873  30.449  21.322  1.00  0.00     0.170 HD
ATOM     19  C   UNL A   1      29.679  28.672  22.896  1.00  0.00     0.011 A 
ATOM     20  C   UNL A   1      29.115  30.639  21.573  1.00  0.00     0.027 A 
ATOM     21  C   UNL A   1      28.357  28.452  23.229  1.00  0.00     0.011 A 
ATOM     22  C   UNL A   1      27.778  30.424  21.905  1.00  0.00     0.002 A 
ATOM     23  C   UNL A   1      27.401  29.341  22.723  1.00  0.00     0.001 A 
ENDBRANCH   7  12
ENDBRANCH   4   6
ENDBRANCH   3   4
ENDBRANCH   2   3
ENDBRANCH   1   2
BRANCH   1  24
ATOM     24  O   UNL A   1      37.383  21.587  25.201  1.00  0.00    -0.458 OA
BRANCH  24  25
ATOM     25  C   UNL A   1      38.555  21.194  25.750  1.00  0.00     0.338 C 
ATOM     26  O   UNL A   1      39.095  20.106  25.646  1.00  0.00    -0.246 OA
BRANCH  25  27
ATOM     27  C   UNL A   1      39.188  22.325  26.439  1.00  0.00     0.060 A 
ATOM     28  C   UNL A   1      38.725  23.601  26.141  1.00  0.00     0.016 A 
ATOM     29  C   UNL A   1      40.320  22.161  27.225  1.00  0.00     0.016 A 
ATOM     30  C   UNL A   1      39.448  24.726  26.513  1.00  0.00     0.010 A 
ATOM     31  C   UNL A   1      40.983  23.297  27.706  1.00  0.00     0.010 A 
ATOM     32  C   UNL A   1      40.579  24.592  27.321  1.00  0.00    -0.014 A 
BRANCH  32  33
ATOM     33  C   UNL A   1      41.341  25.799  27.748  1.00  0.00     0.031 A 
ATOM     34  C   UNL A   1      40.667  26.860  28.577  1.00  0.00     0.074 A 
ATOM     35  C   UNL A   1      42.628  25.956  27.373  1.00  0.00     0.049 A 
ATOM     36  N   UNL A   1      41.080  28.065  28.871  1.00  0.00    -0.248 NA
ATOM     37  C   UNL A   1      39.345  26.529  29.133  1.00  0.00     0.031 C 
ATOM     38  C   UNL A   1      43.413  24.992  26.598  1.00  0.00     0.029 A 
ATOM     39  N   UNL A   1      43.497  27.002  27.570  1.00  0.00    -0.354 N 
ATOM     40  C   UNL A   1      40.040  28.664  29.572  1.00  0.00     0.074 A 
ATOM     41  C   UNL A   1      38.978  27.685  29.667  1.00  0.00     0.031 C 
ATOM     42  C   UNL A   1      44.641  25.485  26.388  1.00  0.00     0.029 A 
ATOM     43  C   UNL A   1      44.703  26.837  26.925  1.00  0.00     0.049 A 
ATOM     44  H   UNL A   1      43.279  27.791  28.117  1.00  0.00     0.167 HD
ATOM     45  C   UNL A   1      39.977  29.915  30.087  1.00  0.00     0.034 A 
ATOM     46  C   UNL A   1      45.721  27.696  26.730  1.00  0.00     0.034 A 
ATOM     47  C   UNL A   1      41.060  30.860  30.031  1.00  0.00     0.049 A 
ATOM     48  C   UNL A   1      45.618  29.085  27.291  1.00  0.00     0.074 A 
ATOM     49  C   UNL A   1      41.116  32.137  30.562  1.00  0.00     0.029 A 
ATOM     50  N   UNL A   1      42.276  30.636  29.404  1.00  0.00    -0.354 N 
ATOM     51  N   UNL A   1      44.646  29.621  27.987  1.00  0.00    -0.248 NA
ATOM     52  C   UNL A   1      46.759  29.981  27.058  1.00  0.00     0.031 C 
ATOM     53  C   UNL A   1      42.351  32.698  30.222  1.00  0.00     0.029 A 
ATOM     54  C   UNL A   1      43.085  31.753  29.525  1.00  0.00     0.049 A 
ATOM     55  H   UNL A   1      42.528  29.804  28.940  1.00  0.00     0.167 HD
ATOM     56  C   UNL A   1      45.073  30.904  28.309  1.00  0.00     0.074 A 
ATOM     57  C   UNL A   1      46.398  31.056  27.744  1.00  0.00     0.031 C 
ATOM     58  C   UNL A   1      44.422  31.870  29.002  1.00  0.00     0.034 A 
BRANCH  45  59
ATOM     59  C   UNL A   1      38.694  30.342  30.754  1.00  0.00     0.023 A 
ATOM     60  C   UNL A   1      38.493  30.104  32.129  1.00  0.00     0.012 A 
ATOM     61  C   UNL A   1      37.705  31.031  30.023  1.00  0.00     0.148 A 
ATOM     62  C   UNL A   1      37.315  30.511  32.756  1.00  0.00     0.002 A 
ATOM     63  C   UNL A   1      36.556  31.478  30.665  1.00  0.00     0.091 A 
ATOM     64  F   UNL A   1      37.904  31.233  28.713  1.00  0.00    -0.205 F 
ATOM     65  C   UNL A   1      36.352  31.206  32.027  1.00  0.00     0.022 A 
BRANCH  63  66
ATOM     66  S   UNL A   1      35.298  32.456  29.835  1.00  0.00     0.127 S 
ATOM     67  O   UNL A   1      34.826  31.523  28.813  1.00  0.00    -0.237 OA
ATOM     68  O   UNL A   1      34.344  32.709  30.915  1.00  0.00    -0.237 OA
ATOM     69  O   UNL A   1      35.975  33.642  29.331  1.00  0.00    -0.744 OA
ENDBRANCH  63  66
ENDBRANCH  45  59
BRANCH  46  70
ATOM     70  C   UNL A   1      46.922  27.265  25.957  1.00  0.00     0.023 A 
ATOM     71  C   UNL A   1      47.868  26.415  26.560  1.00  0.00     0.012 A 
ATOM     72  C   UNL A   1      47.116  27.670  24.621  1.00  0.00     0.148 A 
ATOM     73  C   UNL A   1      49.001  26.002  25.858  1.00  0.00     0.002 A 
ATOM     74  C   UNL A   1      48.214  27.205  23.908  1.00  0.00     0.091 A 
ATOM     75  F   UNL A   1      46.210  28.490  24.067  1.00  0.00    -0.205 F 
ATOM     76  C   UNL A   1      49.168  26.386  24.530  1.00  0.00     0.022 A 
BRANCH  74  77
ATOM     77  S   UNL A   1      48.443  27.541  22.158  1.00  0.00     0.127 S 
ATOM     78  O   UNL A   1      49.592  28.442  22.176  1.00  0.00    -0.237 OA
ATOM     79  O   UNL A   1      48.715  26.205  21.628  1.00  0.00    -0.237 OA
ATOM     80  O   UNL A   1      47.189  28.127  21.700  1.00  0.00    -0.744 OA
ENDBRANCH  74  77
ENDBRANCH  46  70
BRANCH  58  81
ATOM     81  C   UNL A   1      45.158  33.160  29.256  1.00  0.00     0.023 A 
ATOM     82  C   UNL A   1      45.981  33.298  30.391  1.00  0.00     0.012 A 
ATOM     83  C   UNL A   1      45.085  34.210  28.320  1.00  0.00     0.148 A 
ATOM     84  C   UNL A   1      46.692  34.478  30.607  1.00  0.00     0.002 A 
ATOM     85  C   UNL A   1      45.841  35.359  28.512  1.00  0.00     0.091 A 
ATOM     86  F   UNL A   1      44.281  34.064  27.256  1.00  0.00    -0.205 F 
ATOM     87  C   UNL A   1      46.634  35.501  29.664  1.00  0.00     0.022 A 
BRANCH  85  88
ATOM     88  S   UNL A   1      45.907  36.683  27.302  1.00  0.00     0.127 S 
ATOM     89  O   UNL A   1      46.832  37.620  27.937  1.00  0.00    -0.237 OA
ATOM     90  O   UNL A   1      46.443  35.998  26.125  1.00  0.00    -0.237 OA
ATOM     91  O   UNL A   1      44.540  37.163  27.153  1.00  0.00    -0.744 OA
ENDBRANCH  85  88
ENDBRANCH  58  81
ENDBRANCH  32  33
ENDBRANCH  25  27
ENDBRANCH  24  25
ENDBRANCH   1  24
TORSDOF 15
ENDMDL
MODEL 2
REMARK VINA RESULT:     -13.3      1.312      1.563
REMARK SMILES O=C1Nc2ccccc2/C1=C/c1cccc(C(=O)OCCOC(=O)c2ccc(-c3c4nc(c(-c5cccc(S(=O)(=O)[O-])c5F)c5ccc([nH]5)c(-c5cccc(S(=O)(=O)[O-])c5F)c5nc(c(-c6cccc(S(=O)(=O)[O-])c6F)c6ccc3[nH]6)C=C5)C=C4)cc2)c1
REMARK SMILES IDX 21 1 20 2 19 3 17 4 18 5 16 6 12 7 13 8 88 9 14 10 15 11
REMARK SMILES IDX 11 12 1 13 2 14 3 15 10 16 4 17 9 19 5 20 8 21 6 22 7 23
REMARK SMILES IDX 22 24 23 25 24 26 25 27 26 28 87 29 27 30 86 31 28 32 29 33
REMARK SMILES IDX 30 34 80 35 31 36 85 37 79 38 81 39 32 40 84 41 78 42 77 43
REMARK SMILES IDX 33 45 65 46 45 47 64 48 46 49 49 50 63 51 82 52 47 53 48 54
REMARK SMILES IDX 62 56 83 57 50 58 34 59 35 60 43 61 36 62 38 63 44 64 37 65
REMARK SMILES IDX 39 66 40 67 41 68 42 69 66 70 67 71 75 72 68 73 70 74 76 75
REMARK SMILES IDX 69 76 71 77 72 78 73 79 74 80 51 81 52 82 60 83 53 84 55 85
REMARK SMILES IDX 61 86 54 87 56 88 57 89 58 90 59 91
REMARK H PARENT 3 18 81 44 49 55
REMARK Flexibility Score: inf
ROOT
ATOM      1  C   UNL A   1      36.345  20.541  25.027  1.00  0.00     0.275 C 
ENDROOT
BRANCH   1   2
ATOM      2  C   UNL A   1      34.934  21.008  24.668  1.00  0.00     0.275 C 
BRANCH   2   3
ATOM      3  O   UNL A   1      34.975  22.240  23.924  1.00  0.00    -0.458 OA
BRANCH   3   4
ATOM      4  C   UNL A   1      33.779  22.738  23.515  1.00  0.00     0.338 C 
ATOM      5  O   UNL A   1      32.945  22.151  22.846  1.00  0.00    -0.246 OA
BRANCH   4   6
ATOM      6  C   UNL A   1      33.571  24.097  24.076  1.00  0.00     0.060 A 
ATOM      7  C   UNL A   1      32.244  26.104  24.230  1.00  0.00    -0.024 A 
ATOM      8  C   UNL A   1      33.052  26.581  25.266  1.00  0.00     0.008 A 
ATOM      9  C   UNL A   1      32.567  24.915  23.568  1.00  0.00     0.023 A 
ATOM     10  C   UNL A   1      34.098  25.794  25.737  1.00  0.00     0.002 A 
ATOM     11  C   UNL A   1      34.305  24.528  25.190  1.00  0.00     0.016 A 
BRANCH   7  12
ATOM     12  C   UNL A   1      30.957  26.734  23.952  1.00  0.00     0.022 C 
ATOM     13  O   UNL A   1      33.170  28.291  22.388  1.00  0.00    -0.269 OA
ATOM     14  C   UNL A   1      31.993  28.566  22.471  1.00  0.00     0.256 C 
ATOM     15  N   UNL A   1      31.391  29.675  21.900  1.00  0.00    -0.321 N 
ATOM     16  C   UNL A   1      30.866  27.832  23.181  1.00  0.00     0.050 C 
ATOM     17  C   UNL A   1      30.024  29.691  22.141  1.00  0.00     0.049 A 
ATOM     18  H   UNL A   1      31.871  30.365  21.389  1.00  0.00     0.170 HD
ATOM     19  C   UNL A   1      29.641  28.581  22.903  1.00  0.00     0.011 A 
ATOM     20  C   UNL A   1      29.128  30.641  21.707  1.00  0.00     0.027 A 
ATOM     21  C   UNL A   1      28.317  28.391  23.250  1.00  0.00     0.011 A 
ATOM     22  C   UNL A   1      27.789  30.457  22.055  1.00  0.00     0.002 A 
ATOM     23  C   UNL A   1      27.387  29.343  22.816  1.00  0.00     0.001 A 
ENDBRANCH   7  12
ENDBRANCH   4   6
ENDBRANCH   3   4
ENDBRANCH   2   3
ENDBRANCH   1   2
BRANCH   1  24
ATOM     24  O   UNL A   1      37.104  21.609  25.620  1.00  0.00    -0.458 OA
BRANCH  24  25
ATOM     25  C   UNL A   1      38.408  21.328  25.843  1.00  0.00     0.338 C 
ATOM     26  O   UNL A   1      39.029  20.345  25.474  1.00  0.00    -0.246 OA
BRANCH  25  27
ATOM     27  C   UNL A   1      39.051  22.454  26.530  1.00  0.00     0.060 A 
ATOM     28  C   UNL A   1      38.598  23.733  26.234  1.00  0.00     0.016 A 
ATOM     29  C   UNL A   1      40.185  22.281  27.313  1.00  0.00     0.016 A 
ATOM     30  C   UNL A   1      39.330  24.852  26.604  1.00  0.00     0.010 A 
ATOM     31  C   UNL A   1      40.858  23.412  27.792  1.00  0.00     0.010 A 
ATOM     32  C   UNL A   1      40.462  24.710  27.408  1.00  0.00    -0.014 A 
BRANCH  32  33
ATOM     33  C   UNL A   1      41.235  25.911  27.833  1.00  0.00     0.031 A 
ATOM     34  C   UNL A   1      40.568  26.981  28.656  1.00  0.00     0.074 A 
ATOM     35  C   UNL A   1      42.524  26.055  27.461  1.00  0.00     0.049 A 
ATOM     36  N   UNL A   1      40.992  28.183  28.947  1.00  0.00    -0.248 NA
ATOM     37  C   UNL A   1      39.241  26.666  29.210  1.00  0.00     0.031 C 
ATOM     38  C   UNL A   1      43.302  25.080  26.692  1.00  0.00     0.029 A 
ATOM     39  N   UNL A   1      43.403  27.093  27.657  1.00  0.00    -0.354 N 
ATOM     40  C   UNL A   1      39.956  28.795  29.643  1.00  0.00     0.074 A 
ATOM     41  C   UNL A   1      38.885  27.827  29.739  1.00  0.00     0.031 C 
ATOM     42  C   UNL A   1      44.536  25.560  26.484  1.00  0.00     0.029 A 
ATOM     43  C   UNL A   1      44.609  26.914  27.017  1.00  0.00     0.049 A 
ATOM     44  H   UNL A   1      43.191  27.885  28.201  1.00  0.00     0.167 HD
ATOM     45  C   UNL A   1      39.904  30.049  30.153  1.00  0.00     0.034 A 
ATOM     46  C   UNL A   1      45.636  27.762  26.821  1.00  0.00     0.034 A 
ATOM     47  C   UNL A   1      40.996  30.983  30.097  1.00  0.00     0.049 A 
ATOM     48  C   UNL A   1      45.545  29.153  27.377  1.00  0.00     0.074 A 
ATOM     49  C   UNL A   1      41.063  32.261  30.624  1.00  0.00     0.029 A 
ATOM     50  N   UNL A   1      42.212  30.745  29.474  1.00  0.00    -0.354 N 
ATOM     51  N   UNL A   1      44.575  29.702  28.068  1.00  0.00    -0.248 NA
ATOM     52  C   UNL A   1      46.695  30.038  27.144  1.00  0.00     0.031 C 
ATOM     53  C   UNL A   1      42.304  32.809  30.285  1.00  0.00     0.029 A 
ATOM     54  C   UNL A   1      43.031  31.854  29.593  1.00  0.00     0.049 A 
ATOM     55  H   UNL A   1      42.457  29.909  29.014  1.00  0.00     0.167 HD
ATOM     56  C   UNL A   1      45.014  30.981  28.387  1.00  0.00     0.074 A 
ATOM     57  C   UNL A   1      46.342  31.119  27.825  1.00  0.00     0.031 C 
ATOM     58  C   UNL A   1      44.371  31.957  29.074  1.00  0.00     0.034 A 
BRANCH  45  59
ATOM     59  C   UNL A   1      38.622  30.491  30.815  1.00  0.00     0.023 A 
ATOM     60  C   UNL A   1      38.429  30.288  32.197  1.00  0.00     0.012 A 
ATOM     61  C   UNL A   1      37.629  31.159  30.071  1.00  0.00     0.148 A 
ATOM     62  C   UNL A   1      37.253  30.709  32.818  1.00  0.00     0.002 A 
ATOM     63  C   UNL A   1      36.482  31.620  30.706  1.00  0.00     0.091 A 
ATOM     64  F   UNL A   1      37.821  31.326  28.754  1.00  0.00    -0.205 F 
ATOM     65  C   UNL A   1      36.285  31.384  32.076  1.00  0.00     0.022 A 
BRANCH  63  66
ATOM     66  S   UNL A   1      35.219  32.573  29.856  1.00  0.00     0.127 S 
ATOM     67  O   UNL A   1      34.280  32.853  30.942  1.00  0.00    -0.237 OA
ATOM     68  O   UNL A   1      35.975  33.737  29.390  1.00  0.00    -0.237 OA
ATOM     69  O   UNL A   1      34.708  31.716  28.797  1.00  0.00    -0.744 OA
ENDBRANCH  63  66
ENDBRANCH  45  59
BRANCH  46  70
ATOM     70  C   UNL A   1      46.835  27.316  26.054  1.00  0.00     0.023 A 
ATOM     71  C   UNL A   1      46.898  27.548  24.667  1.00  0.00     0.012 A 
ATOM     72  C   UNL A   1      47.922  26.689  26.695  1.00  0.00     0.148 A 
ATOM     73  C   UNL A   1      48.007  27.136  23.928  1.00  0.00     0.002 A 
ATOM     74  C   UNL A   1      49.049  26.337  25.964  1.00  0.00     0.091 A 
ATOM     75  F   UNL A   1      47.839  26.465  28.015  1.00  0.00    -0.205 F 
ATOM     76  C   UNL A   1      49.087  26.543  24.577  1.00  0.00     0.022 A 
BRANCH  74  77
ATOM     77  S   UNL A   1      50.537  25.688  26.734  1.00  0.00     0.127 S 
ATOM     78  O   UNL A   1      50.039  24.465  27.358  1.00  0.00    -0.237 OA
ATOM     79  O   UNL A   1      51.408  25.478  25.577  1.00  0.00    -0.237 OA
ATOM     80  O   UNL A   1      50.993  26.724  27.651  1.00  0.00    -0.744 OA
ENDBRANCH  74  77
ENDBRANCH  46  70
BRANCH  58  81
ATOM     81  C   UNL A   1      45.119  33.240  29.325  1.00  0.00     0.023 A 
ATOM     82  C   UNL A   1      45.952  33.368  30.454  1.00  0.00     0.012 A 
ATOM     83  C   UNL A   1      45.045  34.294  28.393  1.00  0.00     0.148 A 
ATOM     84  C   UNL A   1      46.674  34.542  30.667  1.00  0.00     0.002 A 
ATOM     85  C   UNL A   1      45.810  35.436  28.583  1.00  0.00     0.091 A 
ATOM     86  F   UNL A   1      44.230  34.157  27.336  1.00  0.00    -0.205 F 
ATOM     87  C   UNL A   1      46.615  35.569  29.727  1.00  0.00     0.022 A 
BRANCH  85  88
ATOM     88  S   UNL A   1      45.875  36.764  27.377  1.00  0.00     0.127 S 
ATOM     89  O   UNL A   1      46.751  37.728  28.041  1.00  0.00    -0.237 OA
ATOM     90  O   UNL A   1      46.469  36.098  26.217  1.00  0.00    -0.237 OA
ATOM     91  O   UNL A   1      44.500  37.203  27.183  1.00  0.00    -0.744 OA
ENDBRANCH  85  88
ENDBRANCH  58  81
ENDBRANCH  32  33
ENDBRANCH  25  27
ENDBRANCH  24  25
ENDBRANCH   1  24
TORSDOF 15
ENDMDL
MODEL 3
REMARK VINA RESULT:     -13.0      2.272      2.869
REMARK SMILES O=C1Nc2ccccc2/C1=C/c1cccc(C(=O)OCCOC(=O)c2ccc(-c3c4nc(c(-c5cccc(S(=O)(=O)[O-])c5F)c5ccc([nH]5)c(-c5cccc(S(=O)(=O)[O-])c5F)c5nc(c(-c6cccc(S(=O)(=O)[O-])c6F)c6ccc3[nH]6)C=C5)C=C4)cc2)c1
REMARK SMILES IDX 21 1 20 2 19 3 17 4 18 5 16 6 12 7 13 8 88 9 14 10 15 11
REMARK SMILES IDX 11 12 1 13 2 14 3 15 10 16 4 17 9 19 5 20 8 21 6 22 7 23
REMARK SMILES IDX 22 24 23 25 24 26 25 27 26 28 87 29 27 30 86 31 28 32 29 33
REMARK SMILES IDX 30 34 80 35 31 36 85 37 79 38 81 39 32 40 84 41 78 42 77 43
REMARK SMILES IDX 33 45 65 46 45 47 64 48 46 49 49 50 63 51 82 52 47 53 48 54
REMARK SMILES IDX 62 56 83 57 50 58 34 59 35 60 43 61 36 62 38 63 44 64 37 65
REMARK SMILES IDX 39 66 40 67 41 68 42 69 66 70 67 71 75 72 68 73 70 74 76 75
REMARK SMILES IDX 69 76 71 77 72 78 73 79 74 80 51 81 52 82 60 83 53 84 55 85
REMARK SMILES IDX 61 86 54 87 56 88 57 89 58 90 59 91
REMARK H PARENT 3 18 81 44 49 55
REMARK Flexibility Score: inf
ROOT
ATOM      1  C   UNL A   1      36.538  20.383  25.068  1.00  0.00     0.275 C 
ENDROOT
BRANCH   1   2
ATOM      2  C   UNL A   1      35.126  20.934  24.862  1.00  0.00     0.275 C 
BRANCH   2   3
ATOM      3  O   UNL A   1      34.223  20.414  25.856  1.00  0.00    -0.458 OA
BRANCH   3   4
ATOM      4  C   UNL A   1      33.020  19.971  25.405  1.00  0.00     0.338 C 
ATOM      5  O   UNL A   1      32.527  18.878  25.624  1.00  0.00    -0.246 OA
BRANCH   4   6
ATOM      6  C   UNL A   1      32.321  21.052  24.663  1.00  0.00     0.060 A 
ATOM      7  C   UNL A   1      31.344  23.255  24.626  1.00  0.00    -0.024 A 
ATOM      8  C   UNL A   1      31.180  23.179  23.240  1.00  0.00     0.008 A 
ATOM      9  C   UNL A   1      31.815  22.152  25.346  1.00  0.00     0.023 A 
ATOM     10  C   UNL A   1      31.628  22.053  22.557  1.00  0.00     0.002 A 
ATOM     11  C   UNL A   1      32.262  21.030  23.262  1.00  0.00     0.016 A 
BRANCH   7  12
ATOM     12  C   UNL A   1      31.206  24.535  25.313  1.00  0.00     0.022 C 
ATOM     13  O   UNL A   1      34.118  24.327  24.199  1.00  0.00    -0.269 OA
ATOM     14  C   UNL A   1      33.655  25.205  24.894  1.00  0.00     0.256 C 
ATOM     15  N   UNL A   1      34.357  26.299  25.370  1.00  0.00    -0.321 N 
ATOM     16  C   UNL A   1      32.244  25.381  25.433  1.00  0.00     0.050 C 
ATOM     17  C   UNL A   1      33.540  27.146  26.105  1.00  0.00     0.049 A 
ATOM     18  H   UNL A   1      35.316  26.457  25.209  1.00  0.00     0.170 HD
ATOM     19  C   UNL A   1      32.233  26.648  26.164  1.00  0.00     0.011 A 
ATOM     20  C   UNL A   1      33.914  28.326  26.708  1.00  0.00     0.027 A 
ATOM     21  C   UNL A   1      31.247  27.342  26.838  1.00  0.00     0.011 A 
ATOM     22  C   UNL A   1      32.924  29.032  27.392  1.00  0.00     0.002 A 
ATOM     23  C   UNL A   1      31.604  28.546  27.455  1.00  0.00     0.001 A 
ENDBRANCH   7  12
ENDBRANCH   4   6
ENDBRANCH   3   4
ENDBRANCH   2   3
ENDBRANCH   1   2
BRANCH   1  24
ATOM     24  O   UNL A   1      37.486  21.450  25.238  1.00  0.00    -0.458 OA
BRANCH  24  25
ATOM     25  C   UNL A   1      38.659  21.087  25.804  1.00  0.00     0.338 C 
ATOM     26  O   UNL A   1      39.223  20.009  25.717  1.00  0.00    -0.246 OA
BRANCH  25  27
ATOM     27  C   UNL A   1      39.261  22.237  26.489  1.00  0.00     0.060 A 
ATOM     28  C   UNL A   1      38.794  23.502  26.154  1.00  0.00     0.016 A 
ATOM     29  C   UNL A   1      40.374  22.100  27.308  1.00  0.00     0.016 A 
ATOM     30  C   UNL A   1      39.495  24.641  26.524  1.00  0.00     0.010 A 
ATOM     31  C   UNL A   1      41.012  23.252  27.785  1.00  0.00     0.010 A 
ATOM     32  C   UNL A   1      40.605  24.535  27.365  1.00  0.00    -0.014 A 
BRANCH  32  33
ATOM     33  C   UNL A   1      41.343  25.757  27.789  1.00  0.00     0.031 A 
ATOM     34  C   UNL A   1      40.641  26.816  28.598  1.00  0.00     0.074 A 
ATOM     35  C   UNL A   1      42.632  25.930  27.431  1.00  0.00     0.049 A 
ATOM     36  N   UNL A   1      41.032  28.030  28.885  1.00  0.00    -0.248 NA
ATOM     37  C   UNL A   1      39.316  26.472  29.139  1.00  0.00     0.031 C 
ATOM     38  C   UNL A   1      43.443  24.970  26.678  1.00  0.00     0.029 A 
ATOM     39  N   UNL A   1      43.483  26.991  27.629  1.00  0.00    -0.354 N 
ATOM     40  C   UNL A   1      39.973  28.621  29.564  1.00  0.00     0.074 A 
ATOM     41  C   UNL A   1      38.925  27.628  29.655  1.00  0.00     0.031 C 
ATOM     42  C   UNL A   1      44.666  25.479  26.480  1.00  0.00     0.029 A 
ATOM     43  C   UNL A   1      44.700  26.838  27.004  1.00  0.00     0.049 A 
ATOM     44  H   UNL A   1      43.245  27.782  28.165  1.00  0.00     0.167 HD
ATOM     45  C   UNL A   1      39.884  29.877  30.065  1.00  0.00     0.034 A 
ATOM     46  C   UNL A   1      45.708  27.709  26.813  1.00  0.00     0.034 A 
ATOM     47  C   UNL A   1      40.953  30.837  30.013  1.00  0.00     0.049 A 
ATOM     48  C   UNL A   1      45.576  29.102  27.358  1.00  0.00     0.074 A 
ATOM     49  C   UNL A   1      40.982  32.121  30.532  1.00  0.00     0.029 A 
ATOM     50  N   UNL A   1      42.182  30.625  29.406  1.00  0.00    -0.354 N 
ATOM     51  N   UNL A   1      44.586  29.631  28.034  1.00  0.00    -0.248 NA
ATOM     52  C   UNL A   1      46.707  30.013  27.131  1.00  0.00     0.031 C 
ATOM     53  C   UNL A   1      42.214  32.697  30.203  1.00  0.00     0.029 A 
ATOM     54  C   UNL A   1      42.971  31.755  29.526  1.00  0.00     0.049 A 
ATOM     55  H   UNL A   1      42.453  29.792  28.955  1.00  0.00     0.167 HD
ATOM     56  C   UNL A   1      44.990  30.923  28.348  1.00  0.00     0.074 A 
ATOM     57  C   UNL A   1      46.320  31.090  27.800  1.00  0.00     0.031 C 
ATOM     58  C   UNL A   1      44.315  31.887  29.021  1.00  0.00     0.034 A 
BRANCH  45  59
ATOM     59  C   UNL A   1      38.585  30.291  30.709  1.00  0.00     0.023 A 
ATOM     60  C   UNL A   1      38.335  29.993  32.064  1.00  0.00     0.012 A 
ATOM     61  C   UNL A   1      37.630  31.029  29.979  1.00  0.00     0.148 A 
ATOM     62  C   UNL A   1      37.143  30.388  32.671  1.00  0.00     0.002 A 
ATOM     63  C   UNL A   1      36.466  31.462  30.603  1.00  0.00     0.091 A 
ATOM     64  F   UNL A   1      37.875  31.288  28.687  1.00  0.00    -0.205 F 
ATOM     65  C   UNL A   1      36.214  31.130  31.944  1.00  0.00     0.022 A 
BRANCH  63  66
ATOM     66  S   UNL A   1      35.250  32.496  29.779  1.00  0.00     0.127 S 
ATOM     67  O   UNL A   1      34.283  32.725  30.851  1.00  0.00    -0.237 OA
ATOM     68  O   UNL A   1      36.044  33.670  29.414  1.00  0.00    -0.237 OA
ATOM     69  O   UNL A   1      34.758  31.720  28.651  1.00  0.00    -0.744 OA
ENDBRANCH  63  66
ENDBRANCH  45  59
BRANCH  46  70
ATOM     70  C   UNL A   1      46.926  27.288  26.062  1.00  0.00     0.023 A 
ATOM     71  C   UNL A   1      47.023  27.562  24.685  1.00  0.00     0.012 A 
ATOM     72  C   UNL A   1      47.998  26.643  26.711  1.00  0.00     0.148 A 
ATOM     73  C   UNL A   1      48.151  27.174  23.961  1.00  0.00     0.002 A 
ATOM     74  C   UNL A   1      49.144  26.315  25.998  1.00  0.00     0.091 A 
ATOM     75  F   UNL A   1      47.883  26.380  28.021  1.00  0.00    -0.205 F 
ATOM     76  C   UNL A   1      49.215  26.562  24.618  1.00  0.00     0.022 A 
BRANCH  74  77
ATOM     77  S   UNL A   1      50.613  25.644  26.784  1.00  0.00     0.127 S 
ATOM     78  O   UNL A   1      50.092  24.427  27.399  1.00  0.00    -0.237 OA
ATOM     79  O   UNL A   1      51.495  25.426  25.637  1.00  0.00    -0.237 OA
ATOM     80  O   UNL A   1      51.072  26.672  27.709  1.00  0.00    -0.744 OA
ENDBRANCH  74  77
ENDBRANCH  46  70
BRANCH  58  81
ATOM     81  C   UNL A   1      45.027  33.190  29.272  1.00  0.00     0.023 A 
ATOM     82  C   UNL A   1      45.824  33.356  30.422  1.00  0.00     0.012 A 
ATOM     83  C   UNL A   1      44.960  34.226  28.319  1.00  0.00     0.148 A 
ATOM     84  C   UNL A   1      46.514  34.549  30.636  1.00  0.00     0.002 A 
ATOM     85  C   UNL A   1      45.696  35.388  28.511  1.00  0.00     0.091 A 
ATOM     86  F   UNL A   1      44.181  34.053  27.240  1.00  0.00    -0.205 F 
ATOM     87  C   UNL A   1      46.462  35.557  29.676  1.00  0.00     0.022 A 
BRANCH  85  88
ATOM     88  S   UNL A   1      45.770  36.695  27.283  1.00  0.00     0.127 S 
ATOM     89  O   UNL A   1      44.371  37.112  27.207  1.00  0.00    -0.237 OA
ATOM     90  O   UNL A   1      46.662  37.665  27.919  1.00  0.00    -0.237 OA
ATOM     91  O   UNL A   1      46.303  36.084  26.073  1.00  0.00    -0.744 OA
ENDBRANCH  85  88
ENDBRANCH  58  81
ENDBRANCH  32  33
ENDBRANCH  25  27
ENDBRANCH  24  25
ENDBRANCH   1  24
TORSDOF 15
ENDMDL
