MODEL 1
REMARK VINA RESULT:     -10.8      0.000      0.000
REMARK SMILES COc1cc(OC)c([C@H]2CC[NH2+][C@H]2C(=O)OCCOC(=O)c2ccc(-c3c4nc(c(-c5cccc(S(=O)(=O)[O-])c5F)c5ccc([nH]5)c(-c5cccc(S(=O)(=O)[O-])c5F)c5nc(c(-c6cccc(S(=O)(=O)[O-])c6F)c6ccc3[nH]6)C=C5)C=C4)cc2)cc1OC
REMARK SMILES IDX 18 1 17 2 16 3 14 4 15 5 13 6 9 7 10 8 11 9 12 10 8 13 3 14
REMARK SMILES IDX 4 15 86 16 5 17 85 18 2 19 1 20 87 21 88 22 6 23 7 24 19 25
REMARK SMILES IDX 20 26 21 27 22 28 23 29 84 30 24 31 83 32 25 33 26 34 27 35
REMARK SMILES IDX 77 36 28 37 82 38 76 39 78 40 29 41 81 42 75 43 74 44 30 46
REMARK SMILES IDX 62 47 42 48 61 49 43 50 46 51 60 52 79 53 44 54 45 55 59 57
REMARK SMILES IDX 80 58 47 59 31 60 32 61 40 62 33 63 35 64 41 65 34 66 36 67
REMARK SMILES IDX 37 68 38 69 39 70 63 71 64 72 72 73 65 74 67 75 73 76 66 77
REMARK SMILES IDX 68 78 69 79 70 80 71 81 48 82 49 83 57 84 50 85 52 86 58 87
REMARK SMILES IDX 51 88 53 89 54 90 55 91 56 92
REMARK H PARENT 12 11 12 12 78 45 46 56
REMARK Flexibility Score: inf
ROOT
ATOM      1  C   UNL A   1      37.731  21.274  24.900  1.00  0.00     0.275 C 
ENDROOT
BRANCH   1   2
ATOM      2  C   UNL A   1      37.032  22.438  24.197  1.00  0.00     0.274 C 
BRANCH   2   3
ATOM      3  O   UNL A   1      35.662  22.105  23.883  1.00  0.00    -0.458 OA
BRANCH   3   4
ATOM      4  C   UNL A   1      34.864  21.922  24.955  1.00  0.00     0.365 C 
ATOM      5  O   UNL A   1      34.200  20.900  25.141  1.00  0.00    -0.245 OA
BRANCH   4   6
ATOM      6  C   UNL A   1      34.851  23.061  25.991  1.00  0.00     0.301 C 
ATOM      7  C   UNL A   1      33.837  24.210  26.060  1.00  0.00     0.099 C 
ATOM      8  C   UNL A   1      32.645  23.543  26.737  1.00  0.00     0.076 C 
ATOM      9  C   UNL A   1      33.323  22.726  27.827  1.00  0.00     0.262 C 
ATOM     10  N   UNL A   1      34.666  22.399  27.340  1.00  0.00    -0.334 N 
ATOM     11  H   UNL A   1      34.762  21.388  27.244  1.00  0.00     0.347 HD
ATOM     12  H   UNL A   1      35.371  22.732  27.996  1.00  0.00     0.347 HD
BRANCH   7  13
ATOM     13  C   UNL A   1      33.505  25.265  25.022  1.00  0.00     0.008 A 
ATOM     14  C   UNL A   1      33.017  27.417  23.220  1.00  0.00     0.164 A 
ATOM     15  C   UNL A   1      33.028  27.647  24.588  1.00  0.00     0.097 A 
ATOM     16  C   UNL A   1      33.318  26.141  22.736  1.00  0.00     0.161 A 
ATOM     17  C   UNL A   1      33.307  26.596  25.462  1.00  0.00     0.126 A 
ATOM     18  C   UNL A   1      33.507  25.071  23.634  1.00  0.00     0.058 A 
BRANCH  14  19
ATOM     19  O   UNL A   1      32.751  28.513  22.439  1.00  0.00    -0.493 OA
ATOM     20  C   UNL A   1      31.397  28.953  22.517  1.00  0.00     0.278 C 
ENDBRANCH  14  19
BRANCH  16  21
ATOM     21  O   UNL A   1      33.603  26.048  21.398  1.00  0.00    -0.493 OA
ATOM     22  C   UNL A   1      32.611  25.458  20.577  1.00  0.00     0.278 C 
ENDBRANCH  16  21
BRANCH  17  23
ATOM     23  O   UNL A   1      33.413  26.909  26.797  1.00  0.00    -0.496 OA
ATOM     24  C   UNL A   1      32.882  28.220  27.037  1.00  0.00     0.278 C 
ENDBRANCH  17  23
ENDBRANCH   7  13
ENDBRANCH   4   6
ENDBRANCH   3   4
ENDBRANCH   2   3
ENDBRANCH   1   2
BRANCH   1  25
ATOM     25  O   UNL A   1      38.162  21.628  26.230  1.00  0.00    -0.458 OA
BRANCH  25  26
ATOM     26  C   UNL A   1      39.492  21.524  26.438  1.00  0.00     0.338 C 
ATOM     27  O   UNL A   1      40.161  20.509  26.435  1.00  0.00    -0.246 OA
BRANCH  26  28
ATOM     28  C   UNL A   1      40.124  22.804  26.733  1.00  0.00     0.060 A 
ATOM     29  C   UNL A   1      41.009  22.911  27.807  1.00  0.00     0.016 A 
ATOM     30  C   UNL A   1      39.634  23.933  26.075  1.00  0.00     0.016 A 
ATOM     31  C   UNL A   1      41.400  24.176  28.235  1.00  0.00     0.010 A 
ATOM     32  C   UNL A   1      40.061  25.193  26.477  1.00  0.00     0.010 A 
ATOM     33  C   UNL A   1      40.940  25.321  27.561  1.00  0.00    -0.014 A 
BRANCH  33  34
ATOM     34  C   UNL A   1      41.498  26.648  27.891  1.00  0.00     0.031 A 
ATOM     35  C   UNL A   1      42.926  26.993  27.604  1.00  0.00     0.074 A 
ATOM     36  C   UNL A   1      40.686  27.506  28.534  1.00  0.00     0.049 A 
ATOM     37  N   UNL A   1      43.568  28.098  27.874  1.00  0.00    -0.248 NA
ATOM     38  C   UNL A   1      43.744  25.967  26.939  1.00  0.00     0.031 C 
ATOM     39  C   UNL A   1      39.298  27.218  28.906  1.00  0.00     0.029 A 
ATOM     40  N   UNL A   1      40.905  28.769  29.008  1.00  0.00    -0.354 N 
ATOM     41  C   UNL A   1      44.873  27.897  27.443  1.00  0.00     0.074 A 
ATOM     42  C   UNL A   1      44.932  26.560  26.890  1.00  0.00     0.031 C 
ATOM     43  C   UNL A   1      38.790  28.276  29.551  1.00  0.00     0.029 A 
ATOM     44  C   UNL A   1      39.820  29.300  29.663  1.00  0.00     0.049 A 
ATOM     45  H   UNL A   1      41.757  29.251  28.893  1.00  0.00     0.167 HD
ATOM     46  C   UNL A   1      45.915  28.760  27.498  1.00  0.00     0.034 A 
ATOM     47  C   UNL A   1      39.674  30.481  30.290  1.00  0.00     0.034 A 
ATOM     48  C   UNL A   1      45.820  30.096  28.029  1.00  0.00     0.049 A 
ATOM     49  C   UNL A   1      40.824  31.442  30.273  1.00  0.00     0.074 A 
ATOM     50  C   UNL A   1      46.797  31.075  28.084  1.00  0.00     0.029 A 
ATOM     51  N   UNL A   1      44.677  30.641  28.598  1.00  0.00    -0.354 N 
ATOM     52  N   UNL A   1      42.014  31.285  29.743  1.00  0.00    -0.248 NA
ATOM     53  C   UNL A   1      40.609  32.748  30.905  1.00  0.00     0.031 C 
ATOM     54  C   UNL A   1      46.244  32.211  28.687  1.00  0.00     0.029 A 
ATOM     55  C   UNL A   1      44.922  31.941  29.008  1.00  0.00     0.049 A 
ATOM     56  H   UNL A   1      43.817  30.172  28.695  1.00  0.00     0.167 HD
ATOM     57  C   UNL A   1      42.689  32.476  29.966  1.00  0.00     0.074 A 
ATOM     58  C   UNL A   1      41.762  33.356  30.654  1.00  0.00     0.031 C 
ATOM     59  C   UNL A   1      43.967  32.805  29.654  1.00  0.00     0.034 A 
BRANCH  46  60
ATOM     60  C   UNL A   1      47.232  28.310  26.927  1.00  0.00     0.023 A 
ATOM     61  C   UNL A   1      48.304  28.038  27.801  1.00  0.00     0.012 A 
ATOM     62  C   UNL A   1      47.398  28.091  25.546  1.00  0.00     0.148 A 
ATOM     63  C   UNL A   1      49.525  27.574  27.310  1.00  0.00     0.002 A 
ATOM     64  C   UNL A   1      48.609  27.601  25.065  1.00  0.00     0.091 A 
ATOM     65  F   UNL A   1      46.380  28.380  24.723  1.00  0.00    -0.205 F 
ATOM     66  C   UNL A   1      49.674  27.347  25.944  1.00  0.00     0.022 A 
BRANCH  64  67
ATOM     67  S   UNL A   1      48.863  27.224  23.325  1.00  0.00     0.127 S 
ATOM     68  O   UNL A   1      48.178  25.939  23.197  1.00  0.00    -0.237 OA
ATOM     69  O   UNL A   1      48.193  28.340  22.656  1.00  0.00    -0.237 OA
ATOM     70  O   UNL A   1      50.308  27.195  23.139  1.00  0.00    -0.744 OA
ENDBRANCH  64  67
ENDBRANCH  46  60
BRANCH  47  71
ATOM     71  C   UNL A   1      38.353  30.819  30.885  1.00  0.00     0.023 A 
ATOM     72  C   UNL A   1      38.145  30.606  32.259  1.00  0.00     0.012 A 
ATOM     73  C   UNL A   1      37.359  31.475  30.132  1.00  0.00     0.148 A 
ATOM     74  C   UNL A   1      36.969  31.036  32.874  1.00  0.00     0.002 A 
ATOM     75  C   UNL A   1      36.215  31.952  30.763  1.00  0.00     0.091 A 
ATOM     76  F   UNL A   1      37.566  31.659  28.820  1.00  0.00    -0.205 F 
ATOM     77  C   UNL A   1      36.013  31.724  32.132  1.00  0.00     0.022 A 
BRANCH  75  78
ATOM     78  S   UNL A   1      35.033  32.992  29.893  1.00  0.00     0.127 S 
ATOM     79  O   UNL A   1      34.471  32.060  28.919  1.00  0.00    -0.237 OA
ATOM     80  O   UNL A   1      34.115  33.391  30.962  1.00  0.00    -0.237 OA
ATOM     81  O   UNL A   1      35.825  34.089  29.355  1.00  0.00    -0.744 OA
ENDBRANCH  75  78
ENDBRANCH  47  71
BRANCH  59  82
ATOM     82  C   UNL A   1      44.436  34.171  30.067  1.00  0.00     0.023 A 
ATOM     83  C   UNL A   1      45.114  34.319  31.293  1.00  0.00     0.012 A 
ATOM     84  C   UNL A   1      44.260  35.286  29.229  1.00  0.00     0.148 A 
ATOM     85  C   UNL A   1      45.594  35.566  31.689  1.00  0.00     0.002 A 
ATOM     86  C   UNL A   1      44.772  36.521  29.615  1.00  0.00     0.091 A 
ATOM     87  F   UNL A   1      43.587  35.129  28.080  1.00  0.00    -0.205 F 
ATOM     88  C   UNL A   1      45.432  36.663  30.846  1.00  0.00     0.022 A 
BRANCH  86  89
ATOM     89  S   UNL A   1      44.664  37.959  28.544  1.00  0.00     0.127 S 
ATOM     90  O   UNL A   1      45.377  38.968  29.324  1.00  0.00    -0.237 OA
ATOM     91  O   UNL A   1      45.365  37.514  27.338  1.00  0.00    -0.237 OA
ATOM     92  O   UNL A   1      43.238  38.192  28.352  1.00  0.00    -0.744 OA
ENDBRANCH  86  89
ENDBRANCH  59  82
ENDBRANCH  33  34
ENDBRANCH  26  28
ENDBRANCH  25  26
ENDBRANCH   1  25
TORSDOF 18
ENDMDL
MODEL 2
REMARK VINA RESULT:     -10.6      1.537      2.190
REMARK SMILES COc1cc(OC)c([C@H]2CC[NH2+][C@H]2C(=O)OCCOC(=O)c2ccc(-c3c4nc(c(-c5cccc(S(=O)(=O)[O-])c5F)c5ccc([nH]5)c(-c5cccc(S(=O)(=O)[O-])c5F)c5nc(c(-c6cccc(S(=O)(=O)[O-])c6F)c6ccc3[nH]6)C=C5)C=C4)cc2)cc1OC
REMARK SMILES IDX 18 1 17 2 16 3 14 4 15 5 13 6 9 7 10 8 11 9 12 10 8 13 3 14
REMARK SMILES IDX 4 15 86 16 5 17 85 18 2 19 1 20 87 21 88 22 6 23 7 24 19 25
REMARK SMILES IDX 20 26 21 27 22 28 23 29 84 30 24 31 83 32 25 33 26 34 27 35
REMARK SMILES IDX 77 36 28 37 82 38 76 39 78 40 29 41 81 42 75 43 74 44 30 46
REMARK SMILES IDX 62 47 42 48 61 49 43 50 46 51 60 52 79 53 44 54 45 55 59 57
REMARK SMILES IDX 80 58 47 59 31 60 32 61 40 62 33 63 35 64 41 65 34 66 36 67
REMARK SMILES IDX 37 68 38 69 39 70 63 71 64 72 72 73 65 74 67 75 73 76 66 77
REMARK SMILES IDX 68 78 69 79 70 80 71 81 48 82 49 83 57 84 50 85 52 86 58 87
REMARK SMILES IDX 51 88 53 89 54 90 55 91 56 92
REMARK H PARENT 12 11 12 12 78 45 46 56
REMARK Flexibility Score: inf
ROOT
ATOM      1  C   UNL A   1      39.249  20.252  25.685  1.00  0.00     0.275 C 
ENDROOT
BRANCH   1   2
ATOM      2  C   UNL A   1      38.635  21.647  25.790  1.00  0.00     0.274 C 
BRANCH   2   3
ATOM      3  O   UNL A   1      37.285  21.658  25.275  1.00  0.00    -0.458 OA
BRANCH   3   4
ATOM      4  C   UNL A   1      36.500  22.637  25.767  1.00  0.00     0.365 C 
ATOM      5  O   UNL A   1      36.849  23.817  25.839  1.00  0.00    -0.245 OA
BRANCH   4   6
ATOM      6  C   UNL A   1      35.086  22.213  26.209  1.00  0.00     0.301 C 
ATOM      7  C   UNL A   1      33.763  22.749  25.648  1.00  0.00     0.099 C 
ATOM      8  C   UNL A   1      33.625  21.960  24.352  1.00  0.00     0.076 C 
ATOM      9  C   UNL A   1      34.045  20.565  24.789  1.00  0.00     0.262 C 
ATOM     10  N   UNL A   1      34.979  20.735  25.907  1.00  0.00    -0.334 N 
ATOM     11  H   UNL A   1      35.894  20.367  25.652  1.00  0.00     0.347 HD
ATOM     12  H   UNL A   1      34.643  20.230  26.727  1.00  0.00     0.347 HD
BRANCH   7  13
ATOM     13  C   UNL A   1      33.234  24.171  25.618  1.00  0.00     0.008 A 
ATOM     14  C   UNL A   1      32.194  26.816  25.818  1.00  0.00     0.164 A 
ATOM     15  C   UNL A   1      31.616  25.786  26.547  1.00  0.00     0.097 A 
ATOM     16  C   UNL A   1      33.330  26.557  25.046  1.00  0.00     0.161 A 
ATOM     17  C   UNL A   1      32.157  24.502  26.474  1.00  0.00     0.126 A 
ATOM     18  C   UNL A   1      33.807  25.238  24.911  1.00  0.00     0.058 A 
BRANCH  14  19
ATOM     19  O   UNL A   1      31.606  28.046  25.967  1.00  0.00    -0.493 OA
ATOM     20  C   UNL A   1      31.905  28.672  27.213  1.00  0.00     0.278 C 
ENDBRANCH  14  19
BRANCH  16  21
ATOM     21  O   UNL A   1      34.034  27.651  24.612  1.00  0.00    -0.493 OA
ATOM     22  C   UNL A   1      33.761  28.101  23.297  1.00  0.00     0.278 C 
ENDBRANCH  16  21
BRANCH  17  23
ATOM     23  O   UNL A   1      31.611  23.550  27.303  1.00  0.00    -0.496 OA
ATOM     24  C   UNL A   1      30.353  23.104  26.777  1.00  0.00     0.278 C 
ENDBRANCH  17  23
ENDBRANCH   7  13
ENDBRANCH   4   6
ENDBRANCH   3   4
ENDBRANCH   2   3
ENDBRANCH   1   2
BRANCH   1  25
ATOM     25  O   UNL A   1      40.304  20.053  26.649  1.00  0.00    -0.458 OA
BRANCH  25  26
ATOM     26  C   UNL A   1      41.542  20.354  26.201  1.00  0.00     0.338 C 
ATOM     27  O   UNL A   1      42.285  19.642  25.555  1.00  0.00    -0.246 OA
BRANCH  26  28
ATOM     28  C   UNL A   1      41.988  21.681  26.608  1.00  0.00     0.060 A 
ATOM     29  C   UNL A   1      42.052  22.008  27.964  1.00  0.00     0.016 A 
ATOM     30  C   UNL A   1      42.105  22.656  25.616  1.00  0.00     0.016 A 
ATOM     31  C   UNL A   1      42.226  23.339  28.329  1.00  0.00     0.010 A 
ATOM     32  C   UNL A   1      42.321  23.978  25.984  1.00  0.00     0.010 A 
ATOM     33  C   UNL A   1      42.377  24.327  27.341  1.00  0.00    -0.014 A 
BRANCH  33  34
ATOM     34  C   UNL A   1      42.748  25.704  27.722  1.00  0.00     0.031 A 
ATOM     35  C   UNL A   1      44.167  26.177  27.678  1.00  0.00     0.074 A 
ATOM     36  C   UNL A   1      41.762  26.492  28.188  1.00  0.00     0.049 A 
ATOM     37  N   UNL A   1      44.651  27.341  28.022  1.00  0.00    -0.248 NA
ATOM     38  C   UNL A   1      45.179  25.222  27.198  1.00  0.00     0.031 C 
ATOM     39  C   UNL A   1      40.361  26.081  28.321  1.00  0.00     0.029 A 
ATOM     40  N   UNL A   1      41.781  27.777  28.655  1.00  0.00    -0.354 N 
ATOM     41  C   UNL A   1      46.024  27.256  27.832  1.00  0.00     0.074 A 
ATOM     42  C   UNL A   1      46.299  25.922  27.339  1.00  0.00     0.031 C 
ATOM     43  C   UNL A   1      39.655  27.097  28.835  1.00  0.00     0.029 A 
ATOM     44  C   UNL A   1      40.554  28.213  29.094  1.00  0.00     0.049 A 
ATOM     45  H   UNL A   1      42.593  28.334  28.675  1.00  0.00     0.167 HD
ATOM     46  C   UNL A   1      46.959  28.213  28.042  1.00  0.00     0.034 A 
ATOM     47  C   UNL A   1      40.195  29.384  29.650  1.00  0.00     0.034 A 
ATOM     48  C   UNL A   1      46.654  29.541  28.507  1.00  0.00     0.049 A 
ATOM     49  C   UNL A   1      41.240  30.448  29.805  1.00  0.00     0.074 A 
ATOM     50  C   UNL A   1      47.514  30.607  28.703  1.00  0.00     0.029 A 
ATOM     51  N   UNL A   1      45.384  29.986  28.852  1.00  0.00    -0.354 N 
ATOM     52  N   UNL A   1      42.514  30.395  29.496  1.00  0.00    -0.248 NA
ATOM     53  C   UNL A   1      40.802  31.737  30.350  1.00  0.00     0.031 C 
ATOM     54  C   UNL A   1      46.764  31.695  29.166  1.00  0.00     0.029 A 
ATOM     55  C   UNL A   1      45.436  31.308  29.260  1.00  0.00     0.049 A 
ATOM     56  H   UNL A   1      44.566  29.440  28.812  1.00  0.00     0.167 HD
ATOM     57  C   UNL A   1      43.031  31.646  29.796  1.00  0.00     0.074 A 
ATOM     58  C   UNL A   1      41.922  32.445  30.285  1.00  0.00     0.031 C 
ATOM     59  C   UNL A   1      44.308  32.089  29.702  1.00  0.00     0.034 A 
BRANCH  46  60
ATOM     60  C   UNL A   1      48.391  27.878  27.724  1.00  0.00     0.023 A 
ATOM     61  C   UNL A   1      49.240  27.435  28.757  1.00  0.00     0.012 A 
ATOM     62  C   UNL A   1      48.883  27.937  26.406  1.00  0.00     0.148 A 
ATOM     63  C   UNL A   1      50.561  27.072  28.488  1.00  0.00     0.002 A 
ATOM     64  C   UNL A   1      50.193  27.548  26.140  1.00  0.00     0.091 A 
ATOM     65  F   UNL A   1      48.074  28.388  25.437  1.00  0.00    -0.205 F 
ATOM     66  C   UNL A   1      51.034  27.119  27.180  1.00  0.00     0.022 A 
BRANCH  64  67
ATOM     67  S   UNL A   1      50.861  27.521  24.471  1.00  0.00     0.127 S 
ATOM     68  O   UNL A   1      50.976  28.948  24.174  1.00  0.00    -0.237 OA
ATOM     69  O   UNL A   1      52.141  26.834  24.651  1.00  0.00    -0.237 OA
ATOM     70  O   UNL A   1      49.892  26.782  23.673  1.00  0.00    -0.744 OA
ENDBRANCH  64  67
ENDBRANCH  46  60
BRANCH  47  71
ATOM     71  C   UNL A   1      38.765  29.607  29.995  1.00  0.00     0.023 A 
ATOM     72  C   UNL A   1      38.328  29.347  31.306  1.00  0.00     0.012 A 
ATOM     73  C   UNL A   1      37.876  30.201  29.078  1.00  0.00     0.148 A 
ATOM     74  C   UNL A   1      37.029  29.672  31.698  1.00  0.00     0.002 A 
ATOM     75  C   UNL A   1      36.601  30.574  29.492  1.00  0.00     0.091 A 
ATOM     76  F   UNL A   1      38.303  30.429  27.827  1.00  0.00    -0.205 F 
ATOM     77  C   UNL A   1      36.173  30.301  30.799  1.00  0.00     0.022 A 
BRANCH  75  78
ATOM     78  S   UNL A   1      35.519  31.538  28.428  1.00  0.00     0.127 S 
ATOM     79  O   UNL A   1      35.112  30.548  27.435  1.00  0.00    -0.237 OA
ATOM     80  O   UNL A   1      34.460  31.957  29.348  1.00  0.00    -0.237 OA
ATOM     81  O   UNL A   1      36.349  32.634  27.945  1.00  0.00    -0.744 OA
ENDBRANCH  75  78
ENDBRANCH  47  71
BRANCH  59  82
ATOM     82  C   UNL A   1      44.574  33.498  30.150  1.00  0.00     0.023 A 
ATOM     83  C   UNL A   1      44.974  33.728  31.480  1.00  0.00     0.012 A 
ATOM     84  C   UNL A   1      44.484  34.577  29.252  1.00  0.00     0.148 A 
ATOM     85  C   UNL A   1      45.263  35.020  31.917  1.00  0.00     0.002 A 
ATOM     86  C   UNL A   1      44.807  35.858  29.686  1.00  0.00     0.091 A 
ATOM     87  F   UNL A   1      44.073  34.339  27.998  1.00  0.00    -0.205 F 
ATOM     88  C   UNL A   1      45.190  36.082  31.018  1.00  0.00     0.022 A 
BRANCH  86  89
ATOM     89  S   UNL A   1      44.805  37.259  28.562  1.00  0.00     0.127 S 
ATOM     90  O   UNL A   1      45.900  36.920  27.657  1.00  0.00    -0.237 OA
ATOM     91  O   UNL A   1      43.472  37.185  27.960  1.00  0.00    -0.237 OA
ATOM     92  O   UNL A   1      45.013  38.430  29.404  1.00  0.00    -0.744 OA
ENDBRANCH  86  89
ENDBRANCH  59  82
ENDBRANCH  33  34
ENDBRANCH  26  28
ENDBRANCH  25  26
ENDBRANCH   1  25
TORSDOF 18
ENDMDL
MODEL 3
REMARK VINA RESULT:     -10.6      1.450      7.770
REMARK SMILES COc1cc(OC)c([C@H]2CC[NH2+][C@H]2C(=O)OCCOC(=O)c2ccc(-c3c4nc(c(-c5cccc(S(=O)(=O)[O-])c5F)c5ccc([nH]5)c(-c5cccc(S(=O)(=O)[O-])c5F)c5nc(c(-c6cccc(S(=O)(=O)[O-])c6F)c6ccc3[nH]6)C=C5)C=C4)cc2)cc1OC
REMARK SMILES IDX 18 1 17 2 16 3 14 4 15 5 13 6 9 7 10 8 11 9 12 10 8 13 3 14
REMARK SMILES IDX 4 15 86 16 5 17 85 18 2 19 1 20 87 21 88 22 6 23 7 24 19 25
REMARK SMILES IDX 20 26 21 27 22 28 23 29 84 30 24 31 83 32 25 33 26 34 27 35
REMARK SMILES IDX 77 36 28 37 82 38 76 39 78 40 29 41 81 42 75 43 74 44 30 46
REMARK SMILES IDX 62 47 42 48 61 49 43 50 46 51 60 52 79 53 44 54 45 55 59 57
REMARK SMILES IDX 80 58 47 59 31 60 32 61 40 62 33 63 35 64 41 65 34 66 36 67
REMARK SMILES IDX 37 68 38 69 39 70 63 71 64 72 72 73 65 74 67 75 73 76 66 77
REMARK SMILES IDX 68 78 69 79 70 80 71 81 48 82 49 83 57 84 50 85 52 86 58 87
REMARK SMILES IDX 51 88 53 89 54 90 55 91 56 92
REMARK H PARENT 12 11 12 12 78 45 46 56
REMARK Flexibility Score: inf
ROOT
ATOM      1  C   UNL A   1      37.774  20.574  25.020  1.00  0.00     0.275 C 
ENDROOT
BRANCH   1   2
ATOM      2  C   UNL A   1      36.254  20.703  24.916  1.00  0.00     0.274 C 
BRANCH   2   3
ATOM      3  O   UNL A   1      35.685  21.126  26.175  1.00  0.00    -0.458 OA
BRANCH   3   4
ATOM      4  C   UNL A   1      34.755  22.098  26.077  1.00  0.00     0.365 C 
ATOM      5  O   UNL A   1      35.020  23.264  25.775  1.00  0.00    -0.245 OA
BRANCH   4   6
ATOM      6  C   UNL A   1      33.297  21.668  26.323  1.00  0.00     0.301 C 
ATOM      7  C   UNL A   1      32.099  21.968  25.414  1.00  0.00     0.099 C 
ATOM      8  C   UNL A   1      32.256  20.914  24.324  1.00  0.00     0.076 C 
ATOM      9  C   UNL A   1      32.626  19.680  25.134  1.00  0.00     0.262 C 
ATOM     10  N   UNL A   1      33.304  20.155  26.343  1.00  0.00    -0.334 N 
ATOM     11  H   UNL A   1      34.265  19.814  26.357  1.00  0.00     0.347 HD
ATOM     12  H   UNL A   1      32.826  19.810  27.175  1.00  0.00     0.347 HD
BRANCH   7  13
ATOM     13  C   UNL A   1      31.538  23.305  24.967  1.00  0.00     0.008 A 
ATOM     14  C   UNL A   1      30.529  25.902  24.371  1.00  0.00     0.164 A 
ATOM     15  C   UNL A   1      30.272  25.324  25.606  1.00  0.00     0.097 A 
ATOM     16  C   UNL A   1      31.345  25.231  23.456  1.00  0.00     0.161 A 
ATOM     17  C   UNL A   1      30.804  24.069  25.905  1.00  0.00     0.126 A 
ATOM     18  C   UNL A   1      31.797  23.926  23.737  1.00  0.00     0.058 A 
BRANCH  14  19
ATOM     19  O   UNL A   1      29.982  27.144  24.176  1.00  0.00    -0.493 OA
ATOM     20  C   UNL A   1      30.873  28.213  24.485  1.00  0.00     0.278 C 
ENDBRANCH  14  19
BRANCH  16  21
ATOM     21  O   UNL A   1      31.819  25.972  22.404  1.00  0.00    -0.493 OA
ATOM     22  C   UNL A   1      33.169  25.759  22.034  1.00  0.00     0.278 C 
ENDBRANCH  16  21
BRANCH  17  23
ATOM     23  O   UNL A   1      30.607  23.598  27.182  1.00  0.00    -0.496 OA
ATOM     24  C   UNL A   1      29.386  22.849  27.246  1.00  0.00     0.278 C 
ENDBRANCH  17  23
ENDBRANCH   7  13
ENDBRANCH   4   6
ENDBRANCH   3   4
ENDBRANCH   2   3
ENDBRANCH   1   2
BRANCH   1  25
ATOM     25  O   UNL A   1      38.249  20.849  26.353  1.00  0.00    -0.458 OA
BRANCH  25  26
ATOM     26  C   UNL A   1      39.592  20.936  26.468  1.00  0.00     0.338 C 
ATOM     27  O   UNL A   1      40.406  20.054  26.276  1.00  0.00    -0.246 OA
BRANCH  26  28
ATOM     28  C   UNL A   1      40.042  22.249  26.912  1.00  0.00     0.060 A 
ATOM     29  C   UNL A   1      39.577  23.398  26.270  1.00  0.00     0.016 A 
ATOM     30  C   UNL A   1      41.110  22.296  27.810  1.00  0.00     0.016 A 
ATOM     31  C   UNL A   1      40.203  24.614  26.526  1.00  0.00     0.010 A 
ATOM     32  C   UNL A   1      41.705  23.519  28.095  1.00  0.00     0.010 A 
ATOM     33  C   UNL A   1      41.259  24.682  27.451  1.00  0.00    -0.014 A 
BRANCH  33  34
ATOM     34  C   UNL A   1      41.797  25.993  27.864  1.00  0.00     0.031 A 
ATOM     35  C   UNL A   1      40.961  26.989  28.603  1.00  0.00     0.074 A 
ATOM     36  C   UNL A   1      43.052  26.284  27.475  1.00  0.00     0.049 A 
ATOM     37  N   UNL A   1      41.281  28.194  28.994  1.00  0.00    -0.248 NA
ATOM     38  C   UNL A   1      39.585  26.591  28.941  1.00  0.00     0.031 C 
ATOM     39  C   UNL A   1      43.911  25.388  26.695  1.00  0.00     0.029 A 
ATOM     40  N   UNL A   1      43.813  27.406  27.653  1.00  0.00    -0.354 N 
ATOM     41  C   UNL A   1      40.143  28.716  29.596  1.00  0.00     0.074 A 
ATOM     42  C   UNL A   1      39.121  27.693  29.522  1.00  0.00     0.031 C 
ATOM     43  C   UNL A   1      45.081  25.996  26.463  1.00  0.00     0.029 A 
ATOM     44  C   UNL A   1      45.044  27.329  27.049  1.00  0.00     0.049 A 
ATOM     45  H   UNL A   1      43.508  28.192  28.164  1.00  0.00     0.167 HD
ATOM     46  C   UNL A   1      39.982  29.933  30.166  1.00  0.00     0.034 A 
ATOM     47  C   UNL A   1      46.034  28.237  26.972  1.00  0.00     0.034 A 
ATOM     48  C   UNL A   1      41.026  30.922  30.251  1.00  0.00     0.049 A 
ATOM     49  C   UNL A   1      45.851  29.549  27.672  1.00  0.00     0.074 A 
ATOM     50  C   UNL A   1      40.990  32.167  30.854  1.00  0.00     0.029 A 
ATOM     51  N   UNL A   1      42.298  30.776  29.714  1.00  0.00    -0.354 N 
ATOM     52  N   UNL A   1      44.813  29.977  28.352  1.00  0.00    -0.248 NA
ATOM     53  C   UNL A   1      46.975  30.491  27.627  1.00  0.00     0.031 C 
ATOM     54  C   UNL A   1      42.240  32.773  30.681  1.00  0.00     0.029 A 
ATOM     55  C   UNL A   1      43.056  31.907  29.969  1.00  0.00     0.049 A 
ATOM     56  H   UNL A   1      42.615  29.985  29.223  1.00  0.00     0.167 HD
ATOM     57  C   UNL A   1      45.161  31.232  28.828  1.00  0.00     0.074 A 
ATOM     58  C   UNL A   1      46.519  31.482  28.382  1.00  0.00     0.031 C 
ATOM     59  C   UNL A   1      44.418  32.110  29.547  1.00  0.00     0.034 A 
BRANCH  46  60
ATOM     60  C   UNL A   1      38.647  30.248  30.787  1.00  0.00     0.023 A 
ATOM     61  C   UNL A   1      38.384  29.822  32.104  1.00  0.00     0.012 A 
ATOM     62  C   UNL A   1      37.683  31.014  30.105  1.00  0.00     0.148 A 
ATOM     63  C   UNL A   1      37.175  30.137  32.726  1.00  0.00     0.002 A 
ATOM     64  C   UNL A   1      36.490  31.348  30.741  1.00  0.00     0.091 A 
ATOM     65  F   UNL A   1      37.934  31.388  28.842  1.00  0.00    -0.205 F 
ATOM     66  C   UNL A   1      36.233  30.907  32.049  1.00  0.00     0.022 A 
BRANCH  64  67
ATOM     67  S   UNL A   1      35.250  32.389  29.959  1.00  0.00     0.127 S 
ATOM     68  O   UNL A   1      34.299  32.588  31.051  1.00  0.00    -0.237 OA
ATOM     69  O   UNL A   1      36.017  33.581  29.597  1.00  0.00    -0.237 OA
ATOM     70  O   UNL A   1      34.759  31.625  28.821  1.00  0.00    -0.744 OA
ENDBRANCH  64  67
ENDBRANCH  46  60
BRANCH  47  71
ATOM     71  C   UNL A   1      47.297  27.865  26.281  1.00  0.00     0.023 A 
ATOM     72  C   UNL A   1      48.297  27.184  26.999  1.00  0.00     0.012 A 
ATOM     73  C   UNL A   1      47.456  28.056  24.895  1.00  0.00     0.148 A 
ATOM     74  C   UNL A   1      49.434  26.703  26.349  1.00  0.00     0.002 A 
ATOM     75  C   UNL A   1      48.564  27.524  24.243  1.00  0.00     0.091 A 
ATOM     76  F   UNL A   1      46.501  28.720  24.226  1.00  0.00    -0.205 F 
ATOM     77  C   UNL A   1      49.559  26.856  24.971  1.00  0.00     0.022 A 
BRANCH  75  78
ATOM     78  S   UNL A   1      48.692  27.543  22.450  1.00  0.00     0.127 S 
ATOM     79  O   UNL A   1      49.971  28.218  22.246  1.00  0.00    -0.237 OA
ATOM     80  O   UNL A   1      48.689  26.117  22.117  1.00  0.00    -0.237 OA
ATOM     81  O   UNL A   1      47.505  28.257  21.998  1.00  0.00    -0.744 OA
ENDBRANCH  75  78
ENDBRANCH  47  71
BRANCH  59  82
ATOM     82  C   UNL A   1      45.059  33.426  29.882  1.00  0.00     0.023 A 
ATOM     83  C   UNL A   1      45.760  33.556  31.096  1.00  0.00     0.012 A 
ATOM     84  C   UNL A   1      45.019  34.506  28.982  1.00  0.00     0.148 A 
ATOM     85  C   UNL A   1      46.396  34.753  31.420  1.00  0.00     0.002 A 
ATOM     86  C   UNL A   1      45.684  35.686  29.296  1.00  0.00     0.091 A 
ATOM     87  F   UNL A   1      44.322  34.371  27.844  1.00  0.00    -0.205 F 
ATOM     88  C   UNL A   1      46.368  35.813  30.517  1.00  0.00     0.022 A 
BRANCH  86  89
ATOM     89  S   UNL A   1      45.750  37.063  28.146  1.00  0.00     0.127 S 
ATOM     90  O   UNL A   1      44.342  37.437  28.044  1.00  0.00    -0.237 OA
ATOM     91  O   UNL A   1      46.587  38.034  28.855  1.00  0.00    -0.237 OA
ATOM     92  O   UNL A   1      46.357  36.527  26.935  1.00  0.00    -0.744 OA
ENDBRANCH  86  89
ENDBRANCH  59  82
ENDBRANCH  33  34
ENDBRANCH  26  28
ENDBRANCH  25  26
ENDBRANCH   1  25
TORSDOF 18
ENDMDL
