MODEL 1
REMARK VINA RESULT:     -13.2      0.000      0.000
REMARK SMILES Cc1cccc2c1[C@H]1c3c(C)cccc3[C@H](CC(=O)OCCOC(=O)c3ccc(-c4c5nc(c(-c6cccc(S(=O)(=O)[O-])c6F)c6ccc([nH]6)c(-c6cccc(S(=O)(=O)[O-])c6F)c6nc(c(-c7cccc(S(=O)(=O)[O-])c7F)c7ccc4[nH]7)C=C6)C=C5)cc3)C[C@H]1CC2
REMARK SMILES IDX 22 1 21 2 20 3 18 4 19 5 17 6 16 7 1 8 2 9 3 10 7 11 4 12
REMARK SMILES IDX 6 13 8 14 5 15 92 16 9 17 90 18 91 19 10 20 15 21 89 22
REMARK SMILES IDX 12 23 11 24 14 25 13 26 23 27 24 28 25 29 26 30 27 31 88 32
REMARK SMILES IDX 28 33 87 34 29 35 30 36 31 37 81 38 32 39 86 40 80 41 82 42
REMARK SMILES IDX 33 43 85 44 79 45 78 46 34 48 66 49 46 50 65 51 47 52 50 53
REMARK SMILES IDX 64 54 83 55 48 56 49 57 63 59 84 60 51 61 35 62 36 63 44 64
REMARK SMILES IDX 37 65 39 66 45 67 38 68 40 69 41 70 42 71 43 72 67 73 68 74
REMARK SMILES IDX 76 75 69 76 71 77 77 78 70 79 72 80 73 81 74 82 75 83 52 84
REMARK SMILES IDX 53 85 61 86 54 87 56 88 62 89 55 90 57 91 58 92 59 93 60 94
REMARK H PARENT 82 47 50 58
REMARK Flexibility Score: inf
ROOT
ATOM      1  C   UNL A   1      31.834  29.818  25.371  1.00  0.00     0.275 C 
ENDROOT
BRANCH   1   2
ATOM      2  C   UNL A   1      31.845  28.418  24.741  1.00  0.00     0.274 C 
BRANCH   2   3
ATOM      3  O   UNL A   1      32.813  27.560  25.383  1.00  0.00    -0.462 OA
BRANCH   3   4
ATOM      4  C   UNL A   1      32.426  26.506  26.127  1.00  0.00     0.306 C 
ATOM      5  O   UNL A   1      31.501  26.544  26.928  1.00  0.00    -0.252 OA
BRANCH   4   6
ATOM      6  C   UNL A   1      33.310  25.272  25.932  1.00  0.00     0.131 C 
BRANCH   6   7
ATOM      7  C   UNL A   1      33.033  24.314  24.730  1.00  0.00     0.031 C 
ATOM      8  C   UNL A   1      32.899  18.763  26.506  1.00  0.00     0.044 C 
ATOM      9  C   UNL A   1      32.817  18.742  25.002  1.00  0.00    -0.047 A 
ATOM     10  C   UNL A   1      32.986  17.521  24.330  1.00  0.00     0.004 A 
ATOM     11  C   UNL A   1      32.624  19.922  24.242  1.00  0.00    -0.034 A 
ATOM     12  C   UNL A   1      32.890  17.450  22.943  1.00  0.00     0.001 A 
ATOM     13  C   UNL A   1      32.361  19.814  22.858  1.00  0.00    -0.044 A 
ATOM     14  C   UNL A   1      32.792  21.307  24.859  1.00  0.00     0.053 C 
ATOM     15  C   UNL A   1      32.531  18.580  22.216  1.00  0.00     0.004 A 
ATOM     16  C   UNL A   1      31.780  20.954  22.055  1.00  0.00     0.036 C 
ATOM     17  C   UNL A   1      34.181  21.965  24.664  1.00  0.00    -0.034 A 
ATOM     18  C   UNL A   1      31.655  22.202  24.282  1.00  0.00     0.002 C 
ATOM     19  C   UNL A   1      31.739  22.313  22.749  1.00  0.00     0.009 C 
ATOM     20  C   UNL A   1      35.446  21.299  24.626  1.00  0.00    -0.047 A 
ATOM     21  C   UNL A   1      34.196  23.361  24.458  1.00  0.00    -0.040 A 
ATOM     22  C   UNL A   1      31.705  23.567  24.968  1.00  0.00     0.013 C 
ATOM     23  C   UNL A   1      36.633  22.035  24.421  1.00  0.00     0.004 A 
ATOM     24  C   UNL A   1      35.692  19.819  24.689  1.00  0.00     0.044 C 
ATOM     25  C   UNL A   1      35.338  23.924  23.888  1.00  0.00     0.004 A 
ATOM     26  C   UNL A   1      36.575  23.330  23.976  1.00  0.00     0.001 A 
ENDBRANCH   6   7
ENDBRANCH   4   6
ENDBRANCH   3   4
ENDBRANCH   2   3
ENDBRANCH   1   2
BRANCH   1  27
ATOM     27  O   UNL A   1      33.120  30.100  25.932  1.00  0.00    -0.458 OA
BRANCH  27  28
ATOM     28  C   UNL A   1      33.206  31.144  26.786  1.00  0.00     0.338 C 
ATOM     29  O   UNL A   1      32.388  32.018  26.999  1.00  0.00    -0.246 OA
BRANCH  28  30
ATOM     30  C   UNL A   1      34.423  30.911  27.563  1.00  0.00     0.060 A 
ATOM     31  C   UNL A   1      34.703  29.611  27.992  1.00  0.00     0.016 A 
ATOM     32  C   UNL A   1      35.325  31.956  27.762  1.00  0.00     0.016 A 
ATOM     33  C   UNL A   1      35.931  29.327  28.572  1.00  0.00     0.010 A 
ATOM     34  C   UNL A   1      36.538  31.681  28.380  1.00  0.00     0.010 A 
ATOM     35  C   UNL A   1      36.840  30.368  28.779  1.00  0.00    -0.014 A 
BRANCH  35  36
ATOM     36  C   UNL A   1      38.056  30.123  29.566  1.00  0.00     0.031 A 
ATOM     37  C   UNL A   1      39.072  29.187  28.997  1.00  0.00     0.074 A 
ATOM     38  C   UNL A   1      38.213  30.698  30.769  1.00  0.00     0.049 A 
ATOM     39  N   UNL A   1      40.143  28.698  29.556  1.00  0.00    -0.248 NA
ATOM     40  C   UNL A   1      38.850  28.740  27.609  1.00  0.00     0.031 C 
ATOM     41  C   UNL A   1      37.295  31.661  31.376  1.00  0.00     0.029 A 
ATOM     42  N   UNL A   1      39.196  30.526  31.707  1.00  0.00    -0.354 N 
ATOM     43  C   UNL A   1      40.706  27.860  28.604  1.00  0.00     0.074 A 
ATOM     44  C   UNL A   1      39.869  27.913  27.428  1.00  0.00     0.031 C 
ATOM     45  C   UNL A   1      37.740  31.969  32.606  1.00  0.00     0.029 A 
ATOM     46  C   UNL A   1      38.951  31.199  32.879  1.00  0.00     0.049 A 
ATOM     47  H   UNL A   1      39.998  29.977  31.556  1.00  0.00     0.167 HD
ATOM     48  C   UNL A   1      41.828  27.117  28.709  1.00  0.00     0.034 A 
ATOM     49  C   UNL A   1      39.618  31.161  34.048  1.00  0.00     0.034 A 
ATOM     50  C   UNL A   1      42.647  27.079  29.885  1.00  0.00     0.049 A 
ATOM     51  C   UNL A   1      40.832  30.282  34.159  1.00  0.00     0.074 A 
ATOM     52  C   UNL A   1      43.810  26.367  30.099  1.00  0.00     0.029 A 
ATOM     53  N   UNL A   1      42.378  27.780  31.052  1.00  0.00    -0.354 N 
ATOM     54  N   UNL A   1      41.387  29.525  33.240  1.00  0.00    -0.248 NA
ATOM     55  C   UNL A   1      41.518  30.255  35.457  1.00  0.00     0.031 C 
ATOM     56  C   UNL A   1      44.239  26.626  31.405  1.00  0.00     0.029 A 
ATOM     57  C   UNL A   1      43.351  27.513  31.996  1.00  0.00     0.049 A 
ATOM     58  H   UNL A   1      41.608  28.380  31.187  1.00  0.00     0.167 HD
ATOM     59  C   UNL A   1      42.496  28.943  33.843  1.00  0.00     0.074 A 
ATOM     60  C   UNL A   1      42.544  29.450  35.201  1.00  0.00     0.031 C 
ATOM     61  C   UNL A   1      43.384  28.057  33.329  1.00  0.00     0.034 A 
BRANCH  48  62
ATOM     62  C   UNL A   1      42.233  26.304  27.517  1.00  0.00     0.023 A 
ATOM     63  C   UNL A   1      42.968  26.914  26.481  1.00  0.00     0.012 A 
ATOM     64  C   UNL A   1      41.928  24.933  27.443  1.00  0.00     0.148 A 
ATOM     65  C   UNL A   1      43.391  26.169  25.382  1.00  0.00     0.002 A 
ATOM     66  C   UNL A   1      42.377  24.190  26.358  1.00  0.00     0.091 A 
ATOM     67  F   UNL A   1      41.200  24.387  28.428  1.00  0.00    -0.205 F 
ATOM     68  C   UNL A   1      43.104  24.806  25.326  1.00  0.00     0.022 A 
BRANCH  66  69
ATOM     69  S   UNL A   1      42.099  22.422  26.208  1.00  0.00     0.127 S 
ATOM     70  O   UNL A   1      42.883  22.101  25.015  1.00  0.00    -0.237 OA
ATOM     71  O   UNL A   1      42.661  21.919  27.461  1.00  0.00    -0.237 OA
ATOM     72  O   UNL A   1      40.661  22.249  26.065  1.00  0.00    -0.744 OA
ENDBRANCH  66  69
ENDBRANCH  48  62
BRANCH  49  73
ATOM     73  C   UNL A   1      39.155  32.002  35.184  1.00  0.00     0.023 A 
ATOM     74  C   UNL A   1      38.223  31.470  36.095  1.00  0.00     0.012 A 
ATOM     75  C   UNL A   1      39.680  33.290  35.404  1.00  0.00     0.148 A 
ATOM     76  C   UNL A   1      37.819  32.209  37.207  1.00  0.00     0.002 A 
ATOM     77  C   UNL A   1      39.300  34.007  36.533  1.00  0.00     0.091 A 
ATOM     78  F   UNL A   1      40.564  33.774  34.519  1.00  0.00    -0.205 F 
ATOM     79  C   UNL A   1      38.363  33.471  37.432  1.00  0.00     0.022 A 
BRANCH  77  80
ATOM     80  S   UNL A   1      40.007  35.603  36.958  1.00  0.00     0.127 S 
ATOM     81  O   UNL A   1      39.653  36.408  35.791  1.00  0.00    -0.237 OA
ATOM     82  O   UNL A   1      39.276  35.936  38.181  1.00  0.00    -0.237 OA
ATOM     83  O   UNL A   1      41.433  35.371  37.144  1.00  0.00    -0.744 OA
ENDBRANCH  77  80
ENDBRANCH  49  73
BRANCH  61  84
ATOM     84  C   UNL A   1      44.484  27.573  34.232  1.00  0.00     0.023 A 
ATOM     85  C   UNL A   1      45.676  28.316  34.324  1.00  0.00     0.012 A 
ATOM     86  C   UNL A   1      44.294  26.450  35.059  1.00  0.00     0.148 A 
ATOM     87  C   UNL A   1      46.675  27.936  35.218  1.00  0.00     0.002 A 
ATOM     88  C   UNL A   1      45.279  26.099  35.974  1.00  0.00     0.091 A 
ATOM     89  F   UNL A   1      43.152  25.757  34.945  1.00  0.00    -0.205 F 
ATOM     90  C   UNL A   1      46.472  26.837  36.049  1.00  0.00     0.022 A 
BRANCH  88  91
ATOM     91  S   UNL A   1      45.076  24.746  37.137  1.00  0.00     0.127 S 
ATOM     92  O   UNL A   1      44.977  23.595  36.241  1.00  0.00    -0.237 OA
ATOM     93  O   UNL A   1      46.317  24.813  37.910  1.00  0.00    -0.237 OA
ATOM     94  O   UNL A   1      43.872  25.047  37.899  1.00  0.00    -0.744 OA
ENDBRANCH  88  91
ENDBRANCH  61  84
ENDBRANCH  35  36
ENDBRANCH  28  30
ENDBRANCH  27  28
ENDBRANCH   1  27
TORSDOF 15
ENDMDL
MODEL 2
REMARK VINA RESULT:     -13.0      4.927      8.033
REMARK SMILES Cc1cccc2c1[C@H]1c3c(C)cccc3[C@H](CC(=O)OCCOC(=O)c3ccc(-c4c5nc(c(-c6cccc(S(=O)(=O)[O-])c6F)c6ccc([nH]6)c(-c6cccc(S(=O)(=O)[O-])c6F)c6nc(c(-c7cccc(S(=O)(=O)[O-])c7F)c7ccc4[nH]7)C=C6)C=C5)cc3)C[C@H]1CC2
REMARK SMILES IDX 22 1 21 2 20 3 18 4 19 5 17 6 16 7 1 8 2 9 3 10 7 11 4 12
REMARK SMILES IDX 6 13 8 14 5 15 92 16 9 17 90 18 91 19 10 20 15 21 89 22
REMARK SMILES IDX 12 23 11 24 14 25 13 26 23 27 24 28 25 29 26 30 27 31 88 32
REMARK SMILES IDX 28 33 87 34 29 35 30 36 31 37 81 38 32 39 86 40 80 41 82 42
REMARK SMILES IDX 33 43 85 44 79 45 78 46 34 48 66 49 46 50 65 51 47 52 50 53
REMARK SMILES IDX 64 54 83 55 48 56 49 57 63 59 84 60 51 61 35 62 36 63 44 64
REMARK SMILES IDX 37 65 39 66 45 67 38 68 40 69 41 70 42 71 43 72 67 73 68 74
REMARK SMILES IDX 76 75 69 76 71 77 77 78 70 79 72 80 73 81 74 82 75 83 52 84
REMARK SMILES IDX 53 85 61 86 54 87 56 88 62 89 55 90 57 91 58 92 59 93 60 94
REMARK H PARENT 82 47 50 58
REMARK Flexibility Score: inf
ROOT
ATOM      1  C   UNL A   1      38.736  19.372  25.636  1.00  0.00     0.275 C 
ENDROOT
BRANCH   1   2
ATOM      2  C   UNL A   1      37.481  19.846  24.890  1.00  0.00     0.274 C 
BRANCH   2   3
ATOM      3  O   UNL A   1      37.438  21.286  24.795  1.00  0.00    -0.462 OA
BRANCH   3   4
ATOM      4  C   UNL A   1      36.423  21.990  25.332  1.00  0.00     0.306 C 
ATOM      5  O   UNL A   1      36.580  22.915  26.119  1.00  0.00    -0.252 OA
BRANCH   4   6
ATOM      6  C   UNL A   1      35.043  21.468  24.925  1.00  0.00     0.131 C 
BRANCH   6   7
ATOM      7  C   UNL A   1      34.138  22.341  23.998  1.00  0.00     0.031 C 
ATOM      8  C   UNL A   1      33.936  27.845  25.909  1.00  0.00     0.044 C 
ATOM      9  C   UNL A   1      32.947  27.739  24.778  1.00  0.00    -0.047 A 
ATOM     10  C   UNL A   1      32.037  28.789  24.571  1.00  0.00     0.004 A 
ATOM     11  C   UNL A   1      32.875  26.596  23.945  1.00  0.00    -0.034 A 
ATOM     12  C   UNL A   1      31.125  28.746  23.519  1.00  0.00     0.001 A 
ATOM     13  C   UNL A   1      32.067  26.637  22.787  1.00  0.00    -0.044 A 
ATOM     14  C   UNL A   1      33.567  25.289  24.321  1.00  0.00     0.053 C 
ATOM     15  C   UNL A   1      31.173  27.700  22.605  1.00  0.00     0.004 A 
ATOM     16  C   UNL A   1      32.214  25.637  21.664  1.00  0.00     0.036 C 
ATOM     17  C   UNL A   1      32.680  24.244  25.045  1.00  0.00    -0.034 A 
ATOM     18  C   UNL A   1      34.175  24.704  23.012  1.00  0.00     0.002 C 
ATOM     19  C   UNL A   1      33.092  24.423  21.955  1.00  0.00     0.009 C 
ATOM     20  C   UNL A   1      31.624  24.513  25.971  1.00  0.00    -0.047 A 
ATOM     21  C   UNL A   1      32.910  22.889  24.725  1.00  0.00    -0.040 A 
ATOM     22  C   UNL A   1      34.989  23.457  23.359  1.00  0.00     0.013 C 
ATOM     23  C   UNL A   1      30.888  23.451  26.540  1.00  0.00     0.004 A 
ATOM     24  C   UNL A   1      31.098  25.858  26.379  1.00  0.00     0.044 C 
ATOM     25  C   UNL A   1      31.905  21.969  25.023  1.00  0.00     0.004 A 
ATOM     26  C   UNL A   1      30.974  22.189  26.011  1.00  0.00     0.001 A 
ENDBRANCH   6   7
ENDBRANCH   4   6
ENDBRANCH   3   4
ENDBRANCH   2   3
ENDBRANCH   1   2
BRANCH   1  27
ATOM     27  O   UNL A   1      39.630  20.474  25.815  1.00  0.00    -0.458 OA
BRANCH  27  28
ATOM     28  C   UNL A   1      40.364  20.497  26.951  1.00  0.00     0.338 C 
ATOM     29  O   UNL A   1      40.755  19.559  27.619  1.00  0.00    -0.246 OA
BRANCH  28  30
ATOM     30  C   UNL A   1      40.767  21.892  27.126  1.00  0.00     0.060 A 
ATOM     31  C   UNL A   1      40.196  22.861  26.297  1.00  0.00     0.016 A 
ATOM     32  C   UNL A   1      41.617  22.238  28.176  1.00  0.00     0.016 A 
ATOM     33  C   UNL A   1      40.420  24.205  26.554  1.00  0.00     0.010 A 
ATOM     34  C   UNL A   1      41.874  23.582  28.410  1.00  0.00     0.010 A 
ATOM     35  C   UNL A   1      41.273  24.563  27.602  1.00  0.00    -0.014 A 
BRANCH  35  36
ATOM     36  C   UNL A   1      41.675  25.966  27.764  1.00  0.00     0.031 A 
ATOM     37  C   UNL A   1      43.034  26.356  27.278  1.00  0.00     0.074 A 
ATOM     38  C   UNL A   1      40.855  26.844  28.363  1.00  0.00     0.049 A 
ATOM     39  N   UNL A   1      43.672  27.481  27.439  1.00  0.00    -0.248 NA
ATOM     40  C   UNL A   1      43.775  25.339  26.509  1.00  0.00     0.031 C 
ATOM     41  C   UNL A   1      39.495  26.559  28.820  1.00  0.00     0.029 A 
ATOM     42  N   UNL A   1      41.066  28.150  28.715  1.00  0.00    -0.354 N 
ATOM     43  C   UNL A   1      44.901  27.298  26.821  1.00  0.00     0.074 A 
ATOM     44  C   UNL A   1      44.919  25.962  26.273  1.00  0.00     0.031 C 
ATOM     45  C   UNL A   1      39.004  27.651  29.428  1.00  0.00     0.029 A 
ATOM     46  C   UNL A   1      40.028  28.694  29.430  1.00  0.00     0.049 A 
ATOM     47  H   UNL A   1      41.880  28.649  28.477  1.00  0.00     0.167 HD
ATOM     48  C   UNL A   1      45.920  28.178  26.722  1.00  0.00     0.034 A 
ATOM     49  C   UNL A   1      39.939  29.889  30.044  1.00  0.00     0.034 A 
ATOM     50  C   UNL A   1      45.883  29.501  27.272  1.00  0.00     0.049 A 
ATOM     51  C   UNL A   1      41.109  30.829  29.967  1.00  0.00     0.074 A 
ATOM     52  C   UNL A   1      46.856  30.479  27.224  1.00  0.00     0.029 A 
ATOM     53  N   UNL A   1      44.813  30.026  27.981  1.00  0.00    -0.354 N 
ATOM     54  N   UNL A   1      42.253  30.670  29.343  1.00  0.00    -0.248 NA
ATOM     55  C   UNL A   1      40.978  32.114  30.666  1.00  0.00     0.031 C 
ATOM     56  C   UNL A   1      46.379  31.595  27.919  1.00  0.00     0.029 A 
ATOM     57  C   UNL A   1      45.103  31.316  28.384  1.00  0.00     0.049 A 
ATOM     58  H   UNL A   1      43.971  29.551  28.170  1.00  0.00     0.167 HD
ATOM     59  C   UNL A   1      42.974  31.838  29.562  1.00  0.00     0.074 A 
ATOM     60  C   UNL A   1      42.128  32.703  30.360  1.00  0.00     0.031 C 
ATOM     61  C   UNL A   1      44.227  32.161  29.155  1.00  0.00     0.034 A 
BRANCH  48  62
ATOM     62  C   UNL A   1      47.146  27.736  25.980  1.00  0.00     0.023 A 
ATOM     63  C   UNL A   1      48.183  27.089  26.681  1.00  0.00     0.012 A 
ATOM     64  C   UNL A   1      47.251  27.919  24.589  1.00  0.00     0.148 A 
ATOM     65  C   UNL A   1      49.314  26.634  26.006  1.00  0.00     0.002 A 
ATOM     66  C   UNL A   1      48.368  27.436  23.918  1.00  0.00     0.091 A 
ATOM     67  F   UNL A   1      46.263  28.565  23.954  1.00  0.00    -0.205 F 
ATOM     68  C   UNL A   1      49.401  26.797  24.625  1.00  0.00     0.022 A 
BRANCH  66  69
ATOM     69  S   UNL A   1      48.561  27.557  22.138  1.00  0.00     0.127 S 
ATOM     70  O   UNL A   1      49.727  28.432  22.027  1.00  0.00    -0.237 OA
ATOM     71  O   UNL A   1      48.804  26.165  21.763  1.00  0.00    -0.237 OA
ATOM     72  O   UNL A   1      47.318  28.122  21.633  1.00  0.00    -0.744 OA
ENDBRANCH  66  69
ENDBRANCH  48  62
BRANCH  49  73
ATOM     73  C   UNL A   1      38.686  30.256  30.756  1.00  0.00     0.023 A 
ATOM     74  C   UNL A   1      38.543  29.912  32.113  1.00  0.00     0.012 A 
ATOM     75  C   UNL A   1      37.672  31.000  30.119  1.00  0.00     0.148 A 
ATOM     76  C   UNL A   1      37.408  30.299  32.825  1.00  0.00     0.002 A 
ATOM     77  C   UNL A   1      36.561  31.413  30.846  1.00  0.00     0.091 A 
ATOM     78  F   UNL A   1      37.833  31.311  28.825  1.00  0.00    -0.205 F 
ATOM     79  C   UNL A   1      36.423  31.057  32.197  1.00  0.00     0.022 A 
BRANCH  77  80
ATOM     80  S   UNL A   1      35.280  32.464  30.152  1.00  0.00     0.127 S 
ATOM     81  O   UNL A   1      34.368  32.614  31.284  1.00  0.00    -0.237 OA
ATOM     82  O   UNL A   1      36.037  33.668  29.807  1.00  0.00    -0.237 OA
ATOM     83  O   UNL A   1      34.740  31.736  29.011  1.00  0.00    -0.744 OA
ENDBRANCH  77  80
ENDBRANCH  49  73
BRANCH  61  84
ATOM     84  C   UNL A   1      44.766  33.502  29.565  1.00  0.00     0.023 A 
ATOM     85  C   UNL A   1      45.525  33.608  30.746  1.00  0.00     0.012 A 
ATOM     86  C   UNL A   1      44.608  34.626  28.731  1.00  0.00     0.148 A 
ATOM     87  C   UNL A   1      46.108  34.822  31.102  1.00  0.00     0.002 A 
ATOM     88  C   UNL A   1      45.223  35.824  29.074  1.00  0.00     0.091 A 
ATOM     89  F   UNL A   1      43.875  34.498  27.617  1.00  0.00    -0.205 F 
ATOM     90  C   UNL A   1      45.966  35.925  30.262  1.00  0.00     0.022 A 
BRANCH  88  91
ATOM     91  S   UNL A   1      45.161  37.276  28.019  1.00  0.00     0.127 S 
ATOM     92  O   UNL A   1      45.865  38.265  28.833  1.00  0.00    -0.237 OA
ATOM     93  O   UNL A   1      45.893  36.828  26.834  1.00  0.00    -0.237 OA
ATOM     94  O   UNL A   1      43.748  37.547  27.791  1.00  0.00    -0.744 OA
ENDBRANCH  88  91
ENDBRANCH  61  84
ENDBRANCH  35  36
ENDBRANCH  28  30
ENDBRANCH  27  28
ENDBRANCH   1  27
TORSDOF 15
ENDMDL
MODEL 3
REMARK VINA RESULT:     -13.0      4.737     10.022
REMARK SMILES Cc1cccc2c1[C@H]1c3c(C)cccc3[C@H](CC(=O)OCCOC(=O)c3ccc(-c4c5nc(c(-c6cccc(S(=O)(=O)[O-])c6F)c6ccc([nH]6)c(-c6cccc(S(=O)(=O)[O-])c6F)c6nc(c(-c7cccc(S(=O)(=O)[O-])c7F)c7ccc4[nH]7)C=C6)C=C5)cc3)C[C@H]1CC2
REMARK SMILES IDX 22 1 21 2 20 3 18 4 19 5 17 6 16 7 1 8 2 9 3 10 7 11 4 12
REMARK SMILES IDX 6 13 8 14 5 15 92 16 9 17 90 18 91 19 10 20 15 21 89 22
REMARK SMILES IDX 12 23 11 24 14 25 13 26 23 27 24 28 25 29 26 30 27 31 88 32
REMARK SMILES IDX 28 33 87 34 29 35 30 36 31 37 81 38 32 39 86 40 80 41 82 42
REMARK SMILES IDX 33 43 85 44 79 45 78 46 34 48 66 49 46 50 65 51 47 52 50 53
REMARK SMILES IDX 64 54 83 55 48 56 49 57 63 59 84 60 51 61 35 62 36 63 44 64
REMARK SMILES IDX 37 65 39 66 45 67 38 68 40 69 41 70 42 71 43 72 67 73 68 74
REMARK SMILES IDX 76 75 69 76 71 77 77 78 70 79 72 80 73 81 74 82 75 83 52 84
REMARK SMILES IDX 53 85 61 86 54 87 56 88 62 89 55 90 57 91 58 92 59 93 60 94
REMARK H PARENT 82 47 50 58
REMARK Flexibility Score: inf
ROOT
ATOM      1  C   UNL A   1      35.992  20.754  25.585  1.00  0.00     0.275 C 
ENDROOT
BRANCH   1   2
ATOM      2  C   UNL A   1      34.745  21.465  25.041  1.00  0.00     0.274 C 
BRANCH   2   3
ATOM      3  O   UNL A   1      35.037  22.829  24.669  1.00  0.00    -0.462 OA
BRANCH   3   4
ATOM      4  C   UNL A   1      35.085  23.205  23.377  1.00  0.00     0.306 C 
ATOM      5  O   UNL A   1      36.062  23.730  22.860  1.00  0.00    -0.252 OA
BRANCH   4   6
ATOM      6  C   UNL A   1      33.766  22.984  22.634  1.00  0.00     0.131 C 
BRANCH   6   7
ATOM      7  C   UNL A   1      32.749  24.163  22.513  1.00  0.00     0.031 C 
ATOM      8  C   UNL A   1      34.373  28.636  25.882  1.00  0.00     0.044 C 
ATOM      9  C   UNL A   1      33.015  28.977  25.328  1.00  0.00    -0.047 A 
ATOM     10  C   UNL A   1      32.315  30.066  25.872  1.00  0.00     0.004 A 
ATOM     11  C   UNL A   1      32.402  28.207  24.311  1.00  0.00    -0.034 A 
ATOM     12  C   UNL A   1      31.069  30.435  25.371  1.00  0.00     0.001 A 
ATOM     13  C   UNL A   1      31.222  28.688  23.699  1.00  0.00    -0.044 A 
ATOM     14  C   UNL A   1      32.924  26.825  23.929  1.00  0.00     0.053 C 
ATOM     15  C   UNL A   1      30.548  29.781  24.260  1.00  0.00     0.004 A 
ATOM     16  C   UNL A   1      30.716  28.146  22.383  1.00  0.00     0.036 C 
ATOM     17  C   UNL A   1      32.220  25.628  24.615  1.00  0.00    -0.034 A 
ATOM     18  C   UNL A   1      32.836  26.720  22.377  1.00  0.00     0.002 C 
ATOM     19  C   UNL A   1      31.389  26.874  21.876  1.00  0.00     0.009 C 
ATOM     20  C   UNL A   1      31.693  25.592  25.944  1.00  0.00    -0.047 A 
ATOM     21  C   UNL A   1      32.042  24.466  23.833  1.00  0.00    -0.040 A 
ATOM     22  C   UNL A   1      33.469  25.399  21.935  1.00  0.00     0.013 C 
ATOM     23  C   UNL A   1      31.059  24.427  26.428  1.00  0.00     0.004 A 
ATOM     24  C   UNL A   1      31.639  26.725  26.927  1.00  0.00     0.044 C 
ATOM     25  C   UNL A   1      31.085  23.541  24.250  1.00  0.00     0.004 A 
ATOM     26  C   UNL A   1      30.686  23.433  25.561  1.00  0.00     0.001 A 
ENDBRANCH   6   7
ENDBRANCH   4   6
ENDBRANCH   3   4
ENDBRANCH   2   3
ENDBRANCH   1   2
BRANCH   1  27
ATOM     27  O   UNL A   1      37.023  21.716  25.827  1.00  0.00    -0.458 OA
BRANCH  27  28
ATOM     28  C   UNL A   1      38.293  21.258  25.896  1.00  0.00     0.338 C 
ATOM     29  O   UNL A   1      38.730  20.181  25.535  1.00  0.00    -0.246 OA
BRANCH  28  30
ATOM     30  C   UNL A   1      39.097  22.401  26.325  1.00  0.00     0.060 A 
ATOM     31  C   UNL A   1      38.717  23.679  25.905  1.00  0.00     0.016 A 
ATOM     32  C   UNL A   1      40.146  22.209  27.222  1.00  0.00     0.016 A 
ATOM     33  C   UNL A   1      39.348  24.794  26.438  1.00  0.00     0.010 A 
ATOM     34  C   UNL A   1      40.806  23.323  27.725  1.00  0.00     0.010 A 
ATOM     35  C   UNL A   1      40.403  24.612  27.335  1.00  0.00    -0.014 A 
BRANCH  35  36
ATOM     36  C   UNL A   1      41.208  25.768  27.753  1.00  0.00     0.031 A 
ATOM     37  C   UNL A   1      40.518  26.851  28.517  1.00  0.00     0.074 A 
ATOM     38  C   UNL A   1      42.506  25.849  27.420  1.00  0.00     0.049 A 
ATOM     39  N   UNL A   1      40.965  28.025  28.864  1.00  0.00    -0.248 NA
ATOM     40  C   UNL A   1      39.134  26.575  28.946  1.00  0.00     0.031 C 
ATOM     41  C   UNL A   1      43.268  24.815  26.721  1.00  0.00     0.029 A 
ATOM     42  N   UNL A   1      43.402  26.868  27.603  1.00  0.00    -0.354 N 
ATOM     43  C   UNL A   1      39.910  28.641  29.522  1.00  0.00     0.074 A 
ATOM     44  C   UNL A   1      38.804  27.712  29.538  1.00  0.00     0.031 C 
ATOM     45  C   UNL A   1      44.513  25.269  26.500  1.00  0.00     0.029 A 
ATOM     46  C   UNL A   1      44.619  26.634  27.012  1.00  0.00     0.049 A 
ATOM     47  H   UNL A   1      43.194  27.686  28.108  1.00  0.00     0.167 HD
ATOM     48  C   UNL A   1      39.878  29.876  30.067  1.00  0.00     0.034 A 
ATOM     49  C   UNL A   1      45.680  27.451  26.874  1.00  0.00     0.034 A 
ATOM     50  C   UNL A   1      40.987  30.784  30.041  1.00  0.00     0.049 A 
ATOM     51  C   UNL A   1      45.599  28.841  27.439  1.00  0.00     0.074 A 
ATOM     52  C   UNL A   1      41.067  32.057  30.569  1.00  0.00     0.029 A 
ATOM     53  N   UNL A   1      42.210  30.513  29.445  1.00  0.00    -0.354 N 
ATOM     54  N   UNL A   1      44.615  29.404  28.102  1.00  0.00    -0.248 NA
ATOM     55  C   UNL A   1      46.771  29.705  27.251  1.00  0.00     0.031 C 
ATOM     56  C   UNL A   1      42.338  32.564  30.278  1.00  0.00     0.029 A 
ATOM     57  C   UNL A   1      43.052  31.599  29.584  1.00  0.00     0.049 A 
ATOM     58  H   UNL A   1      42.443  29.671  28.990  1.00  0.00     0.167 HD
ATOM     59  C   UNL A   1      45.052  30.684  28.421  1.00  0.00     0.074 A 
ATOM     60  C   UNL A   1      46.399  30.805  27.896  1.00  0.00     0.031 C 
ATOM     61  C   UNL A   1      44.397  31.676  29.074  1.00  0.00     0.034 A 
BRANCH  48  62
ATOM     62  C   UNL A   1      38.609  30.301  30.743  1.00  0.00     0.023 A 
ATOM     63  C   UNL A   1      38.409  29.981  32.100  1.00  0.00     0.012 A 
ATOM     64  C   UNL A   1      37.641  31.051  30.051  1.00  0.00     0.148 A 
ATOM     65  C   UNL A   1      37.255  30.399  32.761  1.00  0.00     0.002 A 
ATOM     66  C   UNL A   1      36.507  31.490  30.724  1.00  0.00     0.091 A 
ATOM     67  F   UNL A   1      37.844  31.313  28.753  1.00  0.00    -0.205 F 
ATOM     68  C   UNL A   1      36.311  31.161  32.077  1.00  0.00     0.022 A 
BRANCH  66  69
ATOM     69  S   UNL A   1      35.250  32.511  29.949  1.00  0.00     0.127 S 
ATOM     70  O   UNL A   1      34.762  31.626  28.892  1.00  0.00    -0.237 OA
ATOM     71  O   UNL A   1      34.310  32.723  31.050  1.00  0.00    -0.237 OA
ATOM     72  O   UNL A   1      35.932  33.709  29.483  1.00  0.00    -0.744 OA
ENDBRANCH  66  69
ENDBRANCH  48  62
BRANCH  49  73
ATOM     73  C   UNL A   1      46.905  26.953  26.194  1.00  0.00     0.023 A 
ATOM     74  C   UNL A   1      47.043  27.141  24.806  1.00  0.00     0.012 A 
ATOM     75  C   UNL A   1      47.957  26.360  26.920  1.00  0.00     0.148 A 
ATOM     76  C   UNL A   1      48.208  26.745  24.150  1.00  0.00     0.002 A 
ATOM     77  C   UNL A   1      49.130  26.000  26.265  1.00  0.00     0.091 A 
ATOM     78  F   UNL A   1      47.798  26.190  28.240  1.00  0.00    -0.205 F 
ATOM     79  C   UNL A   1      49.254  26.184  24.878  1.00  0.00     0.022 A 
BRANCH  77  80
ATOM     80  S   UNL A   1      50.566  25.351  27.126  1.00  0.00     0.127 S 
ATOM     81  O   UNL A   1      50.003  24.197  27.823  1.00  0.00    -0.237 OA
ATOM     82  O   UNL A   1      51.458  25.023  26.013  1.00  0.00    -0.237 OA
ATOM     83  O   UNL A   1      51.037  26.428  27.987  1.00  0.00    -0.744 OA
ENDBRANCH  77  80
ENDBRANCH  49  73
BRANCH  61  84
ATOM     84  C   UNL A   1      45.119  32.981  29.258  1.00  0.00     0.023 A 
ATOM     85  C   UNL A   1      45.958  33.153  30.375  1.00  0.00     0.012 A 
ATOM     86  C   UNL A   1      45.046  33.988  28.276  1.00  0.00     0.148 A 
ATOM     87  C   UNL A   1      46.705  34.320  30.522  1.00  0.00     0.002 A 
ATOM     88  C   UNL A   1      45.821  35.133  28.412  1.00  0.00     0.091 A 
ATOM     89  F   UNL A   1      44.233  33.801  27.227  1.00  0.00    -0.205 F 
ATOM     90  C   UNL A   1      46.645  35.303  29.537  1.00  0.00     0.022 A 
BRANCH  88  91
ATOM     91  S   UNL A   1      45.869  36.419  27.159  1.00  0.00     0.127 S 
ATOM     92  O   UNL A   1      46.363  35.683  25.996  1.00  0.00    -0.237 OA
ATOM     93  O   UNL A   1      44.465  36.821  27.075  1.00  0.00    -0.237 OA
ATOM     94  O   UNL A   1      46.763  37.447  27.671  1.00  0.00    -0.744 OA
ENDBRANCH  88  91
ENDBRANCH  61  84
ENDBRANCH  35  36
ENDBRANCH  28  30
ENDBRANCH  27  28
ENDBRANCH   1  27
TORSDOF 15
ENDMDL
