MODEL 1
REMARK VINA RESULT:     -12.6      0.000      0.000
REMARK SMILES Cc1ccc(C(=O)Nc2cccc(F)c2C(=O)OCCOC(=O)c2ccc(-c3c4nc(c(-c5cccc(S(=O)(=O)[O-])c5F)c5ccc([nH]5)c(-c5cccc(S(=O)(=O)[O-])c5F)c5nc(c(-c6cccc(S(=O)(=O)[O-])c6F)c6ccc3[nH]6)C=C5)C=C4)cc2)c(F)c1
REMARK SMILES IDX 20 1 19 2 18 3 16 4 17 5 15 6 9 7 10 8 11 9 13 10 12 11
REMARK SMILES IDX 14 12 8 13 6 14 7 15 5 17 1 18 2 19 3 20 89 21 4 22 87 23
REMARK SMILES IDX 88 24 21 25 22 26 23 27 24 28 25 29 86 30 26 31 85 32 27 33
REMARK SMILES IDX 28 34 29 35 79 36 30 37 84 38 78 39 80 40 31 41 83 42 77 43
REMARK SMILES IDX 76 44 32 46 64 47 44 48 63 49 45 50 48 51 62 52 81 53 46 54
REMARK SMILES IDX 47 55 61 57 82 58 49 59 33 60 34 61 42 62 35 63 37 64 43 65
REMARK SMILES IDX 36 66 38 67 39 68 40 69 41 70 65 71 66 72 74 73 67 74 69 75
REMARK SMILES IDX 75 76 68 77 70 78 71 79 72 80 73 81 50 82 51 83 59 84 52 85
REMARK SMILES IDX 54 86 60 87 53 88 55 89 56 90 57 91 58 92
REMARK H PARENT 8 16 80 45 48 56
REMARK Flexibility Score: inf
ROOT
ATOM      1  C   UNL A   1      31.406  30.585  25.775  1.00  0.00     0.275 C 
ENDROOT
BRANCH   1   2
ATOM      2  C   UNL A   1      31.562  29.294  24.974  1.00  0.00     0.275 C 
BRANCH   2   3
ATOM      3  O   UNL A   1      31.818  28.173  25.849  1.00  0.00    -0.458 OA
BRANCH   3   4
ATOM      4  C   UNL A   1      32.885  27.409  25.517  1.00  0.00     0.343 C 
ATOM      5  O   UNL A   1      33.840  27.173  26.236  1.00  0.00    -0.246 OA
BRANCH   4   6
ATOM      6  C   UNL A   1      32.715  26.775  24.188  1.00  0.00     0.119 A 
ATOM      7  C   UNL A   1      32.001  25.562  24.060  1.00  0.00     0.059 A 
ATOM      8  C   UNL A   1      31.846  24.969  22.805  1.00  0.00     0.027 A 
ATOM      9  C   UNL A   1      32.493  25.519  21.697  1.00  0.00     0.005 A 
ATOM     10  C   UNL A   1      33.385  27.286  23.084  1.00  0.00     0.139 A 
ATOM     11  C   UNL A   1      33.287  26.659  21.843  1.00  0.00     0.040 A 
ATOM     12  F   UNL A   1      34.196  28.348  23.198  1.00  0.00    -0.206 F 
BRANCH   7  13
ATOM     13  N   UNL A   1      31.460  25.000  25.220  1.00  0.00    -0.321 N 
ATOM     14  C   UNL A   1      31.943  24.109  26.146  1.00  0.00     0.258 C 
ATOM     15  O   UNL A   1      31.407  24.123  27.255  1.00  0.00    -0.269 OA
ATOM     16  H   UNL A   1      30.544  25.305  25.411  1.00  0.00     0.170 HD
BRANCH  14  17
ATOM     17  C   UNL A   1      33.084  23.220  25.933  1.00  0.00     0.075 A 
ATOM     18  C   UNL A   1      36.298  20.495  25.105  1.00  0.00     0.044 C 
ATOM     19  C   UNL A   1      35.178  21.437  25.421  1.00  0.00    -0.048 A 
ATOM     20  C   UNL A   1      35.383  22.548  26.247  1.00  0.00     0.004 A 
ATOM     21  C   UNL A   1      33.898  21.181  24.919  1.00  0.00     0.043 A 
ATOM     22  C   UNL A   1      34.331  23.421  26.528  1.00  0.00     0.017 A 
ATOM     23  C   UNL A   1      32.866  22.075  25.166  1.00  0.00     0.136 A 
ATOM     24  F   UNL A   1      31.665  21.810  24.634  1.00  0.00    -0.206 F 
ENDBRANCH  14  17
ENDBRANCH   7  13
ENDBRANCH   4   6
ENDBRANCH   3   4
ENDBRANCH   2   3
ENDBRANCH   1   2
BRANCH   1  25
ATOM     25  O   UNL A   1      32.232  30.540  26.956  1.00  0.00    -0.458 OA
BRANCH  25  26
ATOM     26  C   UNL A   1      32.930  31.665  27.235  1.00  0.00     0.338 C 
ATOM     27  O   UNL A   1      32.476  32.792  27.377  1.00  0.00    -0.246 OA
BRANCH  26  28
ATOM     28  C   UNL A   1      34.353  31.359  27.482  1.00  0.00     0.060 A 
ATOM     29  C   UNL A   1      34.722  30.030  27.570  1.00  0.00     0.016 A 
ATOM     30  C   UNL A   1      35.253  32.341  27.892  1.00  0.00     0.016 A 
ATOM     31  C   UNL A   1      35.851  29.684  28.312  1.00  0.00     0.010 A 
ATOM     32  C   UNL A   1      36.498  31.972  28.441  1.00  0.00     0.010 A 
ATOM     33  C   UNL A   1      36.784  30.632  28.756  1.00  0.00    -0.014 A 
BRANCH  33  34
ATOM     34  C   UNL A   1      37.975  30.203  29.586  1.00  0.00     0.031 A 
ATOM     35  C   UNL A   1      39.096  29.371  28.980  1.00  0.00     0.074 A 
ATOM     36  C   UNL A   1      38.127  30.607  30.873  1.00  0.00     0.049 A 
ATOM     37  N   UNL A   1      40.113  28.795  29.577  1.00  0.00    -0.248 NA
ATOM     38  C   UNL A   1      39.071  29.136  27.525  1.00  0.00     0.031 C 
ATOM     39  C   UNL A   1      37.182  31.437  31.623  1.00  0.00     0.029 A 
ATOM     40  N   UNL A   1      39.153  30.409  31.777  1.00  0.00    -0.354 N 
ATOM     41  C   UNL A   1      40.771  28.052  28.599  1.00  0.00     0.074 A 
ATOM     42  C   UNL A   1      40.059  28.265  27.362  1.00  0.00     0.031 C 
ATOM     43  C   UNL A   1      37.718  31.780  32.801  1.00  0.00     0.029 A 
ATOM     44  C   UNL A   1      38.973  31.066  32.979  1.00  0.00     0.049 A 
ATOM     45  H   UNL A   1      39.941  29.852  31.582  1.00  0.00     0.167 HD
ATOM     46  C   UNL A   1      41.872  27.269  28.716  1.00  0.00     0.034 A 
ATOM     47  C   UNL A   1      39.691  31.070  34.122  1.00  0.00     0.034 A 
ATOM     48  C   UNL A   1      42.663  27.147  29.911  1.00  0.00     0.049 A 
ATOM     49  C   UNL A   1      40.912  30.201  34.220  1.00  0.00     0.074 A 
ATOM     50  C   UNL A   1      43.802  26.384  30.105  1.00  0.00     0.029 A 
ATOM     51  N   UNL A   1      42.427  27.822  31.096  1.00  0.00    -0.354 N 
ATOM     52  N   UNL A   1      41.495  29.489  33.288  1.00  0.00    -0.248 NA
ATOM     53  C   UNL A   1      41.570  30.115  35.534  1.00  0.00     0.031 C 
ATOM     54  C   UNL A   1      44.243  26.579  31.415  1.00  0.00     0.029 A 
ATOM     55  C   UNL A   1      43.398  27.490  32.026  1.00  0.00     0.049 A 
ATOM     56  H   UNL A   1      41.680  28.445  31.254  1.00  0.00     0.167 HD
ATOM     57  C   UNL A   1      42.586  28.883  33.897  1.00  0.00     0.074 A 
ATOM     58  C   UNL A   1      42.612  29.338  35.269  1.00  0.00     0.031 C 
ATOM     59  C   UNL A   1      43.466  28.002  33.368  1.00  0.00     0.034 A 
BRANCH  46  60
ATOM     60  C   UNL A   1      42.327  26.471  27.519  1.00  0.00     0.023 A 
ATOM     61  C   UNL A   1      43.261  27.016  26.618  1.00  0.00     0.012 A 
ATOM     62  C   UNL A   1      41.936  25.122  27.382  1.00  0.00     0.148 A 
ATOM     63  C   UNL A   1      43.790  26.234  25.591  1.00  0.00     0.002 A 
ATOM     64  C   UNL A   1      42.505  24.337  26.386  1.00  0.00     0.091 A 
ATOM     65  F   UNL A   1      41.043  24.626  28.250  1.00  0.00    -0.205 F 
ATOM     66  C   UNL A   1      43.425  24.894  25.483  1.00  0.00     0.022 A 
BRANCH  64  67
ATOM     67  S   UNL A   1      42.175  22.577  26.224  1.00  0.00     0.127 S 
ATOM     68  O   UNL A   1      42.870  22.261  24.976  1.00  0.00    -0.237 OA
ATOM     69  O   UNL A   1      42.804  22.036  27.427  1.00  0.00    -0.237 OA
ATOM     70  O   UNL A   1      40.726  22.439  26.173  1.00  0.00    -0.744 OA
ENDBRANCH  64  67
ENDBRANCH  46  60
BRANCH  47  71
ATOM     71  C   UNL A   1      39.262  31.907  35.288  1.00  0.00     0.023 A 
ATOM     72  C   UNL A   1      38.410  31.351  36.265  1.00  0.00     0.012 A 
ATOM     73  C   UNL A   1      39.694  33.240  35.446  1.00  0.00     0.148 A 
ATOM     74  C   UNL A   1      37.983  32.110  37.356  1.00  0.00     0.002 A 
ATOM     75  C   UNL A   1      39.328  33.964  36.575  1.00  0.00     0.091 A 
ATOM     76  F   UNL A   1      40.462  33.778  34.488  1.00  0.00    -0.205 F 
ATOM     77  C   UNL A   1      38.455  33.410  37.521  1.00  0.00     0.022 A 
BRANCH  75  78
ATOM     78  S   UNL A   1      40.016  35.584  36.935  1.00  0.00     0.127 S 
ATOM     79  O   UNL A   1      39.395  35.893  38.221  1.00  0.00    -0.237 OA
ATOM     80  O   UNL A   1      41.450  35.303  36.998  1.00  0.00    -0.237 OA
ATOM     81  O   UNL A   1      39.620  36.434  35.818  1.00  0.00    -0.744 OA
ENDBRANCH  75  78
ENDBRANCH  47  71
BRANCH  59  82
ATOM     82  C   UNL A   1      44.574  27.480  34.243  1.00  0.00     0.023 A 
ATOM     83  C   UNL A   1      45.747  28.241  34.409  1.00  0.00     0.012 A 
ATOM     84  C   UNL A   1      44.384  26.317  35.015  1.00  0.00     0.148 A 
ATOM     85  C   UNL A   1      46.719  27.846  35.327  1.00  0.00     0.002 A 
ATOM     86  C   UNL A   1      45.333  25.959  35.963  1.00  0.00     0.091 A 
ATOM     87  F   UNL A   1      43.263  25.604  34.828  1.00  0.00    -0.205 F 
ATOM     88  C   UNL A   1      46.505  26.717  36.115  1.00  0.00     0.022 A 
BRANCH  86  89
ATOM     89  S   UNL A   1      45.098  24.584  37.097  1.00  0.00     0.127 S 
ATOM     90  O   UNL A   1      46.349  24.605  37.854  1.00  0.00    -0.237 OA
ATOM     91  O   UNL A   1      43.920  25.008  37.853  1.00  0.00    -0.237 OA
ATOM     92  O   UNL A   1      44.898  23.403  36.268  1.00  0.00    -0.744 OA
ENDBRANCH  86  89
ENDBRANCH  59  82
ENDBRANCH  33  34
ENDBRANCH  26  28
ENDBRANCH  25  26
ENDBRANCH   1  25
TORSDOF 16
ENDMDL
MODEL 2
REMARK VINA RESULT:     -12.5      4.738     10.008
REMARK SMILES Cc1ccc(C(=O)Nc2cccc(F)c2C(=O)OCCOC(=O)c2ccc(-c3c4nc(c(-c5cccc(S(=O)(=O)[O-])c5F)c5ccc([nH]5)c(-c5cccc(S(=O)(=O)[O-])c5F)c5nc(c(-c6cccc(S(=O)(=O)[O-])c6F)c6ccc3[nH]6)C=C5)C=C4)cc2)c(F)c1
REMARK SMILES IDX 20 1 19 2 18 3 16 4 17 5 15 6 9 7 10 8 11 9 13 10 12 11
REMARK SMILES IDX 14 12 8 13 6 14 7 15 5 17 1 18 2 19 3 20 89 21 4 22 87 23
REMARK SMILES IDX 88 24 21 25 22 26 23 27 24 28 25 29 86 30 26 31 85 32 27 33
REMARK SMILES IDX 28 34 29 35 79 36 30 37 84 38 78 39 80 40 31 41 83 42 77 43
REMARK SMILES IDX 76 44 32 46 64 47 44 48 63 49 45 50 48 51 62 52 81 53 46 54
REMARK SMILES IDX 47 55 61 57 82 58 49 59 33 60 34 61 42 62 35 63 37 64 43 65
REMARK SMILES IDX 36 66 38 67 39 68 40 69 41 70 65 71 66 72 74 73 67 74 69 75
REMARK SMILES IDX 75 76 68 77 70 78 71 79 72 80 73 81 50 82 51 83 59 84 52 85
REMARK SMILES IDX 54 86 60 87 53 88 55 89 56 90 57 91 58 92
REMARK H PARENT 8 16 80 45 48 56
REMARK Flexibility Score: inf
ROOT
ATOM      1  C   UNL A   1      36.614  20.388  24.967  1.00  0.00     0.275 C 
ENDROOT
BRANCH   1   2
ATOM      2  C   UNL A   1      35.298  21.138  25.161  1.00  0.00     0.275 C 
BRANCH   2   3
ATOM      3  O   UNL A   1      35.281  22.358  24.387  1.00  0.00    -0.458 OA
BRANCH   3   4
ATOM      4  C   UNL A   1      34.876  23.464  25.055  1.00  0.00     0.343 C 
ATOM      5  O   UNL A   1      35.568  24.436  25.304  1.00  0.00    -0.246 OA
BRANCH   4   6
ATOM      6  C   UNL A   1      33.428  23.420  25.364  1.00  0.00     0.119 A 
ATOM      7  C   UNL A   1      32.477  23.795  24.387  1.00  0.00     0.059 A 
ATOM      8  C   UNL A   1      31.112  23.753  24.685  1.00  0.00     0.027 A 
ATOM      9  C   UNL A   1      30.698  23.447  25.983  1.00  0.00     0.005 A 
ATOM     10  C   UNL A   1      33.001  23.158  26.659  1.00  0.00     0.139 A 
ATOM     11  C   UNL A   1      31.643  23.180  26.976  1.00  0.00     0.040 A 
ATOM     12  F   UNL A   1      33.882  22.949  27.648  1.00  0.00    -0.206 F 
BRANCH   7  13
ATOM     13  N   UNL A   1      32.952  24.192  23.134  1.00  0.00    -0.321 N 
ATOM     14  C   UNL A   1      33.003  25.403  22.489  1.00  0.00     0.258 C 
ATOM     15  O   UNL A   1      33.836  25.511  21.588  1.00  0.00    -0.269 OA
ATOM     16  H   UNL A   1      33.325  23.451  22.606  1.00  0.00     0.170 HD
BRANCH  14  17
ATOM     17  C   UNL A   1      32.208  26.575  22.850  1.00  0.00     0.075 A 
ATOM     18  C   UNL A   1      30.093  30.124  24.023  1.00  0.00     0.044 C 
ATOM     19  C   UNL A   1      30.810  28.870  23.626  1.00  0.00    -0.048 A 
ATOM     20  C   UNL A   1      30.249  27.981  22.702  1.00  0.00     0.004 A 
ATOM     21  C   UNL A   1      32.038  28.561  24.219  1.00  0.00     0.043 A 
ATOM     22  C   UNL A   1      30.932  26.821  22.337  1.00  0.00     0.017 A 
ATOM     23  C   UNL A   1      32.733  27.427  23.822  1.00  0.00     0.136 A 
ATOM     24  F   UNL A   1      33.923  27.190  24.388  1.00  0.00    -0.206 F 
ENDBRANCH  14  17
ENDBRANCH   7  13
ENDBRANCH   4   6
ENDBRANCH   3   4
ENDBRANCH   2   3
ENDBRANCH   1   2
BRANCH   1  25
ATOM     25  O   UNL A   1      37.711  21.321  24.892  1.00  0.00    -0.458 OA
BRANCH  25  26
ATOM     26  C   UNL A   1      38.792  21.030  25.651  1.00  0.00     0.338 C 
ATOM     27  O   UNL A   1      39.459  20.005  25.613  1.00  0.00    -0.246 OA
BRANCH  26  28
ATOM     28  C   UNL A   1      39.176  22.182  26.492  1.00  0.00     0.060 A 
ATOM     29  C   UNL A   1      38.591  23.403  26.220  1.00  0.00     0.016 A 
ATOM     30  C   UNL A   1      40.281  22.132  27.341  1.00  0.00     0.016 A 
ATOM     31  C   UNL A   1      39.267  24.574  26.562  1.00  0.00     0.010 A 
ATOM     32  C   UNL A   1      40.822  23.324  27.864  1.00  0.00     0.010 A 
ATOM     33  C   UNL A   1      40.388  24.581  27.406  1.00  0.00    -0.014 A 
BRANCH  33  34
ATOM     34  C   UNL A   1      41.102  25.878  27.719  1.00  0.00     0.031 A 
ATOM     35  C   UNL A   1      40.469  26.925  28.624  1.00  0.00     0.074 A 
ATOM     36  C   UNL A   1      42.360  26.123  27.271  1.00  0.00     0.049 A 
ATOM     37  N   UNL A   1      40.871  28.148  28.881  1.00  0.00    -0.248 NA
ATOM     38  C   UNL A   1      39.218  26.571  29.318  1.00  0.00     0.031 C 
ATOM     39  C   UNL A   1      43.151  25.230  26.421  1.00  0.00     0.029 A 
ATOM     40  N   UNL A   1      43.220  27.181  27.496  1.00  0.00    -0.354 N 
ATOM     41  C   UNL A   1      39.877  28.731  29.663  1.00  0.00     0.074 A 
ATOM     42  C   UNL A   1      38.861  27.725  29.867  1.00  0.00     0.031 C 
ATOM     43  C   UNL A   1      44.398  25.703  26.306  1.00  0.00     0.029 A 
ATOM     44  C   UNL A   1      44.468  27.016  26.926  1.00  0.00     0.049 A 
ATOM     45  H   UNL A   1      42.967  27.978  28.016  1.00  0.00     0.167 HD
ATOM     46  C   UNL A   1      39.817  29.984  30.175  1.00  0.00     0.034 A 
ATOM     47  C   UNL A   1      45.541  27.832  26.854  1.00  0.00     0.034 A 
ATOM     48  C   UNL A   1      40.876  30.953  30.088  1.00  0.00     0.049 A 
ATOM     49  C   UNL A   1      45.449  29.213  27.439  1.00  0.00     0.074 A 
ATOM     50  C   UNL A   1      40.898  32.242  30.594  1.00  0.00     0.029 A 
ATOM     51  N   UNL A   1      42.107  30.738  29.492  1.00  0.00    -0.354 N 
ATOM     52  N   UNL A   1      44.487  29.745  28.151  1.00  0.00    -0.248 NA
ATOM     53  C   UNL A   1      46.584  30.120  27.197  1.00  0.00     0.031 C 
ATOM     54  C   UNL A   1      42.131  32.816  30.283  1.00  0.00     0.029 A 
ATOM     55  C   UNL A   1      42.892  31.872  29.614  1.00  0.00     0.049 A 
ATOM     56  H   UNL A   1      42.382  29.904  29.046  1.00  0.00     0.167 HD
ATOM     57  C   UNL A   1      44.902  31.037  28.447  1.00  0.00     0.074 A 
ATOM     58  C   UNL A   1      46.220  31.201  27.874  1.00  0.00     0.031 C 
ATOM     59  C   UNL A   1      44.232  32.008  29.109  1.00  0.00     0.034 A 
BRANCH  46  60
ATOM     60  C   UNL A   1      38.568  30.413  30.905  1.00  0.00     0.023 A 
ATOM     61  C   UNL A   1      38.484  30.283  32.304  1.00  0.00     0.012 A 
ATOM     62  C   UNL A   1      37.540  31.084  30.208  1.00  0.00     0.148 A 
ATOM     63  C   UNL A   1      37.392  30.805  32.998  1.00  0.00     0.002 A 
ATOM     64  C   UNL A   1      36.480  31.643  30.911  1.00  0.00     0.091 A 
ATOM     65  F   UNL A   1      37.639  31.192  28.876  1.00  0.00    -0.205 F 
ATOM     66  C   UNL A   1      36.399  31.496  32.306  1.00  0.00     0.022 A 
BRANCH  64  67
ATOM     67  S   UNL A   1      35.202  32.633  30.126  1.00  0.00     0.127 S 
ATOM     68  O   UNL A   1      34.285  32.870  31.241  1.00  0.00    -0.237 OA
ATOM     69  O   UNL A   1      35.952  33.811  29.692  1.00  0.00    -0.237 OA
ATOM     70  O   UNL A   1      34.662  31.818  29.047  1.00  0.00    -0.744 OA
ENDBRANCH  64  67
ENDBRANCH  46  60
BRANCH  47  71
ATOM     71  C   UNL A   1      46.797  27.380  26.175  1.00  0.00     0.023 A 
ATOM     72  C   UNL A   1      46.987  27.663  24.806  1.00  0.00     0.012 A 
ATOM     73  C   UNL A   1      47.808  26.682  26.868  1.00  0.00     0.148 A 
ATOM     74  C   UNL A   1      48.142  27.243  24.143  1.00  0.00     0.002 A 
ATOM     75  C   UNL A   1      48.988  26.336  26.221  1.00  0.00     0.091 A 
ATOM     76  F   UNL A   1      47.599  26.372  28.156  1.00  0.00    -0.205 F 
ATOM     77  C   UNL A   1      49.149  26.596  24.853  1.00  0.00     0.022 A 
BRANCH  75  78
ATOM     78  S   UNL A   1      50.392  25.640  27.100  1.00  0.00     0.127 S 
ATOM     79  O   UNL A   1      49.857  24.357  27.551  1.00  0.00    -0.237 OA
ATOM     80  O   UNL A   1      51.401  25.548  26.045  1.00  0.00    -0.237 OA
ATOM     81  O   UNL A   1      50.710  26.600  28.150  1.00  0.00    -0.744 OA
ENDBRANCH  75  78
ENDBRANCH  47  71
BRANCH  59  82
ATOM     82  C   UNL A   1      44.902  33.342  29.301  1.00  0.00     0.023 A 
ATOM     83  C   UNL A   1      45.692  33.565  30.446  1.00  0.00     0.012 A 
ATOM     84  C   UNL A   1      44.873  34.308  28.277  1.00  0.00     0.148 A 
ATOM     85  C   UNL A   1      46.437  34.736  30.571  1.00  0.00     0.002 A 
ATOM     86  C   UNL A   1      45.658  35.448  28.386  1.00  0.00     0.091 A 
ATOM     87  F   UNL A   1      44.103  34.076  27.203  1.00  0.00    -0.205 F 
ATOM     88  C   UNL A   1      46.434  35.668  29.535  1.00  0.00     0.022 A 
BRANCH  86  89
ATOM     89  S   UNL A   1      45.803  36.654  27.061  1.00  0.00     0.127 S 
ATOM     90  O   UNL A   1      44.428  37.139  26.947  1.00  0.00    -0.237 OA
ATOM     91  O   UNL A   1      46.746  37.619  27.626  1.00  0.00    -0.237 OA
ATOM     92  O   UNL A   1      46.297  35.925  25.901  1.00  0.00    -0.744 OA
ENDBRANCH  86  89
ENDBRANCH  59  82
ENDBRANCH  33  34
ENDBRANCH  26  28
ENDBRANCH  25  26
ENDBRANCH   1  25
TORSDOF 16
ENDMDL
MODEL 3
REMARK VINA RESULT:     -12.4      5.066     10.060
REMARK SMILES Cc1ccc(C(=O)Nc2cccc(F)c2C(=O)OCCOC(=O)c2ccc(-c3c4nc(c(-c5cccc(S(=O)(=O)[O-])c5F)c5ccc([nH]5)c(-c5cccc(S(=O)(=O)[O-])c5F)c5nc(c(-c6cccc(S(=O)(=O)[O-])c6F)c6ccc3[nH]6)C=C5)C=C4)cc2)c(F)c1
REMARK SMILES IDX 20 1 19 2 18 3 16 4 17 5 15 6 9 7 10 8 11 9 13 10 12 11
REMARK SMILES IDX 14 12 8 13 6 14 7 15 5 17 1 18 2 19 3 20 89 21 4 22 87 23
REMARK SMILES IDX 88 24 21 25 22 26 23 27 24 28 25 29 86 30 26 31 85 32 27 33
REMARK SMILES IDX 28 34 29 35 79 36 30 37 84 38 78 39 80 40 31 41 83 42 77 43
REMARK SMILES IDX 76 44 32 46 64 47 44 48 63 49 45 50 48 51 62 52 81 53 46 54
REMARK SMILES IDX 47 55 61 57 82 58 49 59 33 60 34 61 42 62 35 63 37 64 43 65
REMARK SMILES IDX 36 66 38 67 39 68 40 69 41 70 65 71 66 72 74 73 67 74 69 75
REMARK SMILES IDX 75 76 68 77 70 78 71 79 72 80 73 81 50 82 51 83 59 84 52 85
REMARK SMILES IDX 54 86 60 87 53 88 55 89 56 90 57 91 58 92
REMARK H PARENT 8 16 80 45 48 56
REMARK Flexibility Score: inf
ROOT
ATOM      1  C   UNL A   1      37.122  20.542  24.959  1.00  0.00     0.275 C 
ENDROOT
BRANCH   1   2
ATOM      2  C   UNL A   1      35.794  21.101  25.465  1.00  0.00     0.275 C 
BRANCH   2   3
ATOM      3  O   UNL A   1      35.291  22.120  24.573  1.00  0.00    -0.458 OA
BRANCH   3   4
ATOM      4  C   UNL A   1      34.920  23.279  25.166  1.00  0.00     0.343 C 
ATOM      5  O   UNL A   1      35.621  24.267  25.294  1.00  0.00    -0.246 OA
BRANCH   4   6
ATOM      6  C   UNL A   1      33.490  23.263  25.557  1.00  0.00     0.119 A 
ATOM      7  C   UNL A   1      32.505  23.779  24.684  1.00  0.00     0.059 A 
ATOM      8  C   UNL A   1      31.159  23.762  25.058  1.00  0.00     0.027 A 
ATOM      9  C   UNL A   1      30.804  23.339  26.341  1.00  0.00     0.005 A 
ATOM     10  C   UNL A   1      33.125  22.885  26.842  1.00  0.00     0.139 A 
ATOM     11  C   UNL A   1      31.790  22.930  27.241  1.00  0.00     0.040 A 
ATOM     12  F   UNL A   1      34.049  22.536  27.748  1.00  0.00    -0.206 F 
BRANCH   7  13
ATOM     13  N   UNL A   1      32.927  24.285  23.451  1.00  0.00    -0.321 N 
ATOM     14  C   UNL A   1      33.272  25.542  23.020  1.00  0.00     0.258 C 
ATOM     15  O   UNL A   1      33.985  25.604  22.017  1.00  0.00    -0.269 OA
ATOM     16  H   UNL A   1      32.990  23.599  22.749  1.00  0.00     0.170 HD
BRANCH  14  17
ATOM     17  C   UNL A   1      32.923  26.785  23.707  1.00  0.00     0.075 A 
ATOM     18  C   UNL A   1      31.642  30.383  25.669  1.00  0.00     0.044 C 
ATOM     19  C   UNL A   1      32.107  29.144  24.970  1.00  0.00    -0.048 A 
ATOM     20  C   UNL A   1      33.408  28.659  25.151  1.00  0.00     0.004 A 
ATOM     21  C   UNL A   1      31.246  28.483  24.088  1.00  0.00     0.043 A 
ATOM     22  C   UNL A   1      33.826  27.499  24.498  1.00  0.00     0.017 A 
ATOM     23  C   UNL A   1      31.651  27.307  23.474  1.00  0.00     0.136 A 
ATOM     24  F   UNL A   1      30.779  26.687  22.667  1.00  0.00    -0.206 F 
ENDBRANCH  14  17
ENDBRANCH   7  13
ENDBRANCH   4   6
ENDBRANCH   3   4
ENDBRANCH   2   3
ENDBRANCH   1   2
BRANCH   1  25
ATOM     25  O   UNL A   1      38.151  21.547  25.049  1.00  0.00    -0.458 OA
BRANCH  25  26
ATOM     26  C   UNL A   1      39.168  21.283  25.901  1.00  0.00     0.338 C 
ATOM     27  O   UNL A   1      39.841  20.262  25.944  1.00  0.00    -0.246 OA
BRANCH  26  28
ATOM     28  C   UNL A   1      39.478  22.458  26.739  1.00  0.00     0.060 A 
ATOM     29  C   UNL A   1      38.844  23.649  26.441  1.00  0.00     0.016 A 
ATOM     30  C   UNL A   1      40.563  22.467  27.615  1.00  0.00     0.016 A 
ATOM     31  C   UNL A   1      39.457  24.852  26.789  1.00  0.00     0.010 A 
ATOM     32  C   UNL A   1      41.035  23.687  28.140  1.00  0.00     0.010 A 
ATOM     33  C   UNL A   1      40.556  24.918  27.659  1.00  0.00    -0.014 A 
BRANCH  33  34
ATOM     34  C   UNL A   1      41.201  26.250  27.976  1.00  0.00     0.031 A 
ATOM     35  C   UNL A   1      40.481  27.292  28.820  1.00  0.00     0.074 A 
ATOM     36  C   UNL A   1      42.471  26.534  27.589  1.00  0.00     0.049 A 
ATOM     37  N   UNL A   1      40.821  28.535  29.068  1.00  0.00    -0.248 NA
ATOM     38  C   UNL A   1      39.209  26.904  29.457  1.00  0.00     0.031 C 
ATOM     39  C   UNL A   1      43.340  25.654  26.805  1.00  0.00     0.029 A 
ATOM     40  N   UNL A   1      43.277  27.630  27.833  1.00  0.00    -0.354 N 
ATOM     41  C   UNL A   1      39.765  29.095  29.782  1.00  0.00     0.074 A 
ATOM     42  C   UNL A   1      38.779  28.055  29.957  1.00  0.00     0.031 C 
ATOM     43  C   UNL A   1      44.572  26.174  26.744  1.00  0.00     0.029 A 
ATOM     44  C   UNL A   1      44.558  27.503  27.334  1.00  0.00     0.049 A 
ATOM     45  H   UNL A   1      42.965  28.429  28.318  1.00  0.00     0.167 HD
ATOM     46  C   UNL A   1      39.630  30.357  30.259  1.00  0.00     0.034 A 
ATOM     47  C   UNL A   1      45.602  28.359  27.298  1.00  0.00     0.034 A 
ATOM     48  C   UNL A   1      40.654  31.365  30.203  1.00  0.00     0.049 A 
ATOM     49  C   UNL A   1      45.426  29.748  27.843  1.00  0.00     0.074 A 
ATOM     50  C   UNL A   1      40.598  32.665  30.677  1.00  0.00     0.029 A 
ATOM     51  N   UNL A   1      41.922  31.186  29.678  1.00  0.00    -0.354 N 
ATOM     52  N   UNL A   1      44.407  30.258  28.489  1.00  0.00    -0.248 NA
ATOM     53  C   UNL A   1      46.536  30.694  27.638  1.00  0.00     0.031 C 
ATOM     54  C   UNL A   1      41.824  33.280  30.417  1.00  0.00     0.029 A 
ATOM     55  C   UNL A   1      42.655  32.352  29.813  1.00  0.00     0.049 A 
ATOM     56  H   UNL A   1      42.252  30.353  29.268  1.00  0.00     0.167 HD
ATOM     57  C   UNL A   1      44.756  31.572  28.775  1.00  0.00     0.074 A 
ATOM     58  C   UNL A   1      46.094  31.774  28.267  1.00  0.00     0.031 C 
ATOM     59  C   UNL A   1      44.014  32.530  29.376  1.00  0.00     0.034 A 
BRANCH  46  60
ATOM     60  C   UNL A   1      38.327  30.752  30.911  1.00  0.00     0.023 A 
ATOM     61  C   UNL A   1      38.153  30.594  32.299  1.00  0.00     0.012 A 
ATOM     62  C   UNL A   1      37.337  31.421  30.158  1.00  0.00     0.148 A 
ATOM     63  C   UNL A   1      37.008  31.086  32.927  1.00  0.00     0.002 A 
ATOM     64  C   UNL A   1      36.223  31.949  30.799  1.00  0.00     0.091 A 
ATOM     65  F   UNL A   1      37.523  31.555  28.838  1.00  0.00    -0.205 F 
ATOM     66  C   UNL A   1      36.052  31.774  32.182  1.00  0.00     0.022 A 
BRANCH  64  67
ATOM     67  S   UNL A   1      34.985  32.934  29.948  1.00  0.00     0.127 S 
ATOM     68  O   UNL A   1      35.805  33.991  29.355  1.00  0.00    -0.237 OA
ATOM     69  O   UNL A   1      34.438  31.976  28.988  1.00  0.00    -0.237 OA
ATOM     70  O   UNL A   1      34.049  33.382  30.970  1.00  0.00    -0.744 OA
ENDBRANCH  64  67
ENDBRANCH  46  60
BRANCH  47  71
ATOM     71  C   UNL A   1      46.909  27.942  26.698  1.00  0.00     0.023 A 
ATOM     72  C   UNL A   1      47.970  27.557  27.543  1.00  0.00     0.012 A 
ATOM     73  C   UNL A   1      47.112  27.916  25.302  1.00  0.00     0.148 A 
ATOM     74  C   UNL A   1      49.205  27.177  27.013  1.00  0.00     0.002 A 
ATOM     75  C   UNL A   1      48.317  27.461  24.779  1.00  0.00     0.091 A 
ATOM     76  F   UNL A   1      46.116  28.332  24.506  1.00  0.00    -0.205 F 
ATOM     77  C   UNL A   1      49.373  27.112  25.632  1.00  0.00     0.022 A 
BRANCH  75  78
ATOM     78  S   UNL A   1      48.558  27.203  23.018  1.00  0.00     0.127 S 
ATOM     79  O   UNL A   1      47.622  28.167  22.443  1.00  0.00    -0.237 OA
ATOM     80  O   UNL A   1      49.971  27.544  22.848  1.00  0.00    -0.237 OA
ATOM     81  O   UNL A   1      48.249  25.798  22.783  1.00  0.00    -0.744 OA
ENDBRANCH  75  78
ENDBRANCH  47  71
BRANCH  59  82
ATOM     82  C   UNL A   1      44.621  33.893  29.570  1.00  0.00     0.023 A 
ATOM     83  C   UNL A   1      45.397  34.152  30.716  1.00  0.00     0.012 A 
ATOM     84  C   UNL A   1      44.549  34.858  28.546  1.00  0.00     0.148 A 
ATOM     85  C   UNL A   1      46.087  35.357  30.843  1.00  0.00     0.002 A 
ATOM     86  C   UNL A   1      45.279  36.033  28.656  1.00  0.00     0.091 A 
ATOM     87  F   UNL A   1      43.793  34.590  27.470  1.00  0.00    -0.205 F 
ATOM     88  C   UNL A   1      46.042  36.289  29.807  1.00  0.00     0.022 A 
BRANCH  86  89
ATOM     89  S   UNL A   1      45.371  37.244  27.332  1.00  0.00     0.127 S 
ATOM     90  O   UNL A   1      46.102  38.335  27.975  1.00  0.00    -0.237 OA
ATOM     91  O   UNL A   1      46.127  36.523  26.308  1.00  0.00    -0.237 OA
ATOM     92  O   UNL A   1      43.995  37.554  26.968  1.00  0.00    -0.744 OA
ENDBRANCH  86  89
ENDBRANCH  59  82
ENDBRANCH  33  34
ENDBRANCH  26  28
ENDBRANCH  25  26
ENDBRANCH   1  25
TORSDOF 16
ENDMDL
