MODEL 1
REMARK VINA RESULT:     -11.4      0.000      0.000
REMARK SMILES C[NH2+][C@@]1(C(=O)OCCOC(=O)c2ccc(-c3c4nc(c(-c5cccc(S(=O)(=O)[O-])c5F)c5ccc([nH]5)c(-c5cccc(S(=O)(=O)[O-])c5F)c5nc(c(-c6cccc(S(=O)(=O)[O-])c6F)c6ccc3[nH]6)C=C5)C=C4)cc2)CC[C@H]([NH+]2CC[NH+](C)CC2)C1
REMARK SMILES IDX 8 1 7 2 6 3 4 4 5 5 3 6 75 7 85 8 76 9 77 10 2 11 1 12 78 15
REMARK SMILES IDX 79 16 84 17 80 19 83 20 81 21 82 22 9 24 10 25 11 26 12 27
REMARK SMILES IDX 13 28 74 29 14 30 73 31 15 32 16 33 17 34 67 35 18 36 72 37
REMARK SMILES IDX 66 38 68 39 19 40 71 41 65 42 64 43 20 45 52 46 32 47 51 48
REMARK SMILES IDX 33 49 36 50 50 51 69 52 34 53 35 54 49 56 70 57 37 58 21 59
REMARK SMILES IDX 22 60 30 61 23 62 25 63 31 64 24 65 26 66 27 67 28 68 29 69
REMARK SMILES IDX 53 70 54 71 62 72 55 73 57 74 63 75 56 76 58 77 59 78 60 79
REMARK SMILES IDX 61 80 38 81 39 82 47 83 40 84 42 85 48 86 41 87 43 88 44 89
REMARK SMILES IDX 45 90 46 91
REMARK H PARENT 2 13 2 14 78 18 81 23 68 44 36 55
REMARK Flexibility Score: inf
ROOT
ATOM      1  C   UNL A   1      31.497  29.918  25.384  1.00  0.00     0.275 C 
ENDROOT
BRANCH   1   2
ATOM      2  C   UNL A   1      31.675  28.946  24.221  1.00  0.00     0.274 C 
BRANCH   2   3
ATOM      3  O   UNL A   1      31.486  27.589  24.684  1.00  0.00    -0.457 OA
BRANCH   3   4
ATOM      4  C   UNL A   1      30.679  26.800  23.923  1.00  0.00     0.368 C 
ATOM      5  O   UNL A   1      29.459  26.928  23.875  1.00  0.00    -0.245 OA
BRANCH   4   6
ATOM      6  C   UNL A   1      31.456  25.734  23.077  1.00  0.00     0.200 C 
ATOM      7  C   UNL A   1      30.657  24.419  23.129  1.00  0.00     0.087 C 
ATOM      8  C   UNL A   1      32.815  25.312  23.679  1.00  0.00     0.146 C 
ATOM      9  C   UNL A   1      31.023  23.836  24.484  1.00  0.00     0.072 C 
ATOM     10  C   UNL A   1      32.524  24.122  24.626  1.00  0.00     0.191 C 
BRANCH   6  11
ATOM     11  N   UNL A   1      31.468  26.162  21.661  1.00  0.00    -0.334 N 
ATOM     12  C   UNL A   1      32.523  25.598  20.840  1.00  0.00     0.331 C 
ATOM     13  H   UNL A   1      30.574  25.897  21.246  1.00  0.00     0.347 HD
ATOM     14  H   UNL A   1      31.635  27.168  21.674  1.00  0.00     0.347 HD
ENDBRANCH   6  11
BRANCH  10  15
ATOM     15  N   UNL A   1      33.142  24.167  25.956  1.00  0.00    -0.323 N 
ATOM     16  C   UNL A   1      34.512  24.711  25.968  1.00  0.00     0.324 C 
ATOM     17  C   UNL A   1      33.118  22.947  26.775  1.00  0.00     0.324 C 
ATOM     18  H   UNL A   1      32.495  24.814  26.406  1.00  0.00     0.348 HD
ATOM     19  C   UNL A   1      35.635  23.698  25.632  1.00  0.00     0.324 C 
ATOM     20  C   UNL A   1      34.180  21.892  26.412  1.00  0.00     0.324 C 
ATOM     21  N   UNL A   1      35.555  22.418  26.361  1.00  0.00    -0.328 N 
ATOM     22  C   UNL A   1      36.446  21.428  25.750  1.00  0.00     0.333 C 
ATOM     23  H   UNL A   1      35.851  22.597  27.319  1.00  0.00     0.348 HD
ENDBRANCH  10  15
ENDBRANCH   4   6
ENDBRANCH   3   4
ENDBRANCH   2   3
ENDBRANCH   1   2
BRANCH   1  24
ATOM     24  O   UNL A   1      32.714  29.891  26.142  1.00  0.00    -0.458 OA
BRANCH  24  25
ATOM     25  C   UNL A   1      32.999  31.011  26.839  1.00  0.00     0.338 C 
ATOM     26  O   UNL A   1      32.264  31.946  27.093  1.00  0.00    -0.246 OA
BRANCH  25  27
ATOM     27  C   UNL A   1      34.344  30.836  27.401  1.00  0.00     0.060 A 
ATOM     28  C   UNL A   1      34.797  29.534  27.625  1.00  0.00     0.016 A 
ATOM     29  C   UNL A   1      35.101  31.932  27.798  1.00  0.00     0.016 A 
ATOM     30  C   UNL A   1      35.968  29.322  28.341  1.00  0.00     0.010 A 
ATOM     31  C   UNL A   1      36.330  31.712  28.425  1.00  0.00     0.010 A 
ATOM     32  C   UNL A   1      36.759  30.406  28.739  1.00  0.00    -0.014 A 
BRANCH  32  33
ATOM     33  C   UNL A   1      38.008  30.193  29.520  1.00  0.00     0.031 A 
ATOM     34  C   UNL A   1      39.110  29.346  28.944  1.00  0.00     0.074 A 
ATOM     35  C   UNL A   1      38.150  30.728  30.748  1.00  0.00     0.049 A 
ATOM     36  N   UNL A   1      40.134  28.803  29.546  1.00  0.00    -0.248 NA
ATOM     37  C   UNL A   1      39.034  29.049  27.502  1.00  0.00     0.031 C 
ATOM     38  C   UNL A   1      37.181  31.600  31.415  1.00  0.00     0.029 A 
ATOM     39  N   UNL A   1      39.165  30.603  31.666  1.00  0.00    -0.354 N 
ATOM     40  C   UNL A   1      40.762  28.016  28.589  1.00  0.00     0.074 A 
ATOM     41  C   UNL A   1      40.026  28.182  27.354  1.00  0.00     0.031 C 
ATOM     42  C   UNL A   1      37.653  31.947  32.619  1.00  0.00     0.029 A 
ATOM     43  C   UNL A   1      38.912  31.249  32.855  1.00  0.00     0.049 A 
ATOM     44  H   UNL A   1      39.994  30.100  31.490  1.00  0.00     0.167 HD
ATOM     45  C   UNL A   1      41.853  27.227  28.730  1.00  0.00     0.034 A 
ATOM     46  C   UNL A   1      39.584  31.238  34.022  1.00  0.00     0.034 A 
ATOM     47  C   UNL A   1      42.638  27.153  29.933  1.00  0.00     0.049 A 
ATOM     48  C   UNL A   1      40.824  30.400  34.139  1.00  0.00     0.074 A 
ATOM     49  C   UNL A   1      43.777  26.405  30.175  1.00  0.00     0.029 A 
ATOM     50  N   UNL A   1      42.384  27.880  31.086  1.00  0.00    -0.354 N 
ATOM     51  N   UNL A   1      41.398  29.648  33.230  1.00  0.00    -0.248 NA
ATOM     52  C   UNL A   1      41.510  30.405  35.438  1.00  0.00     0.031 C 
ATOM     53  C   UNL A   1      44.218  26.690  31.473  1.00  0.00     0.029 A 
ATOM     54  C   UNL A   1      43.353  27.614  32.037  1.00  0.00     0.049 A 
ATOM     55  H   UNL A   1      41.626  28.495  31.210  1.00  0.00     0.167 HD
ATOM     56  C   UNL A   1      42.512  29.093  33.845  1.00  0.00     0.074 A 
ATOM     57  C   UNL A   1      42.555  29.625  35.192  1.00  0.00     0.031 C 
ATOM     58  C   UNL A   1      43.402  28.197  33.352  1.00  0.00     0.034 A 
BRANCH  45  59
ATOM     59  C   UNL A   1      42.277  26.395  27.551  1.00  0.00     0.023 A 
ATOM     60  C   UNL A   1      43.118  26.951  26.566  1.00  0.00     0.012 A 
ATOM     61  C   UNL A   1      41.890  25.045  27.447  1.00  0.00     0.148 A 
ATOM     62  C   UNL A   1      43.547  26.182  25.485  1.00  0.00     0.002 A 
ATOM     63  C   UNL A   1      42.352  24.273  26.386  1.00  0.00     0.091 A 
ATOM     64  F   UNL A   1      41.065  24.541  28.377  1.00  0.00    -0.205 F 
ATOM     65  C   UNL A   1      43.174  24.842  25.401  1.00  0.00     0.022 A 
BRANCH  63  66
ATOM     66  S   UNL A   1      41.978  22.521  26.242  1.00  0.00     0.127 S 
ATOM     67  O   UNL A   1      40.519  22.535  26.154  1.00  0.00    -0.237 OA
ATOM     68  O   UNL A   1      42.661  22.156  24.999  1.00  0.00    -0.237 OA
ATOM     69  O   UNL A   1      42.534  21.900  27.438  1.00  0.00    -0.744 OA
ENDBRANCH  63  66
ENDBRANCH  45  59
BRANCH  46  70
ATOM     70  C   UNL A   1      39.086  32.061  35.161  1.00  0.00     0.023 A 
ATOM     71  C   UNL A   1      38.180  31.494  36.077  1.00  0.00     0.012 A 
ATOM     72  C   UNL A   1      39.568  33.364  35.393  1.00  0.00     0.148 A 
ATOM     73  C   UNL A   1      37.762  32.210  37.200  1.00  0.00     0.002 A 
ATOM     74  C   UNL A   1      39.200  34.045  36.549  1.00  0.00     0.091 A 
ATOM     75  F   UNL A   1      40.405  33.906  34.497  1.00  0.00    -0.205 F 
ATOM     76  C   UNL A   1      38.287  33.476  37.446  1.00  0.00     0.022 A 
BRANCH  74  77
ATOM     77  S   UNL A   1      39.984  35.597  37.007  1.00  0.00     0.127 S 
ATOM     78  O   UNL A   1      39.654  36.451  35.871  1.00  0.00    -0.237 OA
ATOM     79  O   UNL A   1      39.300  35.939  38.256  1.00  0.00    -0.237 OA
ATOM     80  O   UNL A   1      41.394  35.267  37.179  1.00  0.00    -0.744 OA
ENDBRANCH  74  77
ENDBRANCH  46  70
BRANCH  58  81
ATOM     81  C   UNL A   1      44.499  27.741  34.271  1.00  0.00     0.023 A 
ATOM     82  C   UNL A   1      45.692  28.487  34.343  1.00  0.00     0.012 A 
ATOM     83  C   UNL A   1      44.328  26.622  35.109  1.00  0.00     0.148 A 
ATOM     84  C   UNL A   1      46.707  28.115  35.222  1.00  0.00     0.002 A 
ATOM     85  C   UNL A   1      45.330  26.276  36.006  1.00  0.00     0.091 A 
ATOM     86  F   UNL A   1      43.195  25.911  35.006  1.00  0.00    -0.205 F 
ATOM     87  C   UNL A   1      46.522  27.017  36.060  1.00  0.00     0.022 A 
BRANCH  85  88
ATOM     88  S   UNL A   1      45.135  24.921  37.168  1.00  0.00     0.127 S 
ATOM     89  O   UNL A   1      45.024  23.772  36.271  1.00  0.00    -0.237 OA
ATOM     90  O   UNL A   1      46.380  24.977  37.936  1.00  0.00    -0.237 OA
ATOM     91  O   UNL A   1      43.943  25.238  37.941  1.00  0.00    -0.744 OA
ENDBRANCH  85  88
ENDBRANCH  58  81
ENDBRANCH  32  33
ENDBRANCH  25  27
ENDBRANCH  24  25
ENDBRANCH   1  24
TORSDOF 16
ENDMDL
MODEL 2
REMARK VINA RESULT:     -11.3      4.843      9.954
REMARK SMILES C[NH2+][C@@]1(C(=O)OCCOC(=O)c2ccc(-c3c4nc(c(-c5cccc(S(=O)(=O)[O-])c5F)c5ccc([nH]5)c(-c5cccc(S(=O)(=O)[O-])c5F)c5nc(c(-c6cccc(S(=O)(=O)[O-])c6F)c6ccc3[nH]6)C=C5)C=C4)cc2)CC[C@H]([NH+]2CC[NH+](C)CC2)C1
REMARK SMILES IDX 8 1 7 2 6 3 4 4 5 5 3 6 75 7 85 8 76 9 77 10 2 11 1 12 78 15
REMARK SMILES IDX 79 16 84 17 80 19 83 20 81 21 82 22 9 24 10 25 11 26 12 27
REMARK SMILES IDX 13 28 74 29 14 30 73 31 15 32 16 33 17 34 67 35 18 36 72 37
REMARK SMILES IDX 66 38 68 39 19 40 71 41 65 42 64 43 20 45 52 46 32 47 51 48
REMARK SMILES IDX 33 49 36 50 50 51 69 52 34 53 35 54 49 56 70 57 37 58 21 59
REMARK SMILES IDX 22 60 30 61 23 62 25 63 31 64 24 65 26 66 27 67 28 68 29 69
REMARK SMILES IDX 53 70 54 71 62 72 55 73 57 74 63 75 56 76 58 77 59 78 60 79
REMARK SMILES IDX 61 80 38 81 39 82 47 83 40 84 42 85 48 86 41 87 43 88 44 89
REMARK SMILES IDX 45 90 46 91
REMARK H PARENT 2 13 2 14 78 18 81 23 68 44 36 55
REMARK Flexibility Score: inf
ROOT
ATOM      1  C   UNL A   1      35.868  20.880  25.179  1.00  0.00     0.275 C 
ENDROOT
BRANCH   1   2
ATOM      2  C   UNL A   1      34.856  21.550  26.104  1.00  0.00     0.274 C 
BRANCH   2   3
ATOM      3  O   UNL A   1      33.829  22.197  25.319  1.00  0.00    -0.457 OA
BRANCH   3   4
ATOM      4  C   UNL A   1      33.733  23.548  25.450  1.00  0.00     0.368 C 
ATOM      5  O   UNL A   1      34.696  24.305  25.363  1.00  0.00    -0.245 OA
BRANCH   4   6
ATOM      6  C   UNL A   1      32.270  24.057  25.682  1.00  0.00     0.200 C 
ATOM      7  C   UNL A   1      31.397  23.518  24.534  1.00  0.00     0.087 C 
ATOM      8  C   UNL A   1      32.096  25.584  25.533  1.00  0.00     0.146 C 
ATOM      9  C   UNL A   1      31.705  24.461  23.383  1.00  0.00     0.072 C 
ATOM     10  C   UNL A   1      31.785  25.846  24.038  1.00  0.00     0.191 C 
BRANCH   6  11
ATOM     11  N   UNL A   1      31.745  23.453  26.927  1.00  0.00    -0.334 N 
ATOM     12  C   UNL A   1      30.358  23.028  26.885  1.00  0.00     0.331 C 
ATOM     13  H   UNL A   1      32.316  22.636  27.144  1.00  0.00     0.347 HD
ATOM     14  H   UNL A   1      31.789  24.187  27.634  1.00  0.00     0.347 HD
ENDBRANCH   6  11
BRANCH  10  15
ATOM     15  N   UNL A   1      32.530  26.928  23.386  1.00  0.00    -0.323 N 
ATOM     16  C   UNL A   1      33.636  27.473  24.193  1.00  0.00     0.324 C 
ATOM     17  C   UNL A   1      31.771  28.051  22.818  1.00  0.00     0.324 C 
ATOM     18  H   UNL A   1      32.891  26.407  22.587  1.00  0.00     0.348 HD
ATOM     19  C   UNL A   1      33.238  28.557  25.225  1.00  0.00     0.324 C 
ATOM     20  C   UNL A   1      31.300  29.106  23.836  1.00  0.00     0.324 C 
ATOM     21  N   UNL A   1      32.374  29.630  24.697  1.00  0.00    -0.328 N 
ATOM     22  C   UNL A   1      31.798  30.408  25.797  1.00  0.00     0.333 C 
ATOM     23  H   UNL A   1      32.960  30.235  24.123  1.00  0.00     0.348 HD
ENDBRANCH  10  15
ENDBRANCH   4   6
ENDBRANCH   3   4
ENDBRANCH   2   3
ENDBRANCH   1   2
BRANCH   1  24
ATOM     24  O   UNL A   1      37.006  21.749  25.106  1.00  0.00    -0.458 OA
BRANCH  24  25
ATOM     25  C   UNL A   1      38.163  21.248  25.588  1.00  0.00     0.338 C 
ATOM     26  O   UNL A   1      38.635  20.141  25.410  1.00  0.00    -0.246 OA
BRANCH  25  27
ATOM     27  C   UNL A   1      38.865  22.352  26.253  1.00  0.00     0.060 A 
ATOM     28  C   UNL A   1      38.379  23.648  26.065  1.00  0.00     0.016 A 
ATOM     29  C   UNL A   1      40.040  22.129  26.961  1.00  0.00     0.016 A 
ATOM     30  C   UNL A   1      39.123  24.737  26.499  1.00  0.00     0.010 A 
ATOM     31  C   UNL A   1      40.730  23.224  27.488  1.00  0.00     0.010 A 
ATOM     32  C   UNL A   1      40.301  24.541  27.228  1.00  0.00    -0.014 A 
BRANCH  32  33
ATOM     33  C   UNL A   1      41.115  25.700  27.687  1.00  0.00     0.031 A 
ATOM     34  C   UNL A   1      40.485  26.755  28.555  1.00  0.00     0.074 A 
ATOM     35  C   UNL A   1      42.403  25.828  27.309  1.00  0.00     0.049 A 
ATOM     36  N   UNL A   1      40.907  27.962  28.824  1.00  0.00    -0.248 NA
ATOM     37  C   UNL A   1      39.195  26.417  29.180  1.00  0.00     0.031 C 
ATOM     38  C   UNL A   1      43.153  24.864  26.502  1.00  0.00     0.029 A 
ATOM     39  N   UNL A   1      43.308  26.835  27.544  1.00  0.00    -0.354 N 
ATOM     40  C   UNL A   1      39.892  28.562  29.558  1.00  0.00     0.074 A 
ATOM     41  C   UNL A   1      38.847  27.575  29.724  1.00  0.00     0.031 C 
ATOM     42  C   UNL A   1      44.403  25.312  26.326  1.00  0.00     0.029 A 
ATOM     43  C   UNL A   1      44.520  26.638  26.923  1.00  0.00     0.049 A 
ATOM     44  H   UNL A   1      43.108  27.622  28.101  1.00  0.00     0.167 HD
ATOM     45  C   UNL A   1      39.838  29.824  30.046  1.00  0.00     0.034 A 
ATOM     46  C   UNL A   1      45.587  27.450  26.797  1.00  0.00     0.034 A 
ATOM     47  C   UNL A   1      40.925  30.761  29.967  1.00  0.00     0.049 A 
ATOM     48  C   UNL A   1      45.527  28.826  27.397  1.00  0.00     0.074 A 
ATOM     49  C   UNL A   1      40.985  32.056  30.451  1.00  0.00     0.029 A 
ATOM     50  N   UNL A   1      42.158  30.491  29.393  1.00  0.00    -0.354 N 
ATOM     51  N   UNL A   1      44.553  29.386  28.074  1.00  0.00    -0.248 NA
ATOM     52  C   UNL A   1      46.706  29.682  27.216  1.00  0.00     0.031 C 
ATOM     53  C   UNL A   1      42.260  32.565  30.179  1.00  0.00     0.029 A 
ATOM     54  C   UNL A   1      42.993  31.587  29.526  1.00  0.00     0.049 A 
ATOM     55  H   UNL A   1      42.404  29.645  28.955  1.00  0.00     0.167 HD
ATOM     56  C   UNL A   1      45.002  30.659  28.402  1.00  0.00     0.074 A 
ATOM     57  C   UNL A   1      46.351  30.773  27.883  1.00  0.00     0.031 C 
ATOM     58  C   UNL A   1      44.348  31.656  29.046  1.00  0.00     0.034 A 
BRANCH  45  59
ATOM     59  C   UNL A   1      38.570  30.260  30.729  1.00  0.00     0.023 A 
ATOM     60  C   UNL A   1      38.386  29.998  32.101  1.00  0.00     0.012 A 
ATOM     61  C   UNL A   1      37.586  30.981  30.025  1.00  0.00     0.148 A 
ATOM     62  C   UNL A   1      37.231  30.426  32.755  1.00  0.00     0.002 A 
ATOM     63  C   UNL A   1      36.454  31.437  30.693  1.00  0.00     0.091 A 
ATOM     64  F   UNL A   1      37.763  31.195  28.713  1.00  0.00    -0.205 F 
ATOM     65  C   UNL A   1      36.273  31.154  32.056  1.00  0.00     0.022 A 
BRANCH  63  66
ATOM     66  S   UNL A   1      35.206  32.445  29.883  1.00  0.00     0.127 S 
ATOM     67  O   UNL A   1      34.273  32.700  30.980  1.00  0.00    -0.237 OA
ATOM     68  O   UNL A   1      35.976  33.614  29.454  1.00  0.00    -0.237 OA
ATOM     69  O   UNL A   1      34.690  31.631  28.790  1.00  0.00    -0.744 OA
ENDBRANCH  63  66
ENDBRANCH  45  59
BRANCH  46  70
ATOM     70  C   UNL A   1      46.798  26.964  26.077  1.00  0.00     0.023 A 
ATOM     71  C   UNL A   1      46.932  27.224  24.700  1.00  0.00     0.012 A 
ATOM     72  C   UNL A   1      47.853  26.326  26.759  1.00  0.00     0.148 A 
ATOM     73  C   UNL A   1      48.092  26.856  24.017  1.00  0.00     0.002 A 
ATOM     74  C   UNL A   1      49.032  26.024  26.086  1.00  0.00     0.091 A 
ATOM     75  F   UNL A   1      47.700  26.054  28.063  1.00  0.00    -0.205 F 
ATOM     76  C   UNL A   1      49.149  26.275  24.713  1.00  0.00     0.022 A 
BRANCH  74  77
ATOM     77  S   UNL A   1      50.487  25.445  26.969  1.00  0.00     0.127 S 
ATOM     78  O   UNL A   1      51.439  25.237  25.883  1.00  0.00    -0.237 OA
ATOM     79  O   UNL A   1      50.793  26.575  27.849  1.00  0.00    -0.237 OA
ATOM     80  O   UNL A   1      50.044  24.250  27.677  1.00  0.00    -0.744 OA
ENDBRANCH  74  77
ENDBRANCH  46  70
BRANCH  58  81
ATOM     81  C   UNL A   1      45.082  32.954  29.229  1.00  0.00     0.023 A 
ATOM     82  C   UNL A   1      45.854  33.150  30.391  1.00  0.00     0.012 A 
ATOM     83  C   UNL A   1      45.066  33.946  28.230  1.00  0.00     0.148 A 
ATOM     84  C   UNL A   1      46.583  34.324  30.565  1.00  0.00     0.002 A 
ATOM     85  C   UNL A   1      45.822  35.099  28.395  1.00  0.00     0.091 A 
ATOM     86  F   UNL A   1      44.304  33.749  27.143  1.00  0.00    -0.205 F 
ATOM     87  C   UNL A   1      46.576  35.293  29.564  1.00  0.00     0.022 A 
BRANCH  85  88
ATOM     88  S   UNL A   1      45.921  36.358  27.118  1.00  0.00     0.127 S 
ATOM     89  O   UNL A   1      47.079  37.136  27.554  1.00  0.00    -0.237 OA
ATOM     90  O   UNL A   1      46.140  35.566  25.906  1.00  0.00    -0.237 OA
ATOM     91  O   UNL A   1      44.641  37.053  27.154  1.00  0.00    -0.744 OA
ENDBRANCH  85  88
ENDBRANCH  58  81
ENDBRANCH  32  33
ENDBRANCH  25  27
ENDBRANCH  24  25
ENDBRANCH   1  24
TORSDOF 16
ENDMDL
MODEL 3
REMARK VINA RESULT:     -11.3      1.112      2.402
REMARK SMILES C[NH2+][C@@]1(C(=O)OCCOC(=O)c2ccc(-c3c4nc(c(-c5cccc(S(=O)(=O)[O-])c5F)c5ccc([nH]5)c(-c5cccc(S(=O)(=O)[O-])c5F)c5nc(c(-c6cccc(S(=O)(=O)[O-])c6F)c6ccc3[nH]6)C=C5)C=C4)cc2)CC[C@H]([NH+]2CC[NH+](C)CC2)C1
REMARK SMILES IDX 8 1 7 2 6 3 4 4 5 5 3 6 75 7 85 8 76 9 77 10 2 11 1 12 78 15
REMARK SMILES IDX 79 16 84 17 80 19 83 20 81 21 82 22 9 24 10 25 11 26 12 27
REMARK SMILES IDX 13 28 74 29 14 30 73 31 15 32 16 33 17 34 67 35 18 36 72 37
REMARK SMILES IDX 66 38 68 39 19 40 71 41 65 42 64 43 20 45 52 46 32 47 51 48
REMARK SMILES IDX 33 49 36 50 50 51 69 52 34 53 35 54 49 56 70 57 37 58 21 59
REMARK SMILES IDX 22 60 30 61 23 62 25 63 31 64 24 65 26 66 27 67 28 68 29 69
REMARK SMILES IDX 53 70 54 71 62 72 55 73 57 74 63 75 56 76 58 77 59 78 60 79
REMARK SMILES IDX 61 80 38 81 39 82 47 83 40 84 42 85 48 86 41 87 43 88 44 89
REMARK SMILES IDX 45 90 46 91
REMARK H PARENT 2 13 2 14 78 18 81 23 68 44 36 55
REMARK Flexibility Score: inf
ROOT
ATOM      1  C   UNL A   1      31.697  29.709  25.806  1.00  0.00     0.275 C 
ENDROOT
BRANCH   1   2
ATOM      2  C   UNL A   1      31.703  28.459  26.681  1.00  0.00     0.274 C 
BRANCH   2   3
ATOM      3  O   UNL A   1      31.337  27.306  25.889  1.00  0.00    -0.457 OA
BRANCH   3   4
ATOM      4  C   UNL A   1      32.156  26.224  25.986  1.00  0.00     0.368 C 
ATOM      5  O   UNL A   1      33.333  26.296  26.326  1.00  0.00    -0.245 OA
BRANCH   4   6
ATOM      6  C   UNL A   1      31.446  24.865  25.664  1.00  0.00     0.200 C 
ATOM      7  C   UNL A   1      32.536  23.839  25.300  1.00  0.00     0.087 C 
ATOM      8  C   UNL A   1      30.581  24.887  24.384  1.00  0.00     0.146 C 
ATOM      9  C   UNL A   1      32.875  24.181  23.859  1.00  0.00     0.072 C 
ATOM     10  C   UNL A   1      31.519  24.497  23.215  1.00  0.00     0.191 C 
BRANCH   6  11
ATOM     11  N   UNL A   1      30.792  24.362  26.892  1.00  0.00    -0.334 N 
ATOM     12  C   UNL A   1      30.317  22.992  26.838  1.00  0.00     0.331 C 
ATOM     13  H   UNL A   1      31.465  24.430  27.656  1.00  0.00     0.347 HD
ATOM     14  H   UNL A   1      29.961  24.939  27.022  1.00  0.00     0.347 HD
ENDBRANCH   6  11
BRANCH  10  15
ATOM     15  N   UNL A   1      31.453  25.328  22.007  1.00  0.00    -0.323 N 
ATOM     16  C   UNL A   1      32.743  25.492  21.315  1.00  0.00     0.324 C 
ATOM     17  C   UNL A   1      30.805  26.644  22.104  1.00  0.00     0.324 C 
ATOM     18  H   UNL A   1      30.820  24.750  21.456  1.00  0.00     0.348 HD
ATOM     19  C   UNL A   1      33.660  26.612  21.867  1.00  0.00     0.324 C 
ATOM     20  C   UNL A   1      31.673  27.759  22.719  1.00  0.00     0.324 C 
ATOM     21  N   UNL A   1      32.993  27.910  22.083  1.00  0.00    -0.328 N 
ATOM     22  C   UNL A   1      33.839  28.788  22.894  1.00  0.00     0.333 C 
ATOM     23  H   UNL A   1      32.846  28.330  21.167  1.00  0.00     0.348 HD
ENDBRANCH  10  15
ENDBRANCH   4   6
ENDBRANCH   3   4
ENDBRANCH   2   3
ENDBRANCH   1   2
BRANCH   1  24
ATOM     24  O   UNL A   1      33.003  30.293  25.902  1.00  0.00    -0.458 OA
BRANCH  24  25
ATOM     25  C   UNL A   1      33.171  31.204  26.884  1.00  0.00     0.338 C 
ATOM     26  O   UNL A   1      32.350  31.975  27.343  1.00  0.00    -0.246 OA
BRANCH  25  27
ATOM     27  C   UNL A   1      34.512  30.991  27.442  1.00  0.00     0.060 A 
ATOM     28  C   UNL A   1      34.899  29.682  27.739  1.00  0.00     0.016 A 
ATOM     29  C   UNL A   1      35.330  32.067  27.765  1.00  0.00     0.016 A 
ATOM     30  C   UNL A   1      36.067  29.451  28.454  1.00  0.00     0.010 A 
ATOM     31  C   UNL A   1      36.555  31.819  28.392  1.00  0.00     0.010 A 
ATOM     32  C   UNL A   1      36.918  30.514  28.779  1.00  0.00    -0.014 A 
BRANCH  32  33
ATOM     33  C   UNL A   1      38.165  30.281  29.558  1.00  0.00     0.031 A 
ATOM     34  C   UNL A   1      39.256  29.423  28.978  1.00  0.00     0.074 A 
ATOM     35  C   UNL A   1      38.315  30.809  30.789  1.00  0.00     0.049 A 
ATOM     36  N   UNL A   1      40.273  28.863  29.578  1.00  0.00    -0.248 NA
ATOM     37  C   UNL A   1      39.176  29.132  27.536  1.00  0.00     0.031 C 
ATOM     38  C   UNL A   1      37.357  31.690  31.459  1.00  0.00     0.029 A 
ATOM     39  N   UNL A   1      39.328  30.667  31.706  1.00  0.00    -0.354 N 
ATOM     40  C   UNL A   1      40.890  28.073  28.617  1.00  0.00     0.074 A 
ATOM     41  C   UNL A   1      40.157  28.253  27.383  1.00  0.00     0.031 C 
ATOM     42  C   UNL A   1      37.834  32.027  32.665  1.00  0.00     0.029 A 
ATOM     43  C   UNL A   1      39.083  31.311  32.897  1.00  0.00     0.049 A 
ATOM     44  H   UNL A   1      40.150  30.154  31.528  1.00  0.00     0.167 HD
ATOM     45  C   UNL A   1      41.971  27.269  28.755  1.00  0.00     0.034 A 
ATOM     46  C   UNL A   1      39.756  31.287  34.065  1.00  0.00     0.034 A 
ATOM     47  C   UNL A   1      42.756  27.180  29.957  1.00  0.00     0.049 A 
ATOM     48  C   UNL A   1      40.985  30.432  34.177  1.00  0.00     0.074 A 
ATOM     49  C   UNL A   1      43.885  26.416  30.195  1.00  0.00     0.029 A 
ATOM     50  N   UNL A   1      42.511  27.905  31.113  1.00  0.00    -0.354 N 
ATOM     51  N   UNL A   1      41.549  29.677  33.266  1.00  0.00    -0.248 NA
ATOM     52  C   UNL A   1      41.671  30.423  35.476  1.00  0.00     0.031 C 
ATOM     53  C   UNL A   1      44.330  26.689  31.494  1.00  0.00     0.029 A 
ATOM     54  C   UNL A   1      43.477  27.623  32.063  1.00  0.00     0.049 A 
ATOM     55  H   UNL A   1      41.761  28.529  31.240  1.00  0.00     0.167 HD
ATOM     56  C   UNL A   1      42.656  29.104  33.877  1.00  0.00     0.074 A 
ATOM     57  C   UNL A   1      42.706  29.630  35.227  1.00  0.00     0.031 C 
ATOM     58  C   UNL A   1      43.534  28.199  33.380  1.00  0.00     0.034 A 
BRANCH  45  59
ATOM     59  C   UNL A   1      42.384  26.437  27.572  1.00  0.00     0.023 A 
ATOM     60  C   UNL A   1      43.221  26.990  26.583  1.00  0.00     0.012 A 
ATOM     61  C   UNL A   1      41.990  25.088  27.469  1.00  0.00     0.148 A 
ATOM     62  C   UNL A   1      43.640  26.220  25.498  1.00  0.00     0.002 A 
ATOM     63  C   UNL A   1      42.442  24.316  26.404  1.00  0.00     0.091 A 
ATOM     64  F   UNL A   1      41.168  24.587  28.403  1.00  0.00    -0.205 F 
ATOM     65  C   UNL A   1      43.261  24.882  25.415  1.00  0.00     0.022 A 
BRANCH  63  66
ATOM     66  S   UNL A   1      42.059  22.565  26.260  1.00  0.00     0.127 S 
ATOM     67  O   UNL A   1      42.644  22.033  27.490  1.00  0.00    -0.237 OA
ATOM     68  O   UNL A   1      40.596  22.565  26.231  1.00  0.00    -0.237 OA
ATOM     69  O   UNL A   1      42.685  22.126  25.020  1.00  0.00    -0.744 OA
ENDBRANCH  63  66
ENDBRANCH  45  59
BRANCH  46  70
ATOM     70  C   UNL A   1      39.269  32.111  35.207  1.00  0.00     0.023 A 
ATOM     71  C   UNL A   1      38.416  31.528  36.163  1.00  0.00     0.012 A 
ATOM     72  C   UNL A   1      39.712  33.434  35.402  1.00  0.00     0.148 A 
ATOM     73  C   UNL A   1      38.012  32.248  37.289  1.00  0.00     0.002 A 
ATOM     74  C   UNL A   1      39.361  34.121  36.559  1.00  0.00     0.091 A 
ATOM     75  F   UNL A   1      40.498  33.989  34.468  1.00  0.00    -0.205 F 
ATOM     76  C   UNL A   1      38.500  33.536  37.497  1.00  0.00     0.022 A 
BRANCH  74  77
ATOM     77  S   UNL A   1      40.105  35.707  36.964  1.00  0.00     0.127 S 
ATOM     78  O   UNL A   1      41.524  35.372  37.016  1.00  0.00    -0.237 OA
ATOM     79  O   UNL A   1      39.710  36.540  35.827  1.00  0.00    -0.237 OA
ATOM     80  O   UNL A   1      39.486  36.098  38.224  1.00  0.00    -0.744 OA
ENDBRANCH  74  77
ENDBRANCH  46  70
BRANCH  58  81
ATOM     81  C   UNL A   1      44.625  27.724  34.297  1.00  0.00     0.023 A 
ATOM     82  C   UNL A   1      45.833  28.447  34.360  1.00  0.00     0.012 A 
ATOM     83  C   UNL A   1      44.434  26.614  35.141  1.00  0.00     0.148 A 
ATOM     84  C   UNL A   1      46.844  28.058  35.236  1.00  0.00     0.002 A 
ATOM     85  C   UNL A   1      45.434  26.252  36.036  1.00  0.00     0.091 A 
ATOM     86  F   UNL A   1      43.287  25.926  35.046  1.00  0.00    -0.205 F 
ATOM     87  C   UNL A   1      46.641  26.968  36.081  1.00  0.00     0.022 A 
BRANCH  85  88
ATOM     88  S   UNL A   1      45.215  24.906  37.206  1.00  0.00     0.127 S 
ATOM     89  O   UNL A   1      46.497  24.911  37.909  1.00  0.00    -0.237 OA
ATOM     90  O   UNL A   1      44.078  25.362  38.007  1.00  0.00    -0.237 OA
ATOM     91  O   UNL A   1      44.941  23.727  36.397  1.00  0.00    -0.744 OA
ENDBRANCH  85  88
ENDBRANCH  58  81
ENDBRANCH  32  33
ENDBRANCH  25  27
ENDBRANCH  24  25
ENDBRANCH   1  24
TORSDOF 16
ENDMDL
