MODEL 1
REMARK VINA RESULT:     -13.4      0.000      0.000
REMARK SMILES Cc1ccc(NC(=O)C[C@@H](C(=O)OCCOC(=O)c2ccc(-c3c4nc(c(-c5cccc(S(=O)(=O)[O-])c5F)c5ccc([nH]5)c(-c5cccc(S(=O)(=O)[O-])c5F)c5nc(c(-c6cccc(S(=O)(=O)[O-])c6F)c6ccc3[nH]6)C=C5)C=C4)cc2)[C@@H](C)c2ccccc2)cc1Br
REMARK SMILES IDX 14 1 13 2 11 3 12 4 10 5 9 6 7 7 6 8 8 10 5 11 1 12 2 13
REMARK SMILES IDX 3 14 91 15 4 16 90 17 92 18 82 19 83 20 84 21 85 22 89 23
REMARK SMILES IDX 86 24 88 25 87 26 15 27 16 28 17 29 18 30 19 31 20 32 81 33
REMARK SMILES IDX 21 34 80 35 22 36 23 37 24 38 74 39 25 40 79 41 73 42 75 43
REMARK SMILES IDX 26 44 78 45 72 46 71 47 27 49 59 50 39 51 58 52 40 53 43 54
REMARK SMILES IDX 57 55 76 56 41 57 42 58 56 60 77 61 44 62 28 63 29 64 37 65
REMARK SMILES IDX 30 66 32 67 38 68 31 69 33 70 34 71 35 72 36 73 60 74 61 75
REMARK SMILES IDX 69 76 62 77 64 78 70 79 63 80 65 81 66 82 67 83 68 84 45 85
REMARK SMILES IDX 46 86 54 87 47 88 49 89 55 90 48 91 50 92 51 93 52 94 53 95
REMARK H PARENT 6 9 75 48 43 59
REMARK Flexibility Score: inf
ROOT
ATOM      1  C   UNL A   1      35.583  19.208  24.775  1.00  0.00     0.274 C 
ENDROOT
BRANCH   1   2
ATOM      2  O   UNL A   1      33.918  19.160  24.484  1.00  0.00    -0.462 OA
BRANCH   2   3
ATOM      3  C   UNL A   1      32.906  19.497  25.318  1.00  0.00     0.310 C 
ATOM      4  O   UNL A   1      32.305  18.638  25.948  1.00  0.00    -0.252 OA
BRANCH   3   5
ATOM      5  C   UNL A   1      32.514  21.026  25.312  1.00  0.00     0.116 C 
BRANCH   5   6
ATOM      6  C   UNL A   1      32.936  21.892  24.084  1.00  0.00     0.116 C 
BRANCH   6   7
ATOM      7  C   UNL A   1      32.122  21.950  22.825  1.00  0.00     0.225 C 
ATOM      8  N   UNL A   1      31.364  23.036  22.521  1.00  0.00    -0.326 N 
ATOM      9  H   UNL A   1      30.618  22.869  21.901  1.00  0.00     0.169 HD
ATOM     10  O   UNL A   1      32.088  20.981  22.060  1.00  0.00    -0.275 OA
BRANCH   8  11
ATOM     11  C   UNL A   1      31.491  24.363  22.963  1.00  0.00     0.042 A 
ATOM     12  C   UNL A   1      30.999  29.329  23.980  1.00  0.00     0.045 C 
ATOM     13  C   UNL A   1      31.067  27.919  23.461  1.00  0.00    -0.037 A 
ATOM     14  C   UNL A   1      29.734  26.787  23.840  1.00  0.00     0.007 A 
ATOM     15  C   UNL A   1      32.619  27.317  22.810  1.00  0.00     0.022 A 
ATOM     16  C   UNL A   1      29.942  25.026  23.600  1.00  0.00     0.026 A 
ATOM     17  C   UNL A   1      32.839  25.528  22.559  1.00  0.00     0.042 A 
ATOM     18  Br  UNL A   1      33.979  28.597  22.495  1.00  0.00    -0.050 Br
ENDBRANCH   8  11
ENDBRANCH   6   7
ENDBRANCH   5   6
BRANCH   5  19
ATOM     19  C   UNL A   1      32.933  21.867  26.606  1.00  0.00     0.031 C 
ATOM     20  C   UNL A   1      34.259  21.362  27.234  1.00  0.00     0.013 C 
BRANCH  19  21
ATOM     21  C   UNL A   1      32.870  23.387  26.555  1.00  0.00    -0.044 A 
ATOM     22  C   UNL A   1      31.710  24.141  26.765  1.00  0.00     0.004 A 
ATOM     23  C   UNL A   1      34.006  24.082  26.123  1.00  0.00     0.004 A 
ATOM     24  C   UNL A   1      31.704  25.526  26.546  1.00  0.00     0.000 A 
ATOM     25  C   UNL A   1      34.017  25.459  25.919  1.00  0.00     0.000 A 
ATOM     26  C   UNL A   1      32.857  26.184  26.125  1.00  0.00     0.000 A 
ENDBRANCH  19  21
ENDBRANCH   5  19
ENDBRANCH   3   5
ENDBRANCH   2   3
ENDBRANCH   1   2
BRANCH   1  27
ATOM     27  C   UNL A   1      36.822  21.010  24.591  1.00  0.00     0.275 C 
BRANCH  27  28
ATOM     28  O   UNL A   1      37.707  21.724  25.748  1.00  0.00    -0.458 OA
BRANCH  28  29
ATOM     29  C   UNL A   1      38.920  21.264  26.167  1.00  0.00     0.338 C 
ATOM     30  O   UNL A   1      39.425  20.189  25.900  1.00  0.00    -0.246 OA
BRANCH  29  31
ATOM     31  C   UNL A   1      39.680  22.474  26.598  1.00  0.00     0.060 A 
ATOM     32  C   UNL A   1      39.231  23.728  26.145  1.00  0.00     0.016 A 
ATOM     33  C   UNL A   1      40.679  22.401  27.570  1.00  0.00     0.016 A 
ATOM     34  C   UNL A   1      39.737  24.908  26.695  1.00  0.00     0.010 A 
ATOM     35  C   UNL A   1      41.222  23.584  28.087  1.00  0.00     0.010 A 
ATOM     36  C   UNL A   1      40.764  24.842  27.643  1.00  0.00    -0.014 A 
BRANCH  36  37
ATOM     37  C   UNL A   1      41.594  26.048  27.887  1.00  0.00     0.031 A 
ATOM     38  C   UNL A   1      40.941  27.140  28.690  1.00  0.00     0.074 A 
ATOM     39  C   UNL A   1      42.859  26.187  27.450  1.00  0.00     0.049 A 
ATOM     40  N   UNL A   1      41.357  28.345  28.962  1.00  0.00    -0.248 NA
ATOM     41  C   UNL A   1      39.617  26.819  29.257  1.00  0.00     0.031 C 
ATOM     42  C   UNL A   1      43.632  25.179  26.727  1.00  0.00     0.029 A 
ATOM     43  N   UNL A   1      43.714  27.261  27.543  1.00  0.00    -0.354 N 
ATOM     44  C   UNL A   1      40.324  28.942  29.676  1.00  0.00     0.074 A 
ATOM     45  C   UNL A   1      39.262  27.973  29.794  1.00  0.00     0.031 C 
ATOM     46  C   UNL A   1      44.838  25.694  26.416  1.00  0.00     0.029 A 
ATOM     47  C   UNL A   1      44.908  27.078  26.884  1.00  0.00     0.049 A 
ATOM     48  H   UNL A   1      43.492  28.084  28.036  1.00  0.00     0.167 HD
ATOM     49  C   UNL A   1      40.262  30.188  30.193  1.00  0.00     0.034 A 
ATOM     50  C   UNL A   1      45.920  27.945  26.663  1.00  0.00     0.034 A 
ATOM     51  C   UNL A   1      41.328  31.140  30.094  1.00  0.00     0.049 A 
ATOM     52  C   UNL A   1      45.813  29.350  27.215  1.00  0.00     0.074 A 
ATOM     53  C   UNL A   1      41.383  32.426  30.597  1.00  0.00     0.029 A 
ATOM     54  N   UNL A   1      42.527  30.911  29.436  1.00  0.00    -0.354 N 
ATOM     55  N   UNL A   1      44.857  29.886  27.937  1.00  0.00    -0.248 NA
ATOM     56  C   UNL A   1      46.934  30.263  26.941  1.00  0.00     0.031 C 
ATOM     57  C   UNL A   1      42.602  32.988  30.209  1.00  0.00     0.029 A 
ATOM     58  C   UNL A   1      43.325  32.035  29.508  1.00  0.00     0.049 A 
ATOM     59  H   UNL A   1      42.772  30.070  28.984  1.00  0.00     0.167 HD
ATOM     60  C   UNL A   1      45.279  31.178  28.238  1.00  0.00     0.074 A 
ATOM     61  C   UNL A   1      46.584  31.340  27.631  1.00  0.00     0.031 C 
ATOM     62  C   UNL A   1      44.645  32.149  28.943  1.00  0.00     0.034 A 
BRANCH  49  63
ATOM     63  C   UNL A   1      38.984  30.584  30.882  1.00  0.00     0.023 A 
ATOM     64  C   UNL A   1      38.814  30.342  32.261  1.00  0.00     0.012 A 
ATOM     65  C   UNL A   1      37.943  31.184  30.150  1.00  0.00     0.148 A 
ATOM     66  C   UNL A   1      37.608  30.648  32.889  1.00  0.00     0.002 A 
ATOM     67  C   UNL A   1      36.766  31.539  30.794  1.00  0.00     0.091 A 
ATOM     68  F   UNL A   1      38.114  31.375  28.834  1.00  0.00    -0.205 F 
ATOM     69  C   UNL A   1      36.590  31.256  32.159  1.00  0.00     0.022 A 
BRANCH  67  70
ATOM     70  S   UNL A   1      35.427  32.394  29.961  1.00  0.00     0.127 S 
ATOM     71  O   UNL A   1      36.102  33.595  29.472  1.00  0.00    -0.237 OA
ATOM     72  O   UNL A   1      35.056  31.436  28.920  1.00  0.00    -0.237 OA
ATOM     73  O   UNL A   1      34.403  32.624  30.971  1.00  0.00    -0.744 OA
ENDBRANCH  67  70
ENDBRANCH  49  63
BRANCH  50  74
ATOM     74  C   UNL A   1      47.132  27.528  25.892  1.00  0.00     0.023 A 
ATOM     75  C   UNL A   1      48.196  26.883  26.557  1.00  0.00     0.012 A 
ATOM     76  C   UNL A   1      47.248  27.786  24.512  1.00  0.00     0.148 A 
ATOM     77  C   UNL A   1      49.363  26.537  25.871  1.00  0.00     0.002 A 
ATOM     78  C   UNL A   1      48.390  27.389  23.823  1.00  0.00     0.091 A 
ATOM     79  F   UNL A   1      46.239  28.420  23.898  1.00  0.00    -0.205 F 
ATOM     80  C   UNL A   1      49.457  26.782  24.504  1.00  0.00     0.022 A 
BRANCH  78  81
ATOM     81  S   UNL A   1      48.558  27.563  22.043  1.00  0.00     0.127 S 
ATOM     82  O   UNL A   1      47.230  28.034  21.660  1.00  0.00    -0.237 OA
ATOM     83  O   UNL A   1      49.621  28.564  21.940  1.00  0.00    -0.237 OA
ATOM     84  O   UNL A   1      48.923  26.242  21.549  1.00  0.00    -0.744 OA
ENDBRANCH  78  81
ENDBRANCH  50  74
BRANCH  62  85
ATOM     85  C   UNL A   1      45.366  33.455  29.155  1.00  0.00     0.023 A 
ATOM     86  C   UNL A   1      46.212  33.626  30.267  1.00  0.00     0.012 A 
ATOM     87  C   UNL A   1      45.278  34.475  28.186  1.00  0.00     0.148 A 
ATOM     88  C   UNL A   1      46.938  34.807  30.428  1.00  0.00     0.002 A 
ATOM     89  C   UNL A   1      46.047  35.624  28.324  1.00  0.00     0.091 A 
ATOM     90  F   UNL A   1      44.457  34.297  27.142  1.00  0.00    -0.205 F 
ATOM     91  C   UNL A   1      46.866  35.798  29.451  1.00  0.00     0.022 A 
BRANCH  89  92
ATOM     92  S   UNL A   1      46.103  36.901  27.062  1.00  0.00     0.127 S 
ATOM     93  O   UNL A   1      47.150  37.782  27.576  1.00  0.00    -0.237 OA
ATOM     94  O   UNL A   1      46.476  36.140  25.869  1.00  0.00    -0.237 OA
ATOM     95  O   UNL A   1      44.768  37.482  27.015  1.00  0.00    -0.744 OA
ENDBRANCH  89  92
ENDBRANCH  62  85
ENDBRANCH  36  37
ENDBRANCH  29  31
ENDBRANCH  28  29
ENDBRANCH  27  28
ENDBRANCH   1  27
TORSDOF 19
ENDMDL
MODEL 2
REMARK VINA RESULT:     -13.4      1.542      7.579
REMARK SMILES Cc1ccc(NC(=O)C[C@@H](C(=O)OCCOC(=O)c2ccc(-c3c4nc(c(-c5cccc(S(=O)(=O)[O-])c5F)c5ccc([nH]5)c(-c5cccc(S(=O)(=O)[O-])c5F)c5nc(c(-c6cccc(S(=O)(=O)[O-])c6F)c6ccc3[nH]6)C=C5)C=C4)cc2)[C@@H](C)c2ccccc2)cc1Br
REMARK SMILES IDX 14 1 13 2 11 3 12 4 10 5 9 6 7 7 6 8 8 10 5 11 1 12 2 13
REMARK SMILES IDX 3 14 91 15 4 16 90 17 92 18 82 19 83 20 84 21 85 22 89 23
REMARK SMILES IDX 86 24 88 25 87 26 15 27 16 28 17 29 18 30 19 31 20 32 81 33
REMARK SMILES IDX 21 34 80 35 22 36 23 37 24 38 74 39 25 40 79 41 73 42 75 43
REMARK SMILES IDX 26 44 78 45 72 46 71 47 27 49 59 50 39 51 58 52 40 53 43 54
REMARK SMILES IDX 57 55 76 56 41 57 42 58 56 60 77 61 44 62 28 63 29 64 37 65
REMARK SMILES IDX 30 66 32 67 38 68 31 69 33 70 34 71 35 72 36 73 60 74 61 75
REMARK SMILES IDX 69 76 62 77 64 78 70 79 63 80 65 81 66 82 67 83 68 84 45 85
REMARK SMILES IDX 46 86 54 87 47 88 49 89 55 90 48 91 50 92 51 93 52 94 53 95
REMARK H PARENT 6 9 75 48 43 59
REMARK Flexibility Score: inf
ROOT
ATOM      1  C   UNL A   1      36.712  21.924  24.395  1.00  0.00     0.274 C 
ENDROOT
BRANCH   1   2
ATOM      2  O   UNL A   1      35.040  21.685  24.293  1.00  0.00    -0.462 OA
BRANCH   2   3
ATOM      3  C   UNL A   1      34.294  20.701  24.846  1.00  0.00     0.310 C 
ATOM      4  O   UNL A   1      34.622  19.528  24.728  1.00  0.00    -0.252 OA
BRANCH   3   5
ATOM      5  C   UNL A   1      32.954  21.180  25.529  1.00  0.00     0.116 C 
BRANCH   5   6
ATOM      6  C   UNL A   1      31.812  21.722  24.615  1.00  0.00     0.116 C 
BRANCH   6   7
ATOM      7  C   UNL A   1      31.937  21.775  23.120  1.00  0.00     0.225 C 
ATOM      8  N   UNL A   1      31.694  22.920  22.430  1.00  0.00    -0.326 N 
ATOM      9  H   UNL A   1      31.454  22.798  21.483  1.00  0.00     0.169 HD
ATOM     10  O   UNL A   1      32.218  20.756  22.482  1.00  0.00    -0.275 OA
BRANCH   8  11
ATOM     11  C   UNL A   1      31.735  24.252  22.871  1.00  0.00     0.042 A 
ATOM     12  C   UNL A   1      30.938  29.183  23.864  1.00  0.00     0.045 C 
ATOM     13  C   UNL A   1      31.097  27.779  23.351  1.00  0.00    -0.037 A 
ATOM     14  C   UNL A   1      29.824  26.574  23.704  1.00  0.00     0.007 A 
ATOM     15  C   UNL A   1      32.695  27.266  22.734  1.00  0.00     0.022 A 
ATOM     16  C   UNL A   1      30.137  24.827  23.472  1.00  0.00     0.026 A 
ATOM     17  C   UNL A   1      33.023  25.492  22.493  1.00  0.00     0.042 A 
ATOM     18  Br  UNL A   1      33.987  28.621  22.445  1.00  0.00    -0.050 Br
ENDBRANCH   8  11
ENDBRANCH   6   7
ENDBRANCH   5   6
BRANCH   5  19
ATOM     19  C   UNL A   1      33.108  22.242  26.715  1.00  0.00     0.031 C 
ATOM     20  C   UNL A   1      34.246  21.867  27.700  1.00  0.00     0.013 C 
BRANCH  19  21
ATOM     21  C   UNL A   1      33.107  23.728  26.385  1.00  0.00    -0.044 A 
ATOM     22  C   UNL A   1      34.217  24.439  25.917  1.00  0.00     0.004 A 
ATOM     23  C   UNL A   1      31.969  24.476  26.709  1.00  0.00     0.004 A 
ATOM     24  C   UNL A   1      34.175  25.834  25.786  1.00  0.00     0.000 A 
ATOM     25  C   UNL A   1      31.908  25.860  26.566  1.00  0.00     0.000 A 
ATOM     26  C   UNL A   1      33.020  26.543  26.109  1.00  0.00     0.000 A 
ENDBRANCH  19  21
ENDBRANCH   5  19
ENDBRANCH   3   5
ENDBRANCH   2   3
ENDBRANCH   1   2
BRANCH   1  27
ATOM     27  C   UNL A   1      38.101  20.550  25.393  1.00  0.00     0.275 C 
BRANCH  27  28
ATOM     28  O   UNL A   1      39.708  20.709  25.548  1.00  0.00    -0.458 OA
BRANCH  28  29
ATOM     29  C   UNL A   1      40.366  20.634  26.739  1.00  0.00     0.338 C 
ATOM     30  O   UNL A   1      40.903  19.651  27.217  1.00  0.00    -0.246 OA
BRANCH  29  31
ATOM     31  C   UNL A   1      40.702  22.042  27.100  1.00  0.00     0.060 A 
ATOM     32  C   UNL A   1      39.947  23.071  26.508  1.00  0.00     0.016 A 
ATOM     33  C   UNL A   1      41.595  22.339  28.131  1.00  0.00     0.016 A 
ATOM     34  C   UNL A   1      40.039  24.384  26.975  1.00  0.00     0.010 A 
ATOM     35  C   UNL A   1      41.725  23.664  28.568  1.00  0.00     0.010 A 
ATOM     36  C   UNL A   1      40.959  24.694  27.983  1.00  0.00    -0.014 A 
BRANCH  36  37
ATOM     37  C   UNL A   1      41.378  26.107  28.163  1.00  0.00     0.031 A 
ATOM     38  C   UNL A   1      42.736  26.460  27.619  1.00  0.00     0.074 A 
ATOM     39  C   UNL A   1      40.615  27.045  28.754  1.00  0.00     0.049 A 
ATOM     40  N   UNL A   1      43.422  27.563  27.727  1.00  0.00    -0.248 NA
ATOM     41  C   UNL A   1      43.417  25.401  26.848  1.00  0.00     0.031 C 
ATOM     42  C   UNL A   1      39.256  26.853  29.256  1.00  0.00     0.029 A 
ATOM     43  N   UNL A   1      40.897  28.359  29.044  1.00  0.00    -0.354 N 
ATOM     44  C   UNL A   1      44.634  27.309  27.094  1.00  0.00     0.074 A 
ATOM     45  C   UNL A   1      44.593  25.952  26.607  1.00  0.00     0.031 C 
ATOM     46  C   UNL A   1      38.834  28.001  29.821  1.00  0.00     0.029 A 
ATOM     47  C   UNL A   1      39.904  28.995  29.754  1.00  0.00     0.049 A 
ATOM     48  H   UNL A   1      41.732  28.803  28.771  1.00  0.00     0.167 HD
ATOM     49  C   UNL A   1      45.690  28.134  26.928  1.00  0.00     0.034 A 
ATOM     50  C   UNL A   1      39.885  30.228  30.307  1.00  0.00     0.034 A 
ATOM     51  C   UNL A   1      45.718  29.489  27.393  1.00  0.00     0.049 A 
ATOM     52  C   UNL A   1      41.096  31.120  30.145  1.00  0.00     0.074 A 
ATOM     53  C   UNL A   1      46.729  30.422  27.263  1.00  0.00     0.029 A 
ATOM     54  N   UNL A   1      44.687  30.101  28.089  1.00  0.00    -0.354 N 
ATOM     55  N   UNL A   1      42.213  30.892  29.496  1.00  0.00    -0.248 NA
ATOM     56  C   UNL A   1      41.034  32.450  30.773  1.00  0.00     0.031 C 
ATOM     57  C   UNL A   1      46.323  31.589  27.916  1.00  0.00     0.029 A 
ATOM     58  C   UNL A   1      45.041  31.398  28.408  1.00  0.00     0.049 A 
ATOM     59  H   UNL A   1      43.830  29.674  28.321  1.00  0.00     0.167 HD
ATOM     60  C   UNL A   1      42.966  32.059  29.601  1.00  0.00     0.074 A 
ATOM     61  C   UNL A   1      42.171  32.998  30.365  1.00  0.00     0.031 C 
ATOM     62  C   UNL A   1      44.206  32.330  29.120  1.00  0.00     0.034 A 
BRANCH  49  63
ATOM     63  C   UNL A   1      46.902  27.567  26.239  1.00  0.00     0.023 A 
ATOM     64  C   UNL A   1      47.053  27.698  24.843  1.00  0.00     0.012 A 
ATOM     65  C   UNL A   1      47.886  26.890  26.983  1.00  0.00     0.148 A 
ATOM     66  C   UNL A   1      48.142  27.119  24.193  1.00  0.00     0.002 A 
ATOM     67  C   UNL A   1      48.996  26.366  26.336  1.00  0.00     0.091 A 
ATOM     68  F   UNL A   1      47.707  26.750  28.304  1.00  0.00    -0.205 F 
ATOM     69  C   UNL A   1      49.117  26.464  24.939  1.00  0.00     0.022 A 
BRANCH  67  70
ATOM     70  S   UNL A   1      50.344  25.572  27.216  1.00  0.00     0.127 S 
ATOM     71  O   UNL A   1      49.701  24.351  27.700  1.00  0.00    -0.237 OA
ATOM     72  O   UNL A   1      51.322  25.365  26.149  1.00  0.00    -0.237 OA
ATOM     73  O   UNL A   1      50.759  26.509  28.250  1.00  0.00    -0.744 OA
ENDBRANCH  67  70
ENDBRANCH  49  63
BRANCH  50  74
ATOM     74  C   UNL A   1      38.687  30.710  31.061  1.00  0.00     0.023 A 
ATOM     75  C   UNL A   1      38.596  30.482  32.450  1.00  0.00     0.012 A 
ATOM     76  C   UNL A   1      37.627  31.372  30.409  1.00  0.00     0.148 A 
ATOM     77  C   UNL A   1      37.461  30.870  33.166  1.00  0.00     0.002 A 
ATOM     78  C   UNL A   1      36.524  31.805  31.137  1.00  0.00     0.091 A 
ATOM     79  F   UNL A   1      37.716  31.560  29.085  1.00  0.00    -0.205 F 
ATOM     80  C   UNL A   1      36.430  31.539  32.512  1.00  0.00     0.022 A 
BRANCH  78  81
ATOM     81  S   UNL A   1      35.196  32.769  30.406  1.00  0.00     0.127 S 
ATOM     82  O   UNL A   1      34.698  31.862  29.375  1.00  0.00    -0.237 OA
ATOM     83  O   UNL A   1      34.300  32.957  31.547  1.00  0.00    -0.237 OA
ATOM     84  O   UNL A   1      35.818  33.993  29.918  1.00  0.00    -0.744 OA
ENDBRANCH  78  81
ENDBRANCH  50  74
BRANCH  62  85
ATOM     85  C   UNL A   1      44.766  33.710  29.346  1.00  0.00     0.023 A 
ATOM     86  C   UNL A   1      45.469  34.007  30.529  1.00  0.00     0.012 A 
ATOM     87  C   UNL A   1      44.682  34.682  28.327  1.00  0.00     0.148 A 
ATOM     88  C   UNL A   1      46.052  35.261  30.710  1.00  0.00     0.002 A 
ATOM     89  C   UNL A   1      45.314  35.908  28.490  1.00  0.00     0.091 A 
ATOM     90  F   UNL A   1      43.999  34.382  27.213  1.00  0.00    -0.205 F 
ATOM     91  C   UNL A   1      45.987  36.205  29.686  1.00  0.00     0.022 A 
BRANCH  89  92
ATOM     92  S   UNL A   1      45.376  37.139  27.184  1.00  0.00     0.127 S 
ATOM     93  O   UNL A   1      43.956  37.392  26.946  1.00  0.00    -0.237 OA
ATOM     94  O   UNL A   1      46.092  38.239  27.830  1.00  0.00    -0.237 OA
ATOM     95  O   UNL A   1      46.092  36.519  26.077  1.00  0.00    -0.744 OA
ENDBRANCH  89  92
ENDBRANCH  62  85
ENDBRANCH  36  37
ENDBRANCH  29  31
ENDBRANCH  28  29
ENDBRANCH  27  28
ENDBRANCH   1  27
TORSDOF 19
ENDMDL
MODEL 3
REMARK VINA RESULT:     -13.3      1.811      7.761
REMARK SMILES Cc1ccc(NC(=O)C[C@@H](C(=O)OCCOC(=O)c2ccc(-c3c4nc(c(-c5cccc(S(=O)(=O)[O-])c5F)c5ccc([nH]5)c(-c5cccc(S(=O)(=O)[O-])c5F)c5nc(c(-c6cccc(S(=O)(=O)[O-])c6F)c6ccc3[nH]6)C=C5)C=C4)cc2)[C@@H](C)c2ccccc2)cc1Br
REMARK SMILES IDX 14 1 13 2 11 3 12 4 10 5 9 6 7 7 6 8 8 10 5 11 1 12 2 13
REMARK SMILES IDX 3 14 91 15 4 16 90 17 92 18 82 19 83 20 84 21 85 22 89 23
REMARK SMILES IDX 86 24 88 25 87 26 15 27 16 28 17 29 18 30 19 31 20 32 81 33
REMARK SMILES IDX 21 34 80 35 22 36 23 37 24 38 74 39 25 40 79 41 73 42 75 43
REMARK SMILES IDX 26 44 78 45 72 46 71 47 27 49 59 50 39 51 58 52 40 53 43 54
REMARK SMILES IDX 57 55 76 56 41 57 42 58 56 60 77 61 44 62 28 63 29 64 37 65
REMARK SMILES IDX 30 66 32 67 38 68 31 69 33 70 34 71 35 72 36 73 60 74 61 75
REMARK SMILES IDX 69 76 62 77 64 78 70 79 63 80 65 81 66 82 67 83 68 84 45 85
REMARK SMILES IDX 46 86 54 87 47 88 49 89 55 90 48 91 50 92 51 93 52 94 53 95
REMARK H PARENT 6 9 75 48 43 59
REMARK Flexibility Score: inf
ROOT
ATOM      1  C   UNL A   1      36.068  21.413  25.129  1.00  0.00     0.274 C 
ENDROOT
BRANCH   1   2
ATOM      2  O   UNL A   1      34.552  20.908  25.682  1.00  0.00    -0.462 OA
BRANCH   2   3
ATOM      3  C   UNL A   1      33.643  21.603  26.405  1.00  0.00     0.310 C 
ATOM      4  O   UNL A   1      33.557  21.446  27.616  1.00  0.00    -0.252 OA
BRANCH   3   5
ATOM      5  C   UNL A   1      32.668  22.511  25.560  1.00  0.00     0.116 C 
BRANCH   5   6
ATOM      6  C   UNL A   1      31.131  22.304  25.732  1.00  0.00     0.116 C 
BRANCH   6   7
ATOM      7  C   UNL A   1      30.329  23.060  26.751  1.00  0.00     0.225 C 
ATOM      8  N   UNL A   1      30.482  24.399  26.922  1.00  0.00    -0.326 N 
ATOM      9  H   UNL A   1      30.206  24.746  27.801  1.00  0.00     0.169 HD
ATOM     10  O   UNL A   1      29.543  22.463  27.493  1.00  0.00    -0.275 OA
BRANCH   8  11
ATOM     11  C   UNL A   1      30.977  25.360  26.026  1.00  0.00     0.042 A 
ATOM     12  C   UNL A   1      33.088  29.381  23.720  1.00  0.00     0.045 C 
ATOM     13  C   UNL A   1      32.386  28.352  24.561  1.00  0.00    -0.037 A 
ATOM     14  C   UNL A   1      33.339  27.375  25.717  1.00  0.00     0.007 A 
ATOM     15  C   UNL A   1      30.716  27.881  24.129  1.00  0.00     0.022 A 
ATOM     16  C   UNL A   1      32.647  25.892  26.441  1.00  0.00     0.026 A 
ATOM     17  C   UNL A   1      30.002  26.376  24.861  1.00  0.00     0.042 A 
ATOM     18  Br  UNL A   1      29.817  28.957  22.854  1.00  0.00    -0.050 Br
ENDBRANCH   8  11
ENDBRANCH   6   7
ENDBRANCH   5   6
BRANCH   5  19
ATOM     19  C   UNL A   1      32.930  22.551  23.983  1.00  0.00     0.031 C 
ATOM     20  C   UNL A   1      32.163  21.433  23.228  1.00  0.00     0.013 C 
BRANCH  19  21
ATOM     21  C   UNL A   1      32.858  23.885  23.252  1.00  0.00    -0.044 A 
ATOM     22  C   UNL A   1      31.769  24.312  22.483  1.00  0.00     0.004 A 
ATOM     23  C   UNL A   1      34.009  24.681  23.215  1.00  0.00     0.004 A 
ATOM     24  C   UNL A   1      31.846  25.484  21.718  1.00  0.00     0.000 A 
ATOM     25  C   UNL A   1      34.091  25.856  22.472  1.00  0.00     0.000 A 
ATOM     26  C   UNL A   1      33.006  26.255  21.713  1.00  0.00     0.000 A 
ENDBRANCH  19  21
ENDBRANCH   5  19
ENDBRANCH   3   5
ENDBRANCH   2   3
ENDBRANCH   1   2
BRANCH   1  27
ATOM     27  C   UNL A   1      37.905  20.222  25.290  1.00  0.00     0.275 C 
BRANCH  27  28
ATOM     28  O   UNL A   1      39.425  20.765  25.448  1.00  0.00    -0.458 OA
BRANCH  28  29
ATOM     29  C   UNL A   1      40.155  20.652  26.593  1.00  0.00     0.338 C 
ATOM     30  O   UNL A   1      40.713  19.652  27.007  1.00  0.00    -0.246 OA
BRANCH  29  31
ATOM     31  C   UNL A   1      40.524  22.047  26.973  1.00  0.00     0.060 A 
ATOM     32  C   UNL A   1      39.742  23.097  26.458  1.00  0.00     0.016 A 
ATOM     33  C   UNL A   1      41.482  22.308  27.954  1.00  0.00     0.016 A 
ATOM     34  C   UNL A   1      39.873  24.395  26.956  1.00  0.00     0.010 A 
ATOM     35  C   UNL A   1      41.649  23.619  28.420  1.00  0.00     0.010 A 
ATOM     36  C   UNL A   1      40.856  24.671  27.914  1.00  0.00    -0.014 A 
BRANCH  36  37
ATOM     37  C   UNL A   1      41.297  26.075  28.107  1.00  0.00     0.031 A 
ATOM     38  C   UNL A   1      42.647  26.420  27.539  1.00  0.00     0.074 A 
ATOM     39  C   UNL A   1      40.559  27.012  28.730  1.00  0.00     0.049 A 
ATOM     40  N   UNL A   1      43.349  27.513  27.651  1.00  0.00    -0.248 NA
ATOM     41  C   UNL A   1      43.297  25.367  26.737  1.00  0.00     0.031 C 
ATOM     42  C   UNL A   1      39.208  26.828  29.259  1.00  0.00     0.029 A 
ATOM     43  N   UNL A   1      40.863  28.318  29.036  1.00  0.00    -0.354 N 
ATOM     44  C   UNL A   1      44.543  27.255  26.988  1.00  0.00     0.074 A 
ATOM     45  C   UNL A   1      44.475  25.907  26.480  1.00  0.00     0.031 C 
ATOM     46  C   UNL A   1      38.813  27.972  29.852  1.00  0.00     0.029 A 
ATOM     47  C   UNL A   1      39.894  28.954  29.777  1.00  0.00     0.049 A 
ATOM     48  H   UNL A   1      41.697  28.756  28.752  1.00  0.00     0.167 HD
ATOM     49  C   UNL A   1      45.606  28.070  26.813  1.00  0.00     0.034 A 
ATOM     50  C   UNL A   1      39.902  30.177  30.351  1.00  0.00     0.034 A 
ATOM     51  C   UNL A   1      45.661  29.416  27.298  1.00  0.00     0.049 A 
ATOM     52  C   UNL A   1      41.120  31.058  30.178  1.00  0.00     0.074 A 
ATOM     53  C   UNL A   1      46.680  30.339  27.163  1.00  0.00     0.029 A 
ATOM     54  N   UNL A   1      44.653  30.029  28.027  1.00  0.00    -0.354 N 
ATOM     55  N   UNL A   1      42.220  30.827  29.500  1.00  0.00    -0.248 NA
ATOM     56  C   UNL A   1      41.088  32.377  30.829  1.00  0.00     0.031 C 
ATOM     57  C   UNL A   1      46.303  31.500  27.843  1.00  0.00     0.029 A 
ATOM     58  C   UNL A   1      45.029  31.316  28.359  1.00  0.00     0.049 A 
ATOM     59  H   UNL A   1      43.796  29.609  28.270  1.00  0.00     0.167 HD
ATOM     60  C   UNL A   1      42.990  31.982  29.608  1.00  0.00     0.074 A 
ATOM     61  C   UNL A   1      42.223  32.918  30.405  1.00  0.00     0.031 C 
ATOM     62  C   UNL A   1      44.222  32.246  29.105  1.00  0.00     0.034 A 
BRANCH  49  63
ATOM     63  C   UNL A   1      46.796  27.500  26.088  1.00  0.00     0.023 A 
ATOM     64  C   UNL A   1      46.895  27.610  24.685  1.00  0.00     0.012 A 
ATOM     65  C   UNL A   1      47.811  26.841  26.805  1.00  0.00     0.148 A 
ATOM     66  C   UNL A   1      47.962  27.028  24.004  1.00  0.00     0.002 A 
ATOM     67  C   UNL A   1      48.900  26.313  26.125  1.00  0.00     0.091 A 
ATOM     68  F   UNL A   1      47.681  26.720  28.134  1.00  0.00    -0.205 F 
ATOM     69  C   UNL A   1      48.969  26.390  24.724  1.00  0.00     0.022 A 
BRANCH  67  70
ATOM     70  S   UNL A   1      50.284  25.542  26.967  1.00  0.00     0.127 S 
ATOM     71  O   UNL A   1      50.689  26.595  27.897  1.00  0.00    -0.237 OA
ATOM     72  O   UNL A   1      49.650  24.383  27.595  1.00  0.00    -0.237 OA
ATOM     73  O   UNL A   1      51.257  25.218  25.933  1.00  0.00    -0.744 OA
ENDBRANCH  67  70
ENDBRANCH  49  63
BRANCH  50  74
ATOM     74  C   UNL A   1      38.726  30.661  31.139  1.00  0.00     0.023 A 
ATOM     75  C   UNL A   1      38.692  30.465  32.535  1.00  0.00     0.012 A 
ATOM     76  C   UNL A   1      37.634  31.293  30.512  1.00  0.00     0.148 A 
ATOM     77  C   UNL A   1      37.580  30.855  33.285  1.00  0.00     0.002 A 
ATOM     78  C   UNL A   1      36.552  31.729  31.272  1.00  0.00     0.091 A 
ATOM     79  F   UNL A   1      37.670  31.451  29.182  1.00  0.00    -0.205 F 
ATOM     80  C   UNL A   1      36.515  31.494  32.656  1.00  0.00     0.022 A 
BRANCH  78  81
ATOM     81  S   UNL A   1      35.185  32.657  30.570  1.00  0.00     0.127 S 
ATOM     82  O   UNL A   1      34.213  32.633  31.660  1.00  0.00    -0.237 OA
ATOM     83  O   UNL A   1      35.804  33.961  30.325  1.00  0.00    -0.237 OA
ATOM     84  O   UNL A   1      34.795  31.939  29.364  1.00  0.00    -0.744 OA
ENDBRANCH  78  81
ENDBRANCH  50  74
BRANCH  62  85
ATOM     85  C   UNL A   1      44.805  33.616  29.341  1.00  0.00     0.023 A 
ATOM     86  C   UNL A   1      45.546  33.881  30.508  1.00  0.00     0.012 A 
ATOM     87  C   UNL A   1      44.699  34.609  28.345  1.00  0.00     0.148 A 
ATOM     88  C   UNL A   1      46.149  35.125  30.695  1.00  0.00     0.002 A 
ATOM     89  C   UNL A   1      45.350  35.825  28.514  1.00  0.00     0.091 A 
ATOM     90  F   UNL A   1      43.979  34.340  27.248  1.00  0.00    -0.205 F 
ATOM     91  C   UNL A   1      46.062  36.090  29.694  1.00  0.00     0.022 A 
BRANCH  89  92
ATOM     92  S   UNL A   1      45.386  37.082  27.231  1.00  0.00     0.127 S 
ATOM     93  O   UNL A   1      46.107  36.394  26.161  1.00  0.00    -0.237 OA
ATOM     94  O   UNL A   1      43.962  37.295  26.968  1.00  0.00    -0.237 OA
ATOM     95  O   UNL A   1      46.072  38.229  27.808  1.00  0.00    -0.744 OA
ENDBRANCH  89  92
ENDBRANCH  62  85
ENDBRANCH  36  37
ENDBRANCH  29  31
ENDBRANCH  28  29
ENDBRANCH  27  28
ENDBRANCH   1  27
TORSDOF 19
ENDMDL
