MODEL 1
REMARK VINA RESULT:     -12.0      0.000      0.000
REMARK SMILES C[NH2+][C@]1(C(=O)OCCOC(=O)c2ccc(-c3c4nc(c(-c5cccc(S(=O)(=O)[O-])c5F)c5ccc([nH]5)c(-c5cccc(S(=O)(=O)[O-])c5F)c5nc(c(-c6cccc(S(=O)(=O)[O-])c6F)c6ccc3[nH]6)C=C5)C=C4)cc2)CCC[C@H](Oc2ccc(C)cc2)C1
REMARK SMILES IDX 8 1 7 2 6 3 4 4 5 5 3 6 75 7 87 8 76 9 78 10 77 11 2 12 1 13
REMARK SMILES IDX 79 16 80 17 81 18 86 19 82 20 85 21 83 22 84 23 9 24 10 25
REMARK SMILES IDX 11 26 12 27 13 28 74 29 14 30 73 31 15 32 16 33 17 34 67 35
REMARK SMILES IDX 18 36 72 37 66 38 68 39 19 40 71 41 65 42 64 43 20 45 52 46
REMARK SMILES IDX 32 47 51 48 33 49 36 50 50 51 69 52 34 53 35 54 49 56 70 57
REMARK SMILES IDX 37 58 21 59 22 60 30 61 23 62 25 63 31 64 24 65 26 66 27 67
REMARK SMILES IDX 28 68 29 69 53 70 54 71 62 72 55 73 57 74 63 75 56 76 58 77
REMARK SMILES IDX 59 78 60 79 61 80 38 81 39 82 47 83 40 84 42 85 48 86 41 87
REMARK SMILES IDX 43 88 44 89 45 90 46 91
REMARK H PARENT 2 14 2 15 68 44 36 55
REMARK Flexibility Score: inf
ROOT
ATOM      1  C   UNL A   1      31.415  29.532  25.392  1.00  0.00     0.275 C 
ENDROOT
BRANCH   1   2
ATOM      2  C   UNL A   1      31.575  28.165  24.730  1.00  0.00     0.274 C 
BRANCH   2   3
ATOM      3  O   UNL A   1      32.479  27.345  25.503  1.00  0.00    -0.457 OA
BRANCH   3   4
ATOM      4  C   UNL A   1      32.037  26.101  25.849  1.00  0.00     0.368 C 
ATOM      5  O   UNL A   1      31.251  25.880  26.764  1.00  0.00    -0.245 OA
BRANCH   4   6
ATOM      6  C   UNL A   1      32.716  24.987  25.002  1.00  0.00     0.197 C 
ATOM      7  C   UNL A   1      33.634  25.548  23.896  1.00  0.00     0.081 C 
ATOM      8  C   UNL A   1      33.603  24.133  25.960  1.00  0.00     0.126 C 
ATOM      9  C   UNL A   1      34.335  24.434  23.118  1.00  0.00     0.011 C 
ATOM     10  C   UNL A   1      34.312  22.957  25.238  1.00  0.00     0.180 C 
ATOM     11  C   UNL A   1      35.120  23.506  24.045  1.00  0.00     0.046 C 
BRANCH   6  12
ATOM     12  N   UNL A   1      31.688  24.076  24.447  1.00  0.00    -0.334 N 
ATOM     13  C   UNL A   1      30.676  24.603  23.568  1.00  0.00     0.331 C 
ATOM     14  H   UNL A   1      32.183  23.350  23.928  1.00  0.00     0.347 HD
ATOM     15  H   UNL A   1      31.162  23.777  25.268  1.00  0.00     0.347 HD
ENDBRANCH   6  12
BRANCH  10  16
ATOM     16  O   UNL A   1      33.277  22.012  24.939  1.00  0.00    -0.490 OA
BRANCH  16  17
ATOM     17  C   UNL A   1      33.536  20.721  24.621  1.00  0.00     0.119 A 
ATOM     18  C   UNL A   1      34.673  20.016  24.988  1.00  0.00     0.047 A 
ATOM     19  C   UNL A   1      32.511  20.071  23.929  1.00  0.00     0.047 A 
ATOM     20  C   UNL A   1      34.798  18.669  24.628  1.00  0.00     0.007 A 
ATOM     21  C   UNL A   1      32.632  18.730  23.569  1.00  0.00     0.007 A 
ATOM     22  C   UNL A   1      33.778  18.016  23.921  1.00  0.00    -0.051 A 
ATOM     23  C   UNL A   1      33.927  16.577  23.525  1.00  0.00     0.044 C 
ENDBRANCH  16  17
ENDBRANCH  10  16
ENDBRANCH   4   6
ENDBRANCH   3   4
ENDBRANCH   2   3
ENDBRANCH   1   2
BRANCH   1  24
ATOM     24  O   UNL A   1      32.719  30.097  25.594  1.00  0.00    -0.458 OA
BRANCH  24  25
ATOM     25  C   UNL A   1      32.876  30.889  26.680  1.00  0.00     0.338 C 
ATOM     26  O   UNL A   1      32.039  31.651  27.147  1.00  0.00    -0.246 OA
BRANCH  25  27
ATOM     27  C   UNL A   1      34.220  30.673  27.267  1.00  0.00     0.060 A 
ATOM     28  C   UNL A   1      34.678  29.384  27.530  1.00  0.00     0.016 A 
ATOM     29  C   UNL A   1      35.008  31.761  27.647  1.00  0.00     0.016 A 
ATOM     30  C   UNL A   1      35.851  29.187  28.263  1.00  0.00     0.010 A 
ATOM     31  C   UNL A   1      36.243  31.550  28.283  1.00  0.00     0.010 A 
ATOM     32  C   UNL A   1      36.667  30.258  28.645  1.00  0.00    -0.014 A 
BRANCH  32  33
ATOM     33  C   UNL A   1      37.910  30.035  29.457  1.00  0.00     0.031 A 
ATOM     34  C   UNL A   1      39.051  29.216  28.894  1.00  0.00     0.074 A 
ATOM     35  C   UNL A   1      38.057  30.561  30.694  1.00  0.00     0.049 A 
ATOM     36  N   UNL A   1      40.074  28.685  29.515  1.00  0.00    -0.248 NA
ATOM     37  C   UNL A   1      39.025  28.937  27.449  1.00  0.00     0.031 C 
ATOM     38  C   UNL A   1      37.084  31.406  31.384  1.00  0.00     0.029 A 
ATOM     39  N   UNL A   1      39.095  30.461  31.595  1.00  0.00    -0.354 N 
ATOM     40  C   UNL A   1      40.739  27.914  28.567  1.00  0.00     0.074 A 
ATOM     41  C   UNL A   1      40.026  28.079  27.318  1.00  0.00     0.031 C 
ATOM     42  C   UNL A   1      37.588  31.798  32.562  1.00  0.00     0.029 A 
ATOM     43  C   UNL A   1      38.868  31.134  32.776  1.00  0.00     0.049 A 
ATOM     44  H   UNL A   1      39.920  29.957  31.413  1.00  0.00     0.167 HD
ATOM     45  C   UNL A   1      41.842  27.142  28.720  1.00  0.00     0.034 A 
ATOM     46  C   UNL A   1      39.570  31.175  33.927  1.00  0.00     0.034 A 
ATOM     47  C   UNL A   1      42.631  27.081  29.922  1.00  0.00     0.049 A 
ATOM     48  C   UNL A   1      40.822  30.355  34.059  1.00  0.00     0.074 A 
ATOM     49  C   UNL A   1      43.778  26.343  30.162  1.00  0.00     0.029 A 
ATOM     50  N   UNL A   1      42.384  27.815  31.071  1.00  0.00    -0.354 N 
ATOM     51  N   UNL A   1      41.410  29.598  33.165  1.00  0.00    -0.248 NA
ATOM     52  C   UNL A   1      41.503  30.385  35.363  1.00  0.00     0.031 C 
ATOM     53  C   UNL A   1      44.231  26.639  31.452  1.00  0.00     0.029 A 
ATOM     54  C   UNL A   1      43.365  27.563  32.015  1.00  0.00     0.049 A 
ATOM     55  H   UNL A   1      41.622  28.426  31.197  1.00  0.00     0.167 HD
ATOM     56  C   UNL A   1      42.525  29.061  33.797  1.00  0.00     0.074 A 
ATOM     57  C   UNL A   1      42.558  29.612  35.135  1.00  0.00     0.031 C 
ATOM     58  C   UNL A   1      43.420  28.160  33.323  1.00  0.00     0.034 A 
BRANCH  45  59
ATOM     59  C   UNL A   1      42.284  26.306  27.548  1.00  0.00     0.023 A 
ATOM     60  C   UNL A   1      43.142  26.853  26.575  1.00  0.00     0.012 A 
ATOM     61  C   UNL A   1      41.905  24.952  27.452  1.00  0.00     0.148 A 
ATOM     62  C   UNL A   1      43.593  26.074  25.510  1.00  0.00     0.002 A 
ATOM     63  C   UNL A   1      42.390  24.170  26.411  1.00  0.00     0.091 A 
ATOM     64  F   UNL A   1      41.068  24.454  28.375  1.00  0.00    -0.205 F 
ATOM     65  C   UNL A   1      43.228  24.731  25.435  1.00  0.00     0.022 A 
BRANCH  63  66
ATOM     66  S   UNL A   1      42.035  22.413  26.284  1.00  0.00     0.127 S 
ATOM     67  O   UNL A   1      40.579  22.413  26.154  1.00  0.00    -0.237 OA
ATOM     68  O   UNL A   1      42.754  22.035  25.066  1.00  0.00    -0.237 OA
ATOM     69  O   UNL A   1      42.561  21.814  27.503  1.00  0.00    -0.744 OA
ENDBRANCH  63  66
ENDBRANCH  45  59
BRANCH  46  70
ATOM     70  C   UNL A   1      39.086  32.023  35.057  1.00  0.00     0.023 A 
ATOM     71  C   UNL A   1      38.172  31.488  35.985  1.00  0.00     0.012 A 
ATOM     72  C   UNL A   1      39.575  33.330  35.255  1.00  0.00     0.148 A 
ATOM     73  C   UNL A   1      37.753  32.238  37.085  1.00  0.00     0.002 A 
ATOM     74  C   UNL A   1      39.212  34.042  36.391  1.00  0.00     0.091 A 
ATOM     75  F   UNL A   1      40.409  33.845  34.341  1.00  0.00    -0.205 F 
ATOM     76  C   UNL A   1      38.289  33.506  37.300  1.00  0.00     0.022 A 
BRANCH  74  77
ATOM     77  S   UNL A   1      40.014  35.594  36.817  1.00  0.00     0.127 S 
ATOM     78  O   UNL A   1      41.420  35.204  36.862  1.00  0.00    -0.237 OA
ATOM     79  O   UNL A   1      39.649  36.454  35.691  1.00  0.00    -0.237 OA
ATOM     80  O   UNL A   1      39.414  35.992  38.085  1.00  0.00    -0.744 OA
ENDBRANCH  74  77
ENDBRANCH  46  70
BRANCH  58  81
ATOM     81  C   UNL A   1      44.517  27.718  34.252  1.00  0.00     0.023 A 
ATOM     82  C   UNL A   1      45.676  28.509  34.376  1.00  0.00     0.012 A 
ATOM     83  C   UNL A   1      44.379  26.562  35.044  1.00  0.00     0.148 A 
ATOM     84  C   UNL A   1      46.693  28.144  35.256  1.00  0.00     0.002 A 
ATOM     85  C   UNL A   1      45.382  26.222  35.946  1.00  0.00     0.091 A 
ATOM     86  F   UNL A   1      43.279  25.810  34.895  1.00  0.00    -0.205 F 
ATOM     87  C   UNL A   1      46.543  27.007  36.048  1.00  0.00     0.022 A 
BRANCH  85  88
ATOM     88  S   UNL A   1      45.233  24.816  37.055  1.00  0.00     0.127 S 
ATOM     89  O   UNL A   1      46.495  24.878  37.788  1.00  0.00    -0.237 OA
ATOM     90  O   UNL A   1      44.050  25.162  37.846  1.00  0.00    -0.237 OA
ATOM     91  O   UNL A   1      45.059  23.653  36.195  1.00  0.00    -0.744 OA
ENDBRANCH  85  88
ENDBRANCH  58  81
ENDBRANCH  32  33
ENDBRANCH  25  27
ENDBRANCH  24  25
ENDBRANCH   1  24
TORSDOF 17
ENDMDL
MODEL 2
REMARK VINA RESULT:     -11.9      4.825     10.119
REMARK SMILES C[NH2+][C@]1(C(=O)OCCOC(=O)c2ccc(-c3c4nc(c(-c5cccc(S(=O)(=O)[O-])c5F)c5ccc([nH]5)c(-c5cccc(S(=O)(=O)[O-])c5F)c5nc(c(-c6cccc(S(=O)(=O)[O-])c6F)c6ccc3[nH]6)C=C5)C=C4)cc2)CCC[C@H](Oc2ccc(C)cc2)C1
REMARK SMILES IDX 8 1 7 2 6 3 4 4 5 5 3 6 75 7 87 8 76 9 78 10 77 11 2 12 1 13
REMARK SMILES IDX 79 16 80 17 81 18 86 19 82 20 85 21 83 22 84 23 9 24 10 25
REMARK SMILES IDX 11 26 12 27 13 28 74 29 14 30 73 31 15 32 16 33 17 34 67 35
REMARK SMILES IDX 18 36 72 37 66 38 68 39 19 40 71 41 65 42 64 43 20 45 52 46
REMARK SMILES IDX 32 47 51 48 33 49 36 50 50 51 69 52 34 53 35 54 49 56 70 57
REMARK SMILES IDX 37 58 21 59 22 60 30 61 23 62 25 63 31 64 24 65 26 66 27 67
REMARK SMILES IDX 28 68 29 69 53 70 54 71 62 72 55 73 57 74 63 75 56 76 58 77
REMARK SMILES IDX 59 78 60 79 61 80 38 81 39 82 47 83 40 84 42 85 48 86 41 87
REMARK SMILES IDX 43 88 44 89 45 90 46 91
REMARK H PARENT 2 14 2 15 68 44 36 55
REMARK Flexibility Score: inf
ROOT
ATOM      1  C   UNL A   1      36.061  20.324  24.995  1.00  0.00     0.275 C 
ENDROOT
BRANCH   1   2
ATOM      2  C   UNL A   1      34.612  20.804  24.934  1.00  0.00     0.274 C 
BRANCH   2   3
ATOM      3  O   UNL A   1      34.552  22.115  24.329  1.00  0.00    -0.457 OA
BRANCH   3   4
ATOM      4  C   UNL A   1      33.335  22.518  23.858  1.00  0.00     0.368 C 
ATOM      5  O   UNL A   1      32.600  21.822  23.166  1.00  0.00    -0.245 OA
BRANCH   4   6
ATOM      6  C   UNL A   1      33.029  23.996  24.231  1.00  0.00     0.197 C 
ATOM      7  C   UNL A   1      34.055  24.592  25.218  1.00  0.00     0.081 C 
ATOM      8  C   UNL A   1      33.092  24.842  22.921  1.00  0.00     0.126 C 
ATOM      9  C   UNL A   1      33.766  26.062  25.522  1.00  0.00     0.011 C 
ATOM     10  C   UNL A   1      32.766  26.341  23.155  1.00  0.00     0.180 C 
ATOM     11  C   UNL A   1      33.704  26.901  24.244  1.00  0.00     0.046 C 
BRANCH   6  12
ATOM     12  N   UNL A   1      31.645  24.112  24.748  1.00  0.00    -0.334 N 
ATOM     13  C   UNL A   1      31.271  23.391  25.938  1.00  0.00     0.331 C 
ATOM     14  H   UNL A   1      31.480  25.101  24.936  1.00  0.00     0.347 HD
ATOM     15  H   UNL A   1      31.078  23.681  24.017  1.00  0.00     0.347 HD
ENDBRANCH   6  12
BRANCH  10  16
ATOM     16  O   UNL A   1      31.360  26.390  23.423  1.00  0.00    -0.490 OA
BRANCH  16  17
ATOM     17  C   UNL A   1      30.594  27.462  23.110  1.00  0.00     0.119 A 
ATOM     18  C   UNL A   1      31.024  28.580  22.409  1.00  0.00     0.047 A 
ATOM     19  C   UNL A   1      29.252  27.353  23.484  1.00  0.00     0.047 A 
ATOM     20  C   UNL A   1      30.116  29.604  22.115  1.00  0.00     0.007 A 
ATOM     21  C   UNL A   1      28.345  28.370  23.192  1.00  0.00     0.007 A 
ATOM     22  C   UNL A   1      28.771  29.505  22.500  1.00  0.00    -0.051 A 
ATOM     23  C   UNL A   1      27.808  30.614  22.195  1.00  0.00     0.044 C 
ENDBRANCH  16  17
ENDBRANCH  10  16
ENDBRANCH   4   6
ENDBRANCH   3   4
ENDBRANCH   2   3
ENDBRANCH   1   2
BRANCH   1  24
ATOM     24  O   UNL A   1      36.861  21.358  25.587  1.00  0.00    -0.458 OA
BRANCH  24  25
ATOM     25  C   UNL A   1      38.192  21.126  25.665  1.00  0.00     0.338 C 
ATOM     26  O   UNL A   1      38.779  20.131  25.260  1.00  0.00    -0.246 OA
BRANCH  25  27
ATOM     27  C   UNL A   1      38.867  22.292  26.286  1.00  0.00     0.060 A 
ATOM     28  C   UNL A   1      38.397  23.583  26.061  1.00  0.00     0.016 A 
ATOM     29  C   UNL A   1      40.034  22.117  27.030  1.00  0.00     0.016 A 
ATOM     30  C   UNL A   1      39.144  24.689  26.476  1.00  0.00     0.010 A 
ATOM     31  C   UNL A   1      40.719  23.233  27.543  1.00  0.00     0.010 A 
ATOM     32  C   UNL A   1      40.310  24.543  27.236  1.00  0.00    -0.014 A 
BRANCH  32  33
ATOM     33  C   UNL A   1      41.119  25.739  27.651  1.00  0.00     0.031 A 
ATOM     34  C   UNL A   1      40.514  26.792  28.553  1.00  0.00     0.074 A 
ATOM     35  C   UNL A   1      42.400  25.906  27.253  1.00  0.00     0.049 A 
ATOM     36  N   UNL A   1      40.932  28.007  28.804  1.00  0.00    -0.248 NA
ATOM     37  C   UNL A   1      39.262  26.442  29.244  1.00  0.00     0.031 C 
ATOM     38  C   UNL A   1      43.162  24.980  26.416  1.00  0.00     0.029 A 
ATOM     39  N   UNL A   1      43.294  26.925  27.504  1.00  0.00    -0.354 N 
ATOM     40  C   UNL A   1      39.939  28.602  29.575  1.00  0.00     0.074 A 
ATOM     41  C   UNL A   1      38.915  27.601  29.785  1.00  0.00     0.031 C 
ATOM     42  C   UNL A   1      44.415  25.433  26.275  1.00  0.00     0.029 A 
ATOM     43  C   UNL A   1      44.521  26.744  26.903  1.00  0.00     0.049 A 
ATOM     44  H   UNL A   1      43.077  27.706  28.061  1.00  0.00     0.167 HD
ATOM     45  C   UNL A   1      39.885  29.864  30.065  1.00  0.00     0.034 A 
ATOM     46  C   UNL A   1      45.594  27.556  26.808  1.00  0.00     0.034 A 
ATOM     47  C   UNL A   1      40.958  30.818  29.974  1.00  0.00     0.049 A 
ATOM     48  C   UNL A   1      45.536  28.932  27.408  1.00  0.00     0.074 A 
ATOM     49  C   UNL A   1      41.000  32.114  30.462  1.00  0.00     0.029 A 
ATOM     50  N   UNL A   1      42.192  30.572  29.396  1.00  0.00    -0.354 N 
ATOM     51  N   UNL A   1      44.570  29.491  28.095  1.00  0.00    -0.248 NA
ATOM     52  C   UNL A   1      46.710  29.795  27.208  1.00  0.00     0.031 C 
ATOM     53  C   UNL A   1      42.265  32.646  30.187  1.00  0.00     0.029 A 
ATOM     54  C   UNL A   1      43.010  31.681  29.530  1.00  0.00     0.049 A 
ATOM     55  H   UNL A   1      42.450  29.729  28.955  1.00  0.00     0.167 HD
ATOM     56  C   UNL A   1      45.018  30.770  28.407  1.00  0.00     0.074 A 
ATOM     57  C   UNL A   1      46.359  30.888  27.874  1.00  0.00     0.031 C 
ATOM     58  C   UNL A   1      44.361  31.769  29.045  1.00  0.00     0.034 A 
BRANCH  45  59
ATOM     59  C   UNL A   1      38.624  30.292  30.770  1.00  0.00     0.023 A 
ATOM     60  C   UNL A   1      38.473  30.056  32.150  1.00  0.00     0.012 A 
ATOM     61  C   UNL A   1      37.619  30.993  30.075  1.00  0.00     0.148 A 
ATOM     62  C   UNL A   1      37.329  30.487  32.822  1.00  0.00     0.002 A 
ATOM     63  C   UNL A   1      36.501  31.456  30.757  1.00  0.00     0.091 A 
ATOM     64  F   UNL A   1      37.769  31.188  28.756  1.00  0.00    -0.205 F 
ATOM     65  C   UNL A   1      36.350  31.197  32.129  1.00  0.00     0.022 A 
BRANCH  63  66
ATOM     66  S   UNL A   1      35.231  32.448  29.960  1.00  0.00     0.127 S 
ATOM     67  O   UNL A   1      34.305  32.688  31.065  1.00  0.00    -0.237 OA
ATOM     68  O   UNL A   1      35.981  33.628  29.526  1.00  0.00    -0.237 OA
ATOM     69  O   UNL A   1      34.717  31.629  28.871  1.00  0.00    -0.744 OA
ENDBRANCH  63  66
ENDBRANCH  45  59
BRANCH  46  70
ATOM     70  C   UNL A   1      46.819  27.079  26.100  1.00  0.00     0.023 A 
ATOM     71  C   UNL A   1      46.979  27.355  24.728  1.00  0.00     0.012 A 
ATOM     72  C   UNL A   1      47.853  26.415  26.788  1.00  0.00     0.148 A 
ATOM     73  C   UNL A   1      48.143  26.976  24.056  1.00  0.00     0.002 A 
ATOM     74  C   UNL A   1      49.039  26.109  26.131  1.00  0.00     0.091 A 
ATOM     75  F   UNL A   1      47.672  26.118  28.082  1.00  0.00    -0.205 F 
ATOM     76  C   UNL A   1      49.182  26.373  24.763  1.00  0.00     0.022 A 
BRANCH  74  77
ATOM     77  S   UNL A   1      50.476  25.509  27.030  1.00  0.00     0.127 S 
ATOM     78  O   UNL A   1      49.950  24.309  27.674  1.00  0.00    -0.237 OA
ATOM     79  O   UNL A   1      51.437  25.260  25.954  1.00  0.00    -0.237 OA
ATOM     80  O   UNL A   1      50.851  26.604  27.916  1.00  0.00    -0.744 OA
ENDBRANCH  74  77
ENDBRANCH  46  70
BRANCH  58  81
ATOM     81  C   UNL A   1      45.083  33.078  29.211  1.00  0.00     0.023 A 
ATOM     82  C   UNL A   1      45.842  33.304  30.376  1.00  0.00     0.012 A 
ATOM     83  C   UNL A   1      45.064  34.054  28.196  1.00  0.00     0.148 A 
ATOM     84  C   UNL A   1      46.552  34.492  30.541  1.00  0.00     0.002 A 
ATOM     85  C   UNL A   1      45.803  35.222  28.352  1.00  0.00     0.091 A 
ATOM     86  F   UNL A   1      44.317  33.830  27.106  1.00  0.00    -0.205 F 
ATOM     87  C   UNL A   1      46.540  35.446  29.526  1.00  0.00     0.022 A 
BRANCH  85  88
ATOM     88  S   UNL A   1      45.901  36.469  27.061  1.00  0.00     0.127 S 
ATOM     89  O   UNL A   1      44.555  37.035  27.089  1.00  0.00    -0.237 OA
ATOM     90  O   UNL A   1      46.949  37.359  27.562  1.00  0.00    -0.237 OA
ATOM     91  O   UNL A   1      46.258  35.749  25.845  1.00  0.00    -0.744 OA
ENDBRANCH  85  88
ENDBRANCH  58  81
ENDBRANCH  32  33
ENDBRANCH  25  27
ENDBRANCH  24  25
ENDBRANCH   1  24
TORSDOF 17
ENDMDL
MODEL 3
REMARK VINA RESULT:     -11.9      4.713     10.115
REMARK SMILES C[NH2+][C@]1(C(=O)OCCOC(=O)c2ccc(-c3c4nc(c(-c5cccc(S(=O)(=O)[O-])c5F)c5ccc([nH]5)c(-c5cccc(S(=O)(=O)[O-])c5F)c5nc(c(-c6cccc(S(=O)(=O)[O-])c6F)c6ccc3[nH]6)C=C5)C=C4)cc2)CCC[C@H](Oc2ccc(C)cc2)C1
REMARK SMILES IDX 8 1 7 2 6 3 4 4 5 5 3 6 75 7 87 8 76 9 78 10 77 11 2 12 1 13
REMARK SMILES IDX 79 16 80 17 81 18 86 19 82 20 85 21 83 22 84 23 9 24 10 25
REMARK SMILES IDX 11 26 12 27 13 28 74 29 14 30 73 31 15 32 16 33 17 34 67 35
REMARK SMILES IDX 18 36 72 37 66 38 68 39 19 40 71 41 65 42 64 43 20 45 52 46
REMARK SMILES IDX 32 47 51 48 33 49 36 50 50 51 69 52 34 53 35 54 49 56 70 57
REMARK SMILES IDX 37 58 21 59 22 60 30 61 23 62 25 63 31 64 24 65 26 66 27 67
REMARK SMILES IDX 28 68 29 69 53 70 54 71 62 72 55 73 57 74 63 75 56 76 58 77
REMARK SMILES IDX 59 78 60 79 61 80 38 81 39 82 47 83 40 84 42 85 48 86 41 87
REMARK SMILES IDX 43 88 44 89 45 90 46 91
REMARK H PARENT 2 14 2 15 68 44 36 55
REMARK Flexibility Score: inf
ROOT
ATOM      1  C   UNL A   1      35.725  20.777  24.969  1.00  0.00     0.275 C 
ENDROOT
BRANCH   1   2
ATOM      2  C   UNL A   1      35.035  21.853  24.133  1.00  0.00     0.274 C 
BRANCH   2   3
ATOM      3  O   UNL A   1      33.764  22.199  24.727  1.00  0.00    -0.457 OA
BRANCH   3   4
ATOM      4  C   UNL A   1      32.736  22.461  23.868  1.00  0.00     0.368 C 
ATOM      5  O   UNL A   1      32.401  21.720  22.949  1.00  0.00    -0.245 OA
BRANCH   4   6
ATOM      6  C   UNL A   1      32.093  23.850  24.138  1.00  0.00     0.197 C 
ATOM      7  C   UNL A   1      30.685  23.991  23.521  1.00  0.00     0.081 C 
ATOM      8  C   UNL A   1      31.947  24.017  25.682  1.00  0.00     0.126 C 
ATOM      9  C   UNL A   1      30.051  25.343  23.852  1.00  0.00     0.011 C 
ATOM     10  C   UNL A   1      31.346  25.389  26.087  1.00  0.00     0.180 C 
ATOM     11  C   UNL A   1      30.001  25.589  25.360  1.00  0.00     0.046 C 
BRANCH   6  12
ATOM     12  N   UNL A   1      32.999  24.927  23.676  1.00  0.00    -0.334 N 
ATOM     13  C   UNL A   1      33.268  25.071  22.268  1.00  0.00     0.331 C 
ATOM     14  H   UNL A   1      32.599  25.810  23.993  1.00  0.00     0.347 HD
ATOM     15  H   UNL A   1      33.904  24.665  24.068  1.00  0.00     0.347 HD
ENDBRANCH   6  12
BRANCH  10  16
ATOM     16  O   UNL A   1      32.374  26.350  25.823  1.00  0.00    -0.490 OA
BRANCH  16  17
ATOM     17  C   UNL A   1      32.159  27.686  25.883  1.00  0.00     0.119 A 
ATOM     18  C   UNL A   1      31.812  28.492  24.808  1.00  0.00     0.047 A 
ATOM     19  C   UNL A   1      32.235  28.235  27.165  1.00  0.00     0.047 A 
ATOM     20  C   UNL A   1      31.576  29.857  25.015  1.00  0.00     0.007 A 
ATOM     21  C   UNL A   1      32.001  29.594  27.375  1.00  0.00     0.007 A 
ATOM     22  C   UNL A   1      31.665  30.416  26.298  1.00  0.00    -0.051 A 
ATOM     23  C   UNL A   1      31.427  31.882  26.508  1.00  0.00     0.044 C 
ENDBRANCH  16  17
ENDBRANCH  10  16
ENDBRANCH   4   6
ENDBRANCH   3   4
ENDBRANCH   2   3
ENDBRANCH   1   2
BRANCH   1  24
ATOM     24  O   UNL A   1      36.598  21.419  25.910  1.00  0.00    -0.458 OA
BRANCH  24  25
ATOM     25  C   UNL A   1      37.927  21.306  25.680  1.00  0.00     0.338 C 
ATOM     26  O   UNL A   1      38.477  20.427  25.031  1.00  0.00    -0.246 OA
BRANCH  25  27
ATOM     27  C   UNL A   1      38.641  22.447  26.303  1.00  0.00     0.060 A 
ATOM     28  C   UNL A   1      38.152  23.744  26.170  1.00  0.00     0.016 A 
ATOM     29  C   UNL A   1      39.858  22.246  26.955  1.00  0.00     0.016 A 
ATOM     30  C   UNL A   1      38.923  24.835  26.581  1.00  0.00     0.010 A 
ATOM     31  C   UNL A   1      40.574  23.342  27.467  1.00  0.00     0.010 A 
ATOM     32  C   UNL A   1      40.141  24.663  27.248  1.00  0.00    -0.014 A 
BRANCH  32  33
ATOM     33  C   UNL A   1      40.974  25.843  27.659  1.00  0.00     0.031 A 
ATOM     34  C   UNL A   1      40.395  26.904  28.569  1.00  0.00     0.074 A 
ATOM     35  C   UNL A   1      42.253  25.990  27.248  1.00  0.00     0.049 A 
ATOM     36  N   UNL A   1      40.836  28.111  28.818  1.00  0.00    -0.248 NA
ATOM     37  C   UNL A   1      39.144  26.574  29.271  1.00  0.00     0.031 C 
ATOM     38  C   UNL A   1      42.991  25.054  26.401  1.00  0.00     0.029 A 
ATOM     39  N   UNL A   1      43.167  26.993  27.493  1.00  0.00    -0.354 N 
ATOM     40  C   UNL A   1      39.861  28.721  29.601  1.00  0.00     0.074 A 
ATOM     41  C   UNL A   1      38.823  27.737  29.819  1.00  0.00     0.031 C 
ATOM     42  C   UNL A   1      44.251  25.486  26.249  1.00  0.00     0.029 A 
ATOM     43  C   UNL A   1      44.384  26.794  26.879  1.00  0.00     0.049 A 
ATOM     44  H   UNL A   1      42.969  27.776  28.054  1.00  0.00     0.167 HD
ATOM     45  C   UNL A   1      39.833  29.983  30.095  1.00  0.00     0.034 A 
ATOM     46  C   UNL A   1      45.470  27.587  26.776  1.00  0.00     0.034 A 
ATOM     47  C   UNL A   1      40.921  30.919  29.996  1.00  0.00     0.049 A 
ATOM     48  C   UNL A   1      45.441  28.963  27.379  1.00  0.00     0.074 A 
ATOM     49  C   UNL A   1      40.990  32.213  30.486  1.00  0.00     0.029 A 
ATOM     50  N   UNL A   1      42.145  30.653  29.404  1.00  0.00    -0.354 N 
ATOM     51  N   UNL A   1      44.492  29.536  28.077  1.00  0.00    -0.248 NA
ATOM     52  C   UNL A   1      46.628  29.807  27.170  1.00  0.00     0.031 C 
ATOM     53  C   UNL A   1      42.260  32.724  30.200  1.00  0.00     0.029 A 
ATOM     54  C   UNL A   1      42.982  31.748  29.533  1.00  0.00     0.049 A 
ATOM     55  H   UNL A   1      42.384  29.808  28.959  1.00  0.00     0.167 HD
ATOM     56  C   UNL A   1      44.964  30.806  28.388  1.00  0.00     0.074 A 
ATOM     57  C   UNL A   1      46.301  30.904  27.842  1.00  0.00     0.031 C 
ATOM     58  C   UNL A   1      44.331  31.815  29.035  1.00  0.00     0.034 A 
BRANCH  45  59
ATOM     59  C   UNL A   1      38.587  30.429  30.813  1.00  0.00     0.023 A 
ATOM     60  C   UNL A   1      38.469  30.243  32.204  1.00  0.00     0.012 A 
ATOM     61  C   UNL A   1      37.561  31.100  30.116  1.00  0.00     0.148 A 
ATOM     62  C   UNL A   1      37.339  30.694  32.886  1.00  0.00     0.002 A 
ATOM     63  C   UNL A   1      36.457  31.582  30.808  1.00  0.00     0.091 A 
ATOM     64  F   UNL A   1      37.679  31.247  28.789  1.00  0.00    -0.205 F 
ATOM     65  C   UNL A   1      36.339  31.373  32.191  1.00  0.00     0.022 A 
BRANCH  63  66
ATOM     66  S   UNL A   1      35.163  32.537  30.005  1.00  0.00     0.127 S 
ATOM     67  O   UNL A   1      34.247  32.789  31.116  1.00  0.00    -0.237 OA
ATOM     68  O   UNL A   1      35.890  33.718  29.536  1.00  0.00    -0.237 OA
ATOM     69  O   UNL A   1      34.648  31.687  28.941  1.00  0.00    -0.744 OA
ENDBRANCH  63  66
ENDBRANCH  45  59
BRANCH  46  70
ATOM     70  C   UNL A   1      46.680  27.093  26.054  1.00  0.00     0.023 A 
ATOM     71  C   UNL A   1      46.818  27.345  24.676  1.00  0.00     0.012 A 
ATOM     72  C   UNL A   1      47.722  26.433  26.735  1.00  0.00     0.148 A 
ATOM     73  C   UNL A   1      47.968  26.949  23.990  1.00  0.00     0.002 A 
ATOM     74  C   UNL A   1      48.895  26.109  26.063  1.00  0.00     0.091 A 
ATOM     75  F   UNL A   1      47.561  26.157  28.036  1.00  0.00    -0.205 F 
ATOM     76  C   UNL A   1      49.015  26.351  24.688  1.00  0.00     0.022 A 
BRANCH  74  77
ATOM     77  S   UNL A   1      50.343  25.514  26.946  1.00  0.00     0.127 S 
ATOM     78  O   UNL A   1      51.299  25.317  25.860  1.00  0.00    -0.237 OA
ATOM     79  O   UNL A   1      50.647  26.634  27.839  1.00  0.00    -0.237 OA
ATOM     80  O   UNL A   1      49.896  24.311  27.638  1.00  0.00    -0.744 OA
ENDBRANCH  74  77
ENDBRANCH  46  70
BRANCH  58  81
ATOM     81  C   UNL A   1      45.076  33.111  29.197  1.00  0.00     0.023 A 
ATOM     82  C   UNL A   1      45.891  33.301  30.330  1.00  0.00     0.012 A 
ATOM     83  C   UNL A   1      45.022  34.111  28.207  1.00  0.00     0.148 A 
ATOM     84  C   UNL A   1      46.623  34.476  30.488  1.00  0.00     0.002 A 
ATOM     85  C   UNL A   1      45.781  35.267  28.354  1.00  0.00     0.091 A 
ATOM     86  F   UNL A   1      44.222  33.922  27.148  1.00  0.00    -0.205 F 
ATOM     87  C   UNL A   1      46.576  35.455  29.497  1.00  0.00     0.022 A 
BRANCH  85  88
ATOM     88  S   UNL A   1      45.835  36.542  27.089  1.00  0.00     0.127 S 
ATOM     89  O   UNL A   1      46.324  35.795  25.933  1.00  0.00    -0.237 OA
ATOM     90  O   UNL A   1      44.434  36.957  27.000  1.00  0.00    -0.237 OA
ATOM     91  O   UNL A   1      46.732  37.569  27.603  1.00  0.00    -0.744 OA
ENDBRANCH  85  88
ENDBRANCH  58  81
ENDBRANCH  32  33
ENDBRANCH  25  27
ENDBRANCH  24  25
ENDBRANCH   1  24
TORSDOF 17
ENDMDL
