MODEL 1
REMARK VINA RESULT:      -9.6      0.000      0.000
REMARK SMILES C/C(=N\Nc1nc(-c2ccc(Cl)cc2)cs1)c1nnn(-c2ccc(C(=O)OCCOC(=O)c3ccc(-c4c5nc(c(-c6cccc(S(=O)(=O)[O-])c6F)c6ccc([nH]6)c(-c6cccc(S(=O)(=O)[O-])c6F)c6nc(c(-c7cccc(S(=O)(=O)[O-])c7F)c7ccc4[nH]7)C=C6)C=C5)cc3)cc2)c1C
REMARK SMILES IDX 28 1 27 2 25 3 26 4 24 5 21 6 22 7 97 8 23 9 96 10 20 11
REMARK SMILES IDX 17 12 18 13 98 14 19 15 99 16 2 17 1 18 3 19 4 20 5 22 6 23
REMARK SMILES IDX 16 24 7 25 15 26 8 27 9 28 14 29 10 30 13 31 11 32 12 33
REMARK SMILES IDX 29 34 30 35 31 36 32 37 33 38 34 39 95 40 35 41 94 42 36 43
REMARK SMILES IDX 37 44 38 45 88 46 39 47 93 48 87 49 89 50 40 51 92 52 86 53
REMARK SMILES IDX 85 54 41 56 73 57 53 58 72 59 54 60 57 61 71 62 90 63 55 64
REMARK SMILES IDX 56 65 70 67 91 68 58 69 42 70 43 71 51 72 44 73 46 74 52 75
REMARK SMILES IDX 45 76 47 77 48 78 49 79 50 80 74 81 75 82 83 83 76 84 78 85
REMARK SMILES IDX 84 86 77 87 79 88 80 89 81 90 82 91 59 92 60 93 68 94 61 95
REMARK SMILES IDX 63 96 69 97 62 98 64 99 65 100 66 101 67 102
REMARK H PARENT 4 21 89 55 57 66
REMARK Flexibility Score: inf
ROOT
ATOM      1  C   UNL A   1      34.384  34.369  29.336  1.00  0.00     0.275 C 
ENDROOT
BRANCH   1   2
ATOM      2  O   UNL A   1      34.028  33.515  30.437  1.00  0.00    -0.458 OA
BRANCH   2   3
ATOM      3  C   UNL A   1      34.114  34.058  31.679  1.00  0.00     0.338 C 
ATOM      4  O   UNL A   1      33.271  34.756  32.227  1.00  0.00    -0.246 OA
BRANCH   3   5
ATOM      5  C   UNL A   1      35.380  33.640  32.332  1.00  0.00     0.060 A 
ATOM      6  C   UNL A   1      37.558  32.810  33.838  1.00  0.00     0.067 A 
ATOM      7  C   UNL A   1      36.799  31.847  33.167  1.00  0.00     0.029 A 
ATOM      8  C   UNL A   1      37.338  34.175  33.626  1.00  0.00     0.029 A 
ATOM      9  C   UNL A   1      35.692  32.271  32.425  1.00  0.00     0.018 A 
ATOM     10  C   UNL A   1      36.249  34.589  32.875  1.00  0.00     0.018 A 
BRANCH   6  11
ATOM     11  N   UNL A   1      38.370  32.423  34.925  1.00  0.00    -0.217 N 
ATOM     12  C   UNL A   1      39.966  32.408  36.410  1.00  0.00     0.132 A 
ATOM     13  N   UNL A   1      38.891  31.733  36.917  1.00  0.00    -0.128 NA
ATOM     14  C   UNL A   1      39.669  32.860  35.135  1.00  0.00     0.071 A 
ATOM     15  N   UNL A   1      37.896  31.830  36.041  1.00  0.00    -0.061 NA
ATOM     16  C   UNL A   1      40.407  33.801  34.248  1.00  0.00     0.069 C 
BRANCH  12  17
ATOM     17  C   UNL A   1      41.142  32.793  37.174  1.00  0.00     0.087 C 
ATOM     18  C   UNL A   1      40.837  33.468  38.493  1.00  0.00     0.071 C 
ATOM     19  N   UNL A   1      42.298  32.601  36.601  1.00  0.00    -0.176 NA
BRANCH  19  20
ATOM     20  N   UNL A   1      43.486  33.067  37.119  1.00  0.00    -0.252 N 
ATOM     21  H   UNL A   1      43.392  33.655  37.903  1.00  0.00     0.193 HD
BRANCH  20  22
ATOM     22  C   UNL A   1      44.765  32.847  36.723  1.00  0.00     0.203 A 
ATOM     23  N   UNL A   1      45.136  32.266  35.608  1.00  0.00    -0.219 NA
ATOM     24  S   UNL A   1      46.084  33.230  37.776  1.00  0.00    -0.103 S 
ATOM     25  C   UNL A   1      46.431  31.801  35.712  1.00  0.00     0.084 A 
ATOM     26  C   UNL A   1      47.112  32.222  36.834  1.00  0.00     0.097 A 
BRANCH  25  27
ATOM     27  C   UNL A   1      46.926  30.858  34.727  1.00  0.00     0.001 A 
ATOM     28  C   UNL A   1      47.487  31.343  33.540  1.00  0.00     0.012 A 
ATOM     29  C   UNL A   1      46.723  29.479  34.880  1.00  0.00     0.012 A 
ATOM     30  C   UNL A   1      47.870  30.462  32.525  1.00  0.00     0.021 A 
ATOM     31  C   UNL A   1      47.096  28.598  33.860  1.00  0.00     0.021 A 
ATOM     32  C   UNL A   1      47.672  29.093  32.690  1.00  0.00     0.041 A 
ATOM     33  Cl  UNL A   1      48.126  28.007  31.437  1.00  0.00    -0.084 Cl
ENDBRANCH  25  27
ENDBRANCH  20  22
ENDBRANCH  19  20
ENDBRANCH  12  17
ENDBRANCH   6  11
ENDBRANCH   3   5
ENDBRANCH   2   3
ENDBRANCH   1   2
BRANCH   1  34
ATOM     34  C   UNL A   1      34.113  33.681  28.008  1.00  0.00     0.275 C 
BRANCH  34  35
ATOM     35  O   UNL A   1      35.230  32.886  27.631  1.00  0.00    -0.458 OA
BRANCH  35  36
ATOM     36  C   UNL A   1      35.071  31.556  27.806  1.00  0.00     0.338 C 
ATOM     37  O   UNL A   1      34.141  30.864  27.422  1.00  0.00    -0.246 OA
BRANCH  36  38
ATOM     38  C   UNL A   1      36.080  31.083  28.750  1.00  0.00     0.060 A 
ATOM     39  C   UNL A   1      37.097  31.983  29.082  1.00  0.00     0.016 A 
ATOM     40  C   UNL A   1      36.196  29.701  28.956  1.00  0.00     0.016 A 
ATOM     41  C   UNL A   1      38.329  31.468  29.406  1.00  0.00     0.010 A 
ATOM     42  C   UNL A   1      37.429  29.191  29.254  1.00  0.00     0.010 A 
ATOM     43  C   UNL A   1      38.492  30.080  29.386  1.00  0.00    -0.014 A 
BRANCH  43  44
ATOM     44  C   UNL A   1      39.811  29.544  29.617  1.00  0.00     0.031 A 
ATOM     45  C   UNL A   1      40.218  29.669  31.031  1.00  0.00     0.074 A 
ATOM     46  C   UNL A   1      40.474  28.877  28.654  1.00  0.00     0.049 A 
ATOM     47  N   UNL A   1      41.171  30.389  31.520  1.00  0.00    -0.248 NA
ATOM     48  C   UNL A   1      39.320  29.087  32.043  1.00  0.00     0.031 C 
ATOM     49  C   UNL A   1      39.976  28.473  27.334  1.00  0.00     0.029 A 
ATOM     50  N   UNL A   1      41.687  28.271  28.724  1.00  0.00    -0.354 N 
ATOM     51  C   UNL A   1      41.146  30.127  32.885  1.00  0.00     0.074 A 
ATOM     52  C   UNL A   1      39.860  29.550  33.169  1.00  0.00     0.031 C 
ATOM     53  C   UNL A   1      40.759  27.481  26.854  1.00  0.00     0.029 A 
ATOM     54  C   UNL A   1      41.867  27.275  27.771  1.00  0.00     0.049 A 
ATOM     55  H   UNL A   1      42.373  28.514  29.387  1.00  0.00     0.167 HD
ATOM     56  C   UNL A   1      42.297  30.082  33.605  1.00  0.00     0.034 A 
ATOM     57  C   UNL A   1      42.798  26.289  27.813  1.00  0.00     0.034 A 
ATOM     58  C   UNL A   1      43.369  30.764  32.923  1.00  0.00     0.049 A 
ATOM     59  C   UNL A   1      43.848  26.718  28.769  1.00  0.00     0.074 A 
ATOM     60  C   UNL A   1      43.557  32.042  32.433  1.00  0.00     0.029 A 
ATOM     61  N   UNL A   1      44.311  29.978  32.303  1.00  0.00    -0.354 N 
ATOM     62  N   UNL A   1      44.635  27.737  28.565  1.00  0.00    -0.248 NA
ATOM     63  C   UNL A   1      43.723  26.294  30.154  1.00  0.00     0.031 C 
ATOM     64  C   UNL A   1      44.281  31.867  31.218  1.00  0.00     0.029 A 
ATOM     65  C   UNL A   1      44.547  30.505  31.062  1.00  0.00     0.049 A 
ATOM     66  H   UNL A   1      44.739  29.178  32.685  1.00  0.00     0.167 HD
ATOM     67  C   UNL A   1      44.727  28.358  29.804  1.00  0.00     0.074 A 
ATOM     68  C   UNL A   1      44.244  27.364  30.762  1.00  0.00     0.031 C 
ATOM     69  C   UNL A   1      44.894  29.710  29.904  1.00  0.00     0.034 A 
BRANCH  56  70
ATOM     70  C   UNL A   1      42.562  29.068  34.696  1.00  0.00     0.023 A 
ATOM     71  C   UNL A   1      43.124  29.555  35.895  1.00  0.00     0.012 A 
ATOM     72  C   UNL A   1      42.564  27.663  34.515  1.00  0.00     0.148 A 
ATOM     73  C   UNL A   1      43.714  28.697  36.829  1.00  0.00     0.002 A 
ATOM     74  C   UNL A   1      43.075  26.810  35.484  1.00  0.00     0.091 A 
ATOM     75  F   UNL A   1      42.203  27.127  33.347  1.00  0.00    -0.205 F 
ATOM     76  C   UNL A   1      43.685  27.322  36.627  1.00  0.00     0.022 A 
BRANCH  74  77
ATOM     77  S   UNL A   1      43.018  25.024  35.280  1.00  0.00     0.127 S 
ATOM     78  O   UNL A   1      43.708  24.572  36.484  1.00  0.00    -0.237 OA
ATOM     79  O   UNL A   1      41.576  24.772  35.259  1.00  0.00    -0.237 OA
ATOM     80  O   UNL A   1      43.687  24.753  34.014  1.00  0.00    -0.744 OA
ENDBRANCH  74  77
ENDBRANCH  56  70
BRANCH  57  81
ATOM     81  C   UNL A   1      42.696  24.891  27.333  1.00  0.00     0.023 A 
ATOM     82  C   UNL A   1      41.460  24.218  27.400  1.00  0.00     0.012 A 
ATOM     83  C   UNL A   1      43.731  24.305  26.570  1.00  0.00     0.148 A 
ATOM     84  C   UNL A   1      41.254  23.016  26.709  1.00  0.00     0.002 A 
ATOM     85  C   UNL A   1      43.527  23.104  25.897  1.00  0.00     0.091 A 
ATOM     86  F   UNL A   1      44.885  24.969  26.428  1.00  0.00    -0.205 F 
ATOM     87  C   UNL A   1      42.285  22.463  25.954  1.00  0.00     0.022 A 
BRANCH  85  88
ATOM     88  S   UNL A   1      44.808  22.337  24.892  1.00  0.00     0.127 S 
ATOM     89  O   UNL A   1      45.875  22.127  25.871  1.00  0.00    -0.237 OA
ATOM     90  O   UNL A   1      44.146  21.117  24.437  1.00  0.00    -0.237 OA
ATOM     91  O   UNL A   1      45.133  23.305  23.852  1.00  0.00    -0.744 OA
ENDBRANCH  85  88
ENDBRANCH  57  81
BRANCH  69  92
ATOM     92  C   UNL A   1      45.215  30.477  28.642  1.00  0.00     0.023 A 
ATOM     93  C   UNL A   1      44.208  31.009  27.807  1.00  0.00     0.012 A 
ATOM     94  C   UNL A   1      46.553  30.815  28.386  1.00  0.00     0.148 A 
ATOM     95  C   UNL A   1      44.531  31.837  26.729  1.00  0.00     0.002 A 
ATOM     96  C   UNL A   1      46.868  31.675  27.341  1.00  0.00     0.091 A 
ATOM     97  F   UNL A   1      47.498  30.312  29.195  1.00  0.00    -0.205 F 
ATOM     98  C   UNL A   1      45.861  32.181  26.503  1.00  0.00     0.022 A 
BRANCH  96  99
ATOM     99  S   UNL A   1      48.544  32.252  27.071  1.00  0.00     0.127 S 
ATOM    100  O   UNL A   1      48.372  33.178  25.954  1.00  0.00    -0.237 OA
ATOM    101  O   UNL A   1      48.867  32.888  28.349  1.00  0.00    -0.237 OA
ATOM    102  O   UNL A   1      49.338  31.063  26.782  1.00  0.00    -0.744 OA
ENDBRANCH  96  99
ENDBRANCH  69  92
ENDBRANCH  43  44
ENDBRANCH  36  38
ENDBRANCH  35  36
ENDBRANCH  34  35
ENDBRANCH   1  34
TORSDOF 19
ENDMDL
MODEL 2
REMARK VINA RESULT:      -9.6      5.445     12.882
REMARK SMILES C/C(=N\Nc1nc(-c2ccc(Cl)cc2)cs1)c1nnn(-c2ccc(C(=O)OCCOC(=O)c3ccc(-c4c5nc(c(-c6cccc(S(=O)(=O)[O-])c6F)c6ccc([nH]6)c(-c6cccc(S(=O)(=O)[O-])c6F)c6nc(c(-c7cccc(S(=O)(=O)[O-])c7F)c7ccc4[nH]7)C=C6)C=C5)cc3)cc2)c1C
REMARK SMILES IDX 28 1 27 2 25 3 26 4 24 5 21 6 22 7 97 8 23 9 96 10 20 11
REMARK SMILES IDX 17 12 18 13 98 14 19 15 99 16 2 17 1 18 3 19 4 20 5 22 6 23
REMARK SMILES IDX 16 24 7 25 15 26 8 27 9 28 14 29 10 30 13 31 11 32 12 33
REMARK SMILES IDX 29 34 30 35 31 36 32 37 33 38 34 39 95 40 35 41 94 42 36 43
REMARK SMILES IDX 37 44 38 45 88 46 39 47 93 48 87 49 89 50 40 51 92 52 86 53
REMARK SMILES IDX 85 54 41 56 73 57 53 58 72 59 54 60 57 61 71 62 90 63 55 64
REMARK SMILES IDX 56 65 70 67 91 68 58 69 42 70 43 71 51 72 44 73 46 74 52 75
REMARK SMILES IDX 45 76 47 77 48 78 49 79 50 80 74 81 75 82 83 83 76 84 78 85
REMARK SMILES IDX 84 86 77 87 79 88 80 89 81 90 82 91 59 92 60 93 68 94 61 95
REMARK SMILES IDX 63 96 69 97 62 98 64 99 65 100 66 101 67 102
REMARK H PARENT 4 21 89 55 57 66
REMARK Flexibility Score: inf
ROOT
ATOM      1  C   UNL A   1      42.468  18.856  26.084  1.00  0.00     0.275 C 
ENDROOT
BRANCH   1   2
ATOM      2  O   UNL A   1      41.157  19.269  25.662  1.00  0.00    -0.458 OA
BRANCH   2   3
ATOM      3  C   UNL A   1      40.493  20.118  26.489  1.00  0.00     0.338 C 
ATOM      4  O   UNL A   1      40.893  20.550  27.562  1.00  0.00    -0.246 OA
BRANCH   3   5
ATOM      5  C   UNL A   1      39.197  20.514  25.880  1.00  0.00     0.060 A 
ATOM      6  C   UNL A   1      36.650  21.252  25.063  1.00  0.00     0.067 A 
ATOM      7  C   UNL A   1      37.556  22.253  25.424  1.00  0.00     0.029 A 
ATOM      8  C   UNL A   1      37.059  19.918  24.950  1.00  0.00     0.029 A 
ATOM      9  C   UNL A   1      38.832  21.873  25.853  1.00  0.00     0.018 A 
ATOM     10  C   UNL A   1      38.332  19.550  25.359  1.00  0.00     0.018 A 
BRANCH   6  11
ATOM     11  N   UNL A   1      35.267  21.529  25.066  1.00  0.00    -0.217 N 
ATOM     12  C   UNL A   1      33.375  22.602  25.214  1.00  0.00     0.132 A 
ATOM     13  N   UNL A   1      33.197  21.512  24.408  1.00  0.00    -0.128 NA
ATOM     14  C   UNL A   1      34.686  22.642  25.656  1.00  0.00     0.071 A 
ATOM     15  N   UNL A   1      34.379  20.921  24.252  1.00  0.00    -0.061 NA
ATOM     16  C   UNL A   1      35.430  23.712  26.376  1.00  0.00     0.069 C 
BRANCH  12  17
ATOM     17  C   UNL A   1      32.407  23.674  25.387  1.00  0.00     0.087 C 
ATOM     18  C   UNL A   1      31.783  23.735  26.764  1.00  0.00     0.071 C 
ATOM     19  N   UNL A   1      32.127  24.383  24.329  1.00  0.00    -0.176 NA
BRANCH  19  20
ATOM     20  N   UNL A   1      31.113  25.314  24.289  1.00  0.00    -0.252 N 
ATOM     21  H   UNL A   1      30.217  24.942  24.120  1.00  0.00     0.193 HD
BRANCH  20  22
ATOM     22  C   UNL A   1      31.149  26.662  24.445  1.00  0.00     0.203 A 
ATOM     23  N   UNL A   1      30.183  27.496  24.147  1.00  0.00    -0.219 NA
ATOM     24  S   UNL A   1      32.602  27.443  24.968  1.00  0.00    -0.103 S 
ATOM     25  C   UNL A   1      30.678  28.775  23.995  1.00  0.00     0.084 A 
ATOM     26  C   UNL A   1      31.987  28.944  24.392  1.00  0.00     0.097 A 
BRANCH  25  27
ATOM     27  C   UNL A   1      29.851  29.784  23.359  1.00  0.00     0.001 A 
ATOM     28  C   UNL A   1      29.464  29.606  22.025  1.00  0.00     0.012 A 
ATOM     29  C   UNL A   1      29.555  30.991  24.008  1.00  0.00     0.012 A 
ATOM     30  C   UNL A   1      28.764  30.610  21.352  1.00  0.00     0.021 A 
ATOM     31  C   UNL A   1      28.864  32.000  23.330  1.00  0.00     0.021 A 
ATOM     32  C   UNL A   1      28.466  31.803  22.008  1.00  0.00     0.041 A 
ATOM     33  Cl  UNL A   1      27.620  33.047  21.176  1.00  0.00    -0.084 Cl
ENDBRANCH  25  27
ENDBRANCH  20  22
ENDBRANCH  19  20
ENDBRANCH  12  17
ENDBRANCH   6  11
ENDBRANCH   3   5
ENDBRANCH   2   3
ENDBRANCH   1   2
BRANCH   1  34
ATOM     34  C   UNL A   1      43.526  19.325  25.099  1.00  0.00     0.275 C 
BRANCH  34  35
ATOM     35  O   UNL A   1      44.170  20.494  25.591  1.00  0.00    -0.458 OA
BRANCH  35  36
ATOM     36  C   UNL A   1      43.838  21.640  24.957  1.00  0.00     0.338 C 
ATOM     37  O   UNL A   1      44.167  21.987  23.834  1.00  0.00    -0.246 OA
BRANCH  36  38
ATOM     38  C   UNL A   1      43.204  22.540  25.917  1.00  0.00     0.060 A 
ATOM     39  C   UNL A   1      42.392  23.548  25.387  1.00  0.00     0.016 A 
ATOM     40  C   UNL A   1      43.727  22.595  27.216  1.00  0.00     0.016 A 
ATOM     41  C   UNL A   1      42.295  24.728  26.085  1.00  0.00     0.010 A 
ATOM     42  C   UNL A   1      43.650  23.779  27.896  1.00  0.00     0.010 A 
ATOM     43  C   UNL A   1      43.012  24.851  27.278  1.00  0.00    -0.014 A 
BRANCH  43  44
ATOM     44  C   UNL A   1      43.001  26.125  27.953  1.00  0.00     0.031 A 
ATOM     45  C   UNL A   1      44.183  26.941  27.612  1.00  0.00     0.074 A 
ATOM     46  C   UNL A   1      41.934  26.531  28.666  1.00  0.00     0.049 A 
ATOM     47  N   UNL A   1      45.144  27.309  28.391  1.00  0.00    -0.248 NA
ATOM     48  C   UNL A   1      44.433  27.198  26.183  1.00  0.00     0.031 C 
ATOM     49  C   UNL A   1      40.625  25.876  28.777  1.00  0.00     0.029 A 
ATOM     50  N   UNL A   1      41.743  27.710  29.310  1.00  0.00    -0.354 N 
ATOM     51  C   UNL A   1      45.978  28.075  27.585  1.00  0.00     0.074 A 
ATOM     52  C   UNL A   1      45.642  27.755  26.225  1.00  0.00     0.031 C 
ATOM     53  C   UNL A   1      39.717  26.779  29.208  1.00  0.00     0.029 A 
ATOM     54  C   UNL A   1      40.403  28.022  29.515  1.00  0.00     0.049 A 
ATOM     55  H   UNL A   1      42.483  28.289  29.605  1.00  0.00     0.167 HD
ATOM     56  C   UNL A   1      46.631  29.155  28.089  1.00  0.00     0.034 A 
ATOM     57  C   UNL A   1      39.905  29.251  29.802  1.00  0.00     0.034 A 
ATOM     58  C   UNL A   1      46.714  29.094  29.527  1.00  0.00     0.049 A 
ATOM     59  C   UNL A   1      41.032  30.075  30.304  1.00  0.00     0.074 A 
ATOM     60  C   UNL A   1      47.218  28.185  30.438  1.00  0.00     0.029 A 
ATOM     61  N   UNL A   1      45.859  29.904  30.234  1.00  0.00    -0.354 N 
ATOM     62  N   UNL A   1      41.654  29.837  31.425  1.00  0.00    -0.248 NA
ATOM     63  C   UNL A   1      41.763  30.888  29.346  1.00  0.00     0.031 C 
ATOM     64  C   UNL A   1      46.297  28.205  31.525  1.00  0.00     0.029 A 
ATOM     65  C   UNL A   1      45.318  29.162  31.248  1.00  0.00     0.049 A 
ATOM     66  H   UNL A   1      45.670  30.852  30.044  1.00  0.00     0.167 HD
ATOM     67  C   UNL A   1      42.994  30.062  31.133  1.00  0.00     0.074 A 
ATOM     68  C   UNL A   1      42.985  30.816  29.879  1.00  0.00     0.031 C 
ATOM     69  C   UNL A   1      43.981  29.359  31.764  1.00  0.00     0.034 A 
BRANCH  56  70
ATOM     70  C   UNL A   1      46.806  30.453  27.332  1.00  0.00     0.023 A 
ATOM     71  C   UNL A   1      48.094  31.028  27.342  1.00  0.00     0.012 A 
ATOM     72  C   UNL A   1      45.746  31.272  26.870  1.00  0.00     0.148 A 
ATOM     73  C   UNL A   1      48.305  32.361  26.977  1.00  0.00     0.002 A 
ATOM     74  C   UNL A   1      45.973  32.568  26.429  1.00  0.00     0.091 A 
ATOM     75  F   UNL A   1      44.478  30.869  26.980  1.00  0.00    -0.205 F 
ATOM     76  C   UNL A   1      47.245  33.132  26.514  1.00  0.00     0.022 A 
BRANCH  74  77
ATOM     77  S   UNL A   1      44.637  33.583  25.783  1.00  0.00     0.127 S 
ATOM     78  O   UNL A   1      43.800  32.581  25.131  1.00  0.00    -0.237 OA
ATOM     79  O   UNL A   1      44.079  34.157  27.009  1.00  0.00    -0.237 OA
ATOM     80  O   UNL A   1      45.274  34.559  24.908  1.00  0.00    -0.744 OA
ENDBRANCH  74  77
ENDBRANCH  56  70
BRANCH  57  81
ATOM     81  C   UNL A   1      38.615  29.852  29.390  1.00  0.00     0.023 A 
ATOM     82  C   UNL A   1      37.912  29.315  28.295  1.00  0.00     0.012 A 
ATOM     83  C   UNL A   1      37.943  30.776  30.224  1.00  0.00     0.148 A 
ATOM     84  C   UNL A   1      36.577  29.664  28.052  1.00  0.00     0.002 A 
ATOM     85  C   UNL A   1      36.621  31.131  29.971  1.00  0.00     0.091 A 
ATOM     86  F   UNL A   1      38.567  31.235  31.315  1.00  0.00    -0.205 F 
ATOM     87  C   UNL A   1      35.931  30.567  28.892  1.00  0.00     0.022 A 
BRANCH  85  88
ATOM     88  S   UNL A   1      35.718  32.280  31.020  1.00  0.00     0.127 S 
ATOM     89  O   UNL A   1      34.451  32.414  30.301  1.00  0.00    -0.237 OA
ATOM     90  O   UNL A   1      35.634  31.541  32.277  1.00  0.00    -0.237 OA
ATOM     91  O   UNL A   1      36.516  33.499  31.056  1.00  0.00    -0.744 OA
ENDBRANCH  85  88
ENDBRANCH  57  81
BRANCH  69  92
ATOM     92  C   UNL A   1      43.592  28.509  32.952  1.00  0.00     0.023 A 
ATOM     93  C   UNL A   1      43.186  27.164  32.815  1.00  0.00     0.012 A 
ATOM     94  C   UNL A   1      43.807  29.022  34.241  1.00  0.00     0.148 A 
ATOM     95  C   UNL A   1      42.976  26.358  33.936  1.00  0.00     0.002 A 
ATOM     96  C   UNL A   1      43.640  28.206  35.353  1.00  0.00     0.091 A 
ATOM     97  F   UNL A   1      44.205  30.298  34.355  1.00  0.00    -0.205 F 
ATOM     98  C   UNL A   1      43.215  26.876  35.206  1.00  0.00     0.022 A 
BRANCH  96  99
ATOM     99  S   UNL A   1      44.047  28.774  37.005  1.00  0.00     0.127 S 
ATOM    100  O   UNL A   1      45.441  29.184  36.853  1.00  0.00    -0.237 OA
ATOM    101  O   UNL A   1      43.103  29.876  37.199  1.00  0.00    -0.237 OA
ATOM    102  O   UNL A   1      43.821  27.636  37.888  1.00  0.00    -0.744 OA
ENDBRANCH  96  99
ENDBRANCH  69  92
ENDBRANCH  43  44
ENDBRANCH  36  38
ENDBRANCH  35  36
ENDBRANCH  34  35
ENDBRANCH   1  34
TORSDOF 19
ENDMDL
MODEL 3
REMARK VINA RESULT:      -9.5      3.263     10.766
REMARK SMILES C/C(=N\Nc1nc(-c2ccc(Cl)cc2)cs1)c1nnn(-c2ccc(C(=O)OCCOC(=O)c3ccc(-c4c5nc(c(-c6cccc(S(=O)(=O)[O-])c6F)c6ccc([nH]6)c(-c6cccc(S(=O)(=O)[O-])c6F)c6nc(c(-c7cccc(S(=O)(=O)[O-])c7F)c7ccc4[nH]7)C=C6)C=C5)cc3)cc2)c1C
REMARK SMILES IDX 28 1 27 2 25 3 26 4 24 5 21 6 22 7 97 8 23 9 96 10 20 11
REMARK SMILES IDX 17 12 18 13 98 14 19 15 99 16 2 17 1 18 3 19 4 20 5 22 6 23
REMARK SMILES IDX 16 24 7 25 15 26 8 27 9 28 14 29 10 30 13 31 11 32 12 33
REMARK SMILES IDX 29 34 30 35 31 36 32 37 33 38 34 39 95 40 35 41 94 42 36 43
REMARK SMILES IDX 37 44 38 45 88 46 39 47 93 48 87 49 89 50 40 51 92 52 86 53
REMARK SMILES IDX 85 54 41 56 73 57 53 58 72 59 54 60 57 61 71 62 90 63 55 64
REMARK SMILES IDX 56 65 70 67 91 68 58 69 42 70 43 71 51 72 44 73 46 74 52 75
REMARK SMILES IDX 45 76 47 77 48 78 49 79 50 80 74 81 75 82 83 83 76 84 78 85
REMARK SMILES IDX 84 86 77 87 79 88 80 89 81 90 82 91 59 92 60 93 68 94 61 95
REMARK SMILES IDX 63 96 69 97 62 98 64 99 65 100 66 101 67 102
REMARK H PARENT 4 21 89 55 57 66
REMARK Flexibility Score: inf
ROOT
ATOM      1  C   UNL A   1      42.217  19.764  27.067  1.00  0.00     0.275 C 
ENDROOT
BRANCH   1   2
ATOM      2  O   UNL A   1      42.421  19.987  25.661  1.00  0.00    -0.458 OA
BRANCH   2   3
ATOM      3  C   UNL A   1      43.661  19.716  25.177  1.00  0.00     0.338 C 
ATOM      4  O   UNL A   1      44.132  18.607  24.962  1.00  0.00    -0.246 OA
BRANCH   3   5
ATOM      5  C   UNL A   1      44.379  20.981  24.879  1.00  0.00     0.060 A 
ATOM      6  C   UNL A   1      45.829  23.337  24.650  1.00  0.00     0.067 A 
ATOM      7  C   UNL A   1      46.475  22.123  24.402  1.00  0.00     0.029 A 
ATOM      8  C   UNL A   1      44.444  23.387  24.845  1.00  0.00     0.029 A 
ATOM      9  C   UNL A   1      45.744  20.939  24.537  1.00  0.00     0.018 A 
ATOM     10  C   UNL A   1      43.720  22.210  24.960  1.00  0.00     0.018 A 
BRANCH   6  11
ATOM     11  N   UNL A   1      46.591  24.479  24.968  1.00  0.00    -0.217 N 
ATOM     12  C   UNL A   1      47.885  25.869  26.041  1.00  0.00     0.132 A 
ATOM     13  N   UNL A   1      47.996  26.115  24.701  1.00  0.00    -0.128 NA
ATOM     14  C   UNL A   1      46.991  24.832  26.249  1.00  0.00     0.071 A 
ATOM     15  N   UNL A   1      47.275  25.201  24.056  1.00  0.00    -0.061 NA
ATOM     16  C   UNL A   1      46.677  24.061  27.483  1.00  0.00     0.069 C 
BRANCH  12  17
ATOM     17  C   UNL A   1      48.742  26.444  27.065  1.00  0.00     0.087 C 
ATOM     18  C   UNL A   1      50.208  26.103  26.915  1.00  0.00     0.071 C 
ATOM     19  N   UNL A   1      48.147  27.093  28.027  1.00  0.00    -0.176 NA
BRANCH  19  20
ATOM     20  N   UNL A   1      48.799  27.544  29.153  1.00  0.00    -0.252 N 
ATOM     21  H   UNL A   1      49.464  28.251  28.989  1.00  0.00     0.193 HD
BRANCH  20  22
ATOM     22  C   UNL A   1      48.674  27.171  30.451  1.00  0.00     0.203 A 
ATOM     23  N   UNL A   1      47.921  26.197  30.903  1.00  0.00    -0.219 NA
ATOM     24  S   UNL A   1      49.449  28.083  31.701  1.00  0.00    -0.103 S 
ATOM     25  C   UNL A   1      47.668  26.365  32.249  1.00  0.00     0.084 A 
ATOM     26  C   UNL A   1      48.410  27.352  32.862  1.00  0.00     0.097 A 
BRANCH  25  27
ATOM     27  C   UNL A   1      46.609  25.593  32.872  1.00  0.00     0.001 A 
ATOM     28  C   UNL A   1      46.944  24.460  33.624  1.00  0.00     0.012 A 
ATOM     29  C   UNL A   1      45.260  25.879  32.618  1.00  0.00     0.012 A 
ATOM     30  C   UNL A   1      45.944  23.634  34.142  1.00  0.00     0.021 A 
ATOM     31  C   UNL A   1      44.260  25.045  33.128  1.00  0.00     0.021 A 
ATOM     32  C   UNL A   1      44.606  23.931  33.892  1.00  0.00     0.041 A 
ATOM     33  Cl  UNL A   1      43.373  22.906  34.515  1.00  0.00    -0.084 Cl
ENDBRANCH  25  27
ENDBRANCH  20  22
ENDBRANCH  19  20
ENDBRANCH  12  17
ENDBRANCH   6  11
ENDBRANCH   3   5
ENDBRANCH   2   3
ENDBRANCH   1   2
BRANCH   1  34
ATOM     34  C   UNL A   1      40.849  20.265  27.501  1.00  0.00     0.275 C 
BRANCH  34  35
ATOM     35  O   UNL A   1      40.902  21.658  27.781  1.00  0.00    -0.458 OA
BRANCH  35  36
ATOM     36  C   UNL A   1      40.216  22.441  26.920  1.00  0.00     0.338 C 
ATOM     37  O   UNL A   1      39.411  22.084  26.075  1.00  0.00    -0.246 OA
BRANCH  36  38
ATOM     38  C   UNL A   1      40.760  23.795  26.982  1.00  0.00     0.060 A 
ATOM     39  C   UNL A   1      41.903  23.975  27.767  1.00  0.00     0.016 A 
ATOM     40  C   UNL A   1      39.931  24.858  26.598  1.00  0.00     0.016 A 
ATOM     41  C   UNL A   1      42.085  25.199  28.364  1.00  0.00     0.010 A 
ATOM     42  C   UNL A   1      40.100  26.067  27.215  1.00  0.00     0.010 A 
ATOM     43  C   UNL A   1      41.121  26.188  28.153  1.00  0.00    -0.014 A 
BRANCH  43  44
ATOM     44  C   UNL A   1      41.253  27.433  28.868  1.00  0.00     0.031 A 
ATOM     45  C   UNL A   1      42.374  28.248  28.357  1.00  0.00     0.074 A 
ATOM     46  C   UNL A   1      40.335  27.822  29.773  1.00  0.00     0.049 A 
ATOM     47  N   UNL A   1      43.463  28.570  28.970  1.00  0.00    -0.248 NA
ATOM     48  C   UNL A   1      42.376  28.561  26.917  1.00  0.00     0.031 C 
ATOM     49  C   UNL A   1      39.053  27.180  30.085  1.00  0.00     0.029 A 
ATOM     50  N   UNL A   1      40.283  28.976  30.486  1.00  0.00    -0.354 N 
ATOM     51  C   UNL A   1      44.159  29.358  28.061  1.00  0.00     0.074 A 
ATOM     52  C   UNL A   1      43.584  29.100  26.769  1.00  0.00     0.031 C 
ATOM     53  C   UNL A   1      38.252  28.077  30.704  1.00  0.00     0.029 A 
ATOM     54  C   UNL A   1      39.006  29.297  30.933  1.00  0.00     0.049 A 
ATOM     55  H   UNL A   1      41.075  29.533  30.668  1.00  0.00     0.167 HD
ATOM     56  C   UNL A   1      44.911  30.408  28.484  1.00  0.00     0.034 A 
ATOM     57  C   UNL A   1      38.590  30.519  31.351  1.00  0.00     0.034 A 
ATOM     58  C   UNL A   1      45.242  30.285  29.882  1.00  0.00     0.049 A 
ATOM     59  C   UNL A   1      39.804  31.306  31.680  1.00  0.00     0.074 A 
ATOM     60  C   UNL A   1      45.879  29.333  30.654  1.00  0.00     0.029 A 
ATOM     61  N   UNL A   1      44.540  31.077  30.759  1.00  0.00    -0.354 N 
ATOM     62  N   UNL A   1      40.607  31.013  32.664  1.00  0.00    -0.248 NA
ATOM     63  C   UNL A   1      40.372  32.149  30.641  1.00  0.00     0.031 C 
ATOM     64  C   UNL A   1      45.162  29.319  31.886  1.00  0.00     0.029 A 
ATOM     65  C   UNL A   1      44.169  30.299  31.822  1.00  0.00     0.049 A 
ATOM     66  H   UNL A   1      44.340  32.034  30.642  1.00  0.00     0.167 HD
ATOM     67  C   UNL A   1      41.879  31.233  32.151  1.00  0.00     0.074 A 
ATOM     68  C   UNL A   1      41.667  32.039  30.949  1.00  0.00     0.031 C 
ATOM     69  C   UNL A   1      42.947  30.492  32.572  1.00  0.00     0.034 A 
BRANCH  56  70
ATOM     70  C   UNL A   1      44.977  31.734  27.760  1.00  0.00     0.023 A 
ATOM     71  C   UNL A   1      43.807  32.155  27.094  1.00  0.00     0.012 A 
ATOM     72  C   UNL A   1      46.171  32.435  27.457  1.00  0.00     0.148 A 
ATOM     73  C   UNL A   1      43.837  33.170  26.132  1.00  0.00     0.002 A 
ATOM     74  C   UNL A   1      46.180  33.497  26.564  1.00  0.00     0.091 A 
ATOM     75  F   UNL A   1      47.348  32.001  27.914  1.00  0.00    -0.205 F 
ATOM     76  C   UNL A   1      45.023  33.846  25.870  1.00  0.00     0.022 A 
BRANCH  74  77
ATOM     77  S   UNL A   1      47.683  34.425  26.229  1.00  0.00     0.127 S 
ATOM     78  O   UNL A   1      48.058  34.863  27.569  1.00  0.00    -0.237 OA
ATOM     79  O   UNL A   1      48.545  33.395  25.647  1.00  0.00    -0.237 OA
ATOM     80  O   UNL A   1      47.296  35.473  25.293  1.00  0.00    -0.744 OA
ENDBRANCH  74  77
ENDBRANCH  56  70
BRANCH  57  81
ATOM     81  C   UNL A   1      37.261  31.153  31.195  1.00  0.00     0.023 A 
ATOM     82  C   UNL A   1      36.642  31.760  32.305  1.00  0.00     0.012 A 
ATOM     83  C   UNL A   1      36.717  31.400  29.913  1.00  0.00     0.148 A 
ATOM     84  C   UNL A   1      35.535  32.605  32.143  1.00  0.00     0.002 A 
ATOM     85  C   UNL A   1      35.609  32.228  29.758  1.00  0.00     0.091 A 
ATOM     86  F   UNL A   1      37.339  30.899  28.839  1.00  0.00    -0.205 F 
ATOM     87  C   UNL A   1      35.023  32.843  30.870  1.00  0.00     0.022 A 
BRANCH  85  88
ATOM     88  S   UNL A   1      34.901  32.592  28.144  1.00  0.00     0.127 S 
ATOM     89  O   UNL A   1      33.710  33.363  28.504  1.00  0.00    -0.237 OA
ATOM     90  O   UNL A   1      35.965  33.369  27.514  1.00  0.00    -0.237 OA
ATOM     91  O   UNL A   1      34.614  31.300  27.534  1.00  0.00    -0.744 OA
ENDBRANCH  85  88
ENDBRANCH  57  81
BRANCH  69  92
ATOM     92  C   UNL A   1      42.755  29.598  33.775  1.00  0.00     0.023 A 
ATOM     93  C   UNL A   1      42.016  28.397  33.711  1.00  0.00     0.012 A 
ATOM     94  C   UNL A   1      43.476  29.886  34.945  1.00  0.00     0.148 A 
ATOM     95  C   UNL A   1      41.977  27.517  34.795  1.00  0.00     0.002 A 
ATOM     96  C   UNL A   1      43.472  28.988  36.005  1.00  0.00     0.091 A 
ATOM     97  F   UNL A   1      44.183  31.025  34.987  1.00  0.00    -0.205 F 
ATOM     98  C   UNL A   1      42.716  27.806  35.939  1.00  0.00     0.022 A 
BRANCH  96  99
ATOM     99  S   UNL A   1      44.496  29.242  37.456  1.00  0.00     0.127 S 
ATOM    100  O   UNL A   1      43.935  30.471  38.013  1.00  0.00    -0.237 OA
ATOM    101  O   UNL A   1      44.230  28.036  38.243  1.00  0.00    -0.237 OA
ATOM    102  O   UNL A   1      45.866  29.344  36.969  1.00  0.00    -0.744 OA
ENDBRANCH  96  99
ENDBRANCH  69  92
ENDBRANCH  43  44
ENDBRANCH  36  38
ENDBRANCH  35  36
ENDBRANCH  34  35
ENDBRANCH   1  34
TORSDOF 19
ENDMDL
