MODEL 1
REMARK VINA RESULT:     -11.1      0.000      0.000
REMARK SMILES Cc1nc(CCC(=O)OCCOC(=O)c2ccc(-c3c4nc(c(-c5cccc(S(=O)(=O)[O-])c5F)c5ccc([nH]5)c(-c5cccc(S(=O)(=O)[O-])c5F)c5nc(c(-c6cccc(S(=O)(=O)[O-])c6F)c6ccc3[nH]6)C=C5)C=C4)cc2)cc([C@@H]2CCC[N@@H+]2C(C)C)n1
REMARK SMILES IDX 10 1 9 2 7 3 8 4 6 5 5 6 4 7 1 8 2 9 3 10 88 11 79 12 78 13
REMARK SMILES IDX 80 14 81 15 84 16 82 17 83 18 85 20 86 21 87 22 11 23 12 24
REMARK SMILES IDX 13 25 14 26 15 27 16 28 77 29 17 30 76 31 18 32 19 33 20 34
REMARK SMILES IDX 70 35 21 36 75 37 69 38 71 39 22 40 74 41 68 42 67 43 23 45
REMARK SMILES IDX 55 46 35 47 54 48 36 49 39 50 53 51 72 52 37 53 38 54 52 56
REMARK SMILES IDX 73 57 40 58 24 59 25 60 33 61 26 62 28 63 34 64 27 65 29 66
REMARK SMILES IDX 30 67 31 68 32 69 56 70 57 71 65 72 58 73 60 74 66 75 59 76
REMARK SMILES IDX 61 77 62 78 63 79 64 80 41 81 42 82 50 83 43 84 45 85 51 86
REMARK SMILES IDX 44 87 46 88 47 89 48 90 49 91
REMARK H PARENT 84 19 71 44 39 55
REMARK Flexibility Score: inf
ROOT
ATOM      1  C   UNL A   1      37.730  20.995  25.354  1.00  0.00     0.274 C 
ENDROOT
BRANCH   1   2
ATOM      2  O   UNL A   1      36.509  20.438  24.835  1.00  0.00    -0.462 OA
BRANCH   2   3
ATOM      3  C   UNL A   1      35.419  21.238  24.794  1.00  0.00     0.306 C 
ATOM      4  O   UNL A   1      35.179  22.046  23.908  1.00  0.00    -0.252 OA
BRANCH   3   5
ATOM      5  C   UNL A   1      34.530  21.062  26.007  1.00  0.00     0.129 C 
BRANCH   5   6
ATOM      6  C   UNL A   1      34.488  22.272  26.943  1.00  0.00     0.068 C 
BRANCH   6   7
ATOM      7  C   UNL A   1      33.327  23.177  26.626  1.00  0.00     0.045 A 
ATOM      8  C   UNL A   1      29.717  22.946  27.108  1.00  0.00     0.089 C 
ATOM      9  C   UNL A   1      31.064  23.495  26.765  1.00  0.00     0.126 A 
ATOM     10  N   UNL A   1      32.102  22.658  26.815  1.00  0.00    -0.238 NA
ATOM     11  N   UNL A   1      31.167  24.804  26.515  1.00  0.00    -0.232 NA
ATOM     12  C   UNL A   1      32.385  25.292  26.194  1.00  0.00     0.102 A 
ATOM     13  C   UNL A   1      33.517  24.497  26.271  1.00  0.00     0.054 A 
BRANCH  12  14
ATOM     14  C   UNL A   1      32.515  26.768  25.852  1.00  0.00     0.234 C 
ATOM     15  C   UNL A   1      31.588  27.644  26.685  1.00  0.00     0.078 C 
ATOM     16  N   UNL A   1      32.346  27.238  24.449  1.00  0.00    -0.325 N 
ATOM     17  C   UNL A   1      31.586  28.974  25.955  1.00  0.00     0.068 C 
ATOM     18  C   UNL A   1      32.105  28.683  24.551  1.00  0.00     0.263 C 
ATOM     19  H   UNL A   1      33.196  27.019  23.932  1.00  0.00     0.348 HD
BRANCH  16  20
ATOM     20  C   UNL A   1      31.400  26.515  23.579  1.00  0.00     0.178 C 
ATOM     21  C   UNL A   1      29.939  26.989  23.604  1.00  0.00     0.075 C 
ATOM     22  C   UNL A   1      31.909  26.522  22.128  1.00  0.00     0.075 C 
ENDBRANCH  16  20
ENDBRANCH  12  14
ENDBRANCH   6   7
ENDBRANCH   5   6
ENDBRANCH   3   5
ENDBRANCH   2   3
ENDBRANCH   1   2
BRANCH   1  23
ATOM     23  C   UNL A   1      38.754  19.898  25.660  1.00  0.00     0.275 C 
BRANCH  23  24
ATOM     24  O   UNL A   1      40.064  20.475  25.780  1.00  0.00    -0.458 OA
BRANCH  24  25
ATOM     25  C   UNL A   1      40.576  20.558  27.028  1.00  0.00     0.338 C 
ATOM     26  O   UNL A   1      40.816  19.654  27.805  1.00  0.00    -0.246 OA
BRANCH  25  27
ATOM     27  C   UNL A   1      40.915  21.962  27.290  1.00  0.00     0.060 A 
ATOM     28  C   UNL A   1      40.402  22.948  26.441  1.00  0.00     0.016 A 
ATOM     29  C   UNL A   1      41.759  22.294  28.348  1.00  0.00     0.016 A 
ATOM     30  C   UNL A   1      40.729  24.283  26.651  1.00  0.00     0.010 A 
ATOM     31  C   UNL A   1      42.084  23.635  28.560  1.00  0.00     0.010 A 
ATOM     32  C   UNL A   1      41.579  24.633  27.707  1.00  0.00    -0.014 A 
BRANCH  32  33
ATOM     33  C   UNL A   1      41.978  26.044  27.902  1.00  0.00     0.031 A 
ATOM     34  C   UNL A   1      43.353  26.484  27.492  1.00  0.00     0.074 A 
ATOM     35  C   UNL A   1      41.121  26.906  28.477  1.00  0.00     0.049 A 
ATOM     36  N   UNL A   1      43.929  27.645  27.655  1.00  0.00    -0.248 NA
ATOM     37  C   UNL A   1      44.194  25.482  26.817  1.00  0.00     0.031 C 
ATOM     38  C   UNL A   1      39.764  26.582  28.916  1.00  0.00     0.029 A 
ATOM     39  N   UNL A   1      41.278  28.225  28.819  1.00  0.00    -0.354 N 
ATOM     40  C   UNL A   1      45.211  27.506  27.139  1.00  0.00     0.074 A 
ATOM     41  C   UNL A   1      45.330  26.146  26.660  1.00  0.00     0.031 C 
ATOM     42  C   UNL A   1      39.220  27.665  29.495  1.00  0.00     0.029 A 
ATOM     43  C   UNL A   1      40.200  28.748  29.494  1.00  0.00     0.049 A 
ATOM     44  H   UNL A   1      42.085  28.748  28.602  1.00  0.00     0.167 HD
ATOM     45  C   UNL A   1      46.194  28.433  27.062  1.00  0.00     0.034 A 
ATOM     46  C   UNL A   1      40.036  29.955  30.070  1.00  0.00     0.034 A 
ATOM     47  C   UNL A   1      46.054  29.791  27.514  1.00  0.00     0.049 A 
ATOM     48  C   UNL A   1      41.146  30.966  29.969  1.00  0.00     0.074 A 
ATOM     49  C   UNL A   1      46.973  30.822  27.438  1.00  0.00     0.029 A 
ATOM     50  N   UNL A   1      44.925  30.305  28.134  1.00  0.00    -0.354 N 
ATOM     51  N   UNL A   1      42.312  30.857  29.376  1.00  0.00    -0.248 NA
ATOM     52  C   UNL A   1      40.910  32.278  30.589  1.00  0.00     0.031 C 
ATOM     53  C   UNL A   1      46.404  31.957  28.026  1.00  0.00     0.029 A 
ATOM     54  C   UNL A   1      45.124  31.637  28.451  1.00  0.00     0.049 A 
ATOM     55  H   UNL A   1      44.103  29.797  28.321  1.00  0.00     0.167 HD
ATOM     56  C   UNL A   1      42.934  32.092  29.523  1.00  0.00     0.074 A 
ATOM     57  C   UNL A   1      42.006  32.942  30.243  1.00  0.00     0.031 C 
ATOM     58  C   UNL A   1      44.166  32.483  29.115  1.00  0.00     0.034 A 
BRANCH  45  59
ATOM     59  C   UNL A   1      47.498  28.020  26.434  1.00  0.00     0.023 A 
ATOM     60  C   UNL A   1      48.577  27.645  27.260  1.00  0.00     0.012 A 
ATOM     61  C   UNL A   1      47.638  27.948  25.035  1.00  0.00     0.148 A 
ATOM     62  C   UNL A   1      49.786  27.230  26.702  1.00  0.00     0.002 A 
ATOM     63  C   UNL A   1      48.833  27.496  24.487  1.00  0.00     0.091 A 
ATOM     64  F   UNL A   1      46.608  28.333  24.268  1.00  0.00    -0.205 F 
ATOM     65  C   UNL A   1      49.910  27.146  25.318  1.00  0.00     0.022 A 
BRANCH  63  66
ATOM     66  S   UNL A   1      49.067  27.285  22.718  1.00  0.00     0.127 S 
ATOM     67  O   UNL A   1      50.522  27.170  22.625  1.00  0.00    -0.237 OA
ATOM     68  O   UNL A   1      48.339  26.043  22.455  1.00  0.00    -0.237 OA
ATOM     69  O   UNL A   1      48.492  28.468  22.094  1.00  0.00    -0.744 OA
ENDBRANCH  63  66
ENDBRANCH  45  59
BRANCH  46  70
ATOM     70  C   UNL A   1      38.753  30.285  30.751  1.00  0.00     0.023 A 
ATOM     71  C   UNL A   1      38.555  29.879  32.085  1.00  0.00     0.012 A 
ATOM     72  C   UNL A   1      37.744  31.021  30.100  1.00  0.00     0.148 A 
ATOM     73  C   UNL A   1      37.366  30.177  32.750  1.00  0.00     0.002 A 
ATOM     74  C   UNL A   1      36.583  31.361  30.786  1.00  0.00     0.091 A 
ATOM     75  F   UNL A   1      37.940  31.380  28.824  1.00  0.00    -0.205 F 
ATOM     76  C   UNL A   1      36.385  30.927  32.106  1.00  0.00     0.022 A 
BRANCH  74  77
ATOM     77  S   UNL A   1      35.327  32.431  30.073  1.00  0.00     0.127 S 
ATOM     78  O   UNL A   1      36.103  33.624  29.745  1.00  0.00    -0.237 OA
ATOM     79  O   UNL A   1      34.879  31.652  28.918  1.00  0.00    -0.237 OA
ATOM     80  O   UNL A   1      34.319  32.593  31.113  1.00  0.00    -0.744 OA
ENDBRANCH  74  77
ENDBRANCH  46  70
BRANCH  58  81
ATOM     81  C   UNL A   1      44.578  33.902  29.403  1.00  0.00     0.023 A 
ATOM     82  C   UNL A   1      45.342  34.186  30.552  1.00  0.00     0.012 A 
ATOM     83  C   UNL A   1      44.279  34.938  28.496  1.00  0.00     0.148 A 
ATOM     84  C   UNL A   1      45.780  35.485  30.807  1.00  0.00     0.002 A 
ATOM     85  C   UNL A   1      44.757  36.220  28.733  1.00  0.00     0.091 A 
ATOM     86  F   UNL A   1      43.533  34.650  27.420  1.00  0.00    -0.205 F 
ATOM     87  C   UNL A   1      45.499  36.498  29.893  1.00  0.00     0.022 A 
BRANCH  85  88
ATOM     88  S   UNL A   1      44.522  37.563  27.563  1.00  0.00     0.127 S 
ATOM     89  O   UNL A   1      44.546  38.732  28.441  1.00  0.00    -0.237 OA
ATOM     90  O   UNL A   1      45.692  37.429  26.694  1.00  0.00    -0.237 OA
ATOM     91  O   UNL A   1      43.250  37.298  26.904  1.00  0.00    -0.744 OA
ENDBRANCH  85  88
ENDBRANCH  58  81
ENDBRANCH  32  33
ENDBRANCH  25  27
ENDBRANCH  24  25
ENDBRANCH  23  24
ENDBRANCH   1  23
TORSDOF 18
ENDMDL
MODEL 2
REMARK VINA RESULT:     -11.0      5.158     10.812
REMARK SMILES Cc1nc(CCC(=O)OCCOC(=O)c2ccc(-c3c4nc(c(-c5cccc(S(=O)(=O)[O-])c5F)c5ccc([nH]5)c(-c5cccc(S(=O)(=O)[O-])c5F)c5nc(c(-c6cccc(S(=O)(=O)[O-])c6F)c6ccc3[nH]6)C=C5)C=C4)cc2)cc([C@@H]2CCC[N@@H+]2C(C)C)n1
REMARK SMILES IDX 10 1 9 2 7 3 8 4 6 5 5 6 4 7 1 8 2 9 3 10 88 11 79 12 78 13
REMARK SMILES IDX 80 14 81 15 84 16 82 17 83 18 85 20 86 21 87 22 11 23 12 24
REMARK SMILES IDX 13 25 14 26 15 27 16 28 77 29 17 30 76 31 18 32 19 33 20 34
REMARK SMILES IDX 70 35 21 36 75 37 69 38 71 39 22 40 74 41 68 42 67 43 23 45
REMARK SMILES IDX 55 46 35 47 54 48 36 49 39 50 53 51 72 52 37 53 38 54 52 56
REMARK SMILES IDX 73 57 40 58 24 59 25 60 33 61 26 62 28 63 34 64 27 65 29 66
REMARK SMILES IDX 30 67 31 68 32 69 56 70 57 71 65 72 58 73 60 74 66 75 59 76
REMARK SMILES IDX 61 77 62 78 63 79 64 80 41 81 42 82 50 83 43 84 45 85 51 86
REMARK SMILES IDX 44 87 46 88 47 89 48 90 49 91
REMARK H PARENT 84 19 71 44 39 55
REMARK Flexibility Score: inf
ROOT
ATOM      1  C   UNL A   1      31.963  31.076  26.710  1.00  0.00     0.274 C 
ENDROOT
BRANCH   1   2
ATOM      2  O   UNL A   1      33.374  30.829  26.571  1.00  0.00    -0.462 OA
BRANCH   2   3
ATOM      3  C   UNL A   1      33.828  29.590  26.863  1.00  0.00     0.306 C 
ATOM      4  O   UNL A   1      34.709  29.342  27.675  1.00  0.00    -0.252 OA
BRANCH   3   5
ATOM      5  C   UNL A   1      33.153  28.518  26.033  1.00  0.00     0.129 C 
BRANCH   5   6
ATOM      6  C   UNL A   1      33.843  28.221  24.700  1.00  0.00     0.068 C 
BRANCH   6   7
ATOM      7  C   UNL A   1      33.486  26.851  24.186  1.00  0.00     0.045 A 
ATOM      8  C   UNL A   1      32.688  25.498  20.893  1.00  0.00     0.089 C 
ATOM      9  C   UNL A   1      32.992  25.570  22.354  1.00  0.00     0.126 A 
ATOM     10  N   UNL A   1      33.094  26.781  22.903  1.00  0.00    -0.238 NA
ATOM     11  N   UNL A   1      33.232  24.428  23.006  1.00  0.00    -0.232 NA
ATOM     12  C   UNL A   1      33.494  24.500  24.330  1.00  0.00     0.102 A 
ATOM     13  C   UNL A   1      33.664  25.722  24.960  1.00  0.00     0.054 A 
BRANCH  12  14
ATOM     14  C   UNL A   1      33.715  23.209  25.102  1.00  0.00     0.234 C 
ATOM     15  C   UNL A   1      33.554  23.392  26.606  1.00  0.00     0.078 C 
ATOM     16  N   UNL A   1      34.975  22.431  24.933  1.00  0.00    -0.325 N 
ATOM     17  C   UNL A   1      34.170  22.138  27.196  1.00  0.00     0.068 C 
ATOM     18  C   UNL A   1      35.036  21.536  26.095  1.00  0.00     0.263 C 
ATOM     19  H   UNL A   1      34.923  21.924  24.050  1.00  0.00     0.348 HD
BRANCH  16  20
ATOM     20  C   UNL A   1      36.220  23.171  24.656  1.00  0.00     0.178 C 
ATOM     21  C   UNL A   1      37.398  22.920  25.609  1.00  0.00     0.075 C 
ATOM     22  C   UNL A   1      36.676  22.910  23.211  1.00  0.00     0.075 C 
ENDBRANCH  16  20
ENDBRANCH  12  14
ENDBRANCH   6   7
ENDBRANCH   5   6
ENDBRANCH   3   5
ENDBRANCH   2   3
ENDBRANCH   1   2
BRANCH   1  23
ATOM     23  C   UNL A   1      31.689  32.536  27.080  1.00  0.00     0.275 C 
BRANCH  23  24
ATOM     24  O   UNL A   1      32.902  33.300  26.978  1.00  0.00    -0.458 OA
BRANCH  24  25
ATOM     25  C   UNL A   1      33.290  33.968  28.086  1.00  0.00     0.338 C 
ATOM     26  O   UNL A   1      32.755  34.922  28.618  1.00  0.00    -0.246 OA
BRANCH  25  27
ATOM     27  C   UNL A   1      34.460  33.280  28.647  1.00  0.00     0.060 A 
ATOM     28  C   UNL A   1      34.259  32.300  29.624  1.00  0.00     0.016 A 
ATOM     29  C   UNL A   1      35.744  33.625  28.230  1.00  0.00     0.016 A 
ATOM     30  C   UNL A   1      35.350  31.652  30.191  1.00  0.00     0.010 A 
ATOM     31  C   UNL A   1      36.839  32.971  28.798  1.00  0.00     0.010 A 
ATOM     32  C   UNL A   1      36.647  31.990  29.787  1.00  0.00    -0.014 A 
BRANCH  32  33
ATOM     33  C   UNL A   1      37.816  31.347  30.427  1.00  0.00     0.031 A 
ATOM     34  C   UNL A   1      38.176  31.709  31.837  1.00  0.00     0.074 A 
ATOM     35  C   UNL A   1      38.564  30.475  29.727  1.00  0.00     0.049 A 
ATOM     36  N   UNL A   1      39.205  31.330  32.548  1.00  0.00    -0.248 NA
ATOM     37  C   UNL A   1      37.262  32.627  32.538  1.00  0.00     0.031 C 
ATOM     38  C   UNL A   1      38.304  30.056  28.349  1.00  0.00     0.029 A 
ATOM     39  N   UNL A   1      39.712  29.808  30.070  1.00  0.00    -0.354 N 
ATOM     40  C   UNL A   1      39.085  31.990  33.765  1.00  0.00     0.074 A 
ATOM     41  C   UNL A   1      37.885  32.795  33.696  1.00  0.00     0.031 C 
ATOM     42  C   UNL A   1      39.281  29.224  27.954  1.00  0.00     0.029 A 
ATOM     43  C   UNL A   1      40.249  29.076  29.038  1.00  0.00     0.049 A 
ATOM     44  H   UNL A   1      40.113  29.850  30.968  1.00  0.00     0.167 HD
ATOM     45  C   UNL A   1      39.897  31.918  34.845  1.00  0.00     0.034 A 
ATOM     46  C   UNL A   1      41.405  28.387  28.969  1.00  0.00     0.034 A 
ATOM     47  C   UNL A   1      41.071  31.092  34.914  1.00  0.00     0.049 A 
ATOM     48  C   UNL A   1      42.289  28.326  30.185  1.00  0.00     0.074 A 
ATOM     49  C   UNL A   1      41.935  30.911  35.979  1.00  0.00     0.029 A 
ATOM     50  N   UNL A   1      41.550  30.311  33.873  1.00  0.00    -0.354 N 
ATOM     51  N   UNL A   1      42.104  28.863  31.368  1.00  0.00    -0.248 NA
ATOM     52  C   UNL A   1      43.526  27.540  30.070  1.00  0.00     0.031 C 
ATOM     53  C   UNL A   1      42.947  30.032  35.576  1.00  0.00     0.029 A 
ATOM     54  C   UNL A   1      42.701  29.651  34.266  1.00  0.00     0.049 A 
ATOM     55  H   UNL A   1      41.133  30.238  32.984  1.00  0.00     0.167 HD
ATOM     56  C   UNL A   1      43.182  28.454  32.147  1.00  0.00     0.074 A 
ATOM     57  C   UNL A   1      44.005  27.608  31.306  1.00  0.00     0.031 C 
ATOM     58  C   UNL A   1      43.474  28.765  33.433  1.00  0.00     0.034 A 
BRANCH  45  59
ATOM     59  C   UNL A   1      39.525  32.732  36.055  1.00  0.00     0.023 A 
ATOM     60  C   UNL A   1      40.028  34.042  36.192  1.00  0.00     0.012 A 
ATOM     61  C   UNL A   1      38.637  32.226  37.024  1.00  0.00     0.148 A 
ATOM     62  C   UNL A   1      39.674  34.827  37.289  1.00  0.00     0.002 A 
ATOM     63  C   UNL A   1      38.258  33.028  38.095  1.00  0.00     0.091 A 
ATOM     64  F   UNL A   1      38.190  30.970  36.889  1.00  0.00    -0.205 F 
ATOM     65  C   UNL A   1      38.782  34.324  38.233  1.00  0.00     0.022 A 
BRANCH  63  66
ATOM     66  S   UNL A   1      37.061  32.498  39.324  1.00  0.00     0.127 S 
ATOM     67  O   UNL A   1      37.256  33.496  40.376  1.00  0.00    -0.237 OA
ATOM     68  O   UNL A   1      35.796  32.619  38.598  1.00  0.00    -0.237 OA
ATOM     69  O   UNL A   1      37.428  31.135  39.680  1.00  0.00    -0.744 OA
ENDBRANCH  63  66
ENDBRANCH  45  59
BRANCH  46  70
ATOM     70  C   UNL A   1      41.767  27.665  27.717  1.00  0.00     0.023 A 
ATOM     71  C   UNL A   1      42.227  28.397  26.605  1.00  0.00     0.012 A 
ATOM     72  C   UNL A   1      41.686  26.261  27.630  1.00  0.00     0.148 A 
ATOM     73  C   UNL A   1      42.576  27.747  25.421  1.00  0.00     0.002 A 
ATOM     74  C   UNL A   1      42.087  25.616  26.465  1.00  0.00     0.091 A 
ATOM     75  F   UNL A   1      41.226  25.582  28.690  1.00  0.00    -0.205 F 
ATOM     76  C   UNL A   1      42.517  26.357  25.354  1.00  0.00     0.022 A 
BRANCH  74  77
ATOM     77  S   UNL A   1      42.164  23.824  26.339  1.00  0.00     0.127 S 
ATOM     78  O   UNL A   1      42.751  23.643  25.015  1.00  0.00    -0.237 OA
ATOM     79  O   UNL A   1      43.044  23.476  27.455  1.00  0.00    -0.237 OA
ATOM     80  O   UNL A   1      40.790  23.364  26.495  1.00  0.00    -0.744 OA
ENDBRANCH  74  77
ENDBRANCH  46  70
BRANCH  58  81
ATOM     81  C   UNL A   1      44.717  28.162  34.031  1.00  0.00     0.023 A 
ATOM     82  C   UNL A   1      45.935  28.866  33.962  1.00  0.00     0.012 A 
ATOM     83  C   UNL A   1      44.661  26.941  34.732  1.00  0.00     0.148 A 
ATOM     84  C   UNL A   1      47.086  28.350  34.557  1.00  0.00     0.002 A 
ATOM     85  C   UNL A   1      45.800  26.456  35.362  1.00  0.00     0.091 A 
ATOM     86  F   UNL A   1      43.496  26.277  34.769  1.00  0.00    -0.205 F 
ATOM     87  C   UNL A   1      47.015  27.153  35.267  1.00  0.00     0.022 A 
BRANCH  85  88
ATOM     88  S   UNL A   1      45.777  24.972  36.375  1.00  0.00     0.127 S 
ATOM     89  O   UNL A   1      47.133  24.458  36.182  1.00  0.00    -0.237 OA
ATOM     90  O   UNL A   1      45.512  25.509  37.710  1.00  0.00    -0.237 OA
ATOM     91  O   UNL A   1      44.708  24.140  35.838  1.00  0.00    -0.744 OA
ENDBRANCH  85  88
ENDBRANCH  58  81
ENDBRANCH  32  33
ENDBRANCH  25  27
ENDBRANCH  24  25
ENDBRANCH  23  24
ENDBRANCH   1  23
TORSDOF 18
ENDMDL
MODEL 3
REMARK VINA RESULT:     -10.9      5.144      8.093
REMARK SMILES Cc1nc(CCC(=O)OCCOC(=O)c2ccc(-c3c4nc(c(-c5cccc(S(=O)(=O)[O-])c5F)c5ccc([nH]5)c(-c5cccc(S(=O)(=O)[O-])c5F)c5nc(c(-c6cccc(S(=O)(=O)[O-])c6F)c6ccc3[nH]6)C=C5)C=C4)cc2)cc([C@@H]2CCC[N@@H+]2C(C)C)n1
REMARK SMILES IDX 10 1 9 2 7 3 8 4 6 5 5 6 4 7 1 8 2 9 3 10 88 11 79 12 78 13
REMARK SMILES IDX 80 14 81 15 84 16 82 17 83 18 85 20 86 21 87 22 11 23 12 24
REMARK SMILES IDX 13 25 14 26 15 27 16 28 77 29 17 30 76 31 18 32 19 33 20 34
REMARK SMILES IDX 70 35 21 36 75 37 69 38 71 39 22 40 74 41 68 42 67 43 23 45
REMARK SMILES IDX 55 46 35 47 54 48 36 49 39 50 53 51 72 52 37 53 38 54 52 56
REMARK SMILES IDX 73 57 40 58 24 59 25 60 33 61 26 62 28 63 34 64 27 65 29 66
REMARK SMILES IDX 30 67 31 68 32 69 56 70 57 71 65 72 58 73 60 74 66 75 59 76
REMARK SMILES IDX 61 77 62 78 63 79 64 80 41 81 42 82 50 83 43 84 45 85 51 86
REMARK SMILES IDX 44 87 46 88 47 89 48 90 49 91
REMARK H PARENT 84 19 71 44 39 55
REMARK Flexibility Score: inf
ROOT
ATOM      1  C   UNL A   1      31.797  29.360  24.725  1.00  0.00     0.274 C 
ENDROOT
BRANCH   1   2
ATOM      2  O   UNL A   1      30.647  29.531  23.876  1.00  0.00    -0.462 OA
BRANCH   2   3
ATOM      3  C   UNL A   1      30.695  28.991  22.637  1.00  0.00     0.306 C 
ATOM      4  O   UNL A   1      29.895  29.225  21.742  1.00  0.00    -0.252 OA
BRANCH   3   5
ATOM      5  C   UNL A   1      31.838  28.010  22.479  1.00  0.00     0.129 C 
BRANCH   5   6
ATOM      6  C   UNL A   1      31.408  26.593  22.090  1.00  0.00     0.068 C 
BRANCH   6   7
ATOM      7  C   UNL A   1      31.513  25.645  23.255  1.00  0.00     0.045 A 
ATOM      8  C   UNL A   1      29.642  25.209  26.357  1.00  0.00     0.089 C 
ATOM      9  C   UNL A   1      30.622  24.973  25.254  1.00  0.00     0.126 A 
ATOM     10  N   UNL A   1      30.724  25.909  24.309  1.00  0.00    -0.238 NA
ATOM     11  N   UNL A   1      31.272  23.805  25.226  1.00  0.00    -0.232 NA
ATOM     12  C   UNL A   1      32.165  23.604  24.232  1.00  0.00     0.102 A 
ATOM     13  C   UNL A   1      32.292  24.507  23.190  1.00  0.00     0.054 A 
BRANCH  12  14
ATOM     14  C   UNL A   1      32.957  22.305  24.213  1.00  0.00     0.234 C 
ATOM     15  C   UNL A   1      32.222  21.163  24.902  1.00  0.00     0.078 C 
ATOM     16  N   UNL A   1      34.347  22.258  24.746  1.00  0.00    -0.325 N 
ATOM     17  C   UNL A   1      33.294  20.110  25.110  1.00  0.00     0.068 C 
ATOM     18  C   UNL A   1      34.628  20.834  24.969  1.00  0.00     0.263 C 
ATOM     19  H   UNL A   1      34.970  22.676  24.056  1.00  0.00     0.348 HD
BRANCH  16  20
ATOM     20  C   UNL A   1      34.692  23.139  25.876  1.00  0.00     0.178 C 
ATOM     21  C   UNL A   1      34.320  22.639  27.280  1.00  0.00     0.075 C 
ATOM     22  C   UNL A   1      36.192  23.477  25.841  1.00  0.00     0.075 C 
ENDBRANCH  16  20
ENDBRANCH  12  14
ENDBRANCH   6   7
ENDBRANCH   5   6
ENDBRANCH   3   5
ENDBRANCH   2   3
ENDBRANCH   1   2
BRANCH   1  23
ATOM     23  C   UNL A   1      31.767  30.340  25.901  1.00  0.00     0.275 C 
BRANCH  23  24
ATOM     24  O   UNL A   1      32.982  30.226  26.660  1.00  0.00    -0.458 OA
BRANCH  24  25
ATOM     25  C   UNL A   1      33.444  31.359  27.234  1.00  0.00     0.338 C 
ATOM     26  O   UNL A   1      32.884  32.434  27.338  1.00  0.00    -0.246 OA
BRANCH  25  27
ATOM     27  C   UNL A   1      34.751  31.066  27.836  1.00  0.00     0.060 A 
ATOM     28  C   UNL A   1      35.012  29.763  28.274  1.00  0.00     0.016 A 
ATOM     29  C   UNL A   1      35.695  32.079  27.994  1.00  0.00     0.016 A 
ATOM     30  C   UNL A   1      36.231  29.464  28.873  1.00  0.00     0.010 A 
ATOM     31  C   UNL A   1      36.919  31.777  28.592  1.00  0.00     0.010 A 
ATOM     32  C   UNL A   1      37.188  30.472  29.042  1.00  0.00    -0.014 A 
BRANCH  32  33
ATOM     33  C   UNL A   1      38.463  30.175  29.731  1.00  0.00     0.031 A 
ATOM     34  C   UNL A   1      39.430  29.211  29.109  1.00  0.00     0.074 A 
ATOM     35  C   UNL A   1      38.726  30.742  30.922  1.00  0.00     0.049 A 
ATOM     36  N   UNL A   1      40.555  28.750  29.585  1.00  0.00    -0.248 NA
ATOM     37  C   UNL A   1      39.080  28.691  27.776  1.00  0.00     0.031 C 
ATOM     38  C   UNL A   1      37.854  31.689  31.617  1.00  0.00     0.029 A 
ATOM     39  N   UNL A   1      39.789  30.579  31.772  1.00  0.00    -0.354 N 
ATOM     40  C   UNL A   1      41.030  27.858  28.632  1.00  0.00     0.074 A 
ATOM     41  C   UNL A   1      40.070  27.839  27.551  1.00  0.00     0.031 C 
ATOM     42  C   UNL A   1      38.404  32.003  32.801  1.00  0.00     0.029 A 
ATOM     43  C   UNL A   1      39.649  31.257  32.961  1.00  0.00     0.049 A 
ATOM     44  H   UNL A   1      40.577  30.030  31.554  1.00  0.00     0.167 HD
ATOM     45  C   UNL A   1      42.171  27.129  28.655  1.00  0.00     0.034 A 
ATOM     46  C   UNL A   1      40.426  31.253  34.061  1.00  0.00     0.034 A 
ATOM     47  C   UNL A   1      43.133  27.177  29.722  1.00  0.00     0.049 A 
ATOM     48  C   UNL A   1      41.688  30.433  34.058  1.00  0.00     0.074 A 
ATOM     49  C   UNL A   1      44.344  26.515  29.819  1.00  0.00     0.029 A 
ATOM     50  N   UNL A   1      42.992  27.925  30.881  1.00  0.00    -0.354 N 
ATOM     51  N   UNL A   1      42.183  29.682  33.103  1.00  0.00    -0.248 NA
ATOM     52  C   UNL A   1      42.517  30.481  35.272  1.00  0.00     0.031 C 
ATOM     53  C   UNL A   1      44.928  26.852  31.045  1.00  0.00     0.029 A 
ATOM     54  C   UNL A   1      44.089  27.738  31.703  1.00  0.00     0.049 A 
ATOM     55  H   UNL A   1      42.223  28.504  31.089  1.00  0.00     0.167 HD
ATOM     56  C   UNL A   1      43.393  29.195  33.585  1.00  0.00     0.074 A 
ATOM     57  C   UNL A   1      43.566  29.754  34.912  1.00  0.00     0.031 C 
ATOM     58  C   UNL A   1      44.272  28.350  32.994  1.00  0.00     0.034 A 
BRANCH  45  59
ATOM     59  C   UNL A   1      42.458  26.242  27.473  1.00  0.00     0.023 A 
ATOM     60  C   UNL A   1      43.198  26.751  26.387  1.00  0.00     0.012 A 
ATOM     61  C   UNL A   1      42.045  24.896  27.461  1.00  0.00     0.148 A 
ATOM     62  C   UNL A   1      43.502  25.940  25.294  1.00  0.00     0.002 A 
ATOM     63  C   UNL A   1      42.385  24.083  26.385  1.00  0.00     0.091 A 
ATOM     64  F   UNL A   1      41.320  24.439  28.492  1.00  0.00    -0.205 F 
ATOM     65  C   UNL A   1      43.105  24.606  25.298  1.00  0.00     0.022 A 
BRANCH  63  66
ATOM     66  S   UNL A   1      41.981  22.334  26.329  1.00  0.00     0.127 S 
ATOM     67  O   UNL A   1      42.683  21.907  25.118  1.00  0.00    -0.237 OA
ATOM     68  O   UNL A   1      42.566  21.841  27.577  1.00  0.00    -0.237 OA
ATOM     69  O   UNL A   1      40.528  22.259  26.270  1.00  0.00    -0.744 OA
ENDBRANCH  63  66
ENDBRANCH  45  59
BRANCH  46  70
ATOM     70  C   UNL A   1      40.053  32.087  35.238  1.00  0.00     0.023 A 
ATOM     71  C   UNL A   1      40.630  33.362  35.391  1.00  0.00     0.012 A 
ATOM     72  C   UNL A   1      39.112  31.640  36.186  1.00  0.00     0.148 A 
ATOM     73  C   UNL A   1      40.297  34.167  36.481  1.00  0.00     0.002 A 
ATOM     74  C   UNL A   1      38.744  32.469  37.240  1.00  0.00     0.091 A 
ATOM     75  F   UNL A   1      38.589  30.415  36.036  1.00  0.00    -0.205 F 
ATOM     76  C   UNL A   1      39.346  33.727  37.398  1.00  0.00     0.022 A 
BRANCH  74  77
ATOM     77  S   UNL A   1      37.436  32.032  38.392  1.00  0.00     0.127 S 
ATOM     78  O   UNL A   1      38.023  32.419  39.672  1.00  0.00    -0.237 OA
ATOM     79  O   UNL A   1      36.333  32.880  37.940  1.00  0.00    -0.237 OA
ATOM     80  O   UNL A   1      37.210  30.605  38.202  1.00  0.00    -0.744 OA
ENDBRANCH  74  77
ENDBRANCH  46  70
BRANCH  58  81
ATOM     81  C   UNL A   1      45.522  27.999  33.756  1.00  0.00     0.023 A 
ATOM     82  C   UNL A   1      46.666  28.812  33.630  1.00  0.00     0.012 A 
ATOM     83  C   UNL A   1      45.537  26.916  34.656  1.00  0.00     0.148 A 
ATOM     84  C   UNL A   1      47.815  28.536  34.369  1.00  0.00     0.002 A 
ATOM     85  C   UNL A   1      46.670  26.674  35.423  1.00  0.00     0.091 A 
ATOM     86  F   UNL A   1      44.446  26.143  34.746  1.00  0.00    -0.205 F 
ATOM     87  C   UNL A   1      47.813  27.476  35.273  1.00  0.00     0.022 A 
BRANCH  85  88
ATOM     88  S   UNL A   1      46.722  25.390  36.679  1.00  0.00     0.127 S 
ATOM     89  O   UNL A   1      45.848  25.947  37.711  1.00  0.00    -0.237 OA
ATOM     90  O   UNL A   1      46.169  24.236  35.969  1.00  0.00    -0.237 OA
ATOM     91  O   UNL A   1      48.124  25.253  37.050  1.00  0.00    -0.744 OA
ENDBRANCH  85  88
ENDBRANCH  58  81
ENDBRANCH  32  33
ENDBRANCH  25  27
ENDBRANCH  24  25
ENDBRANCH  23  24
ENDBRANCH   1  23
TORSDOF 18
ENDMDL
