MODEL 1
REMARK VINA RESULT:     -11.3      0.000      0.000
REMARK SMILES O=C(Cc1ccn(-c2ccccc2F)c1)OCCOC(=O)c1ccc(-c2c3nc(c(-c4cccc(S(=O)(=O)[O-])c4F)c4ccc([nH]4)c(-c4cccc(S(=O)(=O)[O-])c4F)c4nc(c(-c5cccc(S(=O)(=O)[O-])c5F)c5ccc2[nH]5)C=C4)C=C3)cc1
REMARK SMILES IDX 18 1 17 2 16 3 2 4 1 5 3 6 4 7 5 8 15 9 6 10 7 11 8 12 9 13
REMARK SMILES IDX 13 14 10 15 12 16 14 17 11 18 19 19 20 20 21 21 22 22 23 23
REMARK SMILES IDX 84 24 24 25 83 26 25 27 26 28 27 29 77 30 28 31 82 32 76 33
REMARK SMILES IDX 78 34 29 35 81 36 75 37 74 38 30 40 62 41 42 42 61 43 43 44
REMARK SMILES IDX 46 45 60 46 79 47 44 48 45 49 59 51 80 52 47 53 31 54 32 55
REMARK SMILES IDX 40 56 33 57 35 58 41 59 34 60 36 61 37 62 38 63 39 64 63 65
REMARK SMILES IDX 64 66 72 67 65 68 67 69 73 70 66 71 68 72 69 73 70 74 71 75
REMARK SMILES IDX 48 76 49 77 57 78 50 79 52 80 58 81 51 82 53 83 54 84 55 85
REMARK SMILES IDX 56 86
REMARK H PARENT 78 39 46 50
REMARK Flexibility Score: inf
ROOT
ATOM      1  C   UNL A   1      34.831  29.951  27.668  1.00  0.00     0.275 C 
ENDROOT
BRANCH   1   2
ATOM      2  C   UNL A   1      33.800  31.000  27.301  1.00  0.00     0.274 C 
BRANCH   2   3
ATOM      3  O   UNL A   1      33.701  32.060  28.286  1.00  0.00    -0.462 OA
BRANCH   3   4
ATOM      4  C   UNL A   1      34.102  33.353  28.164  1.00  0.00     0.310 C 
ATOM      5  O   UNL A   1      35.069  33.621  27.445  1.00  0.00    -0.252 OA
BRANCH   4   6
ATOM      6  C   UNL A   1      33.334  34.468  28.858  1.00  0.00     0.159 C 
BRANCH   6   7
ATOM      7  C   UNL A   1      33.834  34.785  30.221  1.00  0.00    -0.019 A 
ATOM      8  C   UNL A   1      33.375  35.800  31.107  1.00  0.00     0.024 A 
ATOM      9  C   UNL A   1      34.876  34.157  30.863  1.00  0.00     0.095 A 
ATOM     10  C   UNL A   1      34.145  35.733  32.253  1.00  0.00     0.091 A 
ATOM     11  N   UNL A   1      35.111  34.779  32.055  1.00  0.00    -0.321 N 
BRANCH  11  12
ATOM     12  C   UNL A   1      36.105  34.342  32.932  1.00  0.00     0.081 A 
ATOM     13  C   UNL A   1      37.419  34.749  32.709  1.00  0.00     0.030 A 
ATOM     14  C   UNL A   1      35.723  33.759  34.141  1.00  0.00     0.147 A 
ATOM     15  C   UNL A   1      38.345  34.597  33.740  1.00  0.00     0.002 A 
ATOM     16  C   UNL A   1      36.657  33.569  35.148  1.00  0.00     0.041 A 
ATOM     17  F   UNL A   1      34.452  33.382  34.355  1.00  0.00    -0.205 F 
ATOM     18  C   UNL A   1      37.967  34.008  34.953  1.00  0.00     0.003 A 
ENDBRANCH  11  12
ENDBRANCH   6   7
ENDBRANCH   4   6
ENDBRANCH   3   4
ENDBRANCH   2   3
ENDBRANCH   1   2
BRANCH   1  19
ATOM     19  O   UNL A   1      36.121  30.456  27.375  1.00  0.00    -0.458 OA
BRANCH  19  20
ATOM     20  C   UNL A   1      36.954  30.513  28.439  1.00  0.00     0.338 C 
ATOM     21  O   UNL A   1      36.994  31.358  29.306  1.00  0.00    -0.246 OA
BRANCH  20  22
ATOM     22  C   UNL A   1      37.890  29.398  28.344  1.00  0.00     0.060 A 
ATOM     23  C   UNL A   1      38.073  28.634  29.500  1.00  0.00     0.016 A 
ATOM     24  C   UNL A   1      38.776  29.382  27.266  1.00  0.00     0.016 A 
ATOM     25  C   UNL A   1      39.290  28.022  29.673  1.00  0.00     0.010 A 
ATOM     26  C   UNL A   1      40.013  28.850  27.479  1.00  0.00     0.010 A 
ATOM     27  C   UNL A   1      40.269  28.215  28.694  1.00  0.00    -0.014 A 
BRANCH  27  28
ATOM     28  C   UNL A   1      41.573  27.600  28.884  1.00  0.00     0.031 A 
ATOM     29  C   UNL A   1      41.465  26.109  28.452  1.00  0.00     0.074 A 
ATOM     30  C   UNL A   1      42.511  28.452  29.422  1.00  0.00     0.049 A 
ATOM     31  N   UNL A   1      42.074  25.065  28.917  1.00  0.00    -0.248 NA
ATOM     32  C   UNL A   1      40.438  25.683  27.442  1.00  0.00     0.031 C 
ATOM     33  C   UNL A   1      42.327  29.910  29.691  1.00  0.00     0.029 A 
ATOM     34  N   UNL A   1      43.808  28.299  29.853  1.00  0.00    -0.354 N 
ATOM     35  C   UNL A   1      41.736  23.965  28.086  1.00  0.00     0.074 A 
ATOM     36  C   UNL A   1      40.610  24.365  27.314  1.00  0.00     0.031 C 
ATOM     37  C   UNL A   1      43.398  30.440  30.334  1.00  0.00     0.029 A 
ATOM     38  C   UNL A   1      44.403  29.412  30.518  1.00  0.00     0.049 A 
ATOM     39  H   UNL A   1      44.303  27.460  29.710  1.00  0.00     0.167 HD
ATOM     40  C   UNL A   1      42.529  22.858  27.979  1.00  0.00     0.034 A 
ATOM     41  C   UNL A   1      45.599  29.448  31.199  1.00  0.00     0.034 A 
ATOM     42  C   UNL A   1      43.677  23.047  28.804  1.00  0.00     0.049 A 
ATOM     43  C   UNL A   1      46.210  28.147  30.893  1.00  0.00     0.074 A 
ATOM     44  C   UNL A   1      43.813  23.048  30.168  1.00  0.00     0.029 A 
ATOM     45  N   UNL A   1      44.704  23.756  28.222  1.00  0.00    -0.354 N 
ATOM     46  N   UNL A   1      46.660  27.806  29.720  1.00  0.00    -0.248 NA
ATOM     47  C   UNL A   1      46.147  27.093  31.910  1.00  0.00     0.031 C 
ATOM     48  C   UNL A   1      44.604  24.193  30.382  1.00  0.00     0.029 A 
ATOM     49  C   UNL A   1      45.183  24.614  29.177  1.00  0.00     0.049 A 
ATOM     50  H   UNL A   1      45.032  23.665  27.299  1.00  0.00     0.167 HD
ATOM     51  C   UNL A   1      46.561  26.440  29.770  1.00  0.00     0.074 A 
ATOM     52  C   UNL A   1      46.584  26.076  31.174  1.00  0.00     0.031 C 
ATOM     53  C   UNL A   1      45.943  25.765  28.762  1.00  0.00     0.034 A 
BRANCH  40  54
ATOM     54  C   UNL A   1      42.580  21.670  27.056  1.00  0.00     0.023 A 
ATOM     55  C   UNL A   1      41.803  20.554  27.481  1.00  0.00     0.012 A 
ATOM     56  C   UNL A   1      43.528  21.453  26.043  1.00  0.00     0.148 A 
ATOM     57  C   UNL A   1      42.044  19.259  27.032  1.00  0.00     0.002 A 
ATOM     58  C   UNL A   1      43.732  20.156  25.557  1.00  0.00     0.091 A 
ATOM     59  F   UNL A   1      44.274  22.477  25.615  1.00  0.00    -0.205 F 
ATOM     60  C   UNL A   1      43.023  19.059  26.079  1.00  0.00     0.022 A 
BRANCH  58  61
ATOM     61  S   UNL A   1      44.916  19.753  24.266  1.00  0.00     0.127 S 
ATOM     62  O   UNL A   1      44.561  20.710  23.219  1.00  0.00    -0.237 OA
ATOM     63  O   UNL A   1      46.189  20.034  24.935  1.00  0.00    -0.237 OA
ATOM     64  O   UNL A   1      44.702  18.348  23.953  1.00  0.00    -0.744 OA
ENDBRANCH  58  61
ENDBRANCH  40  54
BRANCH  41  65
ATOM     65  C   UNL A   1      46.339  30.311  32.213  1.00  0.00     0.023 A 
ATOM     66  C   UNL A   1      46.262  30.168  33.604  1.00  0.00     0.012 A 
ATOM     67  C   UNL A   1      47.307  31.267  31.750  1.00  0.00     0.148 A 
ATOM     68  C   UNL A   1      47.165  30.845  34.460  1.00  0.00     0.002 A 
ATOM     69  C   UNL A   1      48.287  31.810  32.575  1.00  0.00     0.091 A 
ATOM     70  F   UNL A   1      47.267  31.691  30.481  1.00  0.00    -0.205 F 
ATOM     71  C   UNL A   1      48.212  31.614  33.947  1.00  0.00     0.022 A 
BRANCH  69  72
ATOM     72  S   UNL A   1      49.761  32.618  31.905  1.00  0.00     0.127 S 
ATOM     73  O   UNL A   1      49.242  33.913  31.472  1.00  0.00    -0.237 OA
ATOM     74  O   UNL A   1      50.626  32.666  33.084  1.00  0.00    -0.237 OA
ATOM     75  O   UNL A   1      50.248  31.760  30.834  1.00  0.00    -0.744 OA
ENDBRANCH  69  72
ENDBRANCH  41  65
BRANCH  53  76
ATOM     76  C   UNL A   1      45.927  26.458  27.391  1.00  0.00     0.023 A 
ATOM     77  C   UNL A   1      44.684  26.973  26.967  1.00  0.00     0.012 A 
ATOM     78  C   UNL A   1      47.004  26.577  26.471  1.00  0.00     0.148 A 
ATOM     79  C   UNL A   1      44.508  27.564  25.711  1.00  0.00     0.002 A 
ATOM     80  C   UNL A   1      46.823  27.150  25.201  1.00  0.00     0.091 A 
ATOM     81  F   UNL A   1      48.208  26.143  26.832  1.00  0.00    -0.205 F 
ATOM     82  C   UNL A   1      45.573  27.652  24.828  1.00  0.00     0.022 A 
BRANCH  80  83
ATOM     83  S   UNL A   1      48.107  27.251  23.930  1.00  0.00     0.127 S 
ATOM     84  O   UNL A   1      48.318  25.844  23.577  1.00  0.00    -0.237 OA
ATOM     85  O   UNL A   1      47.454  28.035  22.886  1.00  0.00    -0.237 OA
ATOM     86  O   UNL A   1      49.257  27.883  24.559  1.00  0.00    -0.744 OA
ENDBRANCH  80  83
ENDBRANCH  53  76
ENDBRANCH  27  28
ENDBRANCH  20  22
ENDBRANCH  19  20
ENDBRANCH   1  19
TORSDOF 16
ENDMDL
MODEL 2
REMARK VINA RESULT:     -11.2      4.938     11.382
REMARK SMILES O=C(Cc1ccn(-c2ccccc2F)c1)OCCOC(=O)c1ccc(-c2c3nc(c(-c4cccc(S(=O)(=O)[O-])c4F)c4ccc([nH]4)c(-c4cccc(S(=O)(=O)[O-])c4F)c4nc(c(-c5cccc(S(=O)(=O)[O-])c5F)c5ccc2[nH]5)C=C4)C=C3)cc1
REMARK SMILES IDX 18 1 17 2 16 3 2 4 1 5 3 6 4 7 5 8 15 9 6 10 7 11 8 12 9 13
REMARK SMILES IDX 13 14 10 15 12 16 14 17 11 18 19 19 20 20 21 21 22 22 23 23
REMARK SMILES IDX 84 24 24 25 83 26 25 27 26 28 27 29 77 30 28 31 82 32 76 33
REMARK SMILES IDX 78 34 29 35 81 36 75 37 74 38 30 40 62 41 42 42 61 43 43 44
REMARK SMILES IDX 46 45 60 46 79 47 44 48 45 49 59 51 80 52 47 53 31 54 32 55
REMARK SMILES IDX 40 56 33 57 35 58 41 59 34 60 36 61 37 62 38 63 39 64 63 65
REMARK SMILES IDX 64 66 72 67 65 68 67 69 73 70 66 71 68 72 69 73 70 74 71 75
REMARK SMILES IDX 48 76 49 77 57 78 50 79 52 80 58 81 51 82 53 83 54 84 55 85
REMARK SMILES IDX 56 86
REMARK H PARENT 78 39 46 50
REMARK Flexibility Score: inf
ROOT
ATOM      1  C   UNL A   1      39.157  22.586  26.367  1.00  0.00     0.275 C 
ENDROOT
BRANCH   1   2
ATOM      2  C   UNL A   1      38.125  22.251  25.309  1.00  0.00     0.274 C 
BRANCH   2   3
ATOM      3  O   UNL A   1      37.098  21.349  25.792  1.00  0.00    -0.462 OA
BRANCH   3   4
ATOM      4  C   UNL A   1      35.754  21.556  25.826  1.00  0.00     0.310 C 
ATOM      5  O   UNL A   1      35.027  20.937  25.045  1.00  0.00    -0.252 OA
BRANCH   4   6
ATOM      6  C   UNL A   1      35.145  22.497  26.855  1.00  0.00     0.159 C 
BRANCH   6   7
ATOM      7  C   UNL A   1      34.161  23.454  26.287  1.00  0.00    -0.019 A 
ATOM      8  C   UNL A   1      32.743  23.424  26.405  1.00  0.00     0.024 A 
ATOM      9  C   UNL A   1      34.458  24.544  25.501  1.00  0.00     0.095 A 
ATOM     10  C   UNL A   1      32.242  24.504  25.702  1.00  0.00     0.091 A 
ATOM     11  N   UNL A   1      33.297  25.130  25.088  1.00  0.00    -0.321 N 
BRANCH  11  12
ATOM     12  C   UNL A   1      33.292  26.274  24.288  1.00  0.00     0.081 A 
ATOM     13  C   UNL A   1      33.592  27.502  24.876  1.00  0.00     0.030 A 
ATOM     14  C   UNL A   1      33.270  26.122  22.901  1.00  0.00     0.147 A 
ATOM     15  C   UNL A   1      33.909  28.576  24.045  1.00  0.00     0.002 A 
ATOM     16  C   UNL A   1      33.543  27.203  22.078  1.00  0.00     0.041 A 
ATOM     17  F   UNL A   1      32.995  24.933  22.340  1.00  0.00    -0.205 F 
ATOM     18  C   UNL A   1      33.884  28.428  22.652  1.00  0.00     0.003 A 
ENDBRANCH  11  12
ENDBRANCH   6   7
ENDBRANCH   4   6
ENDBRANCH   3   4
ENDBRANCH   2   3
ENDBRANCH   1   2
BRANCH   1  19
ATOM     19  O   UNL A   1      38.840  23.845  26.933  1.00  0.00    -0.458 OA
BRANCH  19  20
ATOM     20  C   UNL A   1      39.871  24.449  27.566  1.00  0.00     0.338 C 
ATOM     21  O   UNL A   1      40.947  23.972  27.854  1.00  0.00    -0.246 OA
BRANCH  20  22
ATOM     22  C   UNL A   1      39.451  25.795  27.937  1.00  0.00     0.060 A 
ATOM     23  C   UNL A   1      39.937  26.842  27.149  1.00  0.00     0.016 A 
ATOM     24  C   UNL A   1      38.910  25.981  29.210  1.00  0.00     0.016 A 
ATOM     25  C   UNL A   1      40.098  28.068  27.746  1.00  0.00     0.010 A 
ATOM     26  C   UNL A   1      39.153  27.173  29.827  1.00  0.00     0.010 A 
ATOM     27  C   UNL A   1      39.782  28.185  29.103  1.00  0.00    -0.014 A 
BRANCH  27  28
ATOM     28  C   UNL A   1      39.981  29.470  29.755  1.00  0.00     0.031 A 
ATOM     29  C   UNL A   1      38.773  30.381  29.393  1.00  0.00     0.074 A 
ATOM     30  C   UNL A   1      41.165  29.557  30.453  1.00  0.00     0.049 A 
ATOM     31  N   UNL A   1      38.725  31.663  29.220  1.00  0.00    -0.248 NA
ATOM     32  C   UNL A   1      37.443  29.777  29.044  1.00  0.00     0.031 C 
ATOM     33  C   UNL A   1      42.140  28.446  30.676  1.00  0.00     0.029 A 
ATOM     34  N   UNL A   1      41.808  30.569  31.126  1.00  0.00    -0.354 N 
ATOM     35  C   UNL A   1      37.362  32.022  29.048  1.00  0.00     0.074 A 
ATOM     36  C   UNL A   1      36.651  30.819  28.782  1.00  0.00     0.031 C 
ATOM     37  C   UNL A   1      43.261  28.884  31.301  1.00  0.00     0.029 A 
ATOM     38  C   UNL A   1      43.130  30.299  31.587  1.00  0.00     0.049 A 
ATOM     39  H   UNL A   1      41.376  31.439  31.281  1.00  0.00     0.167 HD
ATOM     40  C   UNL A   1      36.898  33.279  29.312  1.00  0.00     0.034 A 
ATOM     41  C   UNL A   1      44.040  31.189  32.111  1.00  0.00     0.034 A 
ATOM     42  C   UNL A   1      37.990  34.074  29.772  1.00  0.00     0.049 A 
ATOM     43  C   UNL A   1      43.258  32.421  32.283  1.00  0.00     0.074 A 
ATOM     44  C   UNL A   1      39.074  34.583  29.106  1.00  0.00     0.029 A 
ATOM     45  N   UNL A   1      38.265  33.966  31.117  1.00  0.00    -0.354 N 
ATOM     46  N   UNL A   1      42.309  32.570  33.160  1.00  0.00    -0.248 NA
ATOM     47  C   UNL A   1      43.418  33.490  31.293  1.00  0.00     0.031 C 
ATOM     48  C   UNL A   1      40.131  34.262  29.979  1.00  0.00     0.029 A 
ATOM     49  C   UNL A   1      39.628  33.909  31.239  1.00  0.00     0.049 A 
ATOM     50  H   UNL A   1      37.609  33.935  31.850  1.00  0.00     0.167 HD
ATOM     51  C   UNL A   1      41.541  33.546  32.578  1.00  0.00     0.074 A 
ATOM     52  C   UNL A   1      42.415  34.272  31.675  1.00  0.00     0.031 C 
ATOM     53  C   UNL A   1      40.198  33.367  32.446  1.00  0.00     0.034 A 
BRANCH  40  54
ATOM     54  C   UNL A   1      35.535  33.904  29.453  1.00  0.00     0.023 A 
ATOM     55  C   UNL A   1      35.001  34.442  28.246  1.00  0.00     0.012 A 
ATOM     56  C   UNL A   1      34.920  34.278  30.658  1.00  0.00     0.148 A 
ATOM     57  C   UNL A   1      34.001  35.409  28.236  1.00  0.00     0.002 A 
ATOM     58  C   UNL A   1      33.879  35.214  30.638  1.00  0.00     0.091 A 
ATOM     59  F   UNL A   1      35.391  33.792  31.812  1.00  0.00    -0.205 F 
ATOM     60  C   UNL A   1      33.451  35.807  29.438  1.00  0.00     0.022 A 
BRANCH  58  61
ATOM     61  S   UNL A   1      33.017  35.772  32.113  1.00  0.00     0.127 S 
ATOM     62  O   UNL A   1      32.623  34.508  32.732  1.00  0.00    -0.237 OA
ATOM     63  O   UNL A   1      34.079  36.488  32.824  1.00  0.00    -0.237 OA
ATOM     64  O   UNL A   1      31.933  36.623  31.644  1.00  0.00    -0.744 OA
ENDBRANCH  58  61
ENDBRANCH  40  54
BRANCH  41  65
ATOM     65  C   UNL A   1      45.533  31.301  32.397  1.00  0.00     0.023 A 
ATOM     66  C   UNL A   1      46.110  31.333  33.672  1.00  0.00     0.012 A 
ATOM     67  C   UNL A   1      46.465  31.232  31.306  1.00  0.00     0.148 A 
ATOM     68  C   UNL A   1      47.509  31.189  33.846  1.00  0.00     0.002 A 
ATOM     69  C   UNL A   1      47.813  30.940  31.482  1.00  0.00     0.091 A 
ATOM     70  F   UNL A   1      46.047  31.485  30.060  1.00  0.00    -0.205 F 
ATOM     71  C   UNL A   1      48.351  30.933  32.761  1.00  0.00     0.022 A 
BRANCH  69  72
ATOM     72  S   UNL A   1      48.860  30.392  30.111  1.00  0.00     0.127 S 
ATOM     73  O   UNL A   1      48.992  31.607  29.309  1.00  0.00    -0.237 OA
ATOM     74  O   UNL A   1      50.076  29.988  30.818  1.00  0.00    -0.237 OA
ATOM     75  O   UNL A   1      48.148  29.300  29.462  1.00  0.00    -0.744 OA
ENDBRANCH  69  72
ENDBRANCH  41  65
BRANCH  53  76
ATOM     76  C   UNL A   1      39.538  32.410  33.450  1.00  0.00     0.023 A 
ATOM     77  C   UNL A   1      39.155  31.148  32.949  1.00  0.00     0.012 A 
ATOM     78  C   UNL A   1      39.207  32.675  34.806  1.00  0.00     0.148 A 
ATOM     79  C   UNL A   1      38.480  30.206  33.732  1.00  0.00     0.002 A 
ATOM     80  C   UNL A   1      38.509  31.738  35.587  1.00  0.00     0.091 A 
ATOM     81  F   UNL A   1      39.577  33.834  35.343  1.00  0.00    -0.205 F 
ATOM     82  C   UNL A   1      38.155  30.498  35.048  1.00  0.00     0.022 A 
BRANCH  80  83
ATOM     83  S   UNL A   1      37.956  32.028  37.285  1.00  0.00     0.127 S 
ATOM     84  O   UNL A   1      39.203  32.380  37.971  1.00  0.00    -0.237 OA
ATOM     85  O   UNL A   1      37.028  33.143  37.126  1.00  0.00    -0.237 OA
ATOM     86  O   UNL A   1      37.362  30.779  37.741  1.00  0.00    -0.744 OA
ENDBRANCH  80  83
ENDBRANCH  53  76
ENDBRANCH  27  28
ENDBRANCH  20  22
ENDBRANCH  19  20
ENDBRANCH   1  19
TORSDOF 16
ENDMDL
MODEL 3
REMARK VINA RESULT:     -11.2      4.152      9.598
REMARK SMILES O=C(Cc1ccn(-c2ccccc2F)c1)OCCOC(=O)c1ccc(-c2c3nc(c(-c4cccc(S(=O)(=O)[O-])c4F)c4ccc([nH]4)c(-c4cccc(S(=O)(=O)[O-])c4F)c4nc(c(-c5cccc(S(=O)(=O)[O-])c5F)c5ccc2[nH]5)C=C4)C=C3)cc1
REMARK SMILES IDX 18 1 17 2 16 3 2 4 1 5 3 6 4 7 5 8 15 9 6 10 7 11 8 12 9 13
REMARK SMILES IDX 13 14 10 15 12 16 14 17 11 18 19 19 20 20 21 21 22 22 23 23
REMARK SMILES IDX 84 24 24 25 83 26 25 27 26 28 27 29 77 30 28 31 82 32 76 33
REMARK SMILES IDX 78 34 29 35 81 36 75 37 74 38 30 40 62 41 42 42 61 43 43 44
REMARK SMILES IDX 46 45 60 46 79 47 44 48 45 49 59 51 80 52 47 53 31 54 32 55
REMARK SMILES IDX 40 56 33 57 35 58 41 59 34 60 36 61 37 62 38 63 39 64 63 65
REMARK SMILES IDX 64 66 72 67 65 68 67 69 73 70 66 71 68 72 69 73 70 74 71 75
REMARK SMILES IDX 48 76 49 77 57 78 50 79 52 80 58 81 51 82 53 83 54 84 55 85
REMARK SMILES IDX 56 86
REMARK H PARENT 78 39 46 50
REMARK Flexibility Score: inf
ROOT
ATOM      1  C   UNL A   1      39.458  20.487  25.586  1.00  0.00     0.275 C 
ENDROOT
BRANCH   1   2
ATOM      2  C   UNL A   1      38.186  19.739  25.237  1.00  0.00     0.274 C 
BRANCH   2   3
ATOM      3  O   UNL A   1      37.229  20.561  24.523  1.00  0.00    -0.462 OA
BRANCH   3   4
ATOM      4  C   UNL A   1      36.480  21.585  25.012  1.00  0.00     0.310 C 
ATOM      5  O   UNL A   1      35.651  21.358  25.897  1.00  0.00    -0.252 OA
BRANCH   4   6
ATOM      6  C   UNL A   1      36.699  23.006  24.515  1.00  0.00     0.159 C 
BRANCH   6   7
ATOM      7  C   UNL A   1      35.466  23.835  24.500  1.00  0.00    -0.019 A 
ATOM      8  C   UNL A   1      34.432  23.848  23.521  1.00  0.00     0.024 A 
ATOM      9  C   UNL A   1      35.120  24.781  25.437  1.00  0.00     0.095 A 
ATOM     10  C   UNL A   1      33.497  24.786  23.914  1.00  0.00     0.091 A 
ATOM     11  N   UNL A   1      33.972  25.406  25.042  1.00  0.00    -0.321 N 
BRANCH  11  12
ATOM     12  C   UNL A   1      33.374  26.405  25.812  1.00  0.00     0.081 A 
ATOM     13  C   UNL A   1      33.944  27.677  25.817  1.00  0.00     0.030 A 
ATOM     14  C   UNL A   1      32.092  26.184  26.316  1.00  0.00     0.147 A 
ATOM     15  C   UNL A   1      33.188  28.741  26.305  1.00  0.00     0.002 A 
ATOM     16  C   UNL A   1      31.359  27.238  26.840  1.00  0.00     0.041 A 
ATOM     17  F   UNL A   1      31.541  24.959  26.295  1.00  0.00    -0.205 F 
ATOM     18  C   UNL A   1      31.902  28.524  26.816  1.00  0.00     0.003 A 
ENDBRANCH  11  12
ENDBRANCH   6   7
ENDBRANCH   4   6
ENDBRANCH   3   4
ENDBRANCH   2   3
ENDBRANCH   1   2
BRANCH   1  19
ATOM     19  O   UNL A   1      40.178  19.739  26.550  1.00  0.00    -0.458 OA
BRANCH  19  20
ATOM     20  C   UNL A   1      41.427  19.391  26.166  1.00  0.00     0.338 C 
ATOM     21  O   UNL A   1      41.794  18.334  25.700  1.00  0.00    -0.246 OA
BRANCH  20  22
ATOM     22  C   UNL A   1      42.325  20.496  26.481  1.00  0.00     0.060 A 
ATOM     23  C   UNL A   1      42.341  20.930  27.809  1.00  0.00     0.016 A 
ATOM     24  C   UNL A   1      42.820  21.255  25.420  1.00  0.00     0.016 A 
ATOM     25  C   UNL A   1      42.646  22.248  28.045  1.00  0.00     0.010 A 
ATOM     26  C   UNL A   1      43.035  22.583  25.645  1.00  0.00     0.010 A 
ATOM     27  C   UNL A   1      42.904  23.071  26.944  1.00  0.00    -0.014 A 
BRANCH  27  28
ATOM     28  C   UNL A   1      43.194  24.477  27.180  1.00  0.00     0.031 A 
ATOM     29  C   UNL A   1      41.846  25.203  27.454  1.00  0.00     0.074 A 
ATOM     30  C   UNL A   1      44.529  24.793  27.053  1.00  0.00     0.049 A 
ATOM     31  N   UNL A   1      41.482  26.411  27.165  1.00  0.00    -0.248 NA
ATOM     32  C   UNL A   1      40.678  24.447  28.018  1.00  0.00     0.031 C 
ATOM     33  C   UNL A   1      45.646  23.826  26.828  1.00  0.00     0.029 A 
ATOM     34  N   UNL A   1      45.242  25.968  27.089  1.00  0.00    -0.354 N 
ATOM     35  C   UNL A   1      40.211  26.630  27.758  1.00  0.00     0.074 A 
ATOM     36  C   UNL A   1      39.700  25.351  28.117  1.00  0.00     0.031 C 
ATOM     37  C   UNL A   1      46.827  24.465  26.629  1.00  0.00     0.029 A 
ATOM     38  C   UNL A   1      46.623  25.896  26.741  1.00  0.00     0.049 A 
ATOM     39  H   UNL A   1      44.819  26.819  27.342  1.00  0.00     0.167 HD
ATOM     40  C   UNL A   1      39.752  27.879  28.065  1.00  0.00     0.034 A 
ATOM     41  C   UNL A   1      47.494  26.939  26.520  1.00  0.00     0.034 A 
ATOM     42  C   UNL A   1      40.754  28.827  27.701  1.00  0.00     0.049 A 
ATOM     43  C   UNL A   1      46.729  28.121  26.937  1.00  0.00     0.074 A 
ATOM     44  C   UNL A   1      41.182  29.255  26.471  1.00  0.00     0.029 A 
ATOM     45  N   UNL A   1      41.736  29.030  28.645  1.00  0.00    -0.354 N 
ATOM     46  N   UNL A   1      46.409  28.390  28.170  1.00  0.00    -0.248 NA
ATOM     47  C   UNL A   1      46.125  28.961  25.899  1.00  0.00     0.031 C 
ATOM     48  C   UNL A   1      42.582  29.204  26.615  1.00  0.00     0.029 A 
ATOM     49  C   UNL A   1      42.926  29.095  27.970  1.00  0.00     0.049 A 
ATOM     50  H   UNL A   1      41.608  29.113  29.617  1.00  0.00     0.167 HD
ATOM     51  C   UNL A   1      45.288  29.162  28.005  1.00  0.00     0.074 A 
ATOM     52  C   UNL A   1      45.376  29.736  26.675  1.00  0.00     0.031 C 
ATOM     53  C   UNL A   1      44.150  28.867  28.693  1.00  0.00     0.034 A 
BRANCH  40  54
ATOM     54  C   UNL A   1      38.604  28.424  28.873  1.00  0.00     0.023 A 
ATOM     55  C   UNL A   1      37.626  29.131  28.116  1.00  0.00     0.012 A 
ATOM     56  C   UNL A   1      38.578  28.575  30.269  1.00  0.00     0.148 A 
ATOM     57  C   UNL A   1      36.755  30.051  28.690  1.00  0.00     0.002 A 
ATOM     58  C   UNL A   1      37.664  29.464  30.848  1.00  0.00     0.091 A 
ATOM     59  F   UNL A   1      39.477  27.925  31.015  1.00  0.00    -0.205 F 
ATOM     60  C   UNL A   1      36.787  30.229  30.059  1.00  0.00     0.022 A 
BRANCH  58  61
ATOM     61  S   UNL A   1      37.536  29.744  32.619  1.00  0.00     0.127 S 
ATOM     62  O   UNL A   1      38.836  30.337  32.928  1.00  0.00    -0.237 OA
ATOM     63  O   UNL A   1      36.412  30.681  32.689  1.00  0.00    -0.237 OA
ATOM     64  O   UNL A   1      37.266  28.442  33.210  1.00  0.00    -0.744 OA
ENDBRANCH  58  61
ENDBRANCH  40  54
BRANCH  41  65
ATOM     65  C   UNL A   1      48.850  27.212  25.880  1.00  0.00     0.023 A 
ATOM     66  C   UNL A   1      50.087  27.075  26.521  1.00  0.00     0.012 A 
ATOM     67  C   UNL A   1      48.918  27.501  24.474  1.00  0.00     0.148 A 
ATOM     68  C   UNL A   1      51.299  27.110  25.788  1.00  0.00     0.002 A 
ATOM     69  C   UNL A   1      50.091  27.384  23.736  1.00  0.00     0.091 A 
ATOM     70  F   UNL A   1      47.827  27.932  23.832  1.00  0.00    -0.205 F 
ATOM     71  C   UNL A   1      51.300  27.202  24.394  1.00  0.00     0.022 A 
BRANCH  69  72
ATOM     72  S   UNL A   1      50.078  27.281  21.929  1.00  0.00     0.127 S 
ATOM     73  O   UNL A   1      48.998  26.330  21.675  1.00  0.00    -0.237 OA
ATOM     74  O   UNL A   1      49.776  28.665  21.562  1.00  0.00    -0.237 OA
ATOM     75  O   UNL A   1      51.404  26.828  21.534  1.00  0.00    -0.744 OA
ENDBRANCH  69  72
ENDBRANCH  41  65
BRANCH  53  76
ATOM     76  C   UNL A   1      44.334  28.104  30.014  1.00  0.00     0.023 A 
ATOM     77  C   UNL A   1      43.984  26.738  29.999  1.00  0.00     0.012 A 
ATOM     78  C   UNL A   1      44.750  28.634  31.266  1.00  0.00     0.148 A 
ATOM     79  C   UNL A   1      44.033  25.941  31.147  1.00  0.00     0.002 A 
ATOM     80  C   UNL A   1      44.778  27.839  32.424  1.00  0.00     0.091 A 
ATOM     81  F   UNL A   1      45.128  29.907  31.331  1.00  0.00    -0.205 F 
ATOM     82  C   UNL A   1      44.427  26.488  32.358  1.00  0.00     0.022 A 
BRANCH  80  83
ATOM     83  S   UNL A   1      45.193  28.450  34.076  1.00  0.00     0.127 S 
ATOM     84  O   UNL A   1      44.935  27.282  34.923  1.00  0.00    -0.237 OA
ATOM     85  O   UNL A   1      46.607  28.787  33.940  1.00  0.00    -0.237 OA
ATOM     86  O   UNL A   1      44.304  29.575  34.331  1.00  0.00    -0.744 OA
ENDBRANCH  80  83
ENDBRANCH  53  76
ENDBRANCH  27  28
ENDBRANCH  20  22
ENDBRANCH  19  20
ENDBRANCH   1  19
TORSDOF 16
ENDMDL
