MODEL 1
REMARK VINA RESULT:     -11.6      0.000      0.000
REMARK SMILES O=C(OCCOC(=O)[C@H]1C=C[C@@H](NS(=O)(=O)c2ccc(Br)cc2)C1)c1ccc(-c2c3nc(c(-c4cccc(S(=O)(=O)[O-])c4F)c4ccc([nH]4)c(-c4cccc(S(=O)(=O)[O-])c4F)c4nc(c(-c5cccc(S(=O)(=O)[O-])c5F)c5ccc2[nH]5)C=C4)C=C3)cc1
REMARK SMILES IDX 4 1 3 2 2 3 1 4 25 5 26 6 87 7 27 8 86 9 28 10 29 11 30 12
REMARK SMILES IDX 80 13 31 14 85 15 79 16 81 17 32 18 84 19 78 20 77 21 33 23
REMARK SMILES IDX 65 24 45 25 64 26 46 27 49 28 63 29 82 30 47 31 48 32 62 34
REMARK SMILES IDX 83 35 50 36 34 37 35 38 43 39 36 40 38 41 44 42 37 43 39 44
REMARK SMILES IDX 40 45 41 46 42 47 66 48 67 49 75 50 68 51 70 52 76 53 69 54
REMARK SMILES IDX 71 55 72 56 73 57 74 58 51 59 52 60 60 61 53 62 55 63 61 64
REMARK SMILES IDX 54 65 56 66 57 67 58 68 59 69 5 70 6 71 7 72 8 73 9 74 10 75
REMARK SMILES IDX 24 76 11 77 12 78 13 79 14 81 15 82 16 83 17 84 18 85 23 86
REMARK SMILES IDX 19 87 22 88 20 89 21 90
REMARK H PARENT 81 22 49 33 13 80
REMARK Flexibility Score: inf
ROOT
ATOM      1  C   UNL A   1      37.473  21.605  24.838  1.00  0.00     0.275 C 
ENDROOT
BRANCH   1   2
ATOM      2  O   UNL A   1      37.898  22.260  26.042  1.00  0.00    -0.458 OA
BRANCH   2   3
ATOM      3  C   UNL A   1      39.152  22.600  26.422  1.00  0.00     0.338 C 
ATOM      4  O   UNL A   1      39.968  21.702  26.624  1.00  0.00    -0.246 OA
BRANCH   3   5
ATOM      5  C   UNL A   1      39.554  23.999  26.776  1.00  0.00     0.060 A 
ATOM      6  C   UNL A   1      40.163  24.927  25.927  1.00  0.00     0.016 A 
ATOM      7  C   UNL A   1      39.299  24.392  28.104  1.00  0.00     0.016 A 
ATOM      8  C   UNL A   1      40.446  26.230  26.366  1.00  0.00     0.010 A 
ATOM      9  C   UNL A   1      39.536  25.703  28.529  1.00  0.00     0.010 A 
ATOM     10  C   UNL A   1      40.130  26.632  27.666  1.00  0.00    -0.014 A 
BRANCH  10  11
ATOM     11  C   UNL A   1      40.557  27.960  28.175  1.00  0.00     0.031 A 
ATOM     12  C   UNL A   1      42.032  28.229  28.320  1.00  0.00     0.074 A 
ATOM     13  C   UNL A   1      39.660  28.912  28.506  1.00  0.00     0.049 A 
ATOM     14  N   UNL A   1      42.637  29.320  28.709  1.00  0.00    -0.248 NA
ATOM     15  C   UNL A   1      42.950  27.133  27.957  1.00  0.00     0.031 C 
ATOM     16  C   UNL A   1      38.206  28.796  28.390  1.00  0.00     0.029 A 
ATOM     17  N   UNL A   1      39.846  30.156  29.058  1.00  0.00    -0.354 N 
ATOM     18  C   UNL A   1      43.996  29.053  28.603  1.00  0.00     0.074 A 
ATOM     19  C   UNL A   1      44.133  27.670  28.211  1.00  0.00     0.031 C 
ATOM     20  C   UNL A   1      37.632  29.892  28.924  1.00  0.00     0.029 A 
ATOM     21  C   UNL A   1      38.673  30.771  29.438  1.00  0.00     0.049 A 
ATOM     22  H   UNL A   1      40.733  30.569  29.171  1.00  0.00     0.167 HD
ATOM     23  C   UNL A   1      45.039  29.906  28.734  1.00  0.00     0.034 A 
ATOM     24  C   UNL A   1      38.471  31.904  30.140  1.00  0.00     0.034 A 
ATOM     25  C   UNL A   1      44.896  31.284  29.100  1.00  0.00     0.049 A 
ATOM     26  C   UNL A   1      39.658  32.783  30.427  1.00  0.00     0.074 A 
ATOM     27  C   UNL A   1      45.866  32.266  29.174  1.00  0.00     0.029 A 
ATOM     28  N   UNL A   1      43.696  31.871  29.469  1.00  0.00    -0.354 N 
ATOM     29  N   UNL A   1      40.923  32.581  30.144  1.00  0.00    -0.248 NA
ATOM     30  C   UNL A   1      39.378  34.097  31.026  1.00  0.00     0.031 C 
ATOM     31  C   UNL A   1      45.249  33.449  29.600  1.00  0.00     0.029 A 
ATOM     32  C   UNL A   1      43.896  33.202  29.780  1.00  0.00     0.049 A 
ATOM     33  H   UNL A   1      42.827  31.408  29.504  1.00  0.00     0.167 HD
ATOM     34  C   UNL A   1      41.569  33.780  30.423  1.00  0.00     0.074 A 
ATOM     35  C   UNL A   1      40.566  34.683  30.951  1.00  0.00     0.031 C 
ATOM     36  C   UNL A   1      42.868  34.109  30.223  1.00  0.00     0.034 A 
BRANCH  23  37
ATOM     37  C   UNL A   1      46.396  29.368  28.374  1.00  0.00     0.023 A 
ATOM     38  C   UNL A   1      46.842  29.495  27.040  1.00  0.00     0.012 A 
ATOM     39  C   UNL A   1      47.210  28.715  29.316  1.00  0.00     0.148 A 
ATOM     40  C   UNL A   1      48.053  28.937  26.637  1.00  0.00     0.002 A 
ATOM     41  C   UNL A   1      48.433  28.188  28.913  1.00  0.00     0.091 A 
ATOM     42  F   UNL A   1      46.760  28.582  30.571  1.00  0.00    -0.205 F 
ATOM     43  C   UNL A   1      48.849  28.287  27.573  1.00  0.00     0.022 A 
BRANCH  41  44
ATOM     44  S   UNL A   1      49.553  27.365  30.050  1.00  0.00     0.127 S 
ATOM     45  O   UNL A   1      50.673  27.033  29.171  1.00  0.00    -0.237 OA
ATOM     46  O   UNL A   1      49.837  28.419  31.025  1.00  0.00    -0.237 OA
ATOM     47  O   UNL A   1      48.815  26.229  30.584  1.00  0.00    -0.744 OA
ENDBRANCH  41  44
ENDBRANCH  23  37
BRANCH  24  48
ATOM     48  C   UNL A   1      37.100  32.378  30.490  1.00  0.00     0.023 A 
ATOM     49  C   UNL A   1      36.558  32.001  31.734  1.00  0.00     0.012 A 
ATOM     50  C   UNL A   1      36.300  33.101  29.581  1.00  0.00     0.148 A 
ATOM     51  C   UNL A   1      35.239  32.315  32.061  1.00  0.00     0.002 A 
ATOM     52  C   UNL A   1      34.983  33.417  29.915  1.00  0.00     0.091 A 
ATOM     53  F   UNL A   1      36.832  33.452  28.400  1.00  0.00    -0.205 F 
ATOM     54  C   UNL A   1      34.452  33.017  31.152  1.00  0.00     0.022 A 
BRANCH  52  55
ATOM     55  S   UNL A   1      33.854  34.248  28.783  1.00  0.00     0.127 S 
ATOM     56  O   UNL A   1      34.699  35.299  28.215  1.00  0.00    -0.237 OA
ATOM     57  O   UNL A   1      33.501  33.185  27.843  1.00  0.00    -0.237 OA
ATOM     58  O   UNL A   1      32.758  34.740  29.608  1.00  0.00    -0.744 OA
ENDBRANCH  52  55
ENDBRANCH  24  48
BRANCH  36  59
ATOM     59  C   UNL A   1      43.274  35.535  30.465  1.00  0.00     0.023 A 
ATOM     60  C   UNL A   1      43.846  35.911  31.694  1.00  0.00     0.012 A 
ATOM     61  C   UNL A   1      43.176  36.479  29.424  1.00  0.00     0.148 A 
ATOM     62  C   UNL A   1      44.301  37.216  31.887  1.00  0.00     0.002 A 
ATOM     63  C   UNL A   1      43.677  37.761  29.607  1.00  0.00     0.091 A 
ATOM     64  F   UNL A   1      42.598  36.108  28.272  1.00  0.00    -0.205 F 
ATOM     65  C   UNL A   1      44.232  38.134  30.841  1.00  0.00     0.022 A 
BRANCH  63  66
ATOM     66  S   UNL A   1      43.726  38.956  28.266  1.00  0.00     0.127 S 
ATOM     67  O   UNL A   1      42.317  39.318  28.132  1.00  0.00    -0.237 OA
ATOM     68  O   UNL A   1      44.578  40.013  28.814  1.00  0.00    -0.237 OA
ATOM     69  O   UNL A   1      44.309  38.250  27.131  1.00  0.00    -0.744 OA
ENDBRANCH  63  66
ENDBRANCH  36  59
ENDBRANCH  10  11
ENDBRANCH   3   5
ENDBRANCH   2   3
ENDBRANCH   1   2
BRANCH   1  70
ATOM     70  C   UNL A   1      36.321  20.615  25.019  1.00  0.00     0.274 C 
BRANCH  70  71
ATOM     71  O   UNL A   1      35.045  21.179  24.683  1.00  0.00    -0.462 OA
BRANCH  71  72
ATOM     72  C   UNL A   1      33.999  20.309  24.589  1.00  0.00     0.312 C 
ATOM     73  O   UNL A   1      34.111  19.087  24.578  1.00  0.00    -0.252 OA
BRANCH  72  74
ATOM     74  C   UNL A   1      32.639  20.999  24.491  1.00  0.00     0.123 C 
ATOM     75  C   UNL A   1      32.462  22.187  25.367  1.00  0.00    -0.015 C 
ATOM     76  C   UNL A   1      32.401  21.604  23.101  1.00  0.00     0.043 C 
ATOM     77  C   UNL A   1      31.935  23.230  24.726  1.00  0.00    -0.011 C 
ATOM     78  C   UNL A   1      31.588  22.899  23.319  1.00  0.00     0.093 C 
BRANCH  78  79
ATOM     79  N   UNL A   1      31.993  23.908  22.372  1.00  0.00    -0.204 NA
ATOM     80  H   UNL A   1      31.214  24.565  22.331  1.00  0.00     0.142 HD
BRANCH  79  81
ATOM     81  S   UNL A   1      33.364  24.858  22.484  1.00  0.00     0.241 S 
ATOM     82  O   UNL A   1      34.444  24.027  22.966  1.00  0.00    -0.207 OA
ATOM     83  O   UNL A   1      33.417  25.511  21.200  1.00  0.00    -0.207 OA
BRANCH  81  84
ATOM     84  C   UNL A   1      33.054  26.035  23.769  1.00  0.00     0.082 A 
ATOM     85  C   UNL A   1      31.807  26.679  23.783  1.00  0.00     0.023 A 
ATOM     86  C   UNL A   1      33.898  26.119  24.875  1.00  0.00     0.023 A 
ATOM     87  C   UNL A   1      31.407  27.409  24.902  1.00  0.00     0.017 A 
ATOM     88  C   UNL A   1      33.488  26.840  26.002  1.00  0.00     0.017 A 
ATOM     89  C   UNL A   1      32.246  27.476  26.012  1.00  0.00     0.018 A 
ATOM     90  Br  UNL A   1      31.660  28.390  27.561  1.00  0.00    -0.051 Br
ENDBRANCH  81  84
ENDBRANCH  79  81
ENDBRANCH  78  79
ENDBRANCH  72  74
ENDBRANCH  71  72
ENDBRANCH  70  71
ENDBRANCH   1  70
TORSDOF 17
ENDMDL
MODEL 2
REMARK VINA RESULT:     -11.5      3.903      6.298
REMARK SMILES O=C(OCCOC(=O)[C@H]1C=C[C@@H](NS(=O)(=O)c2ccc(Br)cc2)C1)c1ccc(-c2c3nc(c(-c4cccc(S(=O)(=O)[O-])c4F)c4ccc([nH]4)c(-c4cccc(S(=O)(=O)[O-])c4F)c4nc(c(-c5cccc(S(=O)(=O)[O-])c5F)c5ccc2[nH]5)C=C4)C=C3)cc1
REMARK SMILES IDX 4 1 3 2 2 3 1 4 25 5 26 6 87 7 27 8 86 9 28 10 29 11 30 12
REMARK SMILES IDX 80 13 31 14 85 15 79 16 81 17 32 18 84 19 78 20 77 21 33 23
REMARK SMILES IDX 65 24 45 25 64 26 46 27 49 28 63 29 82 30 47 31 48 32 62 34
REMARK SMILES IDX 83 35 50 36 34 37 35 38 43 39 36 40 38 41 44 42 37 43 39 44
REMARK SMILES IDX 40 45 41 46 42 47 66 48 67 49 75 50 68 51 70 52 76 53 69 54
REMARK SMILES IDX 71 55 72 56 73 57 74 58 51 59 52 60 60 61 53 62 55 63 61 64
REMARK SMILES IDX 54 65 56 66 57 67 58 68 59 69 5 70 6 71 7 72 8 73 9 74 10 75
REMARK SMILES IDX 24 76 11 77 12 78 13 79 14 81 15 82 16 83 17 84 18 85 23 86
REMARK SMILES IDX 19 87 22 88 20 89 21 90
REMARK H PARENT 81 22 49 33 13 80
REMARK Flexibility Score: inf
ROOT
ATOM      1  C   UNL A   1      40.849  20.201  26.780  1.00  0.00     0.275 C 
ENDROOT
BRANCH   1   2
ATOM      2  O   UNL A   1      40.757  21.521  26.224  1.00  0.00    -0.458 OA
BRANCH   2   3
ATOM      3  C   UNL A   1      39.792  22.452  26.411  1.00  0.00     0.338 C 
ATOM      4  O   UNL A   1      38.626  22.148  26.159  1.00  0.00    -0.246 OA
BRANCH   3   5
ATOM      5  C   UNL A   1      40.082  23.883  26.744  1.00  0.00     0.060 A 
ATOM      6  C   UNL A   1      40.290  24.922  25.834  1.00  0.00     0.016 A 
ATOM      7  C   UNL A   1      40.163  24.187  28.117  1.00  0.00     0.016 A 
ATOM      8  C   UNL A   1      40.505  26.237  26.275  1.00  0.00     0.010 A 
ATOM      9  C   UNL A   1      40.329  25.504  28.559  1.00  0.00     0.010 A 
ATOM     10  C   UNL A   1      40.520  26.541  27.638  1.00  0.00    -0.014 A 
BRANCH  10  11
ATOM     11  C   UNL A   1      40.888  27.901  28.109  1.00  0.00     0.031 A 
ATOM     12  C   UNL A   1      42.349  28.249  28.213  1.00  0.00     0.074 A 
ATOM     13  C   UNL A   1      39.950  28.812  28.440  1.00  0.00     0.049 A 
ATOM     14  N   UNL A   1      42.906  29.378  28.565  1.00  0.00    -0.248 NA
ATOM     15  C   UNL A   1      43.316  27.195  27.853  1.00  0.00     0.031 C 
ATOM     16  C   UNL A   1      38.502  28.618  28.360  1.00  0.00     0.029 A 
ATOM     17  N   UNL A   1      40.083  30.077  28.960  1.00  0.00    -0.354 N 
ATOM     18  C   UNL A   1      44.274  29.181  28.433  1.00  0.00     0.074 A 
ATOM     19  C   UNL A   1      44.474  27.798  28.068  1.00  0.00     0.031 C 
ATOM     20  C   UNL A   1      37.883  29.695  28.884  1.00  0.00     0.029 A 
ATOM     21  C   UNL A   1      38.887  30.638  29.354  1.00  0.00     0.049 A 
ATOM     22  H   UNL A   1      40.948  30.538  29.044  1.00  0.00     0.167 HD
ATOM     23  C   UNL A   1      45.273  30.089  28.522  1.00  0.00     0.034 A 
ATOM     24  C   UNL A   1      38.641  31.774  30.037  1.00  0.00     0.034 A 
ATOM     25  C   UNL A   1      45.066  31.465  28.862  1.00  0.00     0.049 A 
ATOM     26  C   UNL A   1      39.787  32.721  30.277  1.00  0.00     0.074 A 
ATOM     27  C   UNL A   1      45.985  32.499  28.893  1.00  0.00     0.029 A 
ATOM     28  N   UNL A   1      43.845  31.998  29.246  1.00  0.00    -0.354 N 
ATOM     29  N   UNL A   1      41.054  32.578  29.969  1.00  0.00    -0.248 NA
ATOM     30  C   UNL A   1      39.452  34.031  30.854  1.00  0.00     0.031 C 
ATOM     31  C   UNL A   1      45.316  33.657  29.307  1.00  0.00     0.029 A 
ATOM     32  C   UNL A   1      43.983  33.344  29.524  1.00  0.00     0.049 A 
ATOM     33  H   UNL A   1      43.003  31.491  29.311  1.00  0.00     0.167 HD
ATOM     34  C   UNL A   1      41.643  33.814  30.208  1.00  0.00     0.074 A 
ATOM     35  C   UNL A   1      40.606  34.676  30.739  1.00  0.00     0.031 C 
ATOM     36  C   UNL A   1      42.918  34.206  29.971  1.00  0.00     0.034 A 
BRANCH  23  37
ATOM     37  C   UNL A   1      46.648  29.614  28.142  1.00  0.00     0.023 A 
ATOM     38  C   UNL A   1      46.938  29.402  26.776  1.00  0.00     0.012 A 
ATOM     39  C   UNL A   1      47.633  29.344  29.108  1.00  0.00     0.148 A 
ATOM     40  C   UNL A   1      48.167  28.881  26.381  1.00  0.00     0.002 A 
ATOM     41  C   UNL A   1      48.871  28.854  28.703  1.00  0.00     0.091 A 
ATOM     42  F   UNL A   1      47.333  29.528  30.401  1.00  0.00    -0.205 F 
ATOM     43  C   UNL A   1      49.134  28.610  27.343  1.00  0.00     0.022 A 
BRANCH  41  44
ATOM     44  S   UNL A   1      50.201  28.509  29.859  1.00  0.00     0.127 S 
ATOM     45  O   UNL A   1      51.343  28.361  28.959  1.00  0.00    -0.237 OA
ATOM     46  O   UNL A   1      50.224  29.722  30.678  1.00  0.00    -0.237 OA
ATOM     47  O   UNL A   1      49.804  27.304  30.574  1.00  0.00    -0.744 OA
ENDBRANCH  41  44
ENDBRANCH  23  37
BRANCH  24  48
ATOM     48  C   UNL A   1      37.256  32.185  30.407  1.00  0.00     0.023 A 
ATOM     49  C   UNL A   1      36.724  31.720  31.626  1.00  0.00     0.012 A 
ATOM     50  C   UNL A   1      36.436  32.933  29.538  1.00  0.00     0.148 A 
ATOM     51  C   UNL A   1      35.395  31.974  31.965  1.00  0.00     0.002 A 
ATOM     52  C   UNL A   1      35.108  33.188  29.885  1.00  0.00     0.091 A 
ATOM     53  F   UNL A   1      36.959  33.368  28.382  1.00  0.00    -0.205 F 
ATOM     54  C   UNL A   1      34.587  32.702  31.095  1.00  0.00     0.022 A 
BRANCH  52  55
ATOM     55  S   UNL A   1      33.957  34.047  28.799  1.00  0.00     0.127 S 
ATOM     56  O   UNL A   1      32.926  34.503  29.732  1.00  0.00    -0.237 OA
ATOM     57  O   UNL A   1      34.780  35.118  28.239  1.00  0.00    -0.237 OA
ATOM     58  O   UNL A   1      33.497  33.050  27.841  1.00  0.00    -0.744 OA
ENDBRANCH  52  55
ENDBRANCH  24  48
BRANCH  36  59
ATOM     59  C   UNL A   1      43.253  35.657  30.173  1.00  0.00     0.023 A 
ATOM     60  C   UNL A   1      43.851  36.086  31.372  1.00  0.00     0.012 A 
ATOM     61  C   UNL A   1      43.063  36.574  29.121  1.00  0.00     0.148 A 
ATOM     62  C   UNL A   1      44.241  37.417  31.525  1.00  0.00     0.002 A 
ATOM     63  C   UNL A   1      43.500  37.885  29.263  1.00  0.00     0.091 A 
ATOM     64  F   UNL A   1      42.462  36.151  27.999  1.00  0.00    -0.205 F 
ATOM     65  C   UNL A   1      44.081  38.310  30.467  1.00  0.00     0.022 A 
BRANCH  63  66
ATOM     66  S   UNL A   1      43.431  39.056  27.901  1.00  0.00     0.127 S 
ATOM     67  O   UNL A   1      44.210  38.369  26.873  1.00  0.00    -0.237 OA
ATOM     68  O   UNL A   1      41.996  39.137  27.626  1.00  0.00    -0.237 OA
ATOM     69  O   UNL A   1      44.010  40.291  28.415  1.00  0.00    -0.744 OA
ENDBRANCH  63  66
ENDBRANCH  36  59
ENDBRANCH  10  11
ENDBRANCH   3   5
ENDBRANCH   2   3
ENDBRANCH   1   2
BRANCH   1  70
ATOM     70  C   UNL A   1      42.207  19.522  26.595  1.00  0.00     0.274 C 
BRANCH  70  71
ATOM     71  O   UNL A   1      42.615  19.460  25.220  1.00  0.00    -0.462 OA
BRANCH  71  72
ATOM     72  C   UNL A   1      43.949  19.299  24.986  1.00  0.00     0.312 C 
ATOM     73  O   UNL A   1      44.561  18.250  25.152  1.00  0.00    -0.252 OA
BRANCH  72  74
ATOM     74  C   UNL A   1      44.638  20.569  24.488  1.00  0.00     0.123 C 
ATOM     75  C   UNL A   1      43.824  21.811  24.569  1.00  0.00    -0.015 C 
ATOM     76  C   UNL A   1      45.850  20.940  25.354  1.00  0.00     0.043 C 
ATOM     77  C   UNL A   1      44.492  22.835  25.099  1.00  0.00    -0.011 C 
ATOM     78  C   UNL A   1      45.906  22.483  25.394  1.00  0.00     0.093 C 
BRANCH  78  79
ATOM     79  N   UNL A   1      46.355  22.934  26.688  1.00  0.00    -0.204 NA
ATOM     80  H   UNL A   1      47.176  22.367  26.899  1.00  0.00     0.142 HD
BRANCH  79  81
ATOM     81  S   UNL A   1      46.788  24.500  27.080  1.00  0.00     0.241 S 
ATOM     82  O   UNL A   1      48.232  24.569  27.112  1.00  0.00    -0.207 OA
ATOM     83  O   UNL A   1      46.007  25.295  26.168  1.00  0.00    -0.207 OA
BRANCH  81  84
ATOM     84  C   UNL A   1      46.258  24.763  28.748  1.00  0.00     0.082 A 
ATOM     85  C   UNL A   1      46.969  25.691  29.525  1.00  0.00     0.023 A 
ATOM     86  C   UNL A   1      45.028  24.278  29.188  1.00  0.00     0.023 A 
ATOM     87  C   UNL A   1      46.450  26.131  30.742  1.00  0.00     0.017 A 
ATOM     88  C   UNL A   1      44.501  24.734  30.402  1.00  0.00     0.017 A 
ATOM     89  C   UNL A   1      45.211  25.658  31.169  1.00  0.00     0.018 A 
ATOM     90  Br  UNL A   1      44.469  26.328  32.775  1.00  0.00    -0.051 Br
ENDBRANCH  81  84
ENDBRANCH  79  81
ENDBRANCH  78  79
ENDBRANCH  72  74
ENDBRANCH  71  72
ENDBRANCH  70  71
ENDBRANCH   1  70
TORSDOF 17
ENDMDL
MODEL 3
REMARK VINA RESULT:     -11.5      3.996      6.074
REMARK SMILES O=C(OCCOC(=O)[C@H]1C=C[C@@H](NS(=O)(=O)c2ccc(Br)cc2)C1)c1ccc(-c2c3nc(c(-c4cccc(S(=O)(=O)[O-])c4F)c4ccc([nH]4)c(-c4cccc(S(=O)(=O)[O-])c4F)c4nc(c(-c5cccc(S(=O)(=O)[O-])c5F)c5ccc2[nH]5)C=C4)C=C3)cc1
REMARK SMILES IDX 4 1 3 2 2 3 1 4 25 5 26 6 87 7 27 8 86 9 28 10 29 11 30 12
REMARK SMILES IDX 80 13 31 14 85 15 79 16 81 17 32 18 84 19 78 20 77 21 33 23
REMARK SMILES IDX 65 24 45 25 64 26 46 27 49 28 63 29 82 30 47 31 48 32 62 34
REMARK SMILES IDX 83 35 50 36 34 37 35 38 43 39 36 40 38 41 44 42 37 43 39 44
REMARK SMILES IDX 40 45 41 46 42 47 66 48 67 49 75 50 68 51 70 52 76 53 69 54
REMARK SMILES IDX 71 55 72 56 73 57 74 58 51 59 52 60 60 61 53 62 55 63 61 64
REMARK SMILES IDX 54 65 56 66 57 67 58 68 59 69 5 70 6 71 7 72 8 73 9 74 10 75
REMARK SMILES IDX 24 76 11 77 12 78 13 79 14 81 15 82 16 83 17 84 18 85 23 86
REMARK SMILES IDX 19 87 22 88 20 89 21 90
REMARK H PARENT 81 22 49 33 13 80
REMARK Flexibility Score: inf
ROOT
ATOM      1  C   UNL A   1      41.060  19.912  26.497  1.00  0.00     0.275 C 
ENDROOT
BRANCH   1   2
ATOM      2  O   UNL A   1      41.115  21.346  26.479  1.00  0.00    -0.458 OA
BRANCH   2   3
ATOM      3  C   UNL A   1      40.101  22.233  26.619  1.00  0.00     0.338 C 
ATOM      4  O   UNL A   1      38.989  21.924  26.194  1.00  0.00    -0.246 OA
BRANCH   3   5
ATOM      5  C   UNL A   1      40.295  23.635  27.109  1.00  0.00     0.060 A 
ATOM      6  C   UNL A   1      39.639  24.776  26.640  1.00  0.00     0.016 A 
ATOM      7  C   UNL A   1      41.250  23.799  28.131  1.00  0.00     0.016 A 
ATOM      8  C   UNL A   1      39.874  26.033  27.219  1.00  0.00     0.010 A 
ATOM      9  C   UNL A   1      41.451  25.042  28.741  1.00  0.00     0.010 A 
ATOM     10  C   UNL A   1      40.775  26.177  28.277  1.00  0.00    -0.014 A 
BRANCH  10  11
ATOM     11  C   UNL A   1      41.131  27.523  28.794  1.00  0.00     0.031 A 
ATOM     12  C   UNL A   1      42.576  27.808  29.108  1.00  0.00     0.074 A 
ATOM     13  C   UNL A   1      40.197  28.477  28.984  1.00  0.00     0.049 A 
ATOM     14  N   UNL A   1      43.125  28.915  29.534  1.00  0.00    -0.248 NA
ATOM     15  C   UNL A   1      43.537  26.709  28.893  1.00  0.00     0.031 C 
ATOM     16  C   UNL A   1      38.768  28.346  28.696  1.00  0.00     0.029 A 
ATOM     17  N   UNL A   1      40.309  29.739  29.516  1.00  0.00    -0.354 N 
ATOM     18  C   UNL A   1      44.488  28.656  29.602  1.00  0.00     0.074 A 
ATOM     19  C   UNL A   1      44.678  27.263  29.272  1.00  0.00     0.031 C 
ATOM     20  C   UNL A   1      38.129  29.453  29.123  1.00  0.00     0.029 A 
ATOM     21  C   UNL A   1      39.095  30.355  29.732  1.00  0.00     0.049 A 
ATOM     22  H   UNL A   1      41.173  30.162  29.723  1.00  0.00     0.167 HD
ATOM     23  C   UNL A   1      45.503  29.521  29.833  1.00  0.00     0.034 A 
ATOM     24  C   UNL A   1      38.804  31.506  30.370  1.00  0.00     0.034 A 
ATOM     25  C   UNL A   1      45.311  30.908  30.137  1.00  0.00     0.049 A 
ATOM     26  C   UNL A   1      39.944  32.403  30.772  1.00  0.00     0.074 A 
ATOM     27  C   UNL A   1      46.260  31.900  30.299  1.00  0.00     0.029 A 
ATOM     28  N   UNL A   1      44.072  31.496  30.340  1.00  0.00    -0.354 N 
ATOM     29  N   UNL A   1      41.234  32.203  30.651  1.00  0.00    -0.248 NA
ATOM     30  C   UNL A   1      39.587  33.732  31.293  1.00  0.00     0.031 C 
ATOM     31  C   UNL A   1      45.591  33.089  30.611  1.00  0.00     0.029 A 
ATOM     32  C   UNL A   1      44.228  32.837  30.632  1.00  0.00     0.049 A 
ATOM     33  H   UNL A   1      43.208  31.027  30.283  1.00  0.00     0.167 HD
ATOM     34  C   UNL A   1      41.837  33.414  30.970  1.00  0.00     0.074 A 
ATOM     35  C   UNL A   1      40.773  34.325  31.344  1.00  0.00     0.031 C 
ATOM     36  C   UNL A   1      43.149  33.748  30.920  1.00  0.00     0.034 A 
BRANCH  23  37
ATOM     37  C   UNL A   1      46.897  28.984  29.657  1.00  0.00     0.023 A 
ATOM     38  C   UNL A   1      47.547  28.409  30.772  1.00  0.00     0.012 A 
ATOM     39  C   UNL A   1      47.576  29.071  28.430  1.00  0.00     0.148 A 
ATOM     40  C   UNL A   1      48.868  27.978  30.682  1.00  0.00     0.002 A 
ATOM     41  C   UNL A   1      48.885  28.608  28.339  1.00  0.00     0.091 A 
ATOM     42  F   UNL A   1      46.952  29.641  27.390  1.00  0.00    -0.205 F 
ATOM     43  C   UNL A   1      49.536  28.074  29.466  1.00  0.00     0.022 A 
BRANCH  41  44
ATOM     44  S   UNL A   1      49.822  28.649  26.807  1.00  0.00     0.127 S 
ATOM     45  O   UNL A   1      49.855  30.083  26.521  1.00  0.00    -0.237 OA
ATOM     46  O   UNL A   1      51.106  28.079  27.214  1.00  0.00    -0.237 OA
ATOM     47  O   UNL A   1      49.072  27.837  25.859  1.00  0.00    -0.744 OA
ENDBRANCH  41  44
ENDBRANCH  23  37
BRANCH  24  48
ATOM     48  C   UNL A   1      37.399  31.979  30.536  1.00  0.00     0.023 A 
ATOM     49  C   UNL A   1      36.699  31.603  31.699  1.00  0.00     0.012 A 
ATOM     50  C   UNL A   1      36.725  32.700  29.529  1.00  0.00     0.148 A 
ATOM     51  C   UNL A   1      35.348  31.917  31.850  1.00  0.00     0.002 A 
ATOM     52  C   UNL A   1      35.375  33.015  29.687  1.00  0.00     0.091 A 
ATOM     53  F   UNL A   1      37.407  33.050  28.428  1.00  0.00    -0.205 F 
ATOM     54  C   UNL A   1      34.686  32.617  30.845  1.00  0.00     0.022 A 
BRANCH  52  55
ATOM     55  S   UNL A   1      34.404  33.844  28.416  1.00  0.00     0.127 S 
ATOM     56  O   UNL A   1      33.980  35.069  29.094  1.00  0.00    -0.237 OA
ATOM     57  O   UNL A   1      35.381  34.053  27.349  1.00  0.00    -0.237 OA
ATOM     58  O   UNL A   1      33.315  32.931  28.092  1.00  0.00    -0.744 OA
ENDBRANCH  52  55
ENDBRANCH  24  48
BRANCH  36  59
ATOM     59  C   UNL A   1      43.516  35.184  31.166  1.00  0.00     0.023 A 
ATOM     60  C   UNL A   1      43.904  35.607  32.450  1.00  0.00     0.012 A 
ATOM     61  C   UNL A   1      43.570  36.090  30.088  1.00  0.00     0.148 A 
ATOM     62  C   UNL A   1      44.327  36.920  32.660  1.00  0.00     0.002 A 
ATOM     63  C   UNL A   1      44.039  37.380  30.295  1.00  0.00     0.091 A 
ATOM     64  F   UNL A   1      43.164  35.675  28.878  1.00  0.00    -0.205 F 
ATOM     65  C   UNL A   1      44.410  37.800  31.581  1.00  0.00     0.022 A 
BRANCH  63  66
ATOM     66  S   UNL A   1      44.283  38.526  28.932  1.00  0.00     0.127 S 
ATOM     67  O   UNL A   1      45.182  37.773  28.061  1.00  0.00    -0.237 OA
ATOM     68  O   UNL A   1      42.924  38.690  28.411  1.00  0.00    -0.237 OA
ATOM     69  O   UNL A   1      44.841  39.733  29.529  1.00  0.00    -0.744 OA
ENDBRANCH  63  66
ENDBRANCH  36  59
ENDBRANCH  10  11
ENDBRANCH   3   5
ENDBRANCH   2   3
ENDBRANCH   1   2
BRANCH   1  70
ATOM     70  C   UNL A   1      42.422  19.219  26.421  1.00  0.00     0.274 C 
BRANCH  70  71
ATOM     71  O   UNL A   1      42.986  19.248  25.102  1.00  0.00    -0.462 OA
BRANCH  71  72
ATOM     72  C   UNL A   1      44.306  18.919  24.996  1.00  0.00     0.312 C 
ATOM     73  O   UNL A   1      44.815  17.921  25.497  1.00  0.00    -0.252 OA
BRANCH  72  74
ATOM     74  C   UNL A   1      45.122  19.923  24.182  1.00  0.00     0.123 C 
ATOM     75  C   UNL A   1      44.344  21.036  23.578  1.00  0.00    -0.015 C 
ATOM     76  C   UNL A   1      46.124  20.689  25.057  1.00  0.00     0.043 C 
ATOM     77  C   UNL A   1      44.907  22.228  23.773  1.00  0.00    -0.011 C 
ATOM     78  C   UNL A   1      46.212  22.118  24.476  1.00  0.00     0.093 C 
BRANCH  78  79
ATOM     79  N   UNL A   1      46.378  23.079  25.538  1.00  0.00    -0.204 NA
ATOM     80  H   UNL A   1      47.047  22.655  26.181  1.00  0.00     0.142 HD
BRANCH  79  81
ATOM     81  S   UNL A   1      46.889  24.660  25.352  1.00  0.00     0.241 S 
ATOM     82  O   UNL A   1      47.801  24.964  26.432  1.00  0.00    -0.207 OA
ATOM     83  O   UNL A   1      47.295  24.714  23.971  1.00  0.00    -0.207 OA
BRANCH  81  84
ATOM     84  C   UNL A   1      45.467  25.680  25.624  1.00  0.00     0.082 A 
ATOM     85  C   UNL A   1      45.671  27.057  25.800  1.00  0.00     0.023 A 
ATOM     86  C   UNL A   1      44.184  25.184  25.401  1.00  0.00     0.023 A 
ATOM     87  C   UNL A   1      44.590  27.937  25.756  1.00  0.00     0.017 A 
ATOM     88  C   UNL A   1      43.103  26.071  25.340  1.00  0.00     0.017 A 
ATOM     89  C   UNL A   1      43.311  27.440  25.514  1.00  0.00     0.018 A 
ATOM     90  Br  UNL A   1      41.863  28.647  25.363  1.00  0.00    -0.051 Br
ENDBRANCH  81  84
ENDBRANCH  79  81
ENDBRANCH  78  79
ENDBRANCH  72  74
ENDBRANCH  71  72
ENDBRANCH  70  71
ENDBRANCH   1  70
TORSDOF 17
ENDMDL
