MODEL 1
REMARK VINA RESULT:     -11.8      0.000      0.000
REMARK SMILES CO[C@@H]1C[C@@H](C(=O)OCCOC(=O)c2ccc(-c3c4nc(c(-c5cccc(S(=O)(=O)[O-])c5F)c5ccc([nH]5)c(-c5cccc(S(=O)(=O)[O-])c5F)c5nc(c(-c6cccc(S(=O)(=O)[O-])c6F)c6ccc3[nH]6)C=C5)C=C4)cc2)N(S(=O)(=O)c2ccc(Cl)cc2F)C1
REMARK SMILES IDX 10 1 9 2 8 3 6 4 7 5 5 6 3 7 4 8 89 9 77 10 2 11 1 12 78 13
REMARK SMILES IDX 79 14 80 15 81 16 82 17 87 18 83 19 86 20 88 21 84 22 85 23
REMARK SMILES IDX 11 24 12 25 13 26 14 27 15 28 76 29 16 30 75 31 17 32 18 33
REMARK SMILES IDX 19 34 69 35 20 36 74 37 68 38 70 39 21 40 73 41 67 42 66 43
REMARK SMILES IDX 22 45 54 46 34 47 53 48 35 49 38 50 52 51 71 52 36 53 37 54
REMARK SMILES IDX 51 56 72 57 39 58 23 59 24 60 32 61 25 62 27 63 33 64 26 65
REMARK SMILES IDX 28 66 29 67 30 68 31 69 55 70 56 71 64 72 57 73 59 74 65 75
REMARK SMILES IDX 58 76 60 77 61 78 62 79 63 80 40 81 41 82 49 83 42 84 44 85
REMARK SMILES IDX 50 86 43 87 45 88 46 89 47 90 48 91
REMARK H PARENT 70 44 38 55
REMARK Flexibility Score: inf
ROOT
ATOM      1  C   UNL A   1      37.391  20.258  25.104  1.00  0.00     0.275 C 
ENDROOT
BRANCH   1   2
ATOM      2  C   UNL A   1      36.040  20.811  24.652  1.00  0.00     0.274 C 
BRANCH   2   3
ATOM      3  O   UNL A   1      36.089  22.252  24.690  1.00  0.00    -0.461 OA
BRANCH   3   4
ATOM      4  C   UNL A   1      35.815  22.874  23.537  1.00  0.00     0.324 C 
ATOM      5  O   UNL A   1      36.630  22.980  22.618  1.00  0.00    -0.250 OA
BRANCH   4   6
ATOM      6  C   UNL A   1      34.441  23.425  23.398  1.00  0.00     0.185 C 
ATOM      7  C   UNL A   1      33.335  25.467  23.142  1.00  0.00     0.135 C 
ATOM      8  C   UNL A   1      34.436  24.842  23.975  1.00  0.00     0.065 C 
ATOM      9  C   UNL A   1      32.276  24.333  23.099  1.00  0.00     0.135 C 
ATOM     10  N   UNL A   1      33.007  23.022  23.466  1.00  0.00    -0.181 NA
BRANCH   7  11
ATOM     11  O   UNL A   1      33.741  25.768  21.797  1.00  0.00    -0.380 OA
ATOM     12  C   UNL A   1      32.736  25.594  20.803  1.00  0.00     0.195 C 
ENDBRANCH   7  11
BRANCH  10  13
ATOM     13  S   UNL A   1      32.300  22.273  24.816  1.00  0.00     0.246 S 
ATOM     14  O   UNL A   1      33.031  22.691  25.993  1.00  0.00    -0.207 OA
ATOM     15  O   UNL A   1      30.880  22.586  24.739  1.00  0.00    -0.207 OA
BRANCH  13  16
ATOM     16  C   UNL A   1      32.375  20.512  24.680  1.00  0.00     0.118 A 
ATOM     17  C   UNL A   1      32.801  19.736  25.775  1.00  0.00     0.026 A 
ATOM     18  C   UNL A   1      32.296  19.906  23.438  1.00  0.00     0.144 A 
ATOM     19  C   UNL A   1      33.046  18.365  25.621  1.00  0.00     0.022 A 
ATOM     20  C   UNL A   1      32.449  18.528  23.292  1.00  0.00     0.061 A 
ATOM     21  F   UNL A   1      32.164  20.627  22.320  1.00  0.00    -0.205 F 
ATOM     22  C   UNL A   1      32.829  17.759  24.385  1.00  0.00     0.044 A 
ATOM     23  Cl  UNL A   1      33.104  16.073  24.185  1.00  0.00    -0.084 Cl
ENDBRANCH  13  16
ENDBRANCH  10  13
ENDBRANCH   4   6
ENDBRANCH   3   4
ENDBRANCH   2   3
ENDBRANCH   1   2
BRANCH   1  24
ATOM     24  O   UNL A   1      38.347  21.308  25.317  1.00  0.00    -0.458 OA
BRANCH  24  25
ATOM     25  C   UNL A   1      39.290  21.096  26.272  1.00  0.00     0.338 C 
ATOM     26  O   UNL A   1      39.767  20.043  26.625  1.00  0.00    -0.246 OA
BRANCH  25  27
ATOM     27  C   UNL A   1      39.741  22.427  26.715  1.00  0.00     0.060 A 
ATOM     28  C   UNL A   1      40.783  22.527  27.641  1.00  0.00     0.016 A 
ATOM     29  C   UNL A   1      39.178  23.567  26.143  1.00  0.00     0.016 A 
ATOM     30  C   UNL A   1      41.307  23.773  27.960  1.00  0.00     0.010 A 
ATOM     31  C   UNL A   1      39.707  24.815  26.458  1.00  0.00     0.010 A 
ATOM     32  C   UNL A   1      40.783  24.918  27.354  1.00  0.00    -0.014 A 
BRANCH  32  33
ATOM     33  C   UNL A   1      41.359  26.242  27.658  1.00  0.00     0.031 A 
ATOM     34  C   UNL A   1      42.766  26.536  27.245  1.00  0.00     0.074 A 
ATOM     35  C   UNL A   1      40.622  27.134  28.345  1.00  0.00     0.049 A 
ATOM     36  N   UNL A   1      43.485  27.600  27.472  1.00  0.00    -0.248 NA
ATOM     37  C   UNL A   1      43.463  25.484  26.487  1.00  0.00     0.031 C 
ATOM     38  C   UNL A   1      39.249  26.917  28.807  1.00  0.00     0.029 A 
ATOM     39  N   UNL A   1      40.932  28.389  28.798  1.00  0.00    -0.354 N 
ATOM     40  C   UNL A   1      44.730  27.336  26.919  1.00  0.00     0.074 A 
ATOM     41  C   UNL A   1      44.674  26.005  26.355  1.00  0.00     0.031 C 
ATOM     42  C   UNL A   1      38.840  27.995  29.494  1.00  0.00     0.029 A 
ATOM     43  C   UNL A   1      39.930  28.964  29.545  1.00  0.00     0.049 A 
ATOM     44  H   UNL A   1      41.787  28.836  28.607  1.00  0.00     0.167 HD
ATOM     45  C   UNL A   1      45.817  28.140  26.878  1.00  0.00     0.034 A 
ATOM     46  C   UNL A   1      39.910  30.135  30.209  1.00  0.00     0.034 A 
ATOM     47  C   UNL A   1      45.841  29.466  27.434  1.00  0.00     0.049 A 
ATOM     48  C   UNL A   1      41.126  31.019  30.129  1.00  0.00     0.074 A 
ATOM     49  C   UNL A   1      46.869  30.390  27.419  1.00  0.00     0.029 A 
ATOM     50  N   UNL A   1      44.783  30.051  28.117  1.00  0.00    -0.354 N 
ATOM     51  N   UNL A   1      42.260  30.805  29.506  1.00  0.00    -0.248 NA
ATOM     52  C   UNL A   1      41.050  32.319  30.808  1.00  0.00     0.031 C 
ATOM     53  C   UNL A   1      46.440  31.526  28.113  1.00  0.00     0.029 A 
ATOM     54  C   UNL A   1      45.133  31.323  28.532  1.00  0.00     0.049 A 
ATOM     55  H   UNL A   1      43.912  29.623  28.282  1.00  0.00     0.167 HD
ATOM     56  C   UNL A   1      43.019  31.955  29.684  1.00  0.00     0.074 A 
ATOM     57  C   UNL A   1      42.205  32.870  30.459  1.00  0.00     0.031 C 
ATOM     58  C   UNL A   1      44.278  32.228  29.259  1.00  0.00     0.034 A 
BRANCH  45  59
ATOM     59  C   UNL A   1      47.051  27.609  26.199  1.00  0.00     0.023 A 
ATOM     60  C   UNL A   1      47.269  27.878  24.832  1.00  0.00     0.012 A 
ATOM     61  C   UNL A   1      48.006  26.862  26.916  1.00  0.00     0.148 A 
ATOM     62  C   UNL A   1      48.397  27.378  24.180  1.00  0.00     0.002 A 
ATOM     63  C   UNL A   1      49.149  26.407  26.272  1.00  0.00     0.091 A 
ATOM     64  F   UNL A   1      47.769  26.595  28.209  1.00  0.00    -0.205 F 
ATOM     65  C   UNL A   1      49.340  26.651  24.902  1.00  0.00     0.022 A 
BRANCH  63  66
ATOM     66  S   UNL A   1      50.458  25.523  27.127  1.00  0.00     0.127 S 
ATOM     67  O   UNL A   1      51.421  25.304  26.049  1.00  0.00    -0.237 OA
ATOM     68  O   UNL A   1      50.880  26.499  28.133  1.00  0.00    -0.237 OA
ATOM     69  O   UNL A   1      49.844  24.319  27.668  1.00  0.00    -0.744 OA
ENDBRANCH  63  66
ENDBRANCH  45  59
BRANCH  46  70
ATOM     70  C   UNL A   1      38.688  30.555  30.953  1.00  0.00     0.023 A 
ATOM     71  C   UNL A   1      38.592  30.293  32.334  1.00  0.00     0.012 A 
ATOM     72  C   UNL A   1      37.638  31.242  30.312  1.00  0.00     0.148 A 
ATOM     73  C   UNL A   1      37.460  30.678  33.055  1.00  0.00     0.002 A 
ATOM     74  C   UNL A   1      36.538  31.671  31.047  1.00  0.00     0.091 A 
ATOM     75  F   UNL A   1      37.740  31.472  28.995  1.00  0.00    -0.205 F 
ATOM     76  C   UNL A   1      36.439  31.375  32.415  1.00  0.00     0.022 A 
BRANCH  74  77
ATOM     77  S   UNL A   1      35.238  32.685  30.334  1.00  0.00     0.127 S 
ATOM     78  O   UNL A   1      35.970  33.890  29.957  1.00  0.00    -0.237 OA
ATOM     79  O   UNL A   1      34.790  31.858  29.211  1.00  0.00    -0.237 OA
ATOM     80  O   UNL A   1      34.246  32.850  31.388  1.00  0.00    -0.744 OA
ENDBRANCH  74  77
ENDBRANCH  46  70
BRANCH  58  81
ATOM     81  C   UNL A   1      44.835  33.589  29.582  1.00  0.00     0.023 A 
ATOM     82  C   UNL A   1      45.536  33.794  30.785  1.00  0.00     0.012 A 
ATOM     83  C   UNL A   1      44.727  34.640  28.652  1.00  0.00     0.148 A 
ATOM     84  C   UNL A   1      46.094  35.039  31.074  1.00  0.00     0.002 A 
ATOM     85  C   UNL A   1      45.329  35.862  28.922  1.00  0.00     0.091 A 
ATOM     86  F   UNL A   1      44.037  34.428  27.521  1.00  0.00    -0.205 F 
ATOM     87  C   UNL A   1      46.001  36.067  30.138  1.00  0.00     0.022 A 
BRANCH  85  88
ATOM     88  S   UNL A   1      45.350  37.204  27.729  1.00  0.00     0.127 S 
ATOM     89  O   UNL A   1      46.067  36.596  26.610  1.00  0.00    -0.237 OA
ATOM     90  O   UNL A   1      43.924  37.430  27.490  1.00  0.00    -0.237 OA
ATOM     91  O   UNL A   1      46.032  38.311  28.385  1.00  0.00    -0.744 OA
ENDBRANCH  85  88
ENDBRANCH  58  81
ENDBRANCH  32  33
ENDBRANCH  25  27
ENDBRANCH  24  25
ENDBRANCH   1  24
TORSDOF 17
ENDMDL
MODEL 2
REMARK VINA RESULT:     -11.5      2.106      8.407
REMARK SMILES CO[C@@H]1C[C@@H](C(=O)OCCOC(=O)c2ccc(-c3c4nc(c(-c5cccc(S(=O)(=O)[O-])c5F)c5ccc([nH]5)c(-c5cccc(S(=O)(=O)[O-])c5F)c5nc(c(-c6cccc(S(=O)(=O)[O-])c6F)c6ccc3[nH]6)C=C5)C=C4)cc2)N(S(=O)(=O)c2ccc(Cl)cc2F)C1
REMARK SMILES IDX 10 1 9 2 8 3 6 4 7 5 5 6 3 7 4 8 89 9 77 10 2 11 1 12 78 13
REMARK SMILES IDX 79 14 80 15 81 16 82 17 87 18 83 19 86 20 88 21 84 22 85 23
REMARK SMILES IDX 11 24 12 25 13 26 14 27 15 28 76 29 16 30 75 31 17 32 18 33
REMARK SMILES IDX 19 34 69 35 20 36 74 37 68 38 70 39 21 40 73 41 67 42 66 43
REMARK SMILES IDX 22 45 54 46 34 47 53 48 35 49 38 50 52 51 71 52 36 53 37 54
REMARK SMILES IDX 51 56 72 57 39 58 23 59 24 60 32 61 25 62 27 63 33 64 26 65
REMARK SMILES IDX 28 66 29 67 30 68 31 69 55 70 56 71 64 72 57 73 59 74 65 75
REMARK SMILES IDX 58 76 60 77 61 78 62 79 63 80 40 81 41 82 49 83 42 84 44 85
REMARK SMILES IDX 50 86 43 87 45 88 46 89 47 90 48 91
REMARK H PARENT 70 44 38 55
REMARK Flexibility Score: inf
ROOT
ATOM      1  C   UNL A   1      36.744  21.239  24.767  1.00  0.00     0.275 C 
ENDROOT
BRANCH   1   2
ATOM      2  C   UNL A   1      36.693  22.330  23.699  1.00  0.00     0.274 C 
BRANCH   2   3
ATOM      3  O   UNL A   1      35.736  23.332  24.100  1.00  0.00    -0.461 OA
BRANCH   3   4
ATOM      4  C   UNL A   1      34.528  23.244  23.532  1.00  0.00     0.324 C 
ATOM      5  O   UNL A   1      34.303  23.587  22.370  1.00  0.00    -0.250 OA
BRANCH   4   6
ATOM      6  C   UNL A   1      33.444  22.677  24.378  1.00  0.00     0.185 C 
ATOM      7  C   UNL A   1      32.303  20.670  24.742  1.00  0.00     0.135 C 
ATOM      8  C   UNL A   1      32.773  21.547  23.597  1.00  0.00     0.065 C 
ATOM      9  C   UNL A   1      31.778  21.719  25.758  1.00  0.00     0.135 C 
ATOM     10  N   UNL A   1      32.403  23.076  25.367  1.00  0.00    -0.181 NA
BRANCH   7  11
ATOM     11  O   UNL A   1      33.365  19.925  25.358  1.00  0.00    -0.380 OA
ATOM     12  C   UNL A   1      33.868  18.834  24.593  1.00  0.00     0.195 C 
ENDBRANCH   7  11
BRANCH  10  13
ATOM     13  S   UNL A   1      31.208  24.245  25.060  1.00  0.00     0.246 S 
ATOM     14  O   UNL A   1      30.727  24.048  23.710  1.00  0.00    -0.207 OA
ATOM     15  O   UNL A   1      30.257  24.129  26.156  1.00  0.00    -0.207 OA
BRANCH  13  16
ATOM     16  C   UNL A   1      31.863  25.880  25.211  1.00  0.00     0.118 A 
ATOM     17  C   UNL A   1      33.110  26.088  25.831  1.00  0.00     0.026 A 
ATOM     18  C   UNL A   1      31.050  26.979  24.987  1.00  0.00     0.144 A 
ATOM     19  C   UNL A   1      33.549  27.386  26.125  1.00  0.00     0.022 A 
ATOM     20  C   UNL A   1      31.513  28.278  25.192  1.00  0.00     0.061 A 
ATOM     21  F   UNL A   1      29.762  26.835  24.658  1.00  0.00    -0.205 F 
ATOM     22  C   UNL A   1      32.763  28.479  25.766  1.00  0.00     0.044 A 
ATOM     23  Cl  UNL A   1      33.297  30.079  26.101  1.00  0.00    -0.084 Cl
ENDBRANCH  13  16
ENDBRANCH  10  13
ENDBRANCH   4   6
ENDBRANCH   3   4
ENDBRANCH   2   3
ENDBRANCH   1   2
BRANCH   1  24
ATOM     24  O   UNL A   1      37.392  21.700  25.962  1.00  0.00    -0.458 OA
BRANCH  24  25
ATOM     25  C   UNL A   1      38.723  21.450  26.076  1.00  0.00     0.338 C 
ATOM     26  O   UNL A   1      39.322  20.451  25.751  1.00  0.00    -0.246 OA
BRANCH  25  27
ATOM     27  C   UNL A   1      39.344  22.700  26.548  1.00  0.00     0.060 A 
ATOM     28  C   UNL A   1      40.493  22.641  27.340  1.00  0.00     0.016 A 
ATOM     29  C   UNL A   1      38.822  23.924  26.131  1.00  0.00     0.016 A 
ATOM     30  C   UNL A   1      41.164  23.810  27.675  1.00  0.00     0.010 A 
ATOM     31  C   UNL A   1      39.497  25.095  26.460  1.00  0.00     0.010 A 
ATOM     32  C   UNL A   1      40.677  25.039  27.219  1.00  0.00    -0.014 A 
BRANCH  32  33
ATOM     33  C   UNL A   1      41.404  26.283  27.537  1.00  0.00     0.031 A 
ATOM     34  C   UNL A   1      40.727  27.331  28.362  1.00  0.00     0.074 A 
ATOM     35  C   UNL A   1      42.638  26.466  27.035  1.00  0.00     0.049 A 
ATOM     36  N   UNL A   1      41.152  28.517  28.699  1.00  0.00    -0.248 NA
ATOM     37  C   UNL A   1      39.381  27.005  28.865  1.00  0.00     0.031 C 
ATOM     38  C   UNL A   1      43.361  25.503  26.201  1.00  0.00     0.029 A 
ATOM     39  N   UNL A   1      43.492  27.534  27.128  1.00  0.00    -0.354 N 
ATOM     40  C   UNL A   1      40.118  29.096  29.420  1.00  0.00     0.074 A 
ATOM     41  C   UNL A   1      39.037  28.136  29.463  1.00  0.00     0.031 C 
ATOM     42  C   UNL A   1      44.543  26.031  25.843  1.00  0.00     0.029 A 
ATOM     43  C   UNL A   1      44.647  27.377  26.398  1.00  0.00     0.049 A 
ATOM     44  H   UNL A   1      43.298  28.334  27.667  1.00  0.00     0.167 HD
ATOM     45  C   UNL A   1      40.083  30.317  30.001  1.00  0.00     0.034 A 
ATOM     46  C   UNL A   1      45.662  28.237  26.190  1.00  0.00     0.034 A 
ATOM     47  C   UNL A   1      41.179  31.247  29.954  1.00  0.00     0.049 A 
ATOM     48  C   UNL A   1      45.605  29.581  26.866  1.00  0.00     0.074 A 
ATOM     49  C   UNL A   1      41.277  32.495  30.538  1.00  0.00     0.029 A 
ATOM     50  N   UNL A   1      42.368  31.028  29.271  1.00  0.00    -0.354 N 
ATOM     51  N   UNL A   1      44.669  30.074  27.640  1.00  0.00    -0.248 NA
ATOM     52  C   UNL A   1      46.758  30.470  26.674  1.00  0.00     0.031 C 
ATOM     53  C   UNL A   1      42.517  33.041  30.189  1.00  0.00     0.029 A 
ATOM     54  C   UNL A   1      43.205  32.118  29.415  1.00  0.00     0.049 A 
ATOM     55  H   UNL A   1      42.583  30.214  28.759  1.00  0.00     0.167 HD
ATOM     56  C   UNL A   1      45.132  31.315  28.060  1.00  0.00     0.074 A 
ATOM     57  C   UNL A   1      46.443  31.488  27.466  1.00  0.00     0.031 C 
ATOM     58  C   UNL A   1      44.527  32.236  28.852  1.00  0.00     0.034 A 
BRANCH  45  59
ATOM     59  C   UNL A   1      38.831  30.699  30.743  1.00  0.00     0.023 A 
ATOM     60  C   UNL A   1      38.728  30.439  32.125  1.00  0.00     0.012 A 
ATOM     61  C   UNL A   1      37.763  31.334  30.079  1.00  0.00     0.148 A 
ATOM     62  C   UNL A   1      37.568  30.768  32.826  1.00  0.00     0.002 A 
ATOM     63  C   UNL A   1      36.629  31.701  30.794  1.00  0.00     0.091 A 
ATOM     64  F   UNL A   1      37.869  31.551  28.760  1.00  0.00    -0.205 F 
ATOM     65  C   UNL A   1      36.523  31.406  32.163  1.00  0.00     0.022 A 
BRANCH  63  66
ATOM     66  S   UNL A   1      35.258  32.590  30.048  1.00  0.00     0.127 S 
ATOM     67  O   UNL A   1      34.343  32.726  31.180  1.00  0.00    -0.237 OA
ATOM     68  O   UNL A   1      35.896  33.838  29.626  1.00  0.00    -0.237 OA
ATOM     69  O   UNL A   1      34.781  31.753  28.957  1.00  0.00    -0.744 OA
ENDBRANCH  63  66
ENDBRANCH  45  59
BRANCH  46  70
ATOM     70  C   UNL A   1      46.828  27.832  25.354  1.00  0.00     0.023 A 
ATOM     71  C   UNL A   1      46.775  28.005  23.957  1.00  0.00     0.012 A 
ATOM     72  C   UNL A   1      48.002  27.312  25.934  1.00  0.00     0.148 A 
ATOM     73  C   UNL A   1      47.854  27.637  23.151  1.00  0.00     0.002 A 
ATOM     74  C   UNL A   1      49.093  26.998  25.132  1.00  0.00     0.091 A 
ATOM     75  F   UNL A   1      48.031  27.142  27.264  1.00  0.00    -0.205 F 
ATOM     76  C   UNL A   1      49.016  27.145  23.738  1.00  0.00     0.022 A 
BRANCH  74  77
ATOM     77  S   UNL A   1      50.673  26.480  25.812  1.00  0.00     0.127 S 
ATOM     78  O   UNL A   1      50.995  27.590  26.704  1.00  0.00    -0.237 OA
ATOM     79  O   UNL A   1      50.317  25.230  26.487  1.00  0.00    -0.237 OA
ATOM     80  O   UNL A   1      51.558  26.310  24.667  1.00  0.00    -0.744 OA
ENDBRANCH  74  77
ENDBRANCH  46  70
BRANCH  58  81
ATOM     81  C   UNL A   1      45.296  33.492  29.161  1.00  0.00     0.023 A 
ATOM     82  C   UNL A   1      46.144  33.539  30.284  1.00  0.00     0.012 A 
ATOM     83  C   UNL A   1      45.234  34.596  28.290  1.00  0.00     0.148 A 
ATOM     84  C   UNL A   1      46.894  34.682  30.554  1.00  0.00     0.002 A 
ATOM     85  C   UNL A   1      46.023  35.711  28.537  1.00  0.00     0.091 A 
ATOM     86  F   UNL A   1      44.404  34.537  27.238  1.00  0.00    -0.205 F 
ATOM     87  C   UNL A   1      46.844  35.762  29.675  1.00  0.00     0.022 A 
BRANCH  85  88
ATOM     88  S   UNL A   1      46.099  37.101  27.401  1.00  0.00     0.127 S 
ATOM     89  O   UNL A   1      46.670  36.479  26.208  1.00  0.00    -0.237 OA
ATOM     90  O   UNL A   1      44.691  37.479  27.277  1.00  0.00    -0.237 OA
ATOM     91  O   UNL A   1      46.936  38.101  28.049  1.00  0.00    -0.744 OA
ENDBRANCH  85  88
ENDBRANCH  58  81
ENDBRANCH  32  33
ENDBRANCH  25  27
ENDBRANCH  24  25
ENDBRANCH   1  24
TORSDOF 17
ENDMDL
MODEL 3
REMARK VINA RESULT:     -11.4      5.219      9.922
REMARK SMILES CO[C@@H]1C[C@@H](C(=O)OCCOC(=O)c2ccc(-c3c4nc(c(-c5cccc(S(=O)(=O)[O-])c5F)c5ccc([nH]5)c(-c5cccc(S(=O)(=O)[O-])c5F)c5nc(c(-c6cccc(S(=O)(=O)[O-])c6F)c6ccc3[nH]6)C=C5)C=C4)cc2)N(S(=O)(=O)c2ccc(Cl)cc2F)C1
REMARK SMILES IDX 10 1 9 2 8 3 6 4 7 5 5 6 3 7 4 8 89 9 77 10 2 11 1 12 78 13
REMARK SMILES IDX 79 14 80 15 81 16 82 17 87 18 83 19 86 20 88 21 84 22 85 23
REMARK SMILES IDX 11 24 12 25 13 26 14 27 15 28 76 29 16 30 75 31 17 32 18 33
REMARK SMILES IDX 19 34 69 35 20 36 74 37 68 38 70 39 21 40 73 41 67 42 66 43
REMARK SMILES IDX 22 45 54 46 34 47 53 48 35 49 38 50 52 51 71 52 36 53 37 54
REMARK SMILES IDX 51 56 72 57 39 58 23 59 24 60 32 61 25 62 27 63 33 64 26 65
REMARK SMILES IDX 28 66 29 67 30 68 31 69 55 70 56 71 64 72 57 73 59 74 65 75
REMARK SMILES IDX 58 76 60 77 61 78 62 79 63 80 40 81 41 82 49 83 42 84 44 85
REMARK SMILES IDX 50 86 43 87 45 88 46 89 47 90 48 91
REMARK H PARENT 70 44 38 55
REMARK Flexibility Score: inf
ROOT
ATOM      1  C   UNL A   1      32.165  30.102  26.910  1.00  0.00     0.275 C 
ENDROOT
BRANCH   1   2
ATOM      2  C   UNL A   1      31.986  28.894  25.993  1.00  0.00     0.274 C 
BRANCH   2   3
ATOM      3  O   UNL A   1      31.369  27.826  26.740  1.00  0.00    -0.461 OA
BRANCH   3   4
ATOM      4  C   UNL A   1      31.046  26.734  26.037  1.00  0.00     0.324 C 
ATOM      5  O   UNL A   1      30.698  25.674  26.560  1.00  0.00    -0.250 OA
BRANCH   4   6
ATOM      6  C   UNL A   1      31.105  26.865  24.556  1.00  0.00     0.185 C 
ATOM      7  C   UNL A   1      29.907  27.798  22.780  1.00  0.00     0.135 C 
ATOM      8  C   UNL A   1      29.673  26.975  24.032  1.00  0.00     0.065 C 
ATOM      9  C   UNL A   1      31.203  27.161  22.211  1.00  0.00     0.135 C 
ATOM     10  N   UNL A   1      31.870  26.387  23.370  1.00  0.00    -0.181 NA
BRANCH   7  11
ATOM     11  O   UNL A   1      30.159  29.186  23.053  1.00  0.00    -0.380 OA
ATOM     12  C   UNL A   1      29.456  30.107  22.225  1.00  0.00     0.195 C 
ENDBRANCH   7  11
BRANCH  10  13
ATOM     13  S   UNL A   1      32.082  24.747  22.981  1.00  0.00     0.246 S 
ATOM     14  O   UNL A   1      30.849  24.053  23.285  1.00  0.00    -0.207 OA
ATOM     15  O   UNL A   1      32.563  24.729  21.608  1.00  0.00    -0.207 OA
BRANCH  13  16
ATOM     16  C   UNL A   1      33.397  24.034  23.923  1.00  0.00     0.118 A 
ATOM     17  C   UNL A   1      34.296  24.862  24.621  1.00  0.00     0.026 A 
ATOM     18  C   UNL A   1      33.728  22.699  23.757  1.00  0.00     0.144 A 
ATOM     19  C   UNL A   1      35.448  24.322  25.210  1.00  0.00     0.022 A 
ATOM     20  C   UNL A   1      34.821  22.135  24.414  1.00  0.00     0.061 A 
ATOM     21  F   UNL A   1      33.071  21.923  22.889  1.00  0.00    -0.205 F 
ATOM     22  C   UNL A   1      35.683  22.951  25.137  1.00  0.00     0.044 A 
ATOM     23  Cl  UNL A   1      37.080  22.270  25.873  1.00  0.00    -0.084 Cl
ENDBRANCH  13  16
ENDBRANCH  10  13
ENDBRANCH   4   6
ENDBRANCH   3   4
ENDBRANCH   2   3
ENDBRANCH   1   2
BRANCH   1  24
ATOM     24  O   UNL A   1      33.286  30.906  26.512  1.00  0.00    -0.458 OA
BRANCH  24  25
ATOM     25  C   UNL A   1      33.757  31.798  27.424  1.00  0.00     0.338 C 
ATOM     26  O   UNL A   1      33.217  32.801  27.829  1.00  0.00    -0.246 OA
BRANCH  25  27
ATOM     27  C   UNL A   1      35.014  31.236  27.947  1.00  0.00     0.060 A 
ATOM     28  C   UNL A   1      36.123  32.069  28.113  1.00  0.00     0.016 A 
ATOM     29  C   UNL A   1      35.054  29.900  28.345  1.00  0.00     0.016 A 
ATOM     30  C   UNL A   1      37.267  31.582  28.733  1.00  0.00     0.010 A 
ATOM     31  C   UNL A   1      36.198  29.414  28.971  1.00  0.00     0.010 A 
ATOM     32  C   UNL A   1      37.300  30.259  29.180  1.00  0.00    -0.014 A 
BRANCH  32  33
ATOM     33  C   UNL A   1      38.496  29.745  29.873  1.00  0.00     0.031 A 
ATOM     34  C   UNL A   1      38.836  30.275  31.230  1.00  0.00     0.074 A 
ATOM     35  C   UNL A   1      39.281  28.849  29.247  1.00  0.00     0.049 A 
ATOM     36  N   UNL A   1      39.871  30.015  31.980  1.00  0.00    -0.248 NA
ATOM     37  C   UNL A   1      37.891  31.242  31.815  1.00  0.00     0.031 C 
ATOM     38  C   UNL A   1      39.033  28.298  27.913  1.00  0.00     0.029 A 
ATOM     39  N   UNL A   1      40.458  28.265  29.636  1.00  0.00    -0.354 N 
ATOM     40  C   UNL A   1      39.725  30.809  33.109  1.00  0.00     0.074 A 
ATOM     41  C   UNL A   1      38.506  31.571  32.940  1.00  0.00     0.031 C 
ATOM     42  C   UNL A   1      40.038  27.469  27.586  1.00  0.00     0.029 A 
ATOM     43  C   UNL A   1      41.011  27.454  28.672  1.00  0.00     0.049 A 
ATOM     44  H   UNL A   1      40.867  28.411  30.519  1.00  0.00     0.167 HD
ATOM     45  C   UNL A   1      40.532  30.884  34.192  1.00  0.00     0.034 A 
ATOM     46  C   UNL A   1      42.183  26.791  28.669  1.00  0.00     0.034 A 
ATOM     47  C   UNL A   1      41.731  30.104  34.339  1.00  0.00     0.049 A 
ATOM     48  C   UNL A   1      43.051  26.876  29.896  1.00  0.00     0.074 A 
ATOM     49  C   UNL A   1      42.608  30.063  35.406  1.00  0.00     0.029 A 
ATOM     50  N   UNL A   1      42.224  29.231  33.378  1.00  0.00    -0.354 N 
ATOM     51  N   UNL A   1      42.846  27.545  31.006  1.00  0.00    -0.248 NA
ATOM     52  C   UNL A   1      44.291  26.089  29.888  1.00  0.00     0.031 C 
ATOM     53  C   UNL A   1      43.645  29.182  35.081  1.00  0.00     0.029 A 
ATOM     54  C   UNL A   1      43.396  28.649  33.825  1.00  0.00     0.049 A 
ATOM     55  H   UNL A   1      41.802  29.054  32.507  1.00  0.00     0.167 HD
ATOM     56  C   UNL A   1      43.908  27.231  31.844  1.00  0.00     0.074 A 
ATOM     57  C   UNL A   1      44.746  26.297  31.118  1.00  0.00     0.031 C 
ATOM     58  C   UNL A   1      44.178  27.682  33.095  1.00  0.00     0.034 A 
BRANCH  45  59
ATOM     59  C   UNL A   1      40.133  31.828  35.294  1.00  0.00     0.023 A 
ATOM     60  C   UNL A   1      40.723  33.107  35.368  1.00  0.00     0.012 A 
ATOM     61  C   UNL A   1      39.161  31.459  36.245  1.00  0.00     0.148 A 
ATOM     62  C   UNL A   1      40.380  33.989  36.393  1.00  0.00     0.002 A 
ATOM     63  C   UNL A   1      38.792  32.360  37.236  1.00  0.00     0.091 A 
ATOM     64  F   UNL A   1      38.631  30.230  36.173  1.00  0.00    -0.205 F 
ATOM     65  C   UNL A   1      39.410  33.619  37.321  1.00  0.00     0.022 A 
BRANCH  63  66
ATOM     66  S   UNL A   1      37.502  32.008  38.436  1.00  0.00     0.127 S 
ATOM     67  O   UNL A   1      38.195  32.264  39.698  1.00  0.00    -0.237 OA
ATOM     68  O   UNL A   1      36.483  32.999  38.088  1.00  0.00    -0.237 OA
ATOM     69  O   UNL A   1      37.108  30.625  38.209  1.00  0.00    -0.744 OA
ENDBRANCH  63  66
ENDBRANCH  45  59
BRANCH  46  70
ATOM     70  C   UNL A   1      42.569  25.956  27.496  1.00  0.00     0.023 A 
ATOM     71  C   UNL A   1      43.387  26.507  26.491  1.00  0.00     0.012 A 
ATOM     72  C   UNL A   1      42.161  24.612  27.386  1.00  0.00     0.148 A 
ATOM     73  C   UNL A   1      43.766  25.746  25.383  1.00  0.00     0.002 A 
ATOM     74  C   UNL A   1      42.587  23.843  26.308  1.00  0.00     0.091 A 
ATOM     75  F   UNL A   1      41.373  24.107  28.346  1.00  0.00    -0.205 F 
ATOM     76  C   UNL A   1      43.375  24.413  25.297  1.00  0.00     0.022 A 
BRANCH  74  77
ATOM     77  S   UNL A   1      42.239  22.085  26.180  1.00  0.00     0.127 S 
ATOM     78  O   UNL A   1      42.670  21.598  27.488  1.00  0.00    -0.237 OA
ATOM     79  O   UNL A   1      40.791  22.077  25.965  1.00  0.00    -0.237 OA
ATOM     80  O   UNL A   1      43.016  21.612  25.042  1.00  0.00    -0.744 OA
ENDBRANCH  74  77
ENDBRANCH  46  70
BRANCH  58  81
ATOM     81  C   UNL A   1      45.404  27.135  33.776  1.00  0.00     0.023 A 
ATOM     82  C   UNL A   1      46.626  27.830  33.690  1.00  0.00     0.012 A 
ATOM     83  C   UNL A   1      45.320  25.972  34.565  1.00  0.00     0.148 A 
ATOM     84  C   UNL A   1      47.756  27.355  34.353  1.00  0.00     0.002 A 
ATOM     85  C   UNL A   1      46.436  25.534  35.265  1.00  0.00     0.091 A 
ATOM     86  F   UNL A   1      44.151  25.316  34.616  1.00  0.00    -0.205 F 
ATOM     87  C   UNL A   1      47.658  26.216  35.150  1.00  0.00     0.022 A 
BRANCH  85  88
ATOM     88  S   UNL A   1      46.371  24.140  36.395  1.00  0.00     0.127 S 
ATOM     89  O   UNL A   1      47.716  24.156  36.966  1.00  0.00    -0.237 OA
ATOM     90  O   UNL A   1      45.310  24.540  37.321  1.00  0.00    -0.237 OA
ATOM     91  O   UNL A   1      46.049  22.978  35.579  1.00  0.00    -0.744 OA
ENDBRANCH  85  88
ENDBRANCH  58  81
ENDBRANCH  32  33
ENDBRANCH  25  27
ENDBRANCH  24  25
ENDBRANCH   1  24
TORSDOF 17
ENDMDL
