MODEL 1
REMARK VINA RESULT:     -11.1      0.000      0.000
REMARK SMILES CC[C@@H](NC(=O)NC1(CC(=O)OCCOC(=O)c2ccc(-c3c4nc(c(-c5cccc(S(=O)(=O)[O-])c5F)c5ccc([nH]5)c(-c5cccc(S(=O)(=O)[O-])c5F)c5nc(c(-c6cccc(S(=O)(=O)[O-])c6F)c6ccc3[nH]6)C=C5)C=C4)cc2)CCC1)C(C)C
REMARK SMILES IDX 13 1 12 2 10 3 11 4 9 5 8 6 81 7 83 8 82 9 7 10 4 11 5 12
REMARK SMILES IDX 6 14 3 16 2 17 1 18 84 19 85 20 86 21 14 22 15 23 16 24
REMARK SMILES IDX 17 25 18 26 19 27 80 28 20 29 79 30 21 31 22 32 23 33 73 34
REMARK SMILES IDX 24 35 78 36 72 37 74 38 25 39 77 40 71 41 70 42 26 44 58 45
REMARK SMILES IDX 38 46 57 47 39 48 42 49 56 50 75 51 40 52 41 53 55 55 76 56
REMARK SMILES IDX 43 57 27 58 28 59 36 60 29 61 31 62 37 63 30 64 32 65 33 66
REMARK SMILES IDX 34 67 35 68 59 69 60 70 68 71 61 72 63 73 69 74 62 75 64 76
REMARK SMILES IDX 65 77 66 78 67 79 44 80 45 81 53 82 46 83 48 84 54 85 47 86
REMARK SMILES IDX 49 87 50 88 51 89 52 90
REMARK H PARENT 4 13 7 15 74 43 42 54
REMARK Flexibility Score: inf
ROOT
ATOM      1  C   UNL A   1      36.361  22.483  23.642  1.00  0.00     0.274 C 
ENDROOT
BRANCH   1   2
ATOM      2  O   UNL A   1      35.758  23.471  24.506  1.00  0.00    -0.462 OA
BRANCH   2   3
ATOM      3  C   UNL A   1      34.405  23.538  24.464  1.00  0.00     0.308 C 
ATOM      4  O   UNL A   1      33.761  23.794  23.452  1.00  0.00    -0.252 OA
BRANCH   3   5
ATOM      5  C   UNL A   1      33.726  23.381  25.798  1.00  0.00     0.151 C 
BRANCH   5   6
ATOM      6  C   UNL A   1      32.834  22.154  26.123  1.00  0.00     0.052 C 
ATOM      7  C   UNL A   1      33.786  21.053  26.637  1.00  0.00     0.029 C 
ATOM      8  C   UNL A   1      32.506  21.274  24.893  1.00  0.00     0.029 C 
ATOM      9  C   UNL A   1      33.673  20.347  25.265  1.00  0.00     0.005 C 
BRANCH   6  10
ATOM     10  N   UNL A   1      31.634  22.541  26.900  1.00  0.00    -0.332 N 
ATOM     11  N   UNL A   1      30.231  24.405  26.264  1.00  0.00    -0.335 N 
ATOM     12  C   UNL A   1      30.531  23.288  26.889  1.00  0.00     0.315 C 
ATOM     13  H   UNL A   1      29.282  24.597  26.448  1.00  0.00     0.165 HD
ATOM     14  O   UNL A   1      29.618  22.917  27.643  1.00  0.00    -0.249 OA
ATOM     15  H   UNL A   1      31.661  22.057  27.757  1.00  0.00     0.165 HD
BRANCH  11  16
ATOM     16  C   UNL A   1      30.733  25.480  25.407  1.00  0.00     0.086 C 
BRANCH  16  17
ATOM     17  C   UNL A   1      30.907  26.756  26.260  1.00  0.00     0.022 C 
ATOM     18  C   UNL A   1      32.384  27.163  26.325  1.00  0.00     0.006 C 
ENDBRANCH  16  17
BRANCH  16  19
ATOM     19  C   UNL A   1      30.078  25.568  24.019  1.00  0.00     0.005 C 
ATOM     20  C   UNL A   1      28.924  26.563  23.918  1.00  0.00     0.009 C 
ATOM     21  C   UNL A   1      31.112  25.838  22.921  1.00  0.00     0.009 C 
ENDBRANCH  16  19
ENDBRANCH  11  16
ENDBRANCH   6  10
ENDBRANCH   5   6
ENDBRANCH   3   5
ENDBRANCH   2   3
ENDBRANCH   1   2
BRANCH   1  22
ATOM     22  C   UNL A   1      37.008  21.322  24.409  1.00  0.00     0.275 C 
BRANCH  22  23
ATOM     23  O   UNL A   1      37.384  21.687  25.749  1.00  0.00    -0.458 OA
BRANCH  23  24
ATOM     24  C   UNL A   1      38.668  21.392  26.046  1.00  0.00     0.338 C 
ATOM     25  O   UNL A   1      39.244  20.352  25.734  1.00  0.00    -0.246 OA
BRANCH  24  26
ATOM     26  C   UNL A   1      39.369  22.558  26.600  1.00  0.00     0.060 A 
ATOM     27  C   UNL A   1      39.000  23.821  26.129  1.00  0.00     0.016 A 
ATOM     28  C   UNL A   1      40.431  22.429  27.493  1.00  0.00     0.016 A 
ATOM     29  C   UNL A   1      39.694  24.956  26.514  1.00  0.00     0.010 A 
ATOM     30  C   UNL A   1      41.113  23.579  27.910  1.00  0.00     0.010 A 
ATOM     31  C   UNL A   1      40.750  24.848  27.419  1.00  0.00    -0.014 A 
BRANCH  31  32
ATOM     32  C   UNL A   1      41.457  26.076  27.847  1.00  0.00     0.031 A 
ATOM     33  C   UNL A   1      40.743  27.120  28.648  1.00  0.00     0.074 A 
ATOM     34  C   UNL A   1      42.749  26.240  27.507  1.00  0.00     0.049 A 
ATOM     35  N   UNL A   1      41.159  28.304  29.014  1.00  0.00    -0.248 NA
ATOM     36  C   UNL A   1      39.380  26.793  29.098  1.00  0.00     0.031 C 
ATOM     37  C   UNL A   1      43.551  25.273  26.754  1.00  0.00     0.029 A 
ATOM     38  N   UNL A   1      43.608  27.286  27.730  1.00  0.00    -0.354 N 
ATOM     39  C   UNL A   1      40.093  28.891  29.681  1.00  0.00     0.074 A 
ATOM     40  C   UNL A   1      39.014  27.924  29.685  1.00  0.00     0.031 C 
ATOM     41  C   UNL A   1      44.779  25.778  26.562  1.00  0.00     0.029 A 
ATOM     42  C   UNL A   1      44.833  27.122  27.128  1.00  0.00     0.049 A 
ATOM     43  H   UNL A   1      43.370  28.075  28.269  1.00  0.00     0.167 HD
ATOM     44  C   UNL A   1      40.026  30.122  30.244  1.00  0.00     0.034 A 
ATOM     45  C   UNL A   1      45.868  27.974  27.007  1.00  0.00     0.034 A 
ATOM     46  C   UNL A   1      41.123  31.053  30.276  1.00  0.00     0.049 A 
ATOM     47  C   UNL A   1      45.764  29.336  27.633  1.00  0.00     0.074 A 
ATOM     48  C   UNL A   1      41.172  32.303  30.867  1.00  0.00     0.029 A 
ATOM     49  N   UNL A   1      42.363  30.839  29.692  1.00  0.00    -0.354 N 
ATOM     50  N   UNL A   1      44.779  29.850  28.330  1.00  0.00    -0.248 NA
ATOM     51  C   UNL A   1      46.919  30.230  27.474  1.00  0.00     0.031 C 
ATOM     52  C   UNL A   1      42.437  32.852  30.624  1.00  0.00     0.029 A 
ATOM     53  C   UNL A   1      43.182  31.937  29.898  1.00  0.00     0.049 A 
ATOM     54  H   UNL A   1      42.623  30.024  29.203  1.00  0.00     0.167 HD
ATOM     55  C   UNL A   1      45.202  31.118  28.710  1.00  0.00     0.074 A 
ATOM     56  C   UNL A   1      46.544  31.283  28.188  1.00  0.00     0.031 C 
ATOM     57  C   UNL A   1      44.532  32.067  29.410  1.00  0.00     0.034 A 
BRANCH  44  58
ATOM     58  C   UNL A   1      38.724  30.526  30.881  1.00  0.00     0.023 A 
ATOM     59  C   UNL A   1      38.515  30.298  32.256  1.00  0.00     0.012 A 
ATOM     60  C   UNL A   1      37.723  31.169  30.126  1.00  0.00     0.148 A 
ATOM     61  C   UNL A   1      37.317  30.676  32.863  1.00  0.00     0.002 A 
ATOM     62  C   UNL A   1      36.548  31.578  30.747  1.00  0.00     0.091 A 
ATOM     63  F   UNL A   1      37.928  31.353  28.815  1.00  0.00    -0.205 F 
ATOM     64  C   UNL A   1      36.339  31.323  32.112  1.00  0.00     0.022 A 
BRANCH  62  65
ATOM     65  S   UNL A   1      35.265  32.484  29.875  1.00  0.00     0.127 S 
ATOM     66  O   UNL A   1      34.307  32.748  30.945  1.00  0.00    -0.237 OA
ATOM     67  O   UNL A   1      35.987  33.666  29.399  1.00  0.00    -0.237 OA
ATOM     68  O   UNL A   1      34.802  31.597  28.817  1.00  0.00    -0.744 OA
ENDBRANCH  62  65
ENDBRANCH  44  58
BRANCH  45  69
ATOM     69  C   UNL A   1      47.092  27.545  26.274  1.00  0.00     0.023 A 
ATOM     70  C   UNL A   1      48.052  26.756  26.934  1.00  0.00     0.012 A 
ATOM     71  C   UNL A   1      47.277  27.861  24.914  1.00  0.00     0.148 A 
ATOM     72  C   UNL A   1      49.184  26.304  26.256  1.00  0.00     0.002 A 
ATOM     73  C   UNL A   1      48.377  27.360  24.230  1.00  0.00     0.091 A 
ATOM     74  F   UNL A   1      46.359  28.629  24.309  1.00  0.00    -0.205 F 
ATOM     75  C   UNL A   1      49.340  26.593  24.903  1.00  0.00     0.022 A 
BRANCH  73  76
ATOM     76  S   UNL A   1      48.587  27.567  22.457  1.00  0.00     0.127 S 
ATOM     77  O   UNL A   1      48.647  26.181  22.000  1.00  0.00    -0.237 OA
ATOM     78  O   UNL A   1      47.365  28.285  22.089  1.00  0.00    -0.237 OA
ATOM     79  O   UNL A   1      49.809  28.341  22.294  1.00  0.00    -0.744 OA
ENDBRANCH  73  76
ENDBRANCH  45  69
BRANCH  57  80
ATOM     80  C   UNL A   1      45.246  33.367  29.667  1.00  0.00     0.023 A 
ATOM     81  C   UNL A   1      46.041  33.508  30.823  1.00  0.00     0.012 A 
ATOM     82  C   UNL A   1      45.183  34.424  28.738  1.00  0.00     0.148 A 
ATOM     83  C   UNL A   1      46.739  34.690  31.063  1.00  0.00     0.002 A 
ATOM     84  C   UNL A   1      45.919  35.582  28.961  1.00  0.00     0.091 A 
ATOM     85  F   UNL A   1      44.405  34.281  27.656  1.00  0.00    -0.205 F 
ATOM     86  C   UNL A   1      46.688  35.721  30.128  1.00  0.00     0.022 A 
BRANCH  84  87
ATOM     87  S   UNL A   1      45.982  36.924  27.768  1.00  0.00     0.127 S 
ATOM     88  O   UNL A   1      46.917  37.849  28.407  1.00  0.00    -0.237 OA
ATOM     89  O   UNL A   1      46.503  36.257  26.574  1.00  0.00    -0.237 OA
ATOM     90  O   UNL A   1      44.612  37.405  27.638  1.00  0.00    -0.744 OA
ENDBRANCH  84  87
ENDBRANCH  57  80
ENDBRANCH  31  32
ENDBRANCH  24  26
ENDBRANCH  23  24
ENDBRANCH  22  23
ENDBRANCH   1  22
TORSDOF 19
ENDMDL
MODEL 2
REMARK VINA RESULT:     -10.6      1.782      2.562
REMARK SMILES CC[C@@H](NC(=O)NC1(CC(=O)OCCOC(=O)c2ccc(-c3c4nc(c(-c5cccc(S(=O)(=O)[O-])c5F)c5ccc([nH]5)c(-c5cccc(S(=O)(=O)[O-])c5F)c5nc(c(-c6cccc(S(=O)(=O)[O-])c6F)c6ccc3[nH]6)C=C5)C=C4)cc2)CCC1)C(C)C
REMARK SMILES IDX 13 1 12 2 10 3 11 4 9 5 8 6 81 7 83 8 82 9 7 10 4 11 5 12
REMARK SMILES IDX 6 14 3 16 2 17 1 18 84 19 85 20 86 21 14 22 15 23 16 24
REMARK SMILES IDX 17 25 18 26 19 27 80 28 20 29 79 30 21 31 22 32 23 33 73 34
REMARK SMILES IDX 24 35 78 36 72 37 74 38 25 39 77 40 71 41 70 42 26 44 58 45
REMARK SMILES IDX 38 46 57 47 39 48 42 49 56 50 75 51 40 52 41 53 55 55 76 56
REMARK SMILES IDX 43 57 27 58 28 59 36 60 29 61 31 62 37 63 30 64 32 65 33 66
REMARK SMILES IDX 34 67 35 68 59 69 60 70 68 71 61 72 63 73 69 74 62 75 64 76
REMARK SMILES IDX 65 77 66 78 67 79 44 80 45 81 53 82 46 83 48 84 54 85 47 86
REMARK SMILES IDX 49 87 50 88 51 89 52 90
REMARK H PARENT 4 13 7 15 74 43 42 54
REMARK Flexibility Score: inf
ROOT
ATOM      1  C   UNL A   1      36.166  22.197  23.890  1.00  0.00     0.274 C 
ENDROOT
BRANCH   1   2
ATOM      2  O   UNL A   1      35.473  23.349  24.420  1.00  0.00    -0.462 OA
BRANCH   2   3
ATOM      3  C   UNL A   1      34.450  23.816  23.663  1.00  0.00     0.308 C 
ATOM      4  O   UNL A   1      34.379  23.682  22.446  1.00  0.00    -0.252 OA
BRANCH   3   5
ATOM      5  C   UNL A   1      33.430  24.626  24.416  1.00  0.00     0.151 C 
BRANCH   5   6
ATOM      6  C   UNL A   1      31.927  24.606  24.037  1.00  0.00     0.052 C 
ATOM      7  C   UNL A   1      31.180  25.298  25.197  1.00  0.00     0.029 C 
ATOM      8  C   UNL A   1      31.209  23.279  24.386  1.00  0.00     0.029 C 
ATOM      9  C   UNL A   1      30.724  23.908  25.702  1.00  0.00     0.005 C 
BRANCH   6  10
ATOM     10  N   UNL A   1      31.710  25.034  22.635  1.00  0.00    -0.332 N 
ATOM     11  N   UNL A   1      31.688  27.363  21.987  1.00  0.00    -0.335 N 
ATOM     12  C   UNL A   1      31.777  26.065  21.795  1.00  0.00     0.315 C 
ATOM     13  H   UNL A   1      31.876  27.799  21.124  1.00  0.00     0.165 HD
ATOM     14  O   UNL A   1      31.887  25.779  20.593  1.00  0.00    -0.249 OA
ATOM     15  H   UNL A   1      31.395  24.251  22.126  1.00  0.00     0.165 HD
BRANCH  11  16
ATOM     16  C   UNL A   1      31.424  28.423  22.961  1.00  0.00     0.086 C 
BRANCH  16  17
ATOM     17  C   UNL A   1      30.357  29.377  22.380  1.00  0.00     0.022 C 
ATOM     18  C   UNL A   1      28.952  28.946  22.820  1.00  0.00     0.006 C 
ENDBRANCH  16  17
BRANCH  16  19
ATOM     19  C   UNL A   1      32.669  28.997  23.655  1.00  0.00     0.005 C 
ATOM     20  C   UNL A   1      32.762  28.702  25.150  1.00  0.00     0.009 C 
ATOM     21  C   UNL A   1      33.960  28.570  22.946  1.00  0.00     0.009 C 
ENDBRANCH  16  19
ENDBRANCH  11  16
ENDBRANCH   6  10
ENDBRANCH   5   6
ENDBRANCH   3   5
ENDBRANCH   2   3
ENDBRANCH   1   2
BRANCH   1  22
ATOM     22  C   UNL A   1      36.368  21.083  24.925  1.00  0.00     0.275 C 
BRANCH  22  23
ATOM     23  O   UNL A   1      37.026  21.548  26.116  1.00  0.00    -0.458 OA
BRANCH  23  24
ATOM     24  C   UNL A   1      38.361  21.338  26.110  1.00  0.00     0.338 C 
ATOM     25  O   UNL A   1      38.911  20.307  25.729  1.00  0.00    -0.246 OA
BRANCH  24  26
ATOM     26  C   UNL A   1      39.097  22.574  26.406  1.00  0.00     0.060 A 
ATOM     27  C   UNL A   1      40.223  22.475  27.228  1.00  0.00     0.016 A 
ATOM     28  C   UNL A   1      38.656  23.823  25.972  1.00  0.00     0.016 A 
ATOM     29  C   UNL A   1      40.900  23.609  27.648  1.00  0.00     0.010 A 
ATOM     30  C   UNL A   1      39.359  24.968  26.369  1.00  0.00     0.010 A 
ATOM     31  C   UNL A   1      40.482  24.867  27.212  1.00  0.00    -0.014 A 
BRANCH  31  32
ATOM     32  C   UNL A   1      41.238  26.064  27.642  1.00  0.00     0.031 A 
ATOM     33  C   UNL A   1      40.577  27.118  28.476  1.00  0.00     0.074 A 
ATOM     34  C   UNL A   1      42.526  26.191  27.275  1.00  0.00     0.049 A 
ATOM     35  N   UNL A   1      41.040  28.281  28.850  1.00  0.00    -0.248 NA
ATOM     36  C   UNL A   1      39.215  26.829  28.952  1.00  0.00     0.031 C 
ATOM     37  C   UNL A   1      43.279  25.211  26.489  1.00  0.00     0.029 A 
ATOM     38  N   UNL A   1      43.424  27.204  27.495  1.00  0.00    -0.354 N 
ATOM     39  C   UNL A   1      40.010  28.892  29.551  1.00  0.00     0.074 A 
ATOM     40  C   UNL A   1      38.899  27.961  29.564  1.00  0.00     0.031 C 
ATOM     41  C   UNL A   1      44.519  25.678  26.277  1.00  0.00     0.029 A 
ATOM     42  C   UNL A   1      44.629  27.011  26.862  1.00  0.00     0.049 A 
ATOM     43  H   UNL A   1      43.225  27.992  28.051  1.00  0.00     0.167 HD
ATOM     44  C   UNL A   1      39.996  30.115  30.134  1.00  0.00     0.034 A 
ATOM     45  C   UNL A   1      45.689  27.830  26.731  1.00  0.00     0.034 A 
ATOM     46  C   UNL A   1      41.124  31.009  30.156  1.00  0.00     0.049 A 
ATOM     47  C   UNL A   1      45.645  29.184  27.380  1.00  0.00     0.074 A 
ATOM     48  C   UNL A   1      41.227  32.248  30.764  1.00  0.00     0.029 A 
ATOM     49  N   UNL A   1      42.342  30.764  29.540  1.00  0.00    -0.354 N 
ATOM     50  N   UNL A   1      44.693  29.719  28.108  1.00  0.00    -0.248 NA
ATOM     51  C   UNL A   1      46.825  30.042  27.208  1.00  0.00     0.031 C 
ATOM     52  C   UNL A   1      42.504  32.758  30.500  1.00  0.00     0.029 A 
ATOM     53  C   UNL A   1      43.201  31.831  29.743  1.00  0.00     0.049 A 
ATOM     54  H   UNL A   1      42.564  29.950  29.033  1.00  0.00     0.167 HD
ATOM     55  C   UNL A   1      45.166  30.966  28.497  1.00  0.00     0.074 A 
ATOM     56  C   UNL A   1      46.501  31.095  27.947  1.00  0.00     0.031 C 
ATOM     57  C   UNL A   1      44.543  31.925  29.226  1.00  0.00     0.034 A 
BRANCH  44  58
ATOM     58  C   UNL A   1      38.722  30.551  30.806  1.00  0.00     0.023 A 
ATOM     59  C   UNL A   1      38.536  30.307  32.183  1.00  0.00     0.012 A 
ATOM     60  C   UNL A   1      37.727  31.240  30.086  1.00  0.00     0.148 A 
ATOM     61  C   UNL A   1      37.366  30.714  32.822  1.00  0.00     0.002 A 
ATOM     62  C   UNL A   1      36.581  31.677  30.740  1.00  0.00     0.091 A 
ATOM     63  F   UNL A   1      37.909  31.440  28.773  1.00  0.00    -0.205 F 
ATOM     64  C   UNL A   1      36.394  31.406  32.104  1.00  0.00     0.022 A 
BRANCH  62  65
ATOM     65  S   UNL A   1      35.310  32.640  29.911  1.00  0.00     0.127 S 
ATOM     66  O   UNL A   1      34.388  32.923  31.009  1.00  0.00    -0.237 OA
ATOM     67  O   UNL A   1      36.061  33.802  29.433  1.00  0.00    -0.237 OA
ATOM     68  O   UNL A   1      34.789  31.784  28.854  1.00  0.00    -0.744 OA
ENDBRANCH  62  65
ENDBRANCH  44  58
BRANCH  45  69
ATOM     69  C   UNL A   1      46.881  27.373  25.964  1.00  0.00     0.023 A 
ATOM     70  C   UNL A   1      46.975  27.667  24.591  1.00  0.00     0.012 A 
ATOM     71  C   UNL A   1      47.947  26.706  26.600  1.00  0.00     0.148 A 
ATOM     72  C   UNL A   1      48.102  27.290  23.861  1.00  0.00     0.002 A 
ATOM     73  C   UNL A   1      49.091  26.384  25.880  1.00  0.00     0.091 A 
ATOM     74  F   UNL A   1      47.830  26.420  27.904  1.00  0.00    -0.205 F 
ATOM     75  C   UNL A   1      49.165  26.662  24.506  1.00  0.00     0.022 A 
BRANCH  73  76
ATOM     76  S   UNL A   1      50.560  25.700  26.657  1.00  0.00     0.127 S 
ATOM     77  O   UNL A   1      50.904  26.746  27.617  1.00  0.00    -0.237 OA
ATOM     78  O   UNL A   1      50.042  24.466  27.250  1.00  0.00    -0.237 OA
ATOM     79  O   UNL A   1      51.514  25.492  25.578  1.00  0.00    -0.744 OA
ENDBRANCH  73  76
ENDBRANCH  45  69
BRANCH  57  80
ATOM     80  C   UNL A   1      45.306  33.197  29.488  1.00  0.00     0.023 A 
ATOM     81  C   UNL A   1      46.152  33.283  30.612  1.00  0.00     0.012 A 
ATOM     82  C   UNL A   1      45.236  34.280  28.590  1.00  0.00     0.148 A 
ATOM     83  C   UNL A   1      46.894  34.438  30.854  1.00  0.00     0.002 A 
ATOM     84  C   UNL A   1      46.015  35.410  28.812  1.00  0.00     0.091 A 
ATOM     85  F   UNL A   1      44.410  34.189  27.538  1.00  0.00    -0.205 F 
ATOM     86  C   UNL A   1      46.835  35.495  29.949  1.00  0.00     0.022 A 
BRANCH  84  87
ATOM     87  S   UNL A   1      46.068  36.782  27.653  1.00  0.00     0.127 S 
ATOM     88  O   UNL A   1      44.701  37.292  27.730  1.00  0.00    -0.237 OA
ATOM     89  O   UNL A   1      47.080  37.655  28.247  1.00  0.00    -0.237 OA
ATOM     90  O   UNL A   1      46.451  36.204  26.371  1.00  0.00    -0.744 OA
ENDBRANCH  84  87
ENDBRANCH  57  80
ENDBRANCH  31  32
ENDBRANCH  24  26
ENDBRANCH  23  24
ENDBRANCH  22  23
ENDBRANCH   1  22
TORSDOF 19
ENDMDL
MODEL 3
REMARK VINA RESULT:     -10.4      5.828     10.836
REMARK SMILES CC[C@@H](NC(=O)NC1(CC(=O)OCCOC(=O)c2ccc(-c3c4nc(c(-c5cccc(S(=O)(=O)[O-])c5F)c5ccc([nH]5)c(-c5cccc(S(=O)(=O)[O-])c5F)c5nc(c(-c6cccc(S(=O)(=O)[O-])c6F)c6ccc3[nH]6)C=C5)C=C4)cc2)CCC1)C(C)C
REMARK SMILES IDX 13 1 12 2 10 3 11 4 9 5 8 6 81 7 83 8 82 9 7 10 4 11 5 12
REMARK SMILES IDX 6 14 3 16 2 17 1 18 84 19 85 20 86 21 14 22 15 23 16 24
REMARK SMILES IDX 17 25 18 26 19 27 80 28 20 29 79 30 21 31 22 32 23 33 73 34
REMARK SMILES IDX 24 35 78 36 72 37 74 38 25 39 77 40 71 41 70 42 26 44 58 45
REMARK SMILES IDX 38 46 57 47 39 48 42 49 56 50 75 51 40 52 41 53 55 55 76 56
REMARK SMILES IDX 43 57 27 58 28 59 36 60 29 61 31 62 37 63 30 64 32 65 33 66
REMARK SMILES IDX 34 67 35 68 59 69 60 70 68 71 61 72 63 73 69 74 62 75 64 76
REMARK SMILES IDX 65 77 66 78 67 79 44 80 45 81 53 82 46 83 48 84 54 85 47 86
REMARK SMILES IDX 49 87 50 88 51 89 52 90
REMARK H PARENT 4 13 7 15 74 43 42 54
REMARK Flexibility Score: inf
ROOT
ATOM      1  C   UNL A   1      32.805  31.184  27.501  1.00  0.00     0.274 C 
ENDROOT
BRANCH   1   2
ATOM      2  O   UNL A   1      31.792  30.446  26.784  1.00  0.00    -0.462 OA
BRANCH   2   3
ATOM      3  C   UNL A   1      32.178  29.926  25.593  1.00  0.00     0.308 C 
ATOM      4  O   UNL A   1      33.343  29.688  25.293  1.00  0.00    -0.252 OA
BRANCH   3   5
ATOM      5  C   UNL A   1      31.067  29.752  24.593  1.00  0.00     0.151 C 
BRANCH   5   6
ATOM      6  C   UNL A   1      31.086  28.615  23.538  1.00  0.00     0.052 C 
ATOM      7  C   UNL A   1      29.825  28.813  22.669  1.00  0.00     0.029 C 
ATOM      8  C   UNL A   1      30.504  27.275  24.049  1.00  0.00     0.029 C 
ATOM      9  C   UNL A   1      29.150  27.643  23.423  1.00  0.00     0.005 C 
BRANCH   6  10
ATOM     10  N   UNL A   1      32.421  28.470  22.913  1.00  0.00    -0.332 N 
ATOM     11  N   UNL A   1      33.604  26.361  22.874  1.00  0.00    -0.335 N 
ATOM     12  C   UNL A   1      33.333  27.593  22.499  1.00  0.00     0.315 C 
ATOM     13  H   UNL A   1      34.297  26.016  22.265  1.00  0.00     0.165 HD
ATOM     14  O   UNL A   1      34.127  28.001  21.637  1.00  0.00    -0.249 OA
ATOM     15  H   UNL A   1      32.770  29.374  22.734  1.00  0.00     0.165 HD
BRANCH  11  16
ATOM     16  C   UNL A   1      33.296  25.296  23.829  1.00  0.00     0.086 C 
BRANCH  16  17
ATOM     17  C   UNL A   1      34.079  25.558  25.135  1.00  0.00     0.022 C 
ATOM     18  C   UNL A   1      33.187  26.262  26.166  1.00  0.00     0.006 C 
ENDBRANCH  16  17
BRANCH  16  19
ATOM     19  C   UNL A   1      33.248  23.880  23.234  1.00  0.00     0.005 C 
ATOM     20  C   UNL A   1      33.097  23.828  21.716  1.00  0.00     0.009 C 
ATOM     21  C   UNL A   1      34.449  23.038  23.679  1.00  0.00     0.009 C 
ENDBRANCH  16  19
ENDBRANCH  11  16
ENDBRANCH   6  10
ENDBRANCH   5   6
ENDBRANCH   3   5
ENDBRANCH   2   3
ENDBRANCH   1   2
BRANCH   1  22
ATOM     22  C   UNL A   1      32.782  32.689  27.203  1.00  0.00     0.275 C 
BRANCH  22  23
ATOM     23  O   UNL A   1      32.386  33.472  28.343  1.00  0.00    -0.458 OA
BRANCH  23  24
ATOM     24  C   UNL A   1      33.260  34.453  28.652  1.00  0.00     0.338 C 
ATOM     25  O   UNL A   1      33.056  35.656  28.497  1.00  0.00    -0.246 OA
BRANCH  24  26
ATOM     26  C   UNL A   1      34.407  33.930  29.405  1.00  0.00     0.060 A 
ATOM     27  C   UNL A   1      35.686  34.238  28.934  1.00  0.00     0.016 A 
ATOM     28  C   UNL A   1      34.251  33.078  30.498  1.00  0.00     0.016 A 
ATOM     29  C   UNL A   1      36.814  33.685  29.520  1.00  0.00     0.010 A 
ATOM     30  C   UNL A   1      35.391  32.545  31.112  1.00  0.00     0.010 A 
ATOM     31  C   UNL A   1      36.677  32.841  30.624  1.00  0.00    -0.014 A 
BRANCH  31  32
ATOM     32  C   UNL A   1      37.894  32.288  31.258  1.00  0.00     0.031 A 
ATOM     33  C   UNL A   1      38.634  31.155  30.617  1.00  0.00     0.074 A 
ATOM     34  C   UNL A   1      38.327  32.817  32.417  1.00  0.00     0.049 A 
ATOM     35  N   UNL A   1      39.646  30.467  31.078  1.00  0.00    -0.248 NA
ATOM     36  C   UNL A   1      38.176  30.735  29.283  1.00  0.00     0.031 C 
ATOM     37  C   UNL A   1      37.702  33.943  33.114  1.00  0.00     0.029 A 
ATOM     38  N   UNL A   1      39.380  32.468  33.224  1.00  0.00    -0.354 N 
ATOM     39  C   UNL A   1      39.909  29.494  30.123  1.00  0.00     0.074 A 
ATOM     40  C   UNL A   1      38.958  29.691  29.047  1.00  0.00     0.031 C 
ATOM     41  C   UNL A   1      38.371  34.180  34.252  1.00  0.00     0.029 A 
ATOM     42  C   UNL A   1      39.434  33.191  34.392  1.00  0.00     0.049 A 
ATOM     43  H   UNL A   1      40.032  31.769  32.989  1.00  0.00     0.167 HD
ATOM     44  C   UNL A   1      40.861  28.531  30.142  1.00  0.00     0.034 A 
ATOM     45  C   UNL A   1      40.223  33.047  35.473  1.00  0.00     0.034 A 
ATOM     46  C   UNL A   1      41.831  28.378  31.195  1.00  0.00     0.049 A 
ATOM     47  C   UNL A   1      41.266  31.964  35.472  1.00  0.00     0.074 A 
ATOM     48  C   UNL A   1      42.869  27.467  31.282  1.00  0.00     0.029 A 
ATOM     49  N   UNL A   1      41.883  29.154  32.344  1.00  0.00    -0.354 N 
ATOM     50  N   UNL A   1      41.556  31.101  34.528  1.00  0.00    -0.248 NA
ATOM     51  C   UNL A   1      42.102  31.847  36.674  1.00  0.00     0.031 C 
ATOM     52  C   UNL A   1      43.536  27.680  32.494  1.00  0.00     0.029 A 
ATOM     53  C   UNL A   1      42.927  28.736  33.152  1.00  0.00     0.049 A 
ATOM     54  H   UNL A   1      41.268  29.894  32.553  1.00  0.00     0.167 HD
ATOM     55  C   UNL A   1      42.621  30.350  35.013  1.00  0.00     0.074 A 
ATOM     56  C   UNL A   1      42.941  30.880  36.324  1.00  0.00     0.031 C 
ATOM     57  C   UNL A   1      43.261  29.304  34.435  1.00  0.00     0.034 A 
BRANCH  44  58
ATOM     58  C   UNL A   1      40.905  27.572  28.983  1.00  0.00     0.023 A 
ATOM     59  C   UNL A   1      40.007  26.487  28.934  1.00  0.00     0.012 A 
ATOM     60  C   UNL A   1      41.809  27.770  27.920  1.00  0.00     0.148 A 
ATOM     61  C   UNL A   1      40.029  25.596  27.862  1.00  0.00     0.002 A 
ATOM     62  C   UNL A   1      41.798  26.901  26.835  1.00  0.00     0.091 A 
ATOM     63  F   UNL A   1      42.674  28.791  27.996  1.00  0.00    -0.205 F 
ATOM     64  C   UNL A   1      40.917  25.808  26.809  1.00  0.00     0.022 A 
BRANCH  62  65
ATOM     65  S   UNL A   1      42.855  27.139  25.402  1.00  0.00     0.127 S 
ATOM     66  O   UNL A   1      44.161  27.340  26.027  1.00  0.00    -0.237 OA
ATOM     67  O   UNL A   1      42.709  25.867  24.693  1.00  0.00    -0.237 OA
ATOM     68  O   UNL A   1      42.310  28.289  24.693  1.00  0.00    -0.744 OA
ENDBRANCH  62  65
ENDBRANCH  44  58
BRANCH  45  69
ATOM     69  C   UNL A   1      40.058  33.968  36.632  1.00  0.00     0.023 A 
ATOM     70  C   UNL A   1      40.433  35.318  36.501  1.00  0.00     0.012 A 
ATOM     71  C   UNL A   1      39.476  33.528  37.837  1.00  0.00     0.148 A 
ATOM     72  C   UNL A   1      40.245  36.210  37.557  1.00  0.00     0.002 A 
ATOM     73  C   UNL A   1      39.240  34.433  38.863  1.00  0.00     0.091 A 
ATOM     74  F   UNL A   1      39.143  32.234  37.946  1.00  0.00    -0.205 F 
ATOM     75  C   UNL A   1      39.637  35.773  38.731  1.00  0.00     0.022 A 
BRANCH  73  76
ATOM     76  S   UNL A   1      38.340  33.989  40.354  1.00  0.00     0.127 S 
ATOM     77  O   UNL A   1      39.283  33.090  41.015  1.00  0.00    -0.237 OA
ATOM     78  O   UNL A   1      38.170  35.290  41.004  1.00  0.00    -0.237 OA
ATOM     79  O   UNL A   1      37.099  33.381  39.897  1.00  0.00    -0.744 OA
ENDBRANCH  73  76
ENDBRANCH  45  69
BRANCH  57  80
ATOM     80  C   UNL A   1      44.386  28.670  35.208  1.00  0.00     0.023 A 
ATOM     81  C   UNL A   1      45.707  29.121  35.010  1.00  0.00     0.012 A 
ATOM     82  C   UNL A   1      44.132  27.678  36.175  1.00  0.00     0.148 A 
ATOM     83  C   UNL A   1      46.760  28.573  35.742  1.00  0.00     0.002 A 
ATOM     84  C   UNL A   1      45.180  27.169  36.933  1.00  0.00     0.091 A 
ATOM     85  F   UNL A   1      42.872  27.246  36.334  1.00  0.00    -0.205 F 
ATOM     86  C   UNL A   1      46.496  27.608  36.710  1.00  0.00     0.022 A 
BRANCH  84  87
ATOM     87  S   UNL A   1      44.919  25.989  38.262  1.00  0.00     0.127 S 
ATOM     88  O   UNL A   1      46.284  25.757  38.729  1.00  0.00    -0.237 OA
ATOM     89  O   UNL A   1      44.075  26.743  39.190  1.00  0.00    -0.237 OA
ATOM     90  O   UNL A   1      44.261  24.841  37.650  1.00  0.00    -0.744 OA
ENDBRANCH  84  87
ENDBRANCH  57  80
ENDBRANCH  31  32
ENDBRANCH  24  26
ENDBRANCH  23  24
ENDBRANCH  22  23
ENDBRANCH   1  22
TORSDOF 19
ENDMDL
