MODEL 1
REMARK VINA RESULT:     -12.9      0.000      0.000
REMARK SMILES Cc1cc(C(=O)OCCOC(=O)c2ccc(-c3c4nc(c(-c5cccc(S(=O)(=O)[O-])c5F)c5ccc([nH]5)c(-c5cccc(S(=O)(=O)[O-])c5F)c5nc(c(-c6cccc(S(=O)(=O)[O-])c6F)c6ccc3[nH]6)C=C5)C=C4)cc2)ccc1NC(=O)c1ccc(=O)n(CCOc2ccccc2)n1
REMARK SMILES IDX 7 1 5 2 6 3 4 4 1 5 2 6 3 7 78 8 77 9 76 10 79 11 80 12
REMARK SMILES IDX 81 14 82 15 83 16 97 17 84 18 87 19 85 20 86 21 88 22 89 23
REMARK SMILES IDX 90 24 91 25 92 26 96 27 93 28 95 29 94 30 8 31 9 32 10 33
REMARK SMILES IDX 11 34 12 35 13 36 14 37 75 38 15 39 74 40 16 41 17 42 18 43
REMARK SMILES IDX 68 44 19 45 73 46 67 47 69 48 20 49 72 50 66 51 65 52 21 54
REMARK SMILES IDX 53 55 33 56 52 57 34 58 37 59 51 60 70 61 35 62 36 63 50 65
REMARK SMILES IDX 71 66 38 67 22 68 23 69 31 70 24 71 26 72 32 73 25 74 27 75
REMARK SMILES IDX 28 76 29 77 30 78 54 79 55 80 63 81 56 82 58 83 64 84 57 85
REMARK SMILES IDX 59 86 60 87 61 88 62 89 39 90 40 91 48 92 41 93 43 94 49 95
REMARK SMILES IDX 42 96 44 97 45 98 46 99 47 100
REMARK H PARENT 79 13 69 53 37 64
REMARK Flexibility Score: inf
ROOT
ATOM      1  O   UNL A   1      34.275  28.570  26.180  1.00  0.00    -0.458 OA
ENDROOT
BRANCH   1   2
ATOM      2  C   UNL A   1      33.642  28.690  24.984  1.00  0.00     0.338 C 
ATOM      3  O   UNL A   1      33.076  29.663  24.565  1.00  0.00    -0.246 OA
BRANCH   2   4
ATOM      4  C   UNL A   1      33.760  27.382  24.281  1.00  0.00     0.060 A 
ATOM      5  C   UNL A   1      34.982  23.851  25.003  1.00  0.00     0.046 C 
ATOM      6  C   UNL A   1      34.294  24.999  24.323  1.00  0.00    -0.027 A 
ATOM      7  C   UNL A   1      34.269  26.264  24.952  1.00  0.00     0.021 A 
ATOM      8  C   UNL A   1      33.688  24.860  23.066  1.00  0.00     0.044 A 
ATOM      9  C   UNL A   1      33.417  26.012  22.334  1.00  0.00     0.027 A 
ATOM     10  C   UNL A   1      33.412  27.263  22.940  1.00  0.00     0.018 A 
BRANCH   8  11
ATOM     11  N   UNL A   1      33.275  23.584  22.604  1.00  0.00    -0.320 N 
ATOM     12  C   UNL A   1      32.079  22.933  22.913  1.00  0.00     0.276 C 
ATOM     13  H   UNL A   1      33.896  23.109  22.005  1.00  0.00     0.170 HD
ATOM     14  O   UNL A   1      31.848  21.771  22.599  1.00  0.00    -0.267 OA
BRANCH  12  15
ATOM     15  C   UNL A   1      31.137  23.639  23.881  1.00  0.00     0.149 A 
ATOM     16  C   UNL A   1      31.349  23.309  25.303  1.00  0.00     0.042 A 
ATOM     17  N   UNL A   1      30.330  24.556  23.438  1.00  0.00    -0.164 NA
ATOM     18  C   UNL A   1      31.024  24.276  26.160  1.00  0.00     0.076 A 
ATOM     19  N   UNL A   1      29.893  25.491  24.381  1.00  0.00    -0.226 N 
ATOM     20  C   UNL A   1      30.455  25.548  25.659  1.00  0.00     0.266 A 
ATOM     21  O   UNL A   1      30.503  26.532  26.392  1.00  0.00    -0.268 OA
BRANCH  19  22
ATOM     22  C   UNL A   1      29.164  26.651  23.839  1.00  0.00     0.190 C 
BRANCH  22  23
ATOM     23  C   UNL A   1      30.045  27.627  23.047  1.00  0.00     0.253 C 
BRANCH  23  24
ATOM     24  O   UNL A   1      30.198  28.890  23.727  1.00  0.00    -0.492 OA
BRANCH  24  25
ATOM     25  C   UNL A   1      29.528  29.895  23.096  1.00  0.00     0.119 A 
ATOM     26  C   UNL A   1      29.279  29.851  21.730  1.00  0.00     0.046 A 
ATOM     27  C   UNL A   1      29.163  31.010  23.837  1.00  0.00     0.046 A 
ATOM     28  C   UNL A   1      28.552  30.885  21.137  1.00  0.00     0.004 A 
ATOM     29  C   UNL A   1      28.376  32.006  23.269  1.00  0.00     0.004 A 
ATOM     30  C   UNL A   1      28.065  31.939  21.913  1.00  0.00     0.000 A 
ENDBRANCH  24  25
ENDBRANCH  23  24
ENDBRANCH  22  23
ENDBRANCH  19  22
ENDBRANCH  12  15
ENDBRANCH   8  11
ENDBRANCH   2   4
ENDBRANCH   1   2
BRANCH   1  31
ATOM     31  C   UNL A   1      33.634  29.066  27.346  1.00  0.00     0.275 C 
BRANCH  31  32
ATOM     32  C   UNL A   1      33.636  30.585  27.606  1.00  0.00     0.275 C 
BRANCH  32  33
ATOM     33  O   UNL A   1      34.627  31.224  28.459  1.00  0.00    -0.458 OA
BRANCH  33  34
ATOM     34  C   UNL A   1      35.898  31.627  28.208  1.00  0.00     0.338 C 
ATOM     35  O   UNL A   1      36.168  32.780  27.897  1.00  0.00    -0.246 OA
BRANCH  34  36
ATOM     36  C   UNL A   1      36.965  30.640  28.387  1.00  0.00     0.060 A 
ATOM     37  C   UNL A   1      37.112  29.978  29.618  1.00  0.00     0.016 A 
ATOM     38  C   UNL A   1      37.749  30.311  27.291  1.00  0.00     0.016 A 
ATOM     39  C   UNL A   1      38.013  28.923  29.730  1.00  0.00     0.010 A 
ATOM     40  C   UNL A   1      38.515  29.177  27.348  1.00  0.00     0.010 A 
ATOM     41  C   UNL A   1      38.716  28.540  28.587  1.00  0.00    -0.014 A 
BRANCH  41  42
ATOM     42  C   UNL A   1      40.021  27.898  28.638  1.00  0.00     0.031 A 
ATOM     43  C   UNL A   1      40.244  26.458  28.520  1.00  0.00     0.074 A 
ATOM     44  C   UNL A   1      41.005  28.820  28.527  1.00  0.00     0.049 A 
ATOM     45  N   UNL A   1      41.391  25.914  28.731  1.00  0.00    -0.248 NA
ATOM     46  C   UNL A   1      39.200  25.498  28.193  1.00  0.00     0.031 C 
ATOM     47  C   UNL A   1      42.374  28.693  28.076  1.00  0.00     0.029 A 
ATOM     48  N   UNL A   1      40.903  30.161  28.931  1.00  0.00    -0.354 N 
ATOM     49  C   UNL A   1      41.321  24.600  28.316  1.00  0.00     0.074 A 
ATOM     50  C   UNL A   1      39.911  24.366  28.105  1.00  0.00     0.031 C 
ATOM     51  C   UNL A   1      43.047  29.792  28.474  1.00  0.00     0.029 A 
ATOM     52  C   UNL A   1      42.164  30.544  29.364  1.00  0.00     0.049 A 
ATOM     53  H   UNL A   1      40.093  30.721  28.910  1.00  0.00     0.167 HD
ATOM     54  C   UNL A   1      42.493  23.943  28.070  1.00  0.00     0.034 A 
ATOM     55  C   UNL A   1      42.379  30.838  30.681  1.00  0.00     0.034 A 
ATOM     56  C   UNL A   1      43.632  24.784  28.487  1.00  0.00     0.049 A 
ATOM     57  C   UNL A   1      43.366  29.862  31.288  1.00  0.00     0.074 A 
ATOM     58  C   UNL A   1      44.454  25.652  27.787  1.00  0.00     0.029 A 
ATOM     59  N   UNL A   1      43.831  25.059  29.838  1.00  0.00    -0.354 N 
ATOM     60  N   UNL A   1      43.713  28.732  30.733  1.00  0.00    -0.248 NA
ATOM     61  C   UNL A   1      44.025  30.077  32.570  1.00  0.00     0.031 C 
ATOM     62  C   UNL A   1      45.033  26.551  28.726  1.00  0.00     0.029 A 
ATOM     63  C   UNL A   1      44.610  26.198  29.998  1.00  0.00     0.049 A 
ATOM     64  H   UNL A   1      43.469  24.519  30.577  1.00  0.00     0.167 HD
ATOM     65  C   UNL A   1      44.519  28.029  31.578  1.00  0.00     0.074 A 
ATOM     66  C   UNL A   1      44.743  28.947  32.685  1.00  0.00     0.031 C 
ATOM     67  C   UNL A   1      44.879  26.731  31.335  1.00  0.00     0.034 A 
BRANCH  54  68
ATOM     68  C   UNL A   1      42.688  22.682  27.228  1.00  0.00     0.023 A 
ATOM     69  C   UNL A   1      41.952  21.535  27.617  1.00  0.00     0.012 A 
ATOM     70  C   UNL A   1      43.584  22.488  26.149  1.00  0.00     0.148 A 
ATOM     71  C   UNL A   1      42.137  20.275  27.030  1.00  0.00     0.002 A 
ATOM     72  C   UNL A   1      43.771  21.229  25.559  1.00  0.00     0.091 A 
ATOM     73  F   UNL A   1      44.280  23.513  25.665  1.00  0.00    -0.205 F 
ATOM     74  C   UNL A   1      43.056  20.117  26.007  1.00  0.00     0.022 A 
BRANCH  72  75
ATOM     75  S   UNL A   1      44.942  20.947  24.215  1.00  0.00     0.127 S 
ATOM     76  O   UNL A   1      46.226  21.177  24.878  1.00  0.00    -0.237 OA
ATOM     77  O   UNL A   1      44.683  19.552  23.860  1.00  0.00    -0.237 OA
ATOM     78  O   UNL A   1      44.607  21.911  23.173  1.00  0.00    -0.744 OA
ENDBRANCH  72  75
ENDBRANCH  54  68
BRANCH  55  79
ATOM     79  C   UNL A   1      41.184  31.416  31.405  1.00  0.00     0.023 A 
ATOM     80  C   UNL A   1      40.675  32.657  30.940  1.00  0.00     0.012 A 
ATOM     81  C   UNL A   1      40.369  30.653  32.263  1.00  0.00     0.148 A 
ATOM     82  C   UNL A   1      39.368  33.066  31.224  1.00  0.00     0.002 A 
ATOM     83  C   UNL A   1      39.063  31.072  32.548  1.00  0.00     0.091 A 
ATOM     84  F   UNL A   1      40.840  29.499  32.751  1.00  0.00    -0.205 F 
ATOM     85  C   UNL A   1      38.554  32.263  32.013  1.00  0.00     0.022 A 
BRANCH  83  86
ATOM     86  S   UNL A   1      37.946  30.008  33.478  1.00  0.00     0.127 S 
ATOM     87  O   UNL A   1      38.320  28.661  33.041  1.00  0.00    -0.237 OA
ATOM     88  O   UNL A   1      38.279  30.281  34.870  1.00  0.00    -0.237 OA
ATOM     89  O   UNL A   1      36.639  30.459  33.013  1.00  0.00    -0.744 OA
ENDBRANCH  83  86
ENDBRANCH  55  79
BRANCH  67  90
ATOM     90  C   UNL A   1      45.515  25.842  32.377  1.00  0.00     0.023 A 
ATOM     91  C   UNL A   1      46.912  25.687  32.469  1.00  0.00     0.012 A 
ATOM     92  C   UNL A   1      44.736  25.264  33.406  1.00  0.00     0.148 A 
ATOM     93  C   UNL A   1      47.506  24.921  33.474  1.00  0.00     0.002 A 
ATOM     94  C   UNL A   1      45.341  24.612  34.475  1.00  0.00     0.091 A 
ATOM     95  F   UNL A   1      43.397  25.334  33.354  1.00  0.00    -0.205 F 
ATOM     96  C   UNL A   1      46.721  24.401  34.492  1.00  0.00     0.022 A 
BRANCH  94  97
ATOM     97  S   UNL A   1      44.384  24.199  35.938  1.00  0.00     0.127 S 
ATOM     98  O   UNL A   1      45.381  23.558  36.790  1.00  0.00    -0.237 OA
ATOM     99  O   UNL A   1      43.934  25.511  36.408  1.00  0.00    -0.237 OA
ATOM    100  O   UNL A   1      43.310  23.348  35.440  1.00  0.00    -0.744 OA
ENDBRANCH  94  97
ENDBRANCH  67  90
ENDBRANCH  41  42
ENDBRANCH  34  36
ENDBRANCH  33  34
ENDBRANCH  32  33
ENDBRANCH  31  32
ENDBRANCH   1  31
TORSDOF 20
ENDMDL
MODEL 2
REMARK VINA RESULT:     -12.8      2.190      4.360
REMARK SMILES Cc1cc(C(=O)OCCOC(=O)c2ccc(-c3c4nc(c(-c5cccc(S(=O)(=O)[O-])c5F)c5ccc([nH]5)c(-c5cccc(S(=O)(=O)[O-])c5F)c5nc(c(-c6cccc(S(=O)(=O)[O-])c6F)c6ccc3[nH]6)C=C5)C=C4)cc2)ccc1NC(=O)c1ccc(=O)n(CCOc2ccccc2)n1
REMARK SMILES IDX 7 1 5 2 6 3 4 4 1 5 2 6 3 7 78 8 77 9 76 10 79 11 80 12
REMARK SMILES IDX 81 14 82 15 83 16 97 17 84 18 87 19 85 20 86 21 88 22 89 23
REMARK SMILES IDX 90 24 91 25 92 26 96 27 93 28 95 29 94 30 8 31 9 32 10 33
REMARK SMILES IDX 11 34 12 35 13 36 14 37 75 38 15 39 74 40 16 41 17 42 18 43
REMARK SMILES IDX 68 44 19 45 73 46 67 47 69 48 20 49 72 50 66 51 65 52 21 54
REMARK SMILES IDX 53 55 33 56 52 57 34 58 37 59 51 60 70 61 35 62 36 63 50 65
REMARK SMILES IDX 71 66 38 67 22 68 23 69 31 70 24 71 26 72 32 73 25 74 27 75
REMARK SMILES IDX 28 76 29 77 30 78 54 79 55 80 63 81 56 82 58 83 64 84 57 85
REMARK SMILES IDX 59 86 60 87 61 88 62 89 39 90 40 91 48 92 41 93 43 94 49 95
REMARK SMILES IDX 42 96 44 97 45 98 46 99 47 100
REMARK H PARENT 79 13 69 53 37 64
REMARK Flexibility Score: inf
ROOT
ATOM      1  O   UNL A   1      31.741  29.367  27.008  1.00  0.00    -0.458 OA
ENDROOT
BRANCH   1   2
ATOM      2  C   UNL A   1      31.483  28.057  26.760  1.00  0.00     0.338 C 
ATOM      3  O   UNL A   1      31.261  27.201  27.573  1.00  0.00    -0.246 OA
BRANCH   2   4
ATOM      4  C   UNL A   1      31.542  27.861  25.285  1.00  0.00     0.060 A 
ATOM      5  C   UNL A   1      33.754  28.863  22.355  1.00  0.00     0.046 C 
ATOM      6  C   UNL A   1      32.709  28.145  23.158  1.00  0.00    -0.027 A 
ATOM      7  C   UNL A   1      32.594  28.408  24.542  1.00  0.00     0.021 A 
ATOM      8  C   UNL A   1      31.823  27.229  22.571  1.00  0.00     0.044 A 
ATOM      9  C   UNL A   1      30.662  26.899  23.263  1.00  0.00     0.027 A 
ATOM     10  C   UNL A   1      30.532  27.173  24.620  1.00  0.00     0.018 A 
BRANCH   8  11
ATOM     11  N   UNL A   1      32.157  26.587  21.352  1.00  0.00    -0.320 N 
ATOM     12  C   UNL A   1      32.763  25.336  21.207  1.00  0.00     0.276 C 
ATOM     13  H   UNL A   1      31.941  27.072  20.523  1.00  0.00     0.170 HD
ATOM     14  O   UNL A   1      33.158  24.903  20.131  1.00  0.00    -0.267 OA
BRANCH  12  15
ATOM     15  C   UNL A   1      33.149  24.603  22.486  1.00  0.00     0.149 A 
ATOM     16  C   UNL A   1      34.312  25.167  23.197  1.00  0.00     0.042 A 
ATOM     17  N   UNL A   1      32.386  23.652  22.936  1.00  0.00    -0.164 NA
ATOM     18  C   UNL A   1      34.307  24.987  24.517  1.00  0.00     0.076 A 
ATOM     19  N   UNL A   1      32.487  23.386  24.305  1.00  0.00    -0.226 N 
ATOM     20  C   UNL A   1      33.207  24.229  25.156  1.00  0.00     0.266 A 
ATOM     21  O   UNL A   1      33.023  24.380  26.361  1.00  0.00    -0.268 OA
BRANCH  19  22
ATOM     22  C   UNL A   1      31.471  22.470  24.854  1.00  0.00     0.190 C 
BRANCH  22  23
ATOM     23  C   UNL A   1      32.040  21.138  25.359  1.00  0.00     0.253 C 
BRANCH  23  24
ATOM     24  O   UNL A   1      33.323  20.841  24.770  1.00  0.00    -0.492 OA
BRANCH  24  25
ATOM     25  C   UNL A   1      33.352  19.602  24.203  1.00  0.00     0.119 A 
ATOM     26  C   UNL A   1      32.384  19.203  23.290  1.00  0.00     0.046 A 
ATOM     27  C   UNL A   1      34.332  18.711  24.615  1.00  0.00     0.046 A 
ATOM     28  C   UNL A   1      32.480  17.939  22.704  1.00  0.00     0.004 A 
ATOM     29  C   UNL A   1      34.477  17.482  23.982  1.00  0.00     0.004 A 
ATOM     30  C   UNL A   1      33.549  17.097  23.018  1.00  0.00     0.000 A 
ENDBRANCH  24  25
ENDBRANCH  23  24
ENDBRANCH  22  23
ENDBRANCH  19  22
ENDBRANCH  12  15
ENDBRANCH   8  11
ENDBRANCH   2   4
ENDBRANCH   1   2
BRANCH   1  31
ATOM     31  C   UNL A   1      33.001  29.723  27.560  1.00  0.00     0.275 C 
BRANCH  31  32
ATOM     32  C   UNL A   1      33.675  31.028  27.092  1.00  0.00     0.275 C 
BRANCH  32  33
ATOM     33  O   UNL A   1      34.871  31.555  27.732  1.00  0.00    -0.458 OA
BRANCH  33  34
ATOM     34  C   UNL A   1      35.393  31.345  28.967  1.00  0.00     0.338 C 
ATOM     35  O   UNL A   1      34.889  31.818  29.977  1.00  0.00    -0.246 OA
BRANCH  34  36
ATOM     36  C   UNL A   1      36.559  30.463  29.063  1.00  0.00     0.060 A 
ATOM     37  C   UNL A   1      36.772  29.703  30.226  1.00  0.00     0.016 A 
ATOM     38  C   UNL A   1      37.377  30.329  27.951  1.00  0.00     0.016 A 
ATOM     39  C   UNL A   1      37.781  28.744  30.247  1.00  0.00     0.010 A 
ATOM     40  C   UNL A   1      38.260  29.283  27.908  1.00  0.00     0.010 A 
ATOM     41  C   UNL A   1      38.524  28.553  29.081  1.00  0.00    -0.014 A 
BRANCH  41  42
ATOM     42  C   UNL A   1      39.891  28.052  29.087  1.00  0.00     0.031 A 
ATOM     43  C   UNL A   1      40.273  26.675  28.778  1.00  0.00     0.074 A 
ATOM     44  C   UNL A   1      40.770  29.079  29.139  1.00  0.00     0.049 A 
ATOM     45  N   UNL A   1      41.468  26.231  28.950  1.00  0.00    -0.248 NA
ATOM     46  C   UNL A   1      39.346  25.666  28.286  1.00  0.00     0.031 C 
ATOM     47  C   UNL A   1      42.152  29.163  28.721  1.00  0.00     0.029 A 
ATOM     48  N   UNL A   1      40.514  30.331  29.721  1.00  0.00    -0.354 N 
ATOM     49  C   UNL A   1      41.550  24.989  28.354  1.00  0.00     0.074 A 
ATOM     50  C   UNL A   1      40.179  24.639  28.066  1.00  0.00     0.031 C 
ATOM     51  C   UNL A   1      42.694  30.259  29.290  1.00  0.00     0.029 A 
ATOM     52  C   UNL A   1      41.717  30.780  30.245  1.00  0.00     0.049 A 
ATOM     53  H   UNL A   1      39.648  30.800  29.751  1.00  0.00     0.167 HD
ATOM     54  C   UNL A   1      42.791  24.501  28.060  1.00  0.00     0.034 A 
ATOM     55  C   UNL A   1      41.875  30.905  31.597  1.00  0.00     0.034 A 
ATOM     56  C   UNL A   1      43.823  25.390  28.627  1.00  0.00     0.049 A 
ATOM     57  C   UNL A   1      42.951  29.963  32.096  1.00  0.00     0.074 A 
ATOM     58  C   UNL A   1      44.558  26.430  28.083  1.00  0.00     0.029 A 
ATOM     59  N   UNL A   1      43.966  25.490  30.009  1.00  0.00    -0.354 N 
ATOM     60  N   UNL A   1      43.430  28.967  31.401  1.00  0.00    -0.248 NA
ATOM     61  C   UNL A   1      43.558  30.063  33.416  1.00  0.00     0.031 C 
ATOM     62  C   UNL A   1      45.018  27.244  29.157  1.00  0.00     0.029 A 
ATOM     63  C   UNL A   1      44.612  26.671  30.353  1.00  0.00     0.049 A 
ATOM     64  H   UNL A   1      43.652  24.816  30.654  1.00  0.00     0.167 HD
ATOM     65  C   UNL A   1      44.292  28.240  32.167  1.00  0.00     0.074 A 
ATOM     66  C   UNL A   1      44.394  29.011  33.398  1.00  0.00     0.031 C 
ATOM     67  C   UNL A   1      44.797  27.035  31.759  1.00  0.00     0.034 A 
BRANCH  54  68
ATOM     68  C   UNL A   1      43.139  23.399  27.057  1.00  0.00     0.023 A 
ATOM     69  C   UNL A   1      43.913  23.781  25.934  1.00  0.00     0.012 A 
ATOM     70  C   UNL A   1      42.708  22.051  27.066  1.00  0.00     0.148 A 
ATOM     71  C   UNL A   1      44.185  22.915  24.865  1.00  0.00     0.002 A 
ATOM     72  C   UNL A   1      42.979  21.181  25.999  1.00  0.00     0.091 A 
ATOM     73  F   UNL A   1      42.026  21.572  28.102  1.00  0.00    -0.205 F 
ATOM     74  C   UNL A   1      43.708  21.615  24.890  1.00  0.00     0.022 A 
BRANCH  72  75
ATOM     75  S   UNL A   1      42.400  19.472  25.964  1.00  0.00     0.127 S 
ATOM     76  O   UNL A   1      40.958  19.643  25.790  1.00  0.00    -0.237 OA
ATOM     77  O   UNL A   1      43.094  18.929  24.795  1.00  0.00    -0.237 OA
ATOM     78  O   UNL A   1      42.800  18.880  27.235  1.00  0.00    -0.744 OA
ENDBRANCH  72  75
ENDBRANCH  54  68
BRANCH  55  79
ATOM     79  C   UNL A   1      40.610  31.245  32.353  1.00  0.00     0.023 A 
ATOM     80  C   UNL A   1      39.930  30.182  33.003  1.00  0.00     0.012 A 
ATOM     81  C   UNL A   1      40.270  32.562  32.719  1.00  0.00     0.148 A 
ATOM     82  C   UNL A   1      39.035  30.417  34.052  1.00  0.00     0.002 A 
ATOM     83  C   UNL A   1      39.368  32.789  33.767  1.00  0.00     0.091 A 
ATOM     84  F   UNL A   1      40.865  33.585  32.093  1.00  0.00    -0.205 F 
ATOM     85  C   UNL A   1      38.769  31.721  34.448  1.00  0.00     0.022 A 
BRANCH  83  86
ATOM     86  S   UNL A   1      39.080  34.460  34.376  1.00  0.00     0.127 S 
ATOM     87  O   UNL A   1      40.396  35.094  34.259  1.00  0.00    -0.237 OA
ATOM     88  O   UNL A   1      38.090  35.003  33.456  1.00  0.00    -0.237 OA
ATOM     89  O   UNL A   1      38.642  34.213  35.746  1.00  0.00    -0.744 OA
ENDBRANCH  83  86
ENDBRANCH  55  79
BRANCH  67  90
ATOM     90  C   UNL A   1      45.506  26.080  32.688  1.00  0.00     0.023 A 
ATOM     91  C   UNL A   1      46.904  26.114  32.863  1.00  0.00     0.012 A 
ATOM     92  C   UNL A   1      44.773  25.226  33.545  1.00  0.00     0.148 A 
ATOM     93  C   UNL A   1      47.555  25.279  33.773  1.00  0.00     0.002 A 
ATOM     94  C   UNL A   1      45.415  24.493  34.537  1.00  0.00     0.091 A 
ATOM     95  F   UNL A   1      43.444  25.111  33.400  1.00  0.00    -0.205 F 
ATOM     96  C   UNL A   1      46.808  24.483  34.628  1.00  0.00     0.022 A 
BRANCH  94  97
ATOM     97  S   UNL A   1      44.456  23.700  35.834  1.00  0.00     0.127 S 
ATOM     98  O   UNL A   1      44.094  22.427  35.217  1.00  0.00    -0.237 OA
ATOM     99  O   UNL A   1      45.422  23.594  36.928  1.00  0.00    -0.237 OA
ATOM    100  O   UNL A   1      43.363  24.629  36.096  1.00  0.00    -0.744 OA
ENDBRANCH  94  97
ENDBRANCH  67  90
ENDBRANCH  41  42
ENDBRANCH  34  36
ENDBRANCH  33  34
ENDBRANCH  32  33
ENDBRANCH  31  32
ENDBRANCH   1  31
TORSDOF 20
ENDMDL
MODEL 3
REMARK VINA RESULT:     -12.2      1.805      2.224
REMARK SMILES Cc1cc(C(=O)OCCOC(=O)c2ccc(-c3c4nc(c(-c5cccc(S(=O)(=O)[O-])c5F)c5ccc([nH]5)c(-c5cccc(S(=O)(=O)[O-])c5F)c5nc(c(-c6cccc(S(=O)(=O)[O-])c6F)c6ccc3[nH]6)C=C5)C=C4)cc2)ccc1NC(=O)c1ccc(=O)n(CCOc2ccccc2)n1
REMARK SMILES IDX 7 1 5 2 6 3 4 4 1 5 2 6 3 7 78 8 77 9 76 10 79 11 80 12
REMARK SMILES IDX 81 14 82 15 83 16 97 17 84 18 87 19 85 20 86 21 88 22 89 23
REMARK SMILES IDX 90 24 91 25 92 26 96 27 93 28 95 29 94 30 8 31 9 32 10 33
REMARK SMILES IDX 11 34 12 35 13 36 14 37 75 38 15 39 74 40 16 41 17 42 18 43
REMARK SMILES IDX 68 44 19 45 73 46 67 47 69 48 20 49 72 50 66 51 65 52 21 54
REMARK SMILES IDX 53 55 33 56 52 57 34 58 37 59 51 60 70 61 35 62 36 63 50 65
REMARK SMILES IDX 71 66 38 67 22 68 23 69 31 70 24 71 26 72 32 73 25 74 27 75
REMARK SMILES IDX 28 76 29 77 30 78 54 79 55 80 63 81 56 82 58 83 64 84 57 85
REMARK SMILES IDX 59 86 60 87 61 88 62 89 39 90 40 91 48 92 41 93 43 94 49 95
REMARK SMILES IDX 42 96 44 97 45 98 46 99 47 100
REMARK H PARENT 79 13 69 53 37 64
REMARK Flexibility Score: inf
ROOT
ATOM      1  O   UNL A   1      34.100  28.551  26.060  1.00  0.00    -0.458 OA
ENDROOT
BRANCH   1   2
ATOM      2  C   UNL A   1      33.510  28.580  24.837  1.00  0.00     0.338 C 
ATOM      3  O   UNL A   1      32.904  29.497  24.352  1.00  0.00    -0.246 OA
BRANCH   2   4
ATOM      4  C   UNL A   1      33.734  27.252  24.200  1.00  0.00     0.060 A 
ATOM      5  C   UNL A   1      34.867  23.760  25.200  1.00  0.00     0.046 C 
ATOM      6  C   UNL A   1      34.273  24.878  24.394  1.00  0.00    -0.027 A 
ATOM      7  C   UNL A   1      34.152  26.162  24.972  1.00  0.00     0.021 A 
ATOM      8  C   UNL A   1      33.849  24.692  23.070  1.00  0.00     0.044 A 
ATOM      9  C   UNL A   1      33.675  25.818  22.270  1.00  0.00     0.027 A 
ATOM     10  C   UNL A   1      33.577  27.087  22.828  1.00  0.00     0.018 A 
BRANCH   8  11
ATOM     11  N   UNL A   1      33.514  23.399  22.597  1.00  0.00    -0.320 N 
ATOM     12  C   UNL A   1      32.349  22.682  22.882  1.00  0.00     0.276 C 
ATOM     13  H   UNL A   1      34.170  22.960  22.007  1.00  0.00     0.170 HD
ATOM     14  O   UNL A   1      32.187  21.511  22.561  1.00  0.00    -0.267 OA
BRANCH  12  15
ATOM     15  C   UNL A   1      31.354  23.333  23.836  1.00  0.00     0.149 A 
ATOM     16  C   UNL A   1      31.128  22.595  25.094  1.00  0.00     0.042 A 
ATOM     17  N   UNL A   1      30.887  24.515  23.568  1.00  0.00    -0.164 NA
ATOM     18  C   UNL A   1      30.797  23.352  26.139  1.00  0.00     0.076 A 
ATOM     19  N   UNL A   1      30.422  25.250  24.664  1.00  0.00    -0.226 N 
ATOM     20  C   UNL A   1      30.641  24.815  25.973  1.00  0.00     0.266 A 
ATOM     21  O   UNL A   1      30.698  25.521  26.976  1.00  0.00    -0.268 OA
BRANCH  19  22
ATOM     22  C   UNL A   1      30.102  26.663  24.395  1.00  0.00     0.190 C 
BRANCH  22  23
ATOM     23  C   UNL A   1      28.736  26.877  23.728  1.00  0.00     0.253 C 
BRANCH  23  24
ATOM     24  O   UNL A   1      28.820  27.774  22.601  1.00  0.00    -0.492 OA
BRANCH  24  25
ATOM     25  C   UNL A   1      28.618  29.072  22.965  1.00  0.00     0.119 A 
ATOM     26  C   UNL A   1      27.339  29.569  23.185  1.00  0.00     0.046 A 
ATOM     27  C   UNL A   1      29.717  29.916  23.037  1.00  0.00     0.046 A 
ATOM     28  C   UNL A   1      27.186  30.895  23.597  1.00  0.00     0.004 A 
ATOM     29  C   UNL A   1      29.578  31.213  23.518  1.00  0.00     0.004 A 
ATOM     30  C   UNL A   1      28.307  31.702  23.804  1.00  0.00     0.000 A 
ENDBRANCH  24  25
ENDBRANCH  23  24
ENDBRANCH  22  23
ENDBRANCH  19  22
ENDBRANCH  12  15
ENDBRANCH   8  11
ENDBRANCH   2   4
ENDBRANCH   1   2
BRANCH   1  31
ATOM     31  C   UNL A   1      33.400  29.095  27.170  1.00  0.00     0.275 C 
BRANCH  31  32
ATOM     32  C   UNL A   1      33.523  30.604  27.460  1.00  0.00     0.275 C 
BRANCH  32  33
ATOM     33  O   UNL A   1      34.508  31.138  28.388  1.00  0.00    -0.458 OA
BRANCH  33  34
ATOM     34  C   UNL A   1      35.787  31.550  28.196  1.00  0.00     0.338 C 
ATOM     35  O   UNL A   1      36.061  32.700  27.878  1.00  0.00    -0.246 OA
BRANCH  34  36
ATOM     36  C   UNL A   1      36.852  30.577  28.451  1.00  0.00     0.060 A 
ATOM     37  C   UNL A   1      36.826  29.795  29.619  1.00  0.00     0.016 A 
ATOM     38  C   UNL A   1      37.818  30.386  27.474  1.00  0.00     0.016 A 
ATOM     39  C   UNL A   1      37.742  28.758  29.774  1.00  0.00     0.010 A 
ATOM     40  C   UNL A   1      38.613  29.273  27.545  1.00  0.00     0.010 A 
ATOM     41  C   UNL A   1      38.637  28.516  28.731  1.00  0.00    -0.014 A 
BRANCH  41  42
ATOM     42  C   UNL A   1      39.943  27.907  28.935  1.00  0.00     0.031 A 
ATOM     43  C   UNL A   1      40.283  26.530  28.580  1.00  0.00     0.074 A 
ATOM     44  C   UNL A   1      40.864  28.854  29.230  1.00  0.00     0.049 A 
ATOM     45  N   UNL A   1      41.395  25.980  28.922  1.00  0.00    -0.248 NA
ATOM     46  C   UNL A   1      39.397  25.638  27.847  1.00  0.00     0.031 C 
ATOM     47  C   UNL A   1      42.302  28.856  29.072  1.00  0.00     0.029 A 
ATOM     48  N   UNL A   1      40.590  30.076  29.863  1.00  0.00    -0.354 N 
ATOM     49  C   UNL A   1      41.502  24.782  28.245  1.00  0.00     0.074 A 
ATOM     50  C   UNL A   1      40.186  24.566  27.690  1.00  0.00     0.031 C 
ATOM     51  C   UNL A   1      42.801  29.860  29.820  1.00  0.00     0.029 A 
ATOM     52  C   UNL A   1      41.704  30.387  30.629  1.00  0.00     0.049 A 
ATOM     53  H   UNL A   1      39.766  30.610  29.781  1.00  0.00     0.167 HD
ATOM     54  C   UNL A   1      42.741  24.219  28.133  1.00  0.00     0.034 A 
ATOM     55  C   UNL A   1      41.620  30.400  31.993  1.00  0.00     0.034 A 
ATOM     56  C   UNL A   1      43.708  24.978  28.949  1.00  0.00     0.049 A 
ATOM     57  C   UNL A   1      42.523  29.340  32.591  1.00  0.00     0.074 A 
ATOM     58  C   UNL A   1      44.598  25.992  28.635  1.00  0.00     0.029 A 
ATOM     59  N   UNL A   1      43.603  24.965  30.338  1.00  0.00    -0.354 N 
ATOM     60  N   UNL A   1      43.053  28.362  31.908  1.00  0.00    -0.248 NA
ATOM     61  C   UNL A   1      42.884  29.294  34.001  1.00  0.00     0.031 C 
ATOM     62  C   UNL A   1      44.906  26.685  29.840  1.00  0.00     0.029 A 
ATOM     63  C   UNL A   1      44.252  26.061  30.891  1.00  0.00     0.049 A 
ATOM     64  H   UNL A   1      43.132  24.273  30.856  1.00  0.00     0.167 HD
ATOM     65  C   UNL A   1      43.711  27.514  32.748  1.00  0.00     0.074 A 
ATOM     66  C   UNL A   1      43.637  28.182  34.040  1.00  0.00     0.031 C 
ATOM     67  C   UNL A   1      44.200  26.305  32.333  1.00  0.00     0.034 A 
BRANCH  54  68
ATOM     68  C   UNL A   1      43.192  23.169  27.116  1.00  0.00     0.023 A 
ATOM     69  C   UNL A   1      44.070  23.607  26.095  1.00  0.00     0.012 A 
ATOM     70  C   UNL A   1      42.771  21.821  27.016  1.00  0.00     0.148 A 
ATOM     71  C   UNL A   1      44.451  22.796  25.016  1.00  0.00     0.002 A 
ATOM     72  C   UNL A   1      43.150  21.006  25.939  1.00  0.00     0.091 A 
ATOM     73  F   UNL A   1      41.993  21.290  27.955  1.00  0.00    -0.205 F 
ATOM     74  C   UNL A   1      43.982  21.496  24.930  1.00  0.00     0.022 A 
BRANCH  72  75
ATOM     75  S   UNL A   1      42.589  19.300  25.762  1.00  0.00     0.127 S 
ATOM     76  O   UNL A   1      41.159  19.476  25.509  1.00  0.00    -0.237 OA
ATOM     77  O   UNL A   1      43.357  18.833  24.608  1.00  0.00    -0.237 OA
ATOM     78  O   UNL A   1      42.913  18.632  27.017  1.00  0.00    -0.744 OA
ENDBRANCH  72  75
ENDBRANCH  54  68
BRANCH  55  79
ATOM     79  C   UNL A   1      40.264  30.785  32.540  1.00  0.00     0.023 A 
ATOM     80  C   UNL A   1      39.415  29.736  32.983  1.00  0.00     0.012 A 
ATOM     81  C   UNL A   1      39.945  32.098  32.936  1.00  0.00     0.148 A 
ATOM     82  C   UNL A   1      38.363  29.972  33.875  1.00  0.00     0.002 A 
ATOM     83  C   UNL A   1      38.886  32.326  33.825  1.00  0.00     0.091 A 
ATOM     84  F   UNL A   1      40.703  33.111  32.499  1.00  0.00    -0.205 F 
ATOM     85  C   UNL A   1      38.111  31.266  34.312  1.00  0.00     0.022 A 
BRANCH  83  86
ATOM     86  S   UNL A   1      38.597  33.974  34.494  1.00  0.00     0.127 S 
ATOM     87  O   UNL A   1      37.222  33.899  34.992  1.00  0.00    -0.237 OA
ATOM     88  O   UNL A   1      39.592  34.103  35.550  1.00  0.00    -0.237 OA
ATOM     89  O   UNL A   1      38.774  34.816  33.316  1.00  0.00    -0.744 OA
ENDBRANCH  83  86
ENDBRANCH  55  79
BRANCH  67  90
ATOM     90  C   UNL A   1      44.664  25.231  33.287  1.00  0.00     0.023 A 
ATOM     91  C   UNL A   1      43.853  24.124  33.610  1.00  0.00     0.012 A 
ATOM     92  C   UNL A   1      45.996  25.211  33.762  1.00  0.00     0.148 A 
ATOM     93  C   UNL A   1      44.305  23.095  34.437  1.00  0.00     0.002 A 
ATOM     94  C   UNL A   1      46.479  24.121  34.478  1.00  0.00     0.091 A 
ATOM     95  F   UNL A   1      46.806  26.255  33.530  1.00  0.00    -0.205 F 
ATOM     96  C   UNL A   1      45.628  23.080  34.854  1.00  0.00     0.022 A 
BRANCH  94  97
ATOM     97  S   UNL A   1      48.244  23.942  34.764  1.00  0.00     0.127 S 
ATOM     98  O   UNL A   1      48.442  24.730  35.977  1.00  0.00    -0.237 OA
ATOM     99  O   UNL A   1      48.396  22.498  34.943  1.00  0.00    -0.237 OA
ATOM    100  O   UNL A   1      48.862  24.457  33.547  1.00  0.00    -0.744 OA
ENDBRANCH  94  97
ENDBRANCH  67  90
ENDBRANCH  41  42
ENDBRANCH  34  36
ENDBRANCH  33  34
ENDBRANCH  32  33
ENDBRANCH  31  32
ENDBRANCH   1  31
TORSDOF 20
ENDMDL
