MODEL 1
REMARK VINA RESULT:     -12.8      0.000      0.000
REMARK SMILES O=C(OCCOC(=O)c1ccc(-c2c3nc(c(-c4cccc(S(=O)(=O)[O-])c4F)c4ccc([nH]4)c(-c4cccc(S(=O)(=O)[O-])c4F)c4nc(c(-c5cccc(S(=O)(=O)[O-])c5F)c5ccc2[nH]5)C=C4)C=C3)cc1)C1=CN(c2ccccc2)C[NH2+][C@H]1c1ccc(NC(=S)NC(=O)c2cc3ccccc3o2)cc1
REMARK SMILES IDX 4 1 3 2 2 3 1 4 72 5 73 6 83 7 74 8 82 9 81 10 84 13 85 14
REMARK SMILES IDX 104 15 86 16 103 17 87 18 88 19 89 21 90 22 91 23 92 24
REMARK SMILES IDX 93 26 94 27 95 28 102 29 96 30 101 31 97 32 100 33 98 34
REMARK SMILES IDX 99 35 75 36 76 37 80 38 77 39 79 40 78 41 5 42 6 43 7 44
REMARK SMILES IDX 8 45 9 46 10 47 71 48 11 49 70 50 12 51 13 52 14 53 64 54
REMARK SMILES IDX 15 55 69 56 63 57 65 58 16 59 68 60 62 61 61 62 17 64 49 65
REMARK SMILES IDX 29 66 48 67 30 68 33 69 47 70 66 71 31 72 32 73 46 75 67 76
REMARK SMILES IDX 34 77 18 78 19 79 27 80 20 81 22 82 28 83 21 84 23 85 24 86
REMARK SMILES IDX 25 87 26 88 50 89 51 90 59 91 52 92 54 93 60 94 53 95 55 96
REMARK SMILES IDX 56 97 57 98 58 99 35 100 36 101 44 102 37 103 39 104 45 105
REMARK SMILES IDX 38 106 40 107 41 108 42 109 43 110
REMARK H PARENT 82 11 82 12 88 20 91 25 65 63 33 74
REMARK Flexibility Score: inf
ROOT
ATOM      1  C   UNL A   1      36.772  22.569  23.763  1.00  0.00     0.275 C 
ENDROOT
BRANCH   1   2
ATOM      2  O   UNL A   1      36.084  23.479  24.657  1.00  0.00    -0.458 OA
BRANCH   2   3
ATOM      3  C   UNL A   1      34.834  23.360  25.184  1.00  0.00     0.342 C 
ATOM      4  O   UNL A   1      34.648  23.718  26.345  1.00  0.00    -0.246 OA
BRANCH   3   5
ATOM      5  C   UNL A   1      33.770  22.595  24.485  1.00  0.00     0.115 C 
ATOM      6  C   UNL A   1      33.776  21.255  24.559  1.00  0.00     0.109 C 
ATOM      7  C   UNL A   1      32.840  23.356  23.514  1.00  0.00     0.255 C 
ATOM      8  N   UNL A   1      32.989  20.343  23.887  1.00  0.00    -0.300 N 
ATOM      9  N   UNL A   1      31.878  22.425  22.810  1.00  0.00    -0.319 N 
ATOM     10  C   UNL A   1      32.141  20.947  22.837  1.00  0.00     0.393 C 
ATOM     11  H   UNL A   1      30.959  22.572  23.228  1.00  0.00     0.348 HD
ATOM     12  H   UNL A   1      31.976  22.672  21.825  1.00  0.00     0.348 HD
BRANCH   7  13
ATOM     13  C   UNL A   1      32.050  24.665  24.039  1.00  0.00     0.014 A 
ATOM     14  C   UNL A   1      32.078  25.945  23.439  1.00  0.00     0.012 A 
ATOM     15  C   UNL A   1      31.332  24.629  25.254  1.00  0.00     0.012 A 
ATOM     16  C   UNL A   1      31.970  27.119  24.229  1.00  0.00     0.026 A 
ATOM     17  C   UNL A   1      31.060  25.809  25.988  1.00  0.00     0.026 A 
ATOM     18  C   UNL A   1      31.623  27.012  25.562  1.00  0.00     0.040 A 
BRANCH  18  19
ATOM     19  N   UNL A   1      31.976  27.956  26.546  1.00  0.00    -0.332 N 
ATOM     20  H   UNL A   1      31.736  27.678  27.460  1.00  0.00     0.169 HD
BRANCH  19  21
ATOM     21  C   UNL A   1      32.578  29.170  26.493  1.00  0.00     0.177 C 
ATOM     22  S   UNL A   1      31.634  30.475  26.006  1.00  0.00    -0.040 S 
BRANCH  21  23
ATOM     23  N   UNL A   1      33.900  29.471  26.846  1.00  0.00    -0.296 N 
ATOM     24  C   UNL A   1      35.142  30.106  27.668  1.00  0.00     0.293 C 
ATOM     25  H   UNL A   1      34.386  28.981  26.144  1.00  0.00     0.172 HD
ATOM     26  O   UNL A   1      35.835  29.010  27.581  1.00  0.00    -0.265 OA
BRANCH  24  27
ATOM     27  C   UNL A   1      35.558  31.913  28.528  1.00  0.00     0.193 A 
ATOM     28  C   UNL A   1      36.170  33.194  28.198  1.00  0.00     0.065 A 
ATOM     29  O   UNL A   1      35.394  32.376  30.031  1.00  0.00    -0.451 OA
ATOM     30  C   UNL A   1      35.180  34.087  28.649  1.00  0.00     0.021 A 
ATOM     31  C   UNL A   1      34.930  33.665  29.932  1.00  0.00     0.135 A 
ATOM     32  C   UNL A   1      34.328  35.010  28.055  1.00  0.00     0.012 A 
ATOM     33  C   UNL A   1      34.100  34.311  30.828  1.00  0.00     0.048 A 
ATOM     34  C   UNL A   1      33.383  35.617  28.876  1.00  0.00     0.001 A 
ATOM     35  C   UNL A   1      33.309  35.311  30.244  1.00  0.00     0.004 A 
ENDBRANCH  24  27
ENDBRANCH  21  23
ENDBRANCH  19  21
ENDBRANCH  18  19
ENDBRANCH   7  13
BRANCH   8  36
ATOM     36  C   UNL A   1      32.955  18.944  24.221  1.00  0.00     0.046 A 
ATOM     37  C   UNL A   1      33.344  17.941  23.283  1.00  0.00     0.026 A 
ATOM     38  C   UNL A   1      32.622  18.435  25.486  1.00  0.00     0.026 A 
ATOM     39  C   UNL A   1      33.434  16.565  23.575  1.00  0.00     0.002 A 
ATOM     40  C   UNL A   1      32.714  17.051  25.791  1.00  0.00     0.002 A 
ATOM     41  C   UNL A   1      33.133  16.118  24.846  1.00  0.00     0.000 A 
ENDBRANCH   8  36
ENDBRANCH   3   5
ENDBRANCH   2   3
ENDBRANCH   1   2
BRANCH   1  42
ATOM     42  C   UNL A   1      37.218  21.284  24.486  1.00  0.00     0.275 C 
BRANCH  42  43
ATOM     43  O   UNL A   1      37.655  21.501  25.848  1.00  0.00    -0.458 OA
BRANCH  43  44
ATOM     44  C   UNL A   1      38.974  21.273  26.130  1.00  0.00     0.338 C 
ATOM     45  O   UNL A   1      39.576  20.231  25.944  1.00  0.00    -0.246 OA
BRANCH  44  46
ATOM     46  C   UNL A   1      39.630  22.537  26.560  1.00  0.00     0.060 A 
ATOM     47  C   UNL A   1      41.000  22.298  27.708  1.00  0.00     0.016 A 
ATOM     48  C   UNL A   1      39.296  24.213  25.940  1.00  0.00     0.016 A 
ATOM     49  C   UNL A   1      42.088  23.680  28.217  1.00  0.00     0.010 A 
ATOM     50  C   UNL A   1      40.296  25.632  26.529  1.00  0.00     0.010 A 
ATOM     51  C   UNL A   1      41.729  25.392  27.679  1.00  0.00    -0.014 A 
BRANCH  51  52
ATOM     52  C   UNL A   1      42.713  26.496  27.982  1.00  0.00     0.031 A 
ATOM     53  C   UNL A   1      42.182  27.632  28.803  1.00  0.00     0.074 A 
ATOM     54  C   UNL A   1      43.977  26.553  27.478  1.00  0.00     0.049 A 
ATOM     55  N   UNL A   1      42.702  28.804  29.032  1.00  0.00    -0.248 NA
ATOM     56  C   UNL A   1      40.837  27.456  29.375  1.00  0.00     0.031 C 
ATOM     57  C   UNL A   1      44.619  25.570  26.598  1.00  0.00     0.029 A 
ATOM     58  N   UNL A   1      44.967  27.514  27.595  1.00  0.00    -0.354 N 
ATOM     59  C   UNL A   1      41.698  29.514  29.678  1.00  0.00     0.074 A 
ATOM     60  C   UNL A   1      40.518  28.695  29.689  1.00  0.00     0.031 C 
ATOM     61  C   UNL A   1      45.880  25.933  26.307  1.00  0.00     0.029 A 
ATOM     62  C   UNL A   1      46.129  27.239  26.885  1.00  0.00     0.049 A 
ATOM     63  H   UNL A   1      44.857  28.328  28.139  1.00  0.00     0.167 HD
ATOM     64  C   UNL A   1      41.755  30.724  30.269  1.00  0.00     0.034 A 
ATOM     65  C   UNL A   1      47.246  27.974  26.682  1.00  0.00     0.034 A 
ATOM     66  C   UNL A   1      42.932  31.525  30.259  1.00  0.00     0.049 A 
ATOM     67  C   UNL A   1      47.285  29.341  27.324  1.00  0.00     0.074 A 
ATOM     68  C   UNL A   1      43.127  32.780  30.793  1.00  0.00     0.029 A 
ATOM     69  N   UNL A   1      44.108  31.146  29.634  1.00  0.00    -0.354 N 
ATOM     70  N   UNL A   1      46.366  29.928  28.054  1.00  0.00    -0.248 NA
ATOM     71  C   UNL A   1      48.506  30.140  27.144  1.00  0.00     0.031 C 
ATOM     72  C   UNL A   1      44.399  33.202  30.403  1.00  0.00     0.029 A 
ATOM     73  C   UNL A   1      45.024  32.168  29.717  1.00  0.00     0.049 A 
ATOM     74  H   UNL A   1      44.264  30.278  29.197  1.00  0.00     0.167 HD
ATOM     75  C   UNL A   1      46.912  31.139  28.453  1.00  0.00     0.074 A 
ATOM     76  C   UNL A   1      48.251  31.196  27.903  1.00  0.00     0.031 C 
ATOM     77  C   UNL A   1      46.363  32.128  29.195  1.00  0.00     0.034 A 
BRANCH  64  78
ATOM     78  C   UNL A   1      40.477  31.226  30.869  1.00  0.00     0.023 A 
ATOM     79  C   UNL A   1      39.663  32.148  30.174  1.00  0.00     0.012 A 
ATOM     80  C   UNL A   1      40.177  30.898  32.202  1.00  0.00     0.148 A 
ATOM     81  C   UNL A   1      38.623  32.803  30.832  1.00  0.00     0.002 A 
ATOM     82  C   UNL A   1      39.102  31.507  32.828  1.00  0.00     0.091 A 
ATOM     83  F   UNL A   1      40.984  30.043  32.844  1.00  0.00    -0.205 F 
ATOM     84  C   UNL A   1      38.343  32.482  32.158  1.00  0.00     0.022 A 
BRANCH  82  85
ATOM     85  S   UNL A   1      38.636  31.119  34.515  1.00  0.00     0.127 S 
ATOM     86  O   UNL A   1      39.820  31.550  35.260  1.00  0.00    -0.237 OA
ATOM     87  O   UNL A   1      37.458  31.965  34.697  1.00  0.00    -0.237 OA
ATOM     88  O   UNL A   1      38.385  29.685  34.549  1.00  0.00    -0.744 OA
ENDBRANCH  82  85
ENDBRANCH  64  78
BRANCH  65  89
ATOM     89  C   UNL A   1      48.423  27.489  25.874  1.00  0.00     0.023 A 
ATOM     90  C   UNL A   1      49.571  27.003  26.544  1.00  0.00     0.012 A 
ATOM     91  C   UNL A   1      48.469  27.583  24.467  1.00  0.00     0.148 A 
ATOM     92  C   UNL A   1      50.746  26.695  25.848  1.00  0.00     0.002 A 
ATOM     93  C   UNL A   1      49.628  27.227  23.773  1.00  0.00     0.091 A 
ATOM     94  F   UNL A   1      47.384  28.040  23.826  1.00  0.00    -0.205 F 
ATOM     95  C   UNL A   1      50.775  26.808  24.463  1.00  0.00     0.022 A 
BRANCH  93  96
ATOM     96  S   UNL A   1      49.742  27.251  21.976  1.00  0.00     0.127 S 
ATOM     97  O   UNL A   1      48.675  26.330  21.594  1.00  0.00    -0.237 OA
ATOM     98  O   UNL A   1      49.475  28.658  21.676  1.00  0.00    -0.237 OA
ATOM     99  O   UNL A   1      51.096  26.816  21.663  1.00  0.00    -0.744 OA
ENDBRANCH  93  96
ENDBRANCH  65  89
BRANCH  77 100
ATOM    100  C   UNL A   1      47.211  33.317  29.520  1.00  0.00     0.023 A 
ATOM    101  C   UNL A   1      48.034  33.305  30.660  1.00  0.00     0.012 A 
ATOM    102  C   UNL A   1      47.331  34.345  28.566  1.00  0.00     0.148 A 
ATOM    103  C   UNL A   1      48.976  34.313  30.844  1.00  0.00     0.002 A 
ATOM    104  C   UNL A   1      48.317  35.302  28.723  1.00  0.00     0.091 A 
ATOM    105  F   UNL A   1      46.517  34.326  27.501  1.00  0.00    -0.205 F 
ATOM    106  C   UNL A   1      49.134  35.295  29.866  1.00  0.00     0.022 A 
BRANCH 104 107
ATOM    107  S   UNL A   1      48.686  36.504  27.444  1.00  0.00     0.127 S 
ATOM    108  O   UNL A   1      49.963  37.043  27.907  1.00  0.00    -0.237 OA
ATOM    109  O   UNL A   1      48.771  35.664  26.250  1.00  0.00    -0.237 OA
ATOM    110  O   UNL A   1      47.578  37.450  27.443  1.00  0.00    -0.744 OA
ENDBRANCH 104 107
ENDBRANCH  77 100
ENDBRANCH  51  52
ENDBRANCH  44  46
ENDBRANCH  43  44
ENDBRANCH  42  43
ENDBRANCH   1  42
TORSDOF 20
ENDMDL
MODEL 2
REMARK VINA RESULT:     -12.7      3.127      8.299
REMARK SMILES O=C(OCCOC(=O)c1ccc(-c2c3nc(c(-c4cccc(S(=O)(=O)[O-])c4F)c4ccc([nH]4)c(-c4cccc(S(=O)(=O)[O-])c4F)c4nc(c(-c5cccc(S(=O)(=O)[O-])c5F)c5ccc2[nH]5)C=C4)C=C3)cc1)C1=CN(c2ccccc2)C[NH2+][C@H]1c1ccc(NC(=S)NC(=O)c2cc3ccccc3o2)cc1
REMARK SMILES IDX 4 1 3 2 2 3 1 4 72 5 73 6 83 7 74 8 82 9 81 10 84 13 85 14
REMARK SMILES IDX 104 15 86 16 103 17 87 18 88 19 89 21 90 22 91 23 92 24
REMARK SMILES IDX 93 26 94 27 95 28 102 29 96 30 101 31 97 32 100 33 98 34
REMARK SMILES IDX 99 35 75 36 76 37 80 38 77 39 79 40 78 41 5 42 6 43 7 44
REMARK SMILES IDX 8 45 9 46 10 47 71 48 11 49 70 50 12 51 13 52 14 53 64 54
REMARK SMILES IDX 15 55 69 56 63 57 65 58 16 59 68 60 62 61 61 62 17 64 49 65
REMARK SMILES IDX 29 66 48 67 30 68 33 69 47 70 66 71 31 72 32 73 46 75 67 76
REMARK SMILES IDX 34 77 18 78 19 79 27 80 20 81 22 82 28 83 21 84 23 85 24 86
REMARK SMILES IDX 25 87 26 88 50 89 51 90 59 91 52 92 54 93 60 94 53 95 55 96
REMARK SMILES IDX 56 97 57 98 58 99 35 100 36 101 44 102 37 103 39 104 45 105
REMARK SMILES IDX 38 106 40 107 41 108 42 109 43 110
REMARK H PARENT 82 11 82 12 88 20 91 25 65 63 33 74
REMARK Flexibility Score: inf
ROOT
ATOM      1  C   UNL A   1      38.273  21.347  25.357  1.00  0.00     0.275 C 
ENDROOT
BRANCH   1   2
ATOM      2  O   UNL A   1      37.409  22.432  24.938  1.00  0.00    -0.458 OA
BRANCH   2   3
ATOM      3  C   UNL A   1      36.161  22.739  25.388  1.00  0.00     0.342 C 
ATOM      4  O   UNL A   1      36.051  23.375  26.434  1.00  0.00    -0.246 OA
BRANCH   3   5
ATOM      5  C   UNL A   1      34.950  22.125  24.786  1.00  0.00     0.115 C 
ATOM      6  C   UNL A   1      34.785  20.795  24.869  1.00  0.00     0.109 C 
ATOM      7  C   UNL A   1      34.050  23.005  23.891  1.00  0.00     0.255 C 
ATOM      8  N   UNL A   1      33.830  19.998  24.274  1.00  0.00    -0.300 N 
ATOM      9  N   UNL A   1      32.918  22.212  23.277  1.00  0.00    -0.319 N 
ATOM     10  C   UNL A   1      32.984  20.713  23.294  1.00  0.00     0.393 C 
ATOM     11  H   UNL A   1      32.065  22.479  23.770  1.00  0.00     0.348 HD
ATOM     12  H   UNL A   1      32.965  22.448  22.286  1.00  0.00     0.348 HD
BRANCH   7  13
ATOM     13  C   UNL A   1      33.487  24.405  24.470  1.00  0.00     0.014 A 
ATOM     14  C   UNL A   1      33.551  25.658  23.816  1.00  0.00     0.012 A 
ATOM     15  C   UNL A   1      32.966  24.481  25.780  1.00  0.00     0.012 A 
ATOM     16  C   UNL A   1      33.685  26.859  24.559  1.00  0.00     0.026 A 
ATOM     17  C   UNL A   1      32.932  25.704  26.494  1.00  0.00     0.026 A 
ATOM     18  C   UNL A   1      33.541  26.827  25.933  1.00  0.00     0.040 A 
BRANCH  18  19
ATOM     19  N   UNL A   1      34.135  27.757  26.809  1.00  0.00    -0.332 N 
ATOM     20  H   UNL A   1      34.708  27.340  27.493  1.00  0.00     0.169 HD
BRANCH  19  21
ATOM     21  C   UNL A   1      34.081  29.109  26.903  1.00  0.00     0.177 C 
ATOM     22  S   UNL A   1      35.314  29.869  27.760  1.00  0.00    -0.040 S 
BRANCH  21  23
ATOM     23  N   UNL A   1      33.129  29.957  26.322  1.00  0.00    -0.296 N 
ATOM     24  C   UNL A   1      31.764  30.424  25.588  1.00  0.00     0.293 C 
ATOM     25  H   UNL A   1      33.578  30.826  26.428  1.00  0.00     0.172 HD
ATOM     26  O   UNL A   1      31.643  31.468  26.353  1.00  0.00    -0.265 OA
BRANCH  24  27
ATOM     27  C   UNL A   1      30.615  29.727  24.049  1.00  0.00     0.193 A 
ATOM     28  C   UNL A   1      30.588  28.642  23.075  1.00  0.00     0.065 A 
ATOM     29  O   UNL A   1      29.343  30.374  23.367  1.00  0.00    -0.451 OA
ATOM     30  C   UNL A   1      29.273  28.169  23.238  1.00  0.00     0.021 A 
ATOM     31  C   UNL A   1      28.509  29.306  23.140  1.00  0.00     0.135 A 
ATOM     32  C   UNL A   1      28.690  26.990  23.688  1.00  0.00     0.012 A 
ATOM     33  C   UNL A   1      27.128  29.330  23.127  1.00  0.00     0.048 A 
ATOM     34  C   UNL A   1      27.305  26.978  23.812  1.00  0.00     0.001 A 
ATOM     35  C   UNL A   1      26.539  28.109  23.486  1.00  0.00     0.004 A 
ENDBRANCH  24  27
ENDBRANCH  21  23
ENDBRANCH  19  21
ENDBRANCH  18  19
ENDBRANCH   7  13
BRANCH   8  36
ATOM     36  C   UNL A   1      33.639  18.614  24.620  1.00  0.00     0.046 A 
ATOM     37  C   UNL A   1      34.586  17.613  24.249  1.00  0.00     0.026 A 
ATOM     38  C   UNL A   1      32.579  18.128  25.399  1.00  0.00     0.026 A 
ATOM     39  C   UNL A   1      34.516  16.261  24.642  1.00  0.00     0.002 A 
ATOM     40  C   UNL A   1      32.501  16.768  25.804  1.00  0.00     0.002 A 
ATOM     41  C   UNL A   1      33.473  15.839  25.442  1.00  0.00     0.000 A 
ENDBRANCH   8  36
ENDBRANCH   3   5
ENDBRANCH   2   3
ENDBRANCH   1   2
BRANCH   1  42
ATOM     42  C   UNL A   1      39.490  21.859  26.151  1.00  0.00     0.275 C 
BRANCH  42  43
ATOM     43  O   UNL A   1      40.761  21.556  25.529  1.00  0.00    -0.458 OA
BRANCH  43  44
ATOM     44  C   UNL A   1      41.892  21.999  26.158  1.00  0.00     0.338 C 
ATOM     45  O   UNL A   1      42.923  21.368  26.306  1.00  0.00    -0.246 OA
BRANCH  44  46
ATOM     46  C   UNL A   1      41.751  23.437  26.511  1.00  0.00     0.060 A 
ATOM     47  C   UNL A   1      41.725  23.757  28.285  1.00  0.00     0.016 A 
ATOM     48  C   UNL A   1      41.760  24.853  25.370  1.00  0.00     0.016 A 
ATOM     49  C   UNL A   1      41.764  25.459  28.961  1.00  0.00     0.010 A 
ATOM     50  C   UNL A   1      41.678  26.564  26.022  1.00  0.00     0.010 A 
ATOM     51  C   UNL A   1      41.689  26.906  27.844  1.00  0.00    -0.014 A 
BRANCH  51  52
ATOM     52  C   UNL A   1      41.871  28.296  28.401  1.00  0.00     0.031 A 
ATOM     53  C   UNL A   1      43.288  28.762  28.538  1.00  0.00     0.074 A 
ATOM     54  C   UNL A   1      40.851  29.074  28.862  1.00  0.00     0.049 A 
ATOM     55  N   UNL A   1      43.766  29.791  29.178  1.00  0.00    -0.248 NA
ATOM     56  C   UNL A   1      44.323  27.899  27.944  1.00  0.00     0.031 C 
ATOM     57  C   UNL A   1      39.423  28.736  28.876  1.00  0.00     0.029 A 
ATOM     58  N   UNL A   1      40.851  30.323  29.461  1.00  0.00    -0.354 N 
ATOM     59  C   UNL A   1      45.143  29.622  29.139  1.00  0.00     0.074 A 
ATOM     60  C   UNL A   1      45.412  28.347  28.534  1.00  0.00     0.031 C 
ATOM     61  C   UNL A   1      38.694  29.744  29.384  1.00  0.00     0.029 A 
ATOM     62  C   UNL A   1      39.597  30.780  29.846  1.00  0.00     0.049 A 
ATOM     63  H   UNL A   1      41.673  30.845  29.602  1.00  0.00     0.167 HD
ATOM     64  C   UNL A   1      46.117  30.473  29.519  1.00  0.00     0.034 A 
ATOM     65  C   UNL A   1      39.221  31.882  30.534  1.00  0.00     0.034 A 
ATOM     66  C   UNL A   1      45.841  31.737  30.111  1.00  0.00     0.049 A 
ATOM     67  C   UNL A   1      40.325  32.811  30.981  1.00  0.00     0.074 A 
ATOM     68  C   UNL A   1      46.725  32.689  30.569  1.00  0.00     0.029 A 
ATOM     69  N   UNL A   1      44.559  32.197  30.364  1.00  0.00    -0.354 N 
ATOM     70  N   UNL A   1      41.619  32.691  30.801  1.00  0.00    -0.248 NA
ATOM     71  C   UNL A   1      39.933  34.033  31.699  1.00  0.00     0.031 C 
ATOM     72  C   UNL A   1      45.973  33.687  31.190  1.00  0.00     0.029 A 
ATOM     73  C   UNL A   1      44.624  33.400  31.026  1.00  0.00     0.049 A 
ATOM     74  H   UNL A   1      43.729  31.734  30.109  1.00  0.00     0.167 HD
ATOM     75  C   UNL A   1      42.188  33.834  31.342  1.00  0.00     0.074 A 
ATOM     76  C   UNL A   1      41.098  34.648  31.839  1.00  0.00     0.031 C 
ATOM     77  C   UNL A   1      43.491  34.184  31.438  1.00  0.00     0.034 A 
BRANCH  64  78
ATOM     78  C   UNL A   1      47.524  29.977  29.363  1.00  0.00     0.023 A 
ATOM     79  C   UNL A   1      48.167  29.284  30.412  1.00  0.00     0.012 A 
ATOM     80  C   UNL A   1      48.254  30.354  28.224  1.00  0.00     0.148 A 
ATOM     81  C   UNL A   1      49.542  29.055  30.363  1.00  0.00     0.002 A 
ATOM     82  C   UNL A   1      49.607  30.065  28.156  1.00  0.00     0.091 A 
ATOM     83  F   UNL A   1      47.623  31.036  27.259  1.00  0.00    -0.205 F 
ATOM     84  C   UNL A   1      50.261  29.445  29.235  1.00  0.00     0.022 A 
BRANCH  82  85
ATOM     85  S   UNL A   1      50.602  30.485  26.725  1.00  0.00     0.127 S 
ATOM     86  O   UNL A   1      50.203  31.870  26.477  1.00  0.00    -0.237 OA
ATOM     87  O   UNL A   1      51.957  30.322  27.249  1.00  0.00    -0.237 OA
ATOM     88  O   UNL A   1      50.224  29.546  25.677  1.00  0.00    -0.744 OA
ENDBRANCH  82  85
ENDBRANCH  64  78
BRANCH  65  89
ATOM     89  C   UNL A   1      37.784  32.214  30.851  1.00  0.00     0.023 A 
ATOM     90  C   UNL A   1      37.227  31.782  32.076  1.00  0.00     0.012 A 
ATOM     91  C   UNL A   1      36.935  32.865  29.930  1.00  0.00     0.148 A 
ATOM     92  C   UNL A   1      35.861  31.921  32.346  1.00  0.00     0.002 A 
ATOM     93  C   UNL A   1      35.581  33.046  30.226  1.00  0.00     0.091 A 
ATOM     94  F   UNL A   1      37.458  33.279  28.768  1.00  0.00    -0.205 F 
ATOM     95  C   UNL A   1      35.038  32.552  31.421  1.00  0.00     0.022 A 
BRANCH  93  96
ATOM     96  S   UNL A   1      34.450  33.927  29.138  1.00  0.00     0.127 S 
ATOM     97  O   UNL A   1      33.399  34.339  30.065  1.00  0.00    -0.237 OA
ATOM     98  O   UNL A   1      35.293  35.016  28.643  1.00  0.00    -0.237 OA
ATOM     99  O   UNL A   1      34.053  32.964  28.120  1.00  0.00    -0.744 OA
ENDBRANCH  93  96
ENDBRANCH  65  89
BRANCH  77 100
ATOM    100  C   UNL A   1      43.819  35.518  32.031  1.00  0.00     0.023 A 
ATOM    101  C   UNL A   1      43.878  36.658  31.211  1.00  0.00     0.012 A 
ATOM    102  C   UNL A   1      43.856  35.647  33.432  1.00  0.00     0.148 A 
ATOM    103  C   UNL A   1      43.969  37.922  31.787  1.00  0.00     0.002 A 
ATOM    104  C   UNL A   1      43.875  36.909  33.996  1.00  0.00     0.091 A 
ATOM    105  F   UNL A   1      43.811  34.532  34.177  1.00  0.00    -0.205 F 
ATOM    106  C   UNL A   1      43.943  38.048  33.176  1.00  0.00     0.022 A 
BRANCH 104 107
ATOM    107  S   UNL A   1      43.691  37.164  35.761  1.00  0.00     0.127 S 
ATOM    108  O   UNL A   1      44.759  36.319  36.294  1.00  0.00    -0.237 OA
ATOM    109  O   UNL A   1      43.925  38.602  35.889  1.00  0.00    -0.237 OA
ATOM    110  O   UNL A   1      42.339  36.737  36.095  1.00  0.00    -0.744 OA
ENDBRANCH 104 107
ENDBRANCH  77 100
ENDBRANCH  51  52
ENDBRANCH  44  46
ENDBRANCH  43  44
ENDBRANCH  42  43
ENDBRANCH   1  42
TORSDOF 20
ENDMDL
MODEL 3
REMARK VINA RESULT:     -12.6      1.699      2.264
REMARK SMILES O=C(OCCOC(=O)c1ccc(-c2c3nc(c(-c4cccc(S(=O)(=O)[O-])c4F)c4ccc([nH]4)c(-c4cccc(S(=O)(=O)[O-])c4F)c4nc(c(-c5cccc(S(=O)(=O)[O-])c5F)c5ccc2[nH]5)C=C4)C=C3)cc1)C1=CN(c2ccccc2)C[NH2+][C@H]1c1ccc(NC(=S)NC(=O)c2cc3ccccc3o2)cc1
REMARK SMILES IDX 4 1 3 2 2 3 1 4 72 5 73 6 83 7 74 8 82 9 81 10 84 13 85 14
REMARK SMILES IDX 104 15 86 16 103 17 87 18 88 19 89 21 90 22 91 23 92 24
REMARK SMILES IDX 93 26 94 27 95 28 102 29 96 30 101 31 97 32 100 33 98 34
REMARK SMILES IDX 99 35 75 36 76 37 80 38 77 39 79 40 78 41 5 42 6 43 7 44
REMARK SMILES IDX 8 45 9 46 10 47 71 48 11 49 70 50 12 51 13 52 14 53 64 54
REMARK SMILES IDX 15 55 69 56 63 57 65 58 16 59 68 60 62 61 61 62 17 64 49 65
REMARK SMILES IDX 29 66 48 67 30 68 33 69 47 70 66 71 31 72 32 73 46 75 67 76
REMARK SMILES IDX 34 77 18 78 19 79 27 80 20 81 22 82 28 83 21 84 23 85 24 86
REMARK SMILES IDX 25 87 26 88 50 89 51 90 59 91 52 92 54 93 60 94 53 95 55 96
REMARK SMILES IDX 56 97 57 98 58 99 35 100 36 101 44 102 37 103 39 104 45 105
REMARK SMILES IDX 38 106 40 107 41 108 42 109 43 110
REMARK H PARENT 82 11 82 12 88 20 91 25 65 63 33 74
REMARK Flexibility Score: inf
ROOT
ATOM      1  C   UNL A   1      36.416  23.255  24.076  1.00  0.00     0.275 C 
ENDROOT
BRANCH   1   2
ATOM      2  O   UNL A   1      35.255  23.788  24.757  1.00  0.00    -0.458 OA
BRANCH   2   3
ATOM      3  C   UNL A   1      34.209  23.107  25.304  1.00  0.00     0.342 C 
ATOM      4  O   UNL A   1      34.108  23.067  26.528  1.00  0.00    -0.246 OA
BRANCH   3   5
ATOM      5  C   UNL A   1      33.346  22.225  24.478  1.00  0.00     0.115 C 
ATOM      6  C   UNL A   1      33.492  20.894  24.576  1.00  0.00     0.109 C 
ATOM      7  C   UNL A   1      32.481  22.872  23.374  1.00  0.00     0.255 C 
ATOM      8  N   UNL A   1      32.913  19.897  23.819  1.00  0.00    -0.300 N 
ATOM      9  N   UNL A   1      31.738  21.836  22.561  1.00  0.00    -0.319 N 
ATOM     10  C   UNL A   1      32.158  20.398  22.651  1.00  0.00     0.393 C 
ATOM     11  H   UNL A   1      30.758  21.879  22.845  1.00  0.00     0.348 HD
ATOM     12  H   UNL A   1      31.944  22.091  21.595  1.00  0.00     0.348 HD
BRANCH   7  13
ATOM     13  C   UNL A   1      31.483  24.084  23.760  1.00  0.00     0.014 A 
ATOM     14  C   UNL A   1      30.856  24.964  22.847  1.00  0.00     0.012 A 
ATOM     15  C   UNL A   1      31.253  24.419  25.112  1.00  0.00     0.012 A 
ATOM     16  C   UNL A   1      30.589  26.311  23.204  1.00  0.00     0.026 A 
ATOM     17  C   UNL A   1      30.823  25.714  25.491  1.00  0.00     0.026 A 
ATOM     18  C   UNL A   1      30.748  26.710  24.517  1.00  0.00     0.040 A 
BRANCH  18  19
ATOM     19  N   UNL A   1      31.030  28.034  24.909  1.00  0.00    -0.332 N 
ATOM     20  H   UNL A   1      30.244  28.627  24.879  1.00  0.00     0.169 HD
BRANCH  19  21
ATOM     21  C   UNL A   1      32.161  28.659  25.319  1.00  0.00     0.177 C 
ATOM     22  S   UNL A   1      33.612  28.144  24.640  1.00  0.00    -0.040 S 
BRANCH  21  23
ATOM     23  N   UNL A   1      32.254  29.728  26.220  1.00  0.00    -0.296 N 
ATOM     24  C   UNL A   1      32.893  30.973  27.033  1.00  0.00     0.293 C 
ATOM     25  H   UNL A   1      31.349  29.711  26.607  1.00  0.00     0.172 HD
ATOM     26  O   UNL A   1      31.804  31.674  26.931  1.00  0.00    -0.265 OA
BRANCH  24  27
ATOM     27  C   UNL A   1      34.689  31.375  27.923  1.00  0.00     0.193 A 
ATOM     28  C   UNL A   1      35.318  32.383  28.767  1.00  0.00     0.065 A 
ATOM     29  O   UNL A   1      36.073  30.624  27.785  1.00  0.00    -0.451 OA
ATOM     30  C   UNL A   1      35.887  31.576  29.770  1.00  0.00     0.021 A 
ATOM     31  C   UNL A   1      36.582  30.628  29.061  1.00  0.00     0.135 A 
ATOM     32  C   UNL A   1      35.694  31.404  31.135  1.00  0.00     0.012 A 
ATOM     33  C   UNL A   1      37.405  29.670  29.621  1.00  0.00     0.048 A 
ATOM     34  C   UNL A   1      36.404  30.378  31.749  1.00  0.00     0.001 A 
ATOM     35  C   UNL A   1      37.281  29.564  31.014  1.00  0.00     0.004 A 
ENDBRANCH  24  27
ENDBRANCH  21  23
ENDBRANCH  19  21
ENDBRANCH  18  19
ENDBRANCH   7  13
BRANCH   8  36
ATOM     36  C   UNL A   1      32.991  18.504  24.171  1.00  0.00     0.046 A 
ATOM     37  C   UNL A   1      33.736  17.574  23.385  1.00  0.00     0.026 A 
ATOM     38  C   UNL A   1      32.427  17.942  25.326  1.00  0.00     0.026 A 
ATOM     39  C   UNL A   1      33.938  16.221  23.726  1.00  0.00     0.002 A 
ATOM     40  C   UNL A   1      32.629  16.581  25.681  1.00  0.00     0.002 A 
ATOM     41  C   UNL A   1      33.396  15.726  24.894  1.00  0.00     0.000 A 
ENDBRANCH   8  36
ENDBRANCH   3   5
ENDBRANCH   2   3
ENDBRANCH   1   2
BRANCH   1  42
ATOM     42  C   UNL A   1      36.815  21.870  24.624  1.00  0.00     0.275 C 
BRANCH  42  43
ATOM     43  O   UNL A   1      37.376  21.909  25.957  1.00  0.00    -0.458 OA
BRANCH  43  44
ATOM     44  C   UNL A   1      38.708  21.626  26.089  1.00  0.00     0.338 C 
ATOM     45  O   UNL A   1      39.253  20.586  25.768  1.00  0.00    -0.246 OA
BRANCH  44  46
ATOM     46  C   UNL A   1      39.445  22.834  26.544  1.00  0.00     0.060 A 
ATOM     47  C   UNL A   1      40.811  22.481  27.667  1.00  0.00     0.016 A 
ATOM     48  C   UNL A   1      39.206  24.545  25.975  1.00  0.00     0.016 A 
ATOM     49  C   UNL A   1      41.987  23.780  28.199  1.00  0.00     0.010 A 
ATOM     50  C   UNL A   1      40.298  25.883  26.589  1.00  0.00     0.010 A 
ATOM     51  C   UNL A   1      41.727  25.525  27.713  1.00  0.00    -0.014 A 
BRANCH  51  52
ATOM     52  C   UNL A   1      42.779  26.558  28.033  1.00  0.00     0.031 A 
ATOM     53  C   UNL A   1      42.337  27.683  28.918  1.00  0.00     0.074 A 
ATOM     54  C   UNL A   1      44.030  26.568  27.492  1.00  0.00     0.049 A 
ATOM     55  N   UNL A   1      42.929  28.813  29.182  1.00  0.00    -0.248 NA
ATOM     56  C   UNL A   1      41.001  27.556  29.524  1.00  0.00     0.031 C 
ATOM     57  C   UNL A   1      44.590  25.591  26.551  1.00  0.00     0.029 A 
ATOM     58  N   UNL A   1      45.076  27.467  27.620  1.00  0.00    -0.354 N 
ATOM     59  C   UNL A   1      41.986  29.548  29.888  1.00  0.00     0.074 A 
ATOM     60  C   UNL A   1      40.762  28.796  29.900  1.00  0.00     0.031 C 
ATOM     61  C   UNL A   1      45.860  25.897  26.237  1.00  0.00     0.029 A 
ATOM     62  C   UNL A   1      46.199  27.160  26.863  1.00  0.00     0.049 A 
ATOM     63  H   UNL A   1      45.027  28.260  28.202  1.00  0.00     0.167 HD
ATOM     64  C   UNL A   1      42.128  30.725  30.529  1.00  0.00     0.034 A 
ATOM     65  C   UNL A   1      47.350  27.840  26.657  1.00  0.00     0.034 A 
ATOM     66  C   UNL A   1      43.347  31.460  30.517  1.00  0.00     0.049 A 
ATOM     67  C   UNL A   1      47.484  29.173  27.356  1.00  0.00     0.074 A 
ATOM     68  C   UNL A   1      43.628  32.677  31.098  1.00  0.00     0.029 A 
ATOM     69  N   UNL A   1      44.482  31.045  29.840  1.00  0.00    -0.354 N 
ATOM     70  N   UNL A   1      46.622  29.776  28.139  1.00  0.00    -0.248 NA
ATOM     71  C   UNL A   1      48.743  29.910  27.173  1.00  0.00     0.031 C 
ATOM     72  C   UNL A   1      44.911  33.045  30.688  1.00  0.00     0.029 A 
ATOM     73  C   UNL A   1      45.456  32.010  29.938  1.00  0.00     0.049 A 
ATOM     74  H   UNL A   1      44.576  30.190  29.361  1.00  0.00     0.167 HD
ATOM     75  C   UNL A   1      47.246  30.936  28.573  1.00  0.00     0.074 A 
ATOM     76  C   UNL A   1      48.570  30.944  27.985  1.00  0.00     0.031 C 
ATOM     77  C   UNL A   1      46.775  31.920  29.374  1.00  0.00     0.034 A 
BRANCH  64  78
ATOM     78  C   UNL A   1      40.898  31.270  31.189  1.00  0.00     0.023 A 
ATOM     79  C   UNL A   1      40.103  32.246  30.549  1.00  0.00     0.012 A 
ATOM     80  C   UNL A   1      40.632  30.920  32.524  1.00  0.00     0.148 A 
ATOM     81  C   UNL A   1      39.120  32.931  31.262  1.00  0.00     0.002 A 
ATOM     82  C   UNL A   1      39.611  31.561  33.206  1.00  0.00     0.091 A 
ATOM     83  F   UNL A   1      41.421  30.013  33.114  1.00  0.00    -0.205 F 
ATOM     84  C   UNL A   1      38.874  32.587  32.590  1.00  0.00     0.022 A 
BRANCH  82  85
ATOM     85  S   UNL A   1      39.190  31.151  34.900  1.00  0.00     0.127 S 
ATOM     86  O   UNL A   1      39.142  29.690  34.852  1.00  0.00    -0.237 OA
ATOM     87  O   UNL A   1      40.331  31.703  35.629  1.00  0.00    -0.237 OA
ATOM     88  O   UNL A   1      37.911  31.793  35.168  1.00  0.00    -0.744 OA
ENDBRANCH  82  85
ENDBRANCH  64  78
BRANCH  65  89
ATOM     89  C   UNL A   1      48.475  27.328  25.793  1.00  0.00     0.023 A 
ATOM     90  C   UNL A   1      49.601  26.729  26.404  1.00  0.00     0.012 A 
ATOM     91  C   UNL A   1      48.496  27.502  24.393  1.00  0.00     0.148 A 
ATOM     92  C   UNL A   1      50.738  26.387  25.662  1.00  0.00     0.002 A 
ATOM     93  C   UNL A   1      49.613  27.112  23.650  1.00  0.00     0.091 A 
ATOM     94  F   UNL A   1      47.430  28.066  23.808  1.00  0.00    -0.205 F 
ATOM     95  C   UNL A   1      50.744  26.579  24.286  1.00  0.00     0.022 A 
BRANCH  93  96
ATOM     96  S   UNL A   1      49.690  27.236  21.855  1.00  0.00     0.127 S 
ATOM     97  O   UNL A   1      49.470  28.664  21.641  1.00  0.00    -0.237 OA
ATOM     98  O   UNL A   1      51.051  26.775  21.579  1.00  0.00    -0.237 OA
ATOM     99  O   UNL A   1      48.644  26.353  21.357  1.00  0.00    -0.744 OA
ENDBRANCH  93  96
ENDBRANCH  65  89
BRANCH  77 100
ATOM    100  C   UNL A   1      47.698  33.044  29.723  1.00  0.00     0.023 A 
ATOM    101  C   UNL A   1      47.672  34.235  28.977  1.00  0.00     0.012 A 
ATOM    102  C   UNL A   1      48.431  32.972  30.923  1.00  0.00     0.148 A 
ATOM    103  C   UNL A   1      48.371  35.351  29.429  1.00  0.00     0.002 A 
ATOM    104  C   UNL A   1      49.064  34.105  31.399  1.00  0.00     0.091 A 
ATOM    105  F   UNL A   1      48.440  31.812  31.596  1.00  0.00    -0.205 F 
ATOM    106  C   UNL A   1      49.045  35.293  30.649  1.00  0.00     0.022 A 
BRANCH 104 107
ATOM    107  S   UNL A   1      49.819  34.159  33.025  1.00  0.00     0.127 S 
ATOM    108  O   UNL A   1      50.909  33.197  32.874  1.00  0.00    -0.237 OA
ATOM    109  O   UNL A   1      50.243  35.556  33.118  1.00  0.00    -0.237 OA
ATOM    110  O   UNL A   1      48.780  33.776  33.970  1.00  0.00    -0.744 OA
ENDBRANCH 104 107
ENDBRANCH  77 100
ENDBRANCH  51  52
ENDBRANCH  44  46
ENDBRANCH  43  44
ENDBRANCH  42  43
ENDBRANCH   1  42
TORSDOF 20
ENDMDL
