MODEL 1
REMARK VINA RESULT:     -11.9      0.000      0.000
REMARK SMILES CCc1cc(OC(F)(F)F)cc2c1O[C@@H](C(F)(F)F)C(C(=O)OCCOC(=O)c1ccc(-c3c4nc(c(-c5cccc(S(=O)(=O)[O-])c5F)c5ccc([nH]5)c(-c5cccc(S(=O)(=O)[O-])c5F)c5nc(c(-c6cccc(S(=O)(=O)[O-])c6F)c6ccc3[nH]6)C=C5)C=C4)cc1)=C2
REMARK SMILES IDX 25 1 24 2 23 3 21 4 22 5 20 6 3 7 4 8 13 9 5 10 12 11 14 12
REMARK SMILES IDX 11 13 92 14 15 15 2 16 1 17 6 18 7 19 8 20 9 21 10 22 16 23
REMARK SMILES IDX 17 24 18 25 19 26 26 27 27 28 28 29 29 30 30 31 91 32 31 33
REMARK SMILES IDX 90 34 32 35 33 36 34 37 84 38 35 39 89 40 83 41 85 42 36 43
REMARK SMILES IDX 88 44 82 45 81 46 37 48 69 49 49 50 68 51 50 52 53 53 67 54
REMARK SMILES IDX 86 55 51 56 52 57 66 59 87 60 54 61 38 62 39 63 47 64 40 65
REMARK SMILES IDX 42 66 48 67 41 68 43 69 44 70 45 71 46 72 70 73 71 74 79 75
REMARK SMILES IDX 72 76 74 77 80 78 73 79 75 80 76 81 77 82 78 83 55 84 56 85
REMARK SMILES IDX 64 86 57 87 59 88 65 89 58 90 60 91 61 92 62 93 63 94
REMARK H PARENT 85 47 53 58
REMARK Flexibility Score: inf
ROOT
ATOM      1  C   UNL A   1      36.599  20.390  25.001  1.00  0.00     0.275 C 
ENDROOT
BRANCH   1   2
ATOM      2  C   UNL A   1      35.255  21.123  25.023  1.00  0.00     0.275 C 
BRANCH   2   3
ATOM      3  O   UNL A   1      35.427  22.556  25.035  1.00  0.00    -0.459 OA
BRANCH   3   4
ATOM      4  C   UNL A   1      35.154  23.193  23.868  1.00  0.00     0.338 C 
ATOM      5  O   UNL A   1      35.699  22.972  22.801  1.00  0.00    -0.246 OA
BRANCH   4   6
ATOM      6  C   UNL A   1      34.074  24.193  24.022  1.00  0.00     0.087 C 
ATOM      7  C   UNL A   1      30.856  26.842  24.280  1.00  0.00    -0.002 A 
ATOM      8  C   UNL A   1      31.063  28.143  24.759  1.00  0.00     0.054 A 
ATOM      9  C   UNL A   1      31.968  26.014  24.088  1.00  0.00     0.131 A 
ATOM     10  C   UNL A   1      32.355  28.602  25.036  1.00  0.00     0.130 A 
ATOM     11  C   UNL A   1      33.257  26.420  24.447  1.00  0.00     0.021 A 
ATOM     12  O   UNL A   1      31.759  24.819  23.455  1.00  0.00    -0.475 OA
ATOM     13  C   UNL A   1      33.443  27.723  24.916  1.00  0.00     0.058 A 
ATOM     14  C   UNL A   1      34.368  25.479  24.291  1.00  0.00     0.027 C 
ATOM     15  C   UNL A   1      32.632  23.739  23.875  1.00  0.00     0.316 C 
BRANCH   7  16
ATOM     16  C   UNL A   1      29.455  26.341  24.012  1.00  0.00     0.036 C 
ATOM     17  C   UNL A   1      28.534  27.446  23.501  1.00  0.00     0.009 C 
ENDBRANCH   7  16
BRANCH  10  18
ATOM     18  O   UNL A   1      32.679  29.868  25.441  1.00  0.00    -0.406 OA
BRANCH  18  19
ATOM     19  C   UNL A   1      32.546  30.158  26.824  1.00  0.00     0.573 C 
ATOM     20  F   UNL A   1      31.410  29.637  27.337  1.00  0.00    -0.132 F 
ATOM     21  F   UNL A   1      33.609  29.698  27.519  1.00  0.00    -0.132 F 
ATOM     22  F   UNL A   1      32.494  31.500  26.982  1.00  0.00    -0.132 F 
ENDBRANCH  18  19
ENDBRANCH  10  18
BRANCH  15  23
ATOM     23  C   UNL A   1      32.308  22.530  22.976  1.00  0.00     0.430 C 
ATOM     24  F   UNL A   1      32.634  21.361  23.567  1.00  0.00    -0.167 F 
ATOM     25  F   UNL A   1      30.968  22.471  22.749  1.00  0.00    -0.167 F 
ATOM     26  F   UNL A   1      32.910  22.606  21.770  1.00  0.00    -0.167 F 
ENDBRANCH  15  23
ENDBRANCH   4   6
ENDBRANCH   3   4
ENDBRANCH   2   3
ENDBRANCH   1   2
BRANCH   1  27
ATOM     27  O   UNL A   1      37.705  21.311  25.003  1.00  0.00    -0.458 OA
BRANCH  27  28
ATOM     28  C   UNL A   1      38.770  20.924  25.747  1.00  0.00     0.338 C 
ATOM     29  O   UNL A   1      39.188  19.785  25.883  1.00  0.00    -0.246 OA
BRANCH  28  30
ATOM     30  C   UNL A   1      39.499  22.110  26.241  1.00  0.00     0.060 A 
ATOM     31  C   UNL A   1      39.085  23.352  25.751  1.00  0.00     0.016 A 
ATOM     32  C   UNL A   1      40.558  22.031  27.147  1.00  0.00     0.016 A 
ATOM     33  C   UNL A   1      39.669  24.527  26.218  1.00  0.00     0.010 A 
ATOM     34  C   UNL A   1      41.186  23.208  27.573  1.00  0.00     0.010 A 
ATOM     35  C   UNL A   1      40.735  24.461  27.121  1.00  0.00    -0.014 A 
BRANCH  35  36
ATOM     36  C   UNL A   1      41.446  25.703  27.503  1.00  0.00     0.031 A 
ATOM     37  C   UNL A   1      40.705  26.759  28.271  1.00  0.00     0.074 A 
ATOM     38  C   UNL A   1      42.736  25.886  27.170  1.00  0.00     0.049 A 
ATOM     39  N   UNL A   1      41.116  27.933  28.667  1.00  0.00    -0.248 NA
ATOM     40  C   UNL A   1      39.320  26.441  28.654  1.00  0.00     0.031 C 
ATOM     41  C   UNL A   1      43.574  24.915  26.468  1.00  0.00     0.029 A 
ATOM     42  N   UNL A   1      43.558  26.970  27.357  1.00  0.00    -0.354 N 
ATOM     43  C   UNL A   1      40.039  28.507  29.328  1.00  0.00     0.074 A 
ATOM     44  C   UNL A   1      38.956  27.547  29.286  1.00  0.00     0.031 C 
ATOM     45  C   UNL A   1      44.780  25.465  26.245  1.00  0.00     0.029 A 
ATOM     46  C   UNL A   1      44.789  26.832  26.761  1.00  0.00     0.049 A 
ATOM     47  H   UNL A   1      43.292  27.768  27.869  1.00  0.00     0.167 HD
ATOM     48  C   UNL A   1      39.956  29.725  29.915  1.00  0.00     0.034 A 
ATOM     49  C   UNL A   1      45.793  27.722  26.620  1.00  0.00     0.034 A 
ATOM     50  C   UNL A   1      41.024  30.684  29.938  1.00  0.00     0.049 A 
ATOM     51  C   UNL A   1      45.647  29.100  27.218  1.00  0.00     0.074 A 
ATOM     52  C   UNL A   1      41.037  31.942  30.515  1.00  0.00     0.029 A 
ATOM     53  N   UNL A   1      42.262  30.508  29.338  1.00  0.00    -0.354 N 
ATOM     54  N   UNL A   1      44.660  29.594  27.925  1.00  0.00    -0.248 NA
ATOM     55  C   UNL A   1      46.765  30.036  27.019  1.00  0.00     0.031 C 
ATOM     56  C   UNL A   1      42.270  32.539  30.235  1.00  0.00     0.029 A 
ATOM     57  C   UNL A   1      43.040  31.637  29.516  1.00  0.00     0.049 A 
ATOM     58  H   UNL A   1      42.545  29.696  28.857  1.00  0.00     0.167 HD
ATOM     59  C   UNL A   1      45.055  30.877  28.291  1.00  0.00     0.074 A 
ATOM     60  C   UNL A   1      46.377  31.082  27.737  1.00  0.00     0.031 C 
ATOM     61  C   UNL A   1      44.379  31.806  29.013  1.00  0.00     0.034 A 
BRANCH  48  62
ATOM     62  C   UNL A   1      38.655  30.086  30.576  1.00  0.00     0.023 A 
ATOM     63  C   UNL A   1      38.333  29.538  31.834  1.00  0.00     0.012 A 
ATOM     64  C   UNL A   1      37.773  31.002  29.972  1.00  0.00     0.148 A 
ATOM     65  C   UNL A   1      37.136  29.872  32.467  1.00  0.00     0.002 A 
ATOM     66  C   UNL A   1      36.602  31.362  30.627  1.00  0.00     0.091 A 
ATOM     67  F   UNL A   1      38.088  31.492  28.765  1.00  0.00    -0.205 F 
ATOM     68  C   UNL A   1      36.276  30.790  31.868  1.00  0.00     0.022 A 
BRANCH  66  69
ATOM     69  S   UNL A   1      35.463  32.587  29.971  1.00  0.00     0.127 S 
ATOM     70  O   UNL A   1      36.330  33.758  29.849  1.00  0.00    -0.237 OA
ATOM     71  O   UNL A   1      35.067  31.986  28.697  1.00  0.00    -0.237 OA
ATOM     72  O   UNL A   1      34.390  32.702  30.947  1.00  0.00    -0.744 OA
ENDBRANCH  66  69
ENDBRANCH  48  62
BRANCH  49  73
ATOM     73  C   UNL A   1      47.036  27.344  25.887  1.00  0.00     0.023 A 
ATOM     74  C   UNL A   1      48.086  26.710  26.577  1.00  0.00     0.012 A 
ATOM     75  C   UNL A   1      47.186  27.621  24.514  1.00  0.00     0.148 A 
ATOM     76  C   UNL A   1      49.276  26.389  25.923  1.00  0.00     0.002 A 
ATOM     77  C   UNL A   1      48.353  27.252  23.856  1.00  0.00     0.091 A 
ATOM     78  F   UNL A   1      46.183  28.244  23.878  1.00  0.00    -0.205 F 
ATOM     79  C   UNL A   1      49.407  26.652  24.562  1.00  0.00     0.022 A 
BRANCH  77  80
ATOM     80  S   UNL A   1      48.569  27.453  22.084  1.00  0.00     0.127 S 
ATOM     81  O   UNL A   1      47.368  28.200  21.719  1.00  0.00    -0.237 OA
ATOM     82  O   UNL A   1      49.814  28.218  22.016  1.00  0.00    -0.237 OA
ATOM     83  O   UNL A   1      48.661  26.104  21.540  1.00  0.00    -0.744 OA
ENDBRANCH  77  80
ENDBRANCH  49  73
BRANCH  61  84
ATOM     84  C   UNL A   1      45.063  33.119  29.300  1.00  0.00     0.023 A 
ATOM     85  C   UNL A   1      45.896  33.249  30.429  1.00  0.00     0.012 A 
ATOM     86  C   UNL A   1      44.963  34.190  28.388  1.00  0.00     0.148 A 
ATOM     87  C   UNL A   1      46.597  34.433  30.659  1.00  0.00     0.002 A 
ATOM     88  C   UNL A   1      45.704  35.347  28.597  1.00  0.00     0.091 A 
ATOM     89  F   UNL A   1      44.153  34.052  27.328  1.00  0.00    -0.205 F 
ATOM     90  C   UNL A   1      46.513  35.475  29.738  1.00  0.00     0.022 A 
BRANCH  88  91
ATOM     91  S   UNL A   1      45.739  36.698  27.413  1.00  0.00     0.127 S 
ATOM     92  O   UNL A   1      44.344  37.136  27.419  1.00  0.00    -0.237 OA
ATOM     93  O   UNL A   1      46.674  37.633  28.038  1.00  0.00    -0.237 OA
ATOM     94  O   UNL A   1      46.206  36.123  26.158  1.00  0.00    -0.744 OA
ENDBRANCH  88  91
ENDBRANCH  61  84
ENDBRANCH  35  36
ENDBRANCH  28  30
ENDBRANCH  27  28
ENDBRANCH   1  27
TORSDOF 18
ENDMDL
MODEL 2
REMARK VINA RESULT:     -11.6      1.402      1.620
REMARK SMILES CCc1cc(OC(F)(F)F)cc2c1O[C@@H](C(F)(F)F)C(C(=O)OCCOC(=O)c1ccc(-c3c4nc(c(-c5cccc(S(=O)(=O)[O-])c5F)c5ccc([nH]5)c(-c5cccc(S(=O)(=O)[O-])c5F)c5nc(c(-c6cccc(S(=O)(=O)[O-])c6F)c6ccc3[nH]6)C=C5)C=C4)cc1)=C2
REMARK SMILES IDX 25 1 24 2 23 3 21 4 22 5 20 6 3 7 4 8 13 9 5 10 12 11 14 12
REMARK SMILES IDX 11 13 92 14 15 15 2 16 1 17 6 18 7 19 8 20 9 21 10 22 16 23
REMARK SMILES IDX 17 24 18 25 19 26 26 27 27 28 28 29 29 30 30 31 91 32 31 33
REMARK SMILES IDX 90 34 32 35 33 36 34 37 84 38 35 39 89 40 83 41 85 42 36 43
REMARK SMILES IDX 88 44 82 45 81 46 37 48 69 49 49 50 68 51 50 52 53 53 67 54
REMARK SMILES IDX 86 55 51 56 52 57 66 59 87 60 54 61 38 62 39 63 47 64 40 65
REMARK SMILES IDX 42 66 48 67 41 68 43 69 44 70 45 71 46 72 70 73 71 74 79 75
REMARK SMILES IDX 72 76 74 77 80 78 73 79 75 80 76 81 77 82 78 83 55 84 56 85
REMARK SMILES IDX 64 86 57 87 59 88 65 89 58 90 60 91 61 92 62 93 63 94
REMARK H PARENT 85 47 53 58
REMARK Flexibility Score: inf
ROOT
ATOM      1  C   UNL A   1      36.454  20.433  24.994  1.00  0.00     0.275 C 
ENDROOT
BRANCH   1   2
ATOM      2  C   UNL A   1      35.124  21.192  24.997  1.00  0.00     0.275 C 
BRANCH   2   3
ATOM      3  O   UNL A   1      35.322  22.621  25.060  1.00  0.00    -0.459 OA
BRANCH   3   4
ATOM      4  C   UNL A   1      35.100  23.299  23.905  1.00  0.00     0.338 C 
ATOM      5  O   UNL A   1      35.667  23.092  22.846  1.00  0.00    -0.246 OA
BRANCH   4   6
ATOM      6  C   UNL A   1      34.044  24.324  24.060  1.00  0.00     0.087 C 
ATOM      7  C   UNL A   1      30.891  27.049  24.324  1.00  0.00    -0.002 A 
ATOM      8  C   UNL A   1      31.134  28.351  24.783  1.00  0.00     0.054 A 
ATOM      9  C   UNL A   1      31.982  26.193  24.128  1.00  0.00     0.131 A 
ATOM     10  C   UNL A   1      32.440  28.785  25.037  1.00  0.00     0.130 A 
ATOM     11  C   UNL A   1      33.284  26.575  24.465  1.00  0.00     0.021 A 
ATOM     12  O   UNL A   1      31.737  24.996  23.514  1.00  0.00    -0.475 OA
ATOM     13  C   UNL A   1      33.506  27.880  24.914  1.00  0.00     0.058 A 
ATOM     14  C   UNL A   1      34.372  25.607  24.307  1.00  0.00     0.027 C 
ATOM     15  C   UNL A   1      32.591  23.902  23.937  1.00  0.00     0.316 C 
BRANCH   7  16
ATOM     16  C   UNL A   1      29.476  26.577  24.080  1.00  0.00     0.036 C 
ATOM     17  C   UNL A   1      28.631  27.629  23.367  1.00  0.00     0.009 C 
ENDBRANCH   7  16
BRANCH  10  18
ATOM     18  O   UNL A   1      32.797  30.047  25.420  1.00  0.00    -0.406 OA
BRANCH  18  19
ATOM     19  C   UNL A   1      32.029  30.652  26.449  1.00  0.00     0.573 C 
ATOM     20  F   UNL A   1      31.510  29.733  27.292  1.00  0.00    -0.132 F 
ATOM     21  F   UNL A   1      32.768  31.540  27.147  1.00  0.00    -0.132 F 
ATOM     22  F   UNL A   1      30.998  31.321  25.884  1.00  0.00    -0.132 F 
ENDBRANCH  18  19
ENDBRANCH  10  18
BRANCH  15  23
ATOM     23  C   UNL A   1      32.229  22.689  23.058  1.00  0.00     0.430 C 
ATOM     24  F   UNL A   1      32.396  21.522  23.715  1.00  0.00    -0.167 F 
ATOM     25  F   UNL A   1      30.911  22.741  22.723  1.00  0.00    -0.167 F 
ATOM     26  F   UNL A   1      32.928  22.658  21.904  1.00  0.00    -0.167 F 
ENDBRANCH  15  23
ENDBRANCH   4   6
ENDBRANCH   3   4
ENDBRANCH   2   3
ENDBRANCH   1   2
BRANCH   1  27
ATOM     27  O   UNL A   1      37.577  21.332  25.022  1.00  0.00    -0.458 OA
BRANCH  27  28
ATOM     28  C   UNL A   1      38.638  20.899  25.745  1.00  0.00     0.338 C 
ATOM     29  O   UNL A   1      39.026  19.746  25.850  1.00  0.00    -0.246 OA
BRANCH  28  30
ATOM     30  C   UNL A   1      39.405  22.052  26.258  1.00  0.00     0.060 A 
ATOM     31  C   UNL A   1      38.964  23.322  25.874  1.00  0.00     0.016 A 
ATOM     32  C   UNL A   1      40.523  21.918  27.083  1.00  0.00     0.016 A 
ATOM     33  C   UNL A   1      39.584  24.467  26.370  1.00  0.00     0.010 A 
ATOM     34  C   UNL A   1      41.185  23.068  27.535  1.00  0.00     0.010 A 
ATOM     35  C   UNL A   1      40.709  24.345  27.192  1.00  0.00    -0.014 A 
BRANCH  35  36
ATOM     36  C   UNL A   1      41.450  25.562  27.598  1.00  0.00     0.031 A 
ATOM     37  C   UNL A   1      40.745  26.605  28.414  1.00  0.00     0.074 A 
ATOM     38  C   UNL A   1      42.737  25.732  27.245  1.00  0.00     0.049 A 
ATOM     39  N   UNL A   1      41.185  27.759  28.838  1.00  0.00    -0.248 NA
ATOM     40  C   UNL A   1      39.361  26.301  28.814  1.00  0.00     0.031 C 
ATOM     41  C   UNL A   1      43.543  24.769  26.497  1.00  0.00     0.029 A 
ATOM     42  N   UNL A   1      43.583  26.794  27.450  1.00  0.00    -0.354 N 
ATOM     43  C   UNL A   1      40.132  28.331  29.538  1.00  0.00     0.074 A 
ATOM     44  C   UNL A   1      39.031  27.393  29.488  1.00  0.00     0.031 C 
ATOM     45  C   UNL A   1      44.755  25.304  26.267  1.00  0.00     0.029 A 
ATOM     46  C   UNL A   1      44.800  26.654  26.825  1.00  0.00     0.049 A 
ATOM     47  H   UNL A   1      43.342  27.580  27.992  1.00  0.00     0.167 HD
ATOM     48  C   UNL A   1      40.083  29.531  30.165  1.00  0.00     0.034 A 
ATOM     49  C   UNL A   1      45.817  27.529  26.692  1.00  0.00     0.034 A 
ATOM     50  C   UNL A   1      41.170  30.470  30.197  1.00  0.00     0.049 A 
ATOM     51  C   UNL A   1      45.708  28.890  27.336  1.00  0.00     0.074 A 
ATOM     52  C   UNL A   1      41.217  31.708  30.813  1.00  0.00     0.029 A 
ATOM     53  N   UNL A   1      42.391  30.290  29.566  1.00  0.00    -0.354 N 
ATOM     54  N   UNL A   1      44.744  29.379  28.078  1.00  0.00    -0.248 NA
ATOM     55  C   UNL A   1      46.839  29.812  27.144  1.00  0.00     0.031 C 
ATOM     56  C   UNL A   1      42.455  32.291  30.526  1.00  0.00     0.029 A 
ATOM     57  C   UNL A   1      43.194  31.400  29.764  1.00  0.00     0.049 A 
ATOM     58  H   UNL A   1      42.650  29.490  29.054  1.00  0.00     0.167 HD
ATOM     59  C   UNL A   1      45.170  30.643  28.476  1.00  0.00     0.074 A 
ATOM     60  C   UNL A   1      46.485  30.841  27.902  1.00  0.00     0.031 C 
ATOM     61  C   UNL A   1      44.526  31.560  29.240  1.00  0.00     0.034 A 
BRANCH  48  62
ATOM     62  C   UNL A   1      38.803  29.895  30.863  1.00  0.00     0.023 A 
ATOM     63  C   UNL A   1      38.547  29.402  32.159  1.00  0.00     0.012 A 
ATOM     64  C   UNL A   1      37.873  30.759  30.254  1.00  0.00     0.148 A 
ATOM     65  C   UNL A   1      37.370  29.739  32.825  1.00  0.00     0.002 A 
ATOM     66  C   UNL A   1      36.721  31.123  30.941  1.00  0.00     0.091 A 
ATOM     67  F   UNL A   1      38.124  31.195  29.011  1.00  0.00    -0.205 F 
ATOM     68  C   UNL A   1      36.463  30.606  32.220  1.00  0.00     0.022 A 
BRANCH  66  69
ATOM     69  S   UNL A   1      35.526  32.287  30.275  1.00  0.00     0.127 S 
ATOM     70  O   UNL A   1      36.358  33.469  30.053  1.00  0.00    -0.237 OA
ATOM     71  O   UNL A   1      35.087  31.611  29.054  1.00  0.00    -0.237 OA
ATOM     72  O   UNL A   1      34.495  32.431  31.293  1.00  0.00    -0.744 OA
ENDBRANCH  66  69
ENDBRANCH  48  62
BRANCH  49  73
ATOM     73  C   UNL A   1      47.038  27.152  25.923  1.00  0.00     0.023 A 
ATOM     74  C   UNL A   1      48.034  26.370  26.537  1.00  0.00     0.012 A 
ATOM     75  C   UNL A   1      47.221  27.576  24.591  1.00  0.00     0.148 A 
ATOM     76  C   UNL A   1      49.206  26.044  25.852  1.00  0.00     0.002 A 
ATOM     77  C   UNL A   1      48.367  27.205  23.897  1.00  0.00     0.091 A 
ATOM     78  F   UNL A   1      46.271  28.338  24.031  1.00  0.00    -0.205 F 
ATOM     79  C   UNL A   1      49.369  26.454  24.532  1.00  0.00     0.022 A 
BRANCH  77  80
ATOM     80  S   UNL A   1      48.615  27.596  22.162  1.00  0.00     0.127 S 
ATOM     81  O   UNL A   1      47.415  28.370  21.855  1.00  0.00    -0.237 OA
ATOM     82  O   UNL A   1      49.855  28.371  22.201  1.00  0.00    -0.237 OA
ATOM     83  O   UNL A   1      48.728  26.313  21.480  1.00  0.00    -0.744 OA
ENDBRANCH  77  80
ENDBRANCH  49  73
BRANCH  61  84
ATOM     84  C   UNL A   1      45.240  32.850  29.554  1.00  0.00     0.023 A 
ATOM     85  C   UNL A   1      45.058  33.978  28.730  1.00  0.00     0.012 A 
ATOM     86  C   UNL A   1      46.008  32.971  30.731  1.00  0.00     0.148 A 
ATOM     87  C   UNL A   1      45.649  35.198  29.057  1.00  0.00     0.002 A 
ATOM     88  C   UNL A   1      46.552  34.202  31.077  1.00  0.00     0.091 A 
ATOM     89  F   UNL A   1      46.183  31.882  31.494  1.00  0.00    -0.205 F 
ATOM     90  C   UNL A   1      46.383  35.314  30.236  1.00  0.00     0.022 A 
BRANCH  88  91
ATOM     91  S   UNL A   1      47.423  34.472  32.626  1.00  0.00     0.127 S 
ATOM     92  O   UNL A   1      48.615  33.645  32.445  1.00  0.00    -0.237 OA
ATOM     93  O   UNL A   1      47.670  35.913  32.595  1.00  0.00    -0.237 OA
ATOM     94  O   UNL A   1      46.516  34.036  33.680  1.00  0.00    -0.744 OA
ENDBRANCH  88  91
ENDBRANCH  61  84
ENDBRANCH  35  36
ENDBRANCH  28  30
ENDBRANCH  27  28
ENDBRANCH   1  27
TORSDOF 18
ENDMDL
MODEL 3
REMARK VINA RESULT:     -11.5      0.928      7.439
REMARK SMILES CCc1cc(OC(F)(F)F)cc2c1O[C@@H](C(F)(F)F)C(C(=O)OCCOC(=O)c1ccc(-c3c4nc(c(-c5cccc(S(=O)(=O)[O-])c5F)c5ccc([nH]5)c(-c5cccc(S(=O)(=O)[O-])c5F)c5nc(c(-c6cccc(S(=O)(=O)[O-])c6F)c6ccc3[nH]6)C=C5)C=C4)cc1)=C2
REMARK SMILES IDX 25 1 24 2 23 3 21 4 22 5 20 6 3 7 4 8 13 9 5 10 12 11 14 12
REMARK SMILES IDX 11 13 92 14 15 15 2 16 1 17 6 18 7 19 8 20 9 21 10 22 16 23
REMARK SMILES IDX 17 24 18 25 19 26 26 27 27 28 28 29 29 30 30 31 91 32 31 33
REMARK SMILES IDX 90 34 32 35 33 36 34 37 84 38 35 39 89 40 83 41 85 42 36 43
REMARK SMILES IDX 88 44 82 45 81 46 37 48 69 49 49 50 68 51 50 52 53 53 67 54
REMARK SMILES IDX 86 55 51 56 52 57 66 59 87 60 54 61 38 62 39 63 47 64 40 65
REMARK SMILES IDX 42 66 48 67 41 68 43 69 44 70 45 71 46 72 70 73 71 74 79 75
REMARK SMILES IDX 72 76 74 77 80 78 73 79 75 80 76 81 77 82 78 83 55 84 56 85
REMARK SMILES IDX 64 86 57 87 59 88 65 89 58 90 60 91 61 92 62 93 63 94
REMARK H PARENT 85 47 53 58
REMARK Flexibility Score: inf
ROOT
ATOM      1  C   UNL A   1      37.592  20.251  24.990  1.00  0.00     0.275 C 
ENDROOT
BRANCH   1   2
ATOM      2  C   UNL A   1      36.066  20.383  24.993  1.00  0.00     0.275 C 
BRANCH   2   3
ATOM      3  O   UNL A   1      35.648  21.762  25.078  1.00  0.00    -0.459 OA
BRANCH   3   4
ATOM      4  C   UNL A   1      34.549  22.000  25.839  1.00  0.00     0.338 C 
ATOM      5  O   UNL A   1      34.173  21.308  26.769  1.00  0.00    -0.246 OA
BRANCH   4   6
ATOM      6  C   UNL A   1      33.851  23.239  25.431  1.00  0.00     0.087 C 
ATOM      7  C   UNL A   1      31.767  26.584  24.049  1.00  0.00    -0.002 A 
ATOM      8  C   UNL A   1      32.104  27.859  24.527  1.00  0.00     0.054 A 
ATOM      9  C   UNL A   1      32.559  25.495  24.433  1.00  0.00     0.131 A 
ATOM     10  C   UNL A   1      33.209  28.036  25.367  1.00  0.00     0.130 A 
ATOM     11  C   UNL A   1      33.609  25.636  25.345  1.00  0.00     0.021 A 
ATOM     12  O   UNL A   1      32.320  24.298  23.816  1.00  0.00    -0.475 OA
ATOM     13  C   UNL A   1      33.933  26.916  25.804  1.00  0.00     0.058 A 
ATOM     14  C   UNL A   1      34.351  24.444  25.764  1.00  0.00     0.027 C 
ATOM     15  C   UNL A   1      32.563  23.124  24.634  1.00  0.00     0.316 C 
BRANCH   7  16
ATOM     16  C   UNL A   1      30.555  26.395  23.166  1.00  0.00     0.036 C 
ATOM     17  C   UNL A   1      29.288  26.968  23.795  1.00  0.00     0.009 C 
ENDBRANCH   7  16
BRANCH  10  18
ATOM     18  O   UNL A   1      33.667  29.236  25.835  1.00  0.00    -0.406 OA
BRANCH  18  19
ATOM     19  C   UNL A   1      33.371  29.558  27.185  1.00  0.00     0.573 C 
ATOM     20  F   UNL A   1      32.183  29.046  27.573  1.00  0.00    -0.132 F 
ATOM     21  F   UNL A   1      34.344  29.118  28.012  1.00  0.00    -0.132 F 
ATOM     22  F   UNL A   1      33.300  30.904  27.304  1.00  0.00    -0.132 F 
ENDBRANCH  18  19
ENDBRANCH  10  18
BRANCH  15  23
ATOM     23  C   UNL A   1      32.342  21.897  23.729  1.00  0.00     0.430 C 
ATOM     24  F   UNL A   1      31.948  20.815  24.433  1.00  0.00    -0.167 F 
ATOM     25  F   UNL A   1      31.339  22.152  22.846  1.00  0.00    -0.167 F 
ATOM     26  F   UNL A   1      33.436  21.586  23.002  1.00  0.00    -0.167 F 
ENDBRANCH  15  23
ENDBRANCH   4   6
ENDBRANCH   3   4
ENDBRANCH   2   3
ENDBRANCH   1   2
BRANCH   1  27
ATOM     27  O   UNL A   1      38.228  21.447  25.475  1.00  0.00    -0.458 OA
BRANCH  27  28
ATOM     28  C   UNL A   1      39.266  21.240  26.321  1.00  0.00     0.338 C 
ATOM     29  O   UNL A   1      39.776  20.165  26.599  1.00  0.00    -0.246 OA
BRANCH  28  30
ATOM     30  C   UNL A   1      39.844  22.532  26.738  1.00  0.00     0.060 A 
ATOM     31  C   UNL A   1      39.327  23.679  26.128  1.00  0.00     0.016 A 
ATOM     32  C   UNL A   1      40.862  22.641  27.688  1.00  0.00     0.016 A 
ATOM     33  C   UNL A   1      39.764  24.944  26.515  1.00  0.00     0.010 A 
ATOM     34  C   UNL A   1      41.344  23.910  28.034  1.00  0.00     0.010 A 
ATOM     35  C   UNL A   1      40.787  25.066  27.460  1.00  0.00    -0.014 A 
BRANCH  35  36
ATOM     36  C   UNL A   1      41.347  26.404  27.760  1.00  0.00     0.031 A 
ATOM     37  C   UNL A   1      42.766  26.703  27.376  1.00  0.00     0.074 A 
ATOM     38  C   UNL A   1      40.598  27.341  28.368  1.00  0.00     0.049 A 
ATOM     39  N   UNL A   1      43.468  27.785  27.581  1.00  0.00    -0.248 NA
ATOM     40  C   UNL A   1      43.487  25.643  26.651  1.00  0.00     0.031 C 
ATOM     41  C   UNL A   1      39.194  27.187  28.746  1.00  0.00     0.029 A 
ATOM     42  N   UNL A   1      40.927  28.603  28.798  1.00  0.00    -0.354 N 
ATOM     43  C   UNL A   1      44.718  27.535  27.033  1.00  0.00     0.074 A 
ATOM     44  C   UNL A   1      44.677  26.199  26.477  1.00  0.00     0.031 C 
ATOM     45  C   UNL A   1      38.794  28.296  29.392  1.00  0.00     0.029 A 
ATOM     46  C   UNL A   1      39.919  29.224  29.497  1.00  0.00     0.049 A 
ATOM     47  H   UNL A   1      41.800  29.024  28.622  1.00  0.00     0.167 HD
ATOM     48  C   UNL A   1      45.805  28.343  26.995  1.00  0.00     0.034 A 
ATOM     49  C   UNL A   1      39.918  30.391  30.173  1.00  0.00     0.034 A 
ATOM     50  C   UNL A   1      45.850  29.660  27.565  1.00  0.00     0.049 A 
ATOM     51  C   UNL A   1      41.166  31.240  30.181  1.00  0.00     0.074 A 
ATOM     52  C   UNL A   1      46.904  30.557  27.571  1.00  0.00     0.029 A 
ATOM     53  N   UNL A   1      44.809  30.263  28.253  1.00  0.00    -0.354 N 
ATOM     54  N   UNL A   1      42.310  31.034  29.574  1.00  0.00    -0.248 NA
ATOM     55  C   UNL A   1      41.116  32.494  30.948  1.00  0.00     0.031 C 
ATOM     56  C   UNL A   1      46.510  31.689  28.292  1.00  0.00     0.029 A 
ATOM     57  C   UNL A   1      45.198  31.513  28.703  1.00  0.00     0.049 A 
ATOM     58  H   UNL A   1      43.922  29.861  28.400  1.00  0.00     0.167 HD
ATOM     59  C   UNL A   1      43.096  32.149  29.849  1.00  0.00     0.074 A 
ATOM     60  C   UNL A   1      42.295  33.034  30.668  1.00  0.00     0.031 C 
ATOM     61  C   UNL A   1      44.370  32.412  29.465  1.00  0.00     0.034 A 
BRANCH  48  62
ATOM     62  C   UNL A   1      47.037  27.813  26.318  1.00  0.00     0.023 A 
ATOM     63  C   UNL A   1      47.997  27.102  27.067  1.00  0.00     0.012 A 
ATOM     64  C   UNL A   1      47.225  27.983  24.933  1.00  0.00     0.148 A 
ATOM     65  C   UNL A   1      49.141  26.595  26.452  1.00  0.00     0.002 A 
ATOM     66  C   UNL A   1      48.346  27.438  24.320  1.00  0.00     0.091 A 
ATOM     67  F   UNL A   1      46.312  28.683  24.245  1.00  0.00    -0.205 F 
ATOM     68  C   UNL A   1      49.310  26.755  25.079  1.00  0.00     0.022 A 
BRANCH  66  69
ATOM     69  S   UNL A   1      48.620  27.531  22.547  1.00  0.00     0.127 S 
ATOM     70  O   UNL A   1      48.660  26.116  22.181  1.00  0.00    -0.237 OA
ATOM     71  O   UNL A   1      47.429  28.246  22.090  1.00  0.00    -0.237 OA
ATOM     72  O   UNL A   1      49.870  28.257  22.371  1.00  0.00    -0.744 OA
ENDBRANCH  66  69
ENDBRANCH  48  62
BRANCH  49  73
ATOM     73  C   UNL A   1      38.694  30.840  30.897  1.00  0.00     0.023 A 
ATOM     74  C   UNL A   1      38.458  30.393  32.211  1.00  0.00     0.012 A 
ATOM     75  C   UNL A   1      37.758  31.697  30.285  1.00  0.00     0.148 A 
ATOM     76  C   UNL A   1      37.297  30.762  32.891  1.00  0.00     0.002 A 
ATOM     77  C   UNL A   1      36.628  32.103  30.986  1.00  0.00     0.091 A 
ATOM     78  F   UNL A   1      37.989  32.095  29.026  1.00  0.00    -0.205 F 
ATOM     79  C   UNL A   1      36.386  31.623  32.283  1.00  0.00     0.022 A 
BRANCH  77  80
ATOM     80  S   UNL A   1      35.455  33.292  30.325  1.00  0.00     0.127 S 
ATOM     81  O   UNL A   1      35.310  34.222  31.442  1.00  0.00    -0.237 OA
ATOM     82  O   UNL A   1      36.183  33.824  29.172  1.00  0.00    -0.237 OA
ATOM     83  O   UNL A   1      34.264  32.526  29.985  1.00  0.00    -0.744 OA
ENDBRANCH  77  80
ENDBRANCH  49  73
BRANCH  61  84
ATOM     84  C   UNL A   1      44.979  33.729  29.874  1.00  0.00     0.023 A 
ATOM     85  C   UNL A   1      45.757  33.814  31.045  1.00  0.00     0.012 A 
ATOM     86  C   UNL A   1      44.863  34.859  29.037  1.00  0.00     0.148 A 
ATOM     87  C   UNL A   1      46.391  35.008  31.389  1.00  0.00     0.002 A 
ATOM     88  C   UNL A   1      45.539  36.029  29.360  1.00  0.00     0.091 A 
ATOM     89  F   UNL A   1      44.105  34.762  27.936  1.00  0.00    -0.205 F 
ATOM     90  C   UNL A   1      46.294  36.110  30.541  1.00  0.00     0.022 A 
BRANCH  88  91
ATOM     91  S   UNL A   1      45.557  37.464  28.278  1.00  0.00     0.127 S 
ATOM     92  O   UNL A   1      44.177  37.934  28.383  1.00  0.00    -0.237 OA
ATOM     93  O   UNL A   1      46.546  38.326  28.924  1.00  0.00    -0.237 OA
ATOM     94  O   UNL A   1      45.949  36.972  26.963  1.00  0.00    -0.744 OA
ENDBRANCH  88  91
ENDBRANCH  61  84
ENDBRANCH  35  36
ENDBRANCH  28  30
ENDBRANCH  27  28
ENDBRANCH   1  27
TORSDOF 18
ENDMDL
