MODEL 1
REMARK VINA RESULT:     -10.8      0.000      0.000
REMARK SMILES CC(=O)Cc1cccc(C(=O)OCCOC(=O)c2ccc(-c3c4nc(c(-c5cccc(S(=O)(=O)[O-])c5F)c5ccc([nH]5)c(-c5cccc(S(=O)(=O)[O-])c5F)c5nc(c(-c6cccc(S(=O)(=O)[O-])c6F)c6ccc3[nH]6)C=C5)C=C4)cc2)c1
REMARK SMILES IDX 14 1 13 2 12 3 10 4 11 5 9 6 5 7 6 8 81 9 7 10 8 11 4 12
REMARK SMILES IDX 2 13 1 14 3 15 15 16 16 17 17 18 18 19 19 20 80 21 20 22
REMARK SMILES IDX 79 23 21 24 22 25 23 26 73 27 24 28 78 29 72 30 74 31 25 32
REMARK SMILES IDX 77 33 71 34 70 35 26 37 58 38 38 39 57 40 39 41 42 42 56 43
REMARK SMILES IDX 75 44 40 45 41 46 55 48 76 49 43 50 27 51 28 52 36 53 29 54
REMARK SMILES IDX 31 55 37 56 30 57 32 58 33 59 34 60 35 61 59 62 60 63 68 64
REMARK SMILES IDX 61 65 63 66 69 67 62 68 64 69 65 70 66 71 67 72 44 73 45 74
REMARK SMILES IDX 53 75 46 76 48 77 54 78 47 79 49 80 50 81 51 82 52 83
REMARK H PARENT 74 36 42 47
REMARK Flexibility Score: inf
ROOT
ATOM      1  C   UNL A   1      36.959  20.248  24.969  1.00  0.00     0.275 C 
ENDROOT
BRANCH   1   2
ATOM      2  C   UNL A   1      35.539  20.701  25.314  1.00  0.00     0.275 C 
BRANCH   2   3
ATOM      3  O   UNL A   1      35.550  21.697  26.354  1.00  0.00    -0.458 OA
BRANCH   3   4
ATOM      4  C   UNL A   1      34.344  22.075  26.852  1.00  0.00     0.338 C 
ATOM      5  O   UNL A   1      33.696  21.488  27.703  1.00  0.00    -0.246 OA
BRANCH   4   6
ATOM      6  C   UNL A   1      33.937  23.384  26.271  1.00  0.00     0.060 A 
ATOM      7  C   UNL A   1      32.214  24.994  25.653  1.00  0.00    -0.040 A 
ATOM      8  C   UNL A   1      33.202  25.781  25.043  1.00  0.00     0.004 A 
ATOM      9  C   UNL A   1      32.594  23.770  26.224  1.00  0.00     0.019 A 
ATOM     10  C   UNL A   1      34.546  25.405  25.090  1.00  0.00     0.001 A 
ATOM     11  C   UNL A   1      34.917  24.229  25.740  1.00  0.00     0.016 A 
BRANCH   7  12
ATOM     12  C   UNL A   1      30.774  25.445  25.620  1.00  0.00     0.110 C 
BRANCH  12  13
ATOM     13  C   UNL A   1      30.188  25.594  24.227  1.00  0.00     0.134 C 
ATOM     14  C   UNL A   1      29.649  26.947  23.833  1.00  0.00     0.088 C 
ATOM     15  O   UNL A   1      30.197  24.667  23.415  1.00  0.00    -0.300 OA
ENDBRANCH  12  13
ENDBRANCH   7  12
ENDBRANCH   4   6
ENDBRANCH   3   4
ENDBRANCH   2   3
ENDBRANCH   1   2
BRANCH   1  16
ATOM     16  O   UNL A   1      37.889  21.329  25.149  1.00  0.00    -0.458 OA
BRANCH  16  17
ATOM     17  C   UNL A   1      38.986  21.033  25.883  1.00  0.00     0.338 C 
ATOM     18  O   UNL A   1      39.588  19.974  25.924  1.00  0.00    -0.246 OA
BRANCH  17  19
ATOM     19  C   UNL A   1      39.484  22.256  26.528  1.00  0.00     0.060 A 
ATOM     20  C   UNL A   1      38.890  23.454  26.141  1.00  0.00     0.016 A 
ATOM     21  C   UNL A   1      40.583  22.261  27.383  1.00  0.00     0.016 A 
ATOM     22  C   UNL A   1      39.404  24.671  26.568  1.00  0.00     0.010 A 
ATOM     23  C   UNL A   1      41.086  23.489  27.840  1.00  0.00     0.010 A 
ATOM     24  C   UNL A   1      40.521  24.706  27.410  1.00  0.00    -0.014 A 
BRANCH  24  25
ATOM     25  C   UNL A   1      41.136  26.022  27.740  1.00  0.00     0.031 A 
ATOM     26  C   UNL A   1      42.519  26.350  27.241  1.00  0.00     0.074 A 
ATOM     27  C   UNL A   1      40.440  26.947  28.430  1.00  0.00     0.049 A 
ATOM     28  N   UNL A   1      43.249  27.411  27.466  1.00  0.00    -0.248 NA
ATOM     29  C   UNL A   1      43.171  25.348  26.382  1.00  0.00     0.031 C 
ATOM     30  C   UNL A   1      39.080  26.772  28.944  1.00  0.00     0.029 A 
ATOM     31  N   UNL A   1      40.778  28.221  28.815  1.00  0.00    -0.354 N 
ATOM     32  C   UNL A   1      44.466  27.179  26.835  1.00  0.00     0.074 A 
ATOM     33  C   UNL A   1      44.375  25.874  26.214  1.00  0.00     0.031 C 
ATOM     34  C   UNL A   1      38.696  27.899  29.564  1.00  0.00     0.029 A 
ATOM     35  C   UNL A   1      39.798  28.856  29.544  1.00  0.00     0.049 A 
ATOM     36  H   UNL A   1      41.640  28.641  28.590  1.00  0.00     0.167 HD
ATOM     37  C   UNL A   1      45.556  27.979  26.769  1.00  0.00     0.034 A 
ATOM     38  C   UNL A   1      39.795  30.061  30.150  1.00  0.00     0.034 A 
ATOM     39  C   UNL A   1      45.624  29.303  27.328  1.00  0.00     0.049 A 
ATOM     40  C   UNL A   1      41.014  30.938  30.044  1.00  0.00     0.074 A 
ATOM     41  C   UNL A   1      46.674  30.203  27.285  1.00  0.00     0.029 A 
ATOM     42  N   UNL A   1      44.596  29.924  28.022  1.00  0.00    -0.354 N 
ATOM     43  N   UNL A   1      42.135  30.719  29.401  1.00  0.00    -0.248 NA
ATOM     44  C   UNL A   1      40.956  32.239  30.726  1.00  0.00     0.031 C 
ATOM     45  C   UNL A   1      46.286  31.364  27.965  1.00  0.00     0.029 A 
ATOM     46  C   UNL A   1      44.983  31.195  28.408  1.00  0.00     0.049 A 
ATOM     47  H   UNL A   1      43.719  29.520  28.212  1.00  0.00     0.167 HD
ATOM     48  C   UNL A   1      42.904  31.865  29.574  1.00  0.00     0.074 A 
ATOM     49  C   UNL A   1      42.109  32.785  30.361  1.00  0.00     0.031 C 
ATOM     50  C   UNL A   1      44.160  32.125  29.138  1.00  0.00     0.034 A 
BRANCH  37  51
ATOM     51  C   UNL A   1      46.770  27.452  26.048  1.00  0.00     0.023 A 
ATOM     52  C   UNL A   1      46.912  27.660  24.661  1.00  0.00     0.012 A 
ATOM     53  C   UNL A   1      47.794  26.791  26.754  1.00  0.00     0.148 A 
ATOM     54  C   UNL A   1      48.037  27.191  23.983  1.00  0.00     0.002 A 
ATOM     55  C   UNL A   1      48.934  26.366  26.081  1.00  0.00     0.091 A 
ATOM     56  F   UNL A   1      47.633  26.581  28.068  1.00  0.00    -0.205 F 
ATOM     57  C   UNL A   1      49.051  26.555  24.694  1.00  0.00     0.022 A 
BRANCH  55  58
ATOM     58  S   UNL A   1      50.328  25.608  26.922  1.00  0.00     0.127 S 
ATOM     59  O   UNL A   1      49.726  24.386  27.453  1.00  0.00    -0.237 OA
ATOM     60  O   UNL A   1      51.272  25.394  25.825  1.00  0.00    -0.237 OA
ATOM     61  O   UNL A   1      50.768  26.574  27.920  1.00  0.00    -0.744 OA
ENDBRANCH  55  58
ENDBRANCH  37  51
BRANCH  38  62
ATOM     62  C   UNL A   1      38.587  30.517  30.893  1.00  0.00     0.023 A 
ATOM     63  C   UNL A   1      38.486  30.275  32.278  1.00  0.00     0.012 A 
ATOM     64  C   UNL A   1      37.547  31.210  30.243  1.00  0.00     0.148 A 
ATOM     65  C   UNL A   1      37.363  30.691  32.994  1.00  0.00     0.002 A 
ATOM     66  C   UNL A   1      36.460  31.676  30.973  1.00  0.00     0.091 A 
ATOM     67  F   UNL A   1      37.647  31.410  28.921  1.00  0.00    -0.205 F 
ATOM     68  C   UNL A   1      36.357  31.403  32.346  1.00  0.00     0.022 A 
BRANCH  66  69
ATOM     69  S   UNL A   1      35.192  32.717  30.243  1.00  0.00     0.127 S 
ATOM     70  O   UNL A   1      34.666  31.854  29.189  1.00  0.00    -0.237 OA
ATOM     71  O   UNL A   1      34.287  32.931  31.374  1.00  0.00    -0.237 OA
ATOM     72  O   UNL A   1      35.882  33.919  29.796  1.00  0.00    -0.744 OA
ENDBRANCH  66  69
ENDBRANCH  38  62
BRANCH  50  73
ATOM     73  C   UNL A   1      44.743  33.477  29.455  1.00  0.00     0.023 A 
ATOM     74  C   UNL A   1      45.461  33.672  30.649  1.00  0.00     0.012 A 
ATOM     75  C   UNL A   1      44.627  34.539  28.537  1.00  0.00     0.148 A 
ATOM     76  C   UNL A   1      46.025  34.913  30.944  1.00  0.00     0.002 A 
ATOM     77  C   UNL A   1      45.232  35.759  28.814  1.00  0.00     0.091 A 
ATOM     78  F   UNL A   1      43.921  34.343  27.413  1.00  0.00    -0.205 F 
ATOM     79  C   UNL A   1      45.919  35.952  30.023  1.00  0.00     0.022 A 
BRANCH  77  80
ATOM     80  S   UNL A   1      45.226  37.119  27.639  1.00  0.00     0.127 S 
ATOM     81  O   UNL A   1      45.981  38.141  28.362  1.00  0.00    -0.237 OA
ATOM     82  O   UNL A   1      45.926  36.543  26.490  1.00  0.00    -0.237 OA
ATOM     83  O   UNL A   1      43.823  37.426  27.396  1.00  0.00    -0.744 OA
ENDBRANCH  77  80
ENDBRANCH  50  73
ENDBRANCH  24  25
ENDBRANCH  17  19
ENDBRANCH  16  17
ENDBRANCH   1  16
TORSDOF 16
ENDMDL
MODEL 2
REMARK VINA RESULT:     -10.8      2.205      3.450
REMARK SMILES CC(=O)Cc1cccc(C(=O)OCCOC(=O)c2ccc(-c3c4nc(c(-c5cccc(S(=O)(=O)[O-])c5F)c5ccc([nH]5)c(-c5cccc(S(=O)(=O)[O-])c5F)c5nc(c(-c6cccc(S(=O)(=O)[O-])c6F)c6ccc3[nH]6)C=C5)C=C4)cc2)c1
REMARK SMILES IDX 14 1 13 2 12 3 10 4 11 5 9 6 5 7 6 8 81 9 7 10 8 11 4 12
REMARK SMILES IDX 2 13 1 14 3 15 15 16 16 17 17 18 18 19 19 20 80 21 20 22
REMARK SMILES IDX 79 23 21 24 22 25 23 26 73 27 24 28 78 29 72 30 74 31 25 32
REMARK SMILES IDX 77 33 71 34 70 35 26 37 58 38 38 39 57 40 39 41 42 42 56 43
REMARK SMILES IDX 75 44 40 45 41 46 55 48 76 49 43 50 27 51 28 52 36 53 29 54
REMARK SMILES IDX 31 55 37 56 30 57 32 58 33 59 34 60 35 61 59 62 60 63 68 64
REMARK SMILES IDX 61 65 63 66 69 67 62 68 64 69 65 70 66 71 67 72 44 73 45 74
REMARK SMILES IDX 53 75 46 76 48 77 54 78 47 79 49 80 50 81 51 82 52 83
REMARK H PARENT 74 36 42 47
REMARK Flexibility Score: inf
ROOT
ATOM      1  C   UNL A   1      37.545  21.237  24.763  1.00  0.00     0.275 C 
ENDROOT
BRANCH   1   2
ATOM      2  C   UNL A   1      36.645  22.417  24.390  1.00  0.00     0.275 C 
BRANCH   2   3
ATOM      3  O   UNL A   1      35.287  21.987  24.174  1.00  0.00    -0.458 OA
BRANCH   3   4
ATOM      4  C   UNL A   1      34.754  21.154  25.105  1.00  0.00     0.338 C 
ATOM      5  O   UNL A   1      34.843  21.271  26.316  1.00  0.00    -0.246 OA
BRANCH   4   6
ATOM      6  C   UNL A   1      33.948  20.093  24.442  1.00  0.00     0.060 A 
ATOM      7  C   UNL A   1      33.677  17.795  23.673  1.00  0.00    -0.040 A 
ATOM      8  C   UNL A   1      32.469  18.167  23.064  1.00  0.00     0.004 A 
ATOM      9  C   UNL A   1      34.430  18.785  24.322  1.00  0.00     0.019 A 
ATOM     10  C   UNL A   1      31.979  19.469  23.183  1.00  0.00     0.001 A 
ATOM     11  C   UNL A   1      32.697  20.419  23.908  1.00  0.00     0.016 A 
BRANCH   7  12
ATOM     12  C   UNL A   1      34.163  16.371  23.560  1.00  0.00     0.110 C 
BRANCH  12  13
ATOM     13  C   UNL A   1      34.093  15.572  24.850  1.00  0.00     0.134 C 
ATOM     14  C   UNL A   1      32.732  15.140  25.336  1.00  0.00     0.088 C 
ATOM     15  O   UNL A   1      35.109  15.233  25.460  1.00  0.00    -0.300 OA
ENDBRANCH  12  13
ENDBRANCH   7  12
ENDBRANCH   4   6
ENDBRANCH   3   4
ENDBRANCH   2   3
ENDBRANCH   1   2
BRANCH   1  16
ATOM     16  O   UNL A   1      38.044  21.390  26.103  1.00  0.00    -0.458 OA
BRANCH  16  17
ATOM     17  C   UNL A   1      39.392  21.400  26.220  1.00  0.00     0.338 C 
ATOM     18  O   UNL A   1      40.184  20.596  25.758  1.00  0.00    -0.246 OA
BRANCH  17  19
ATOM     19  C   UNL A   1      39.815  22.651  26.864  1.00  0.00     0.060 A 
ATOM     20  C   UNL A   1      39.253  23.828  26.374  1.00  0.00     0.016 A 
ATOM     21  C   UNL A   1      40.825  22.701  27.822  1.00  0.00     0.016 A 
ATOM     22  C   UNL A   1      39.714  25.066  26.803  1.00  0.00     0.010 A 
ATOM     23  C   UNL A   1      41.271  23.951  28.278  1.00  0.00     0.010 A 
ATOM     24  C   UNL A   1      40.743  25.145  27.749  1.00  0.00    -0.014 A 
BRANCH  24  25
ATOM     25  C   UNL A   1      41.312  26.478  28.087  1.00  0.00     0.031 A 
ATOM     26  C   UNL A   1      42.709  26.832  27.645  1.00  0.00     0.074 A 
ATOM     27  C   UNL A   1      40.565  27.397  28.731  1.00  0.00     0.049 A 
ATOM     28  N   UNL A   1      43.404  27.913  27.887  1.00  0.00    -0.248 NA
ATOM     29  C   UNL A   1      43.421  25.834  26.830  1.00  0.00     0.031 C 
ATOM     30  C   UNL A   1      39.188  27.197  29.187  1.00  0.00     0.029 A 
ATOM     31  N   UNL A   1      40.857  28.684  29.112  1.00  0.00    -0.354 N 
ATOM     32  C   UNL A   1      44.653  27.700  27.314  1.00  0.00     0.074 A 
ATOM     33  C   UNL A   1      44.619  26.386  26.708  1.00  0.00     0.031 C 
ATOM     34  C   UNL A   1      38.751  28.323  29.773  1.00  0.00     0.029 A 
ATOM     35  C   UNL A   1      39.831  29.305  29.787  1.00  0.00     0.049 A 
ATOM     36  H   UNL A   1      41.718  29.120  28.920  1.00  0.00     0.167 HD
ATOM     37  C   UNL A   1      45.727  28.525  27.285  1.00  0.00     0.034 A 
ATOM     38  C   UNL A   1      39.774  30.518  30.375  1.00  0.00     0.034 A 
ATOM     39  C   UNL A   1      45.739  29.857  27.827  1.00  0.00     0.049 A 
ATOM     40  C   UNL A   1      40.976  31.422  30.310  1.00  0.00     0.074 A 
ATOM     41  C   UNL A   1      46.770  30.781  27.818  1.00  0.00     0.029 A 
ATOM     42  N   UNL A   1      44.667  30.463  28.465  1.00  0.00    -0.354 N 
ATOM     43  N   UNL A   1      42.130  31.219  29.721  1.00  0.00    -0.248 NA
ATOM     44  C   UNL A   1      40.859  32.730  30.970  1.00  0.00     0.031 C 
ATOM     45  C   UNL A   1      46.325  31.941  28.462  1.00  0.00     0.029 A 
ATOM     46  C   UNL A   1      45.008  31.748  28.849  1.00  0.00     0.049 A 
ATOM     47  H   UNL A   1      43.792  30.041  28.622  1.00  0.00     0.167 HD
ATOM     48  C   UNL A   1      42.864  32.385  29.912  1.00  0.00     0.074 A 
ATOM     49  C   UNL A   1      42.014  33.298  30.649  1.00  0.00     0.031 C 
ATOM     50  C   UNL A   1      44.133  32.668  29.528  1.00  0.00     0.034 A 
BRANCH  37  51
ATOM     51  C   UNL A   1      46.983  28.016  26.626  1.00  0.00     0.023 A 
ATOM     52  C   UNL A   1      48.004  27.438  27.408  1.00  0.00     0.012 A 
ATOM     53  C   UNL A   1      47.131  28.066  25.226  1.00  0.00     0.148 A 
ATOM     54  C   UNL A   1      49.165  26.949  26.811  1.00  0.00     0.002 A 
ATOM     55  C   UNL A   1      48.271  27.536  24.633  1.00  0.00     0.091 A 
ATOM     56  F   UNL A   1      46.161  28.640  24.500  1.00  0.00    -0.205 F 
ATOM     57  C   UNL A   1      49.294  26.988  25.425  1.00  0.00     0.022 A 
BRANCH  55  58
ATOM     58  S   UNL A   1      48.493  27.468  22.852  1.00  0.00     0.127 S 
ATOM     59  O   UNL A   1      49.835  28.029  22.699  1.00  0.00    -0.237 OA
ATOM     60  O   UNL A   1      48.398  26.033  22.583  1.00  0.00    -0.237 OA
ATOM     61  O   UNL A   1      47.414  28.263  22.283  1.00  0.00    -0.744 OA
ENDBRANCH  55  58
ENDBRANCH  37  51
BRANCH  38  62
ATOM     62  C   UNL A   1      38.523  30.956  31.057  1.00  0.00     0.023 A 
ATOM     63  C   UNL A   1      38.385  30.771  32.448  1.00  0.00     0.012 A 
ATOM     64  C   UNL A   1      37.480  31.576  30.342  1.00  0.00     0.148 A 
ATOM     65  C   UNL A   1      37.222  31.172  33.106  1.00  0.00     0.002 A 
ATOM     66  C   UNL A   1      36.350  32.028  31.015  1.00  0.00     0.091 A 
ATOM     67  F   UNL A   1      37.617  31.721  29.016  1.00  0.00    -0.205 F 
ATOM     68  C   UNL A   1      36.211  31.812  32.394  1.00  0.00     0.022 A 
BRANCH  66  69
ATOM     69  S   UNL A   1      35.067  32.982  30.197  1.00  0.00     0.127 S 
ATOM     70  O   UNL A   1      35.836  34.073  29.605  1.00  0.00    -0.237 OA
ATOM     71  O   UNL A   1      34.533  32.013  29.239  1.00  0.00    -0.237 OA
ATOM     72  O   UNL A   1      34.131  33.360  31.248  1.00  0.00    -0.744 OA
ENDBRANCH  66  69
ENDBRANCH  38  62
BRANCH  50  73
ATOM     73  C   UNL A   1      44.670  34.038  29.851  1.00  0.00     0.023 A 
ATOM     74  C   UNL A   1      45.384  34.251  31.046  1.00  0.00     0.012 A 
ATOM     75  C   UNL A   1      44.517  35.100  28.939  1.00  0.00     0.148 A 
ATOM     76  C   UNL A   1      45.905  35.509  31.346  1.00  0.00     0.002 A 
ATOM     77  C   UNL A   1      45.080  36.339  29.222  1.00  0.00     0.091 A 
ATOM     78  F   UNL A   1      43.814  34.886  27.816  1.00  0.00    -0.205 F 
ATOM     79  C   UNL A   1      45.763  36.549  30.430  1.00  0.00     0.022 A 
BRANCH  77  80
ATOM     80  S   UNL A   1      45.026  37.703  28.053  1.00  0.00     0.127 S 
ATOM     81  O   UNL A   1      43.591  37.972  27.976  1.00  0.00    -0.237 OA
ATOM     82  O   UNL A   1      45.803  38.736  28.740  1.00  0.00    -0.237 OA
ATOM     83  O   UNL A   1      45.640  37.203  26.831  1.00  0.00    -0.744 OA
ENDBRANCH  77  80
ENDBRANCH  50  73
ENDBRANCH  24  25
ENDBRANCH  17  19
ENDBRANCH  16  17
ENDBRANCH   1  16
TORSDOF 16
ENDMDL
MODEL 3
REMARK VINA RESULT:     -10.7      4.969     10.297
REMARK SMILES CC(=O)Cc1cccc(C(=O)OCCOC(=O)c2ccc(-c3c4nc(c(-c5cccc(S(=O)(=O)[O-])c5F)c5ccc([nH]5)c(-c5cccc(S(=O)(=O)[O-])c5F)c5nc(c(-c6cccc(S(=O)(=O)[O-])c6F)c6ccc3[nH]6)C=C5)C=C4)cc2)c1
REMARK SMILES IDX 14 1 13 2 12 3 10 4 11 5 9 6 5 7 6 8 81 9 7 10 8 11 4 12
REMARK SMILES IDX 2 13 1 14 3 15 15 16 16 17 17 18 18 19 19 20 80 21 20 22
REMARK SMILES IDX 79 23 21 24 22 25 23 26 73 27 24 28 78 29 72 30 74 31 25 32
REMARK SMILES IDX 77 33 71 34 70 35 26 37 58 38 38 39 57 40 39 41 42 42 56 43
REMARK SMILES IDX 75 44 40 45 41 46 55 48 76 49 43 50 27 51 28 52 36 53 29 54
REMARK SMILES IDX 31 55 37 56 30 57 32 58 33 59 34 60 35 61 59 62 60 63 68 64
REMARK SMILES IDX 61 65 63 66 69 67 62 68 64 69 65 70 66 71 67 72 44 73 45 74
REMARK SMILES IDX 53 75 46 76 48 77 54 78 47 79 49 80 50 81 51 82 52 83
REMARK H PARENT 74 36 42 47
REMARK Flexibility Score: inf
ROOT
ATOM      1  C   UNL A   1      31.799  30.857  25.874  1.00  0.00     0.275 C 
ENDROOT
BRANCH   1   2
ATOM      2  C   UNL A   1      31.439  29.419  25.493  1.00  0.00     0.275 C 
BRANCH   2   3
ATOM      3  O   UNL A   1      32.282  28.473  26.179  1.00  0.00    -0.458 OA
BRANCH   3   4
ATOM      4  C   UNL A   1      33.159  27.771  25.416  1.00  0.00     0.338 C 
ATOM      5  O   UNL A   1      33.999  28.237  24.664  1.00  0.00    -0.246 OA
BRANCH   4   6
ATOM      6  C   UNL A   1      33.019  26.314  25.684  1.00  0.00     0.060 A 
ATOM      7  C   UNL A   1      33.814  24.021  25.446  1.00  0.00    -0.040 A 
ATOM      8  C   UNL A   1      32.645  23.576  26.082  1.00  0.00     0.004 A 
ATOM      9  C   UNL A   1      33.964  25.396  25.213  1.00  0.00     0.019 A 
ATOM     10  C   UNL A   1      31.700  24.485  26.560  1.00  0.00     0.001 A 
ATOM     11  C   UNL A   1      31.908  25.854  26.398  1.00  0.00     0.016 A 
BRANCH   7  12
ATOM     12  C   UNL A   1      34.837  23.016  24.975  1.00  0.00     0.110 C 
BRANCH  12  13
ATOM     13  C   UNL A   1      35.204  23.127  23.506  1.00  0.00     0.134 C 
ATOM     14  C   UNL A   1      36.655  22.957  23.130  1.00  0.00     0.088 C 
ATOM     15  O   UNL A   1      34.349  23.292  22.633  1.00  0.00    -0.300 OA
ENDBRANCH  12  13
ENDBRANCH   7  12
ENDBRANCH   4   6
ENDBRANCH   3   4
ENDBRANCH   2   3
ENDBRANCH   1   2
BRANCH   1  16
ATOM     16  O   UNL A   1      32.448  30.888  27.157  1.00  0.00    -0.458 OA
BRANCH  16  17
ATOM     17  C   UNL A   1      33.230  31.969  27.383  1.00  0.00     0.338 C 
ATOM     18  O   UNL A   1      32.895  33.142  27.381  1.00  0.00    -0.246 OA
BRANCH  17  19
ATOM     19  C   UNL A   1      34.560  31.524  27.819  1.00  0.00     0.060 A 
ATOM     20  C   UNL A   1      34.692  30.179  28.155  1.00  0.00     0.016 A 
ATOM     21  C   UNL A   1      35.619  32.406  28.024  1.00  0.00     0.016 A 
ATOM     22  C   UNL A   1      35.861  29.704  28.734  1.00  0.00     0.010 A 
ATOM     23  C   UNL A   1      36.812  31.921  28.582  1.00  0.00     0.010 A 
ATOM     24  C   UNL A   1      36.932  30.572  28.972  1.00  0.00    -0.014 A 
BRANCH  24  25
ATOM     25  C   UNL A   1      38.118  30.069  29.718  1.00  0.00     0.031 A 
ATOM     26  C   UNL A   1      38.332  30.481  31.152  1.00  0.00     0.074 A 
ATOM     27  C   UNL A   1      38.969  29.197  29.142  1.00  0.00     0.049 A 
ATOM     28  N   UNL A   1      39.326  30.199  31.953  1.00  0.00    -0.248 NA
ATOM     29  C   UNL A   1      37.294  31.327  31.763  1.00  0.00     0.031 C 
ATOM     30  C   UNL A   1      38.861  28.692  27.772  1.00  0.00     0.029 A 
ATOM     31  N   UNL A   1      40.092  28.579  29.635  1.00  0.00    -0.354 N 
ATOM     32  C   UNL A   1      39.070  30.884  33.136  1.00  0.00     0.074 A 
ATOM     33  C   UNL A   1      37.822  31.594  32.949  1.00  0.00     0.031 C 
ATOM     34  C   UNL A   1      39.867  27.833  27.540  1.00  0.00     0.029 A 
ATOM     35  C   UNL A   1      40.723  27.768  28.720  1.00  0.00     0.049 A 
ATOM     36  H   UNL A   1      40.414  28.705  30.558  1.00  0.00     0.167 HD
ATOM     37  C   UNL A   1      39.798  30.914  34.277  1.00  0.00     0.034 A 
ATOM     38  C   UNL A   1      41.874  27.072  28.810  1.00  0.00     0.034 A 
ATOM     39  C   UNL A   1      41.003  30.156  34.488  1.00  0.00     0.049 A 
ATOM     40  C   UNL A   1      42.654  27.108  30.097  1.00  0.00     0.074 A 
ATOM     41  C   UNL A   1      41.794  30.096  35.622  1.00  0.00     0.029 A 
ATOM     42  N   UNL A   1      41.585  29.315  33.551  1.00  0.00    -0.354 N 
ATOM     43  N   UNL A   1      42.368  27.723  31.219  1.00  0.00    -0.248 NA
ATOM     44  C   UNL A   1      43.903  26.333  30.138  1.00  0.00     0.031 C 
ATOM     45  C   UNL A   1      42.863  29.229  35.365  1.00  0.00     0.029 A 
ATOM     46  C   UNL A   1      42.721  28.729  34.080  1.00  0.00     0.049 A 
ATOM     47  H   UNL A   1      41.240  29.159  32.643  1.00  0.00     0.167 HD
ATOM     48  C   UNL A   1      43.383  27.385  32.108  1.00  0.00     0.074 A 
ATOM     49  C   UNL A   1      44.276  26.491  31.401  1.00  0.00     0.031 C 
ATOM     50  C   UNL A   1      43.568  27.793  33.387  1.00  0.00     0.034 A 
BRANCH  37  51
ATOM     51  C   UNL A   1      39.303  31.786  35.402  1.00  0.00     0.023 A 
ATOM     52  C   UNL A   1      38.392  31.270  36.346  1.00  0.00     0.012 A 
ATOM     53  C   UNL A   1      39.780  33.103  35.552  1.00  0.00     0.148 A 
ATOM     54  C   UNL A   1      37.937  32.061  37.400  1.00  0.00     0.002 A 
ATOM     55  C   UNL A   1      39.357  33.871  36.631  1.00  0.00     0.091 A 
ATOM     56  F   UNL A   1      40.628  33.586  34.633  1.00  0.00    -0.205 F 
ATOM     57  C   UNL A   1      38.427  33.356  37.549  1.00  0.00     0.022 A 
BRANCH  55  58
ATOM     58  S   UNL A   1      39.992  35.521  36.952  1.00  0.00     0.127 S 
ATOM     59  O   UNL A   1      39.286  35.876  38.183  1.00  0.00    -0.237 OA
ATOM     60  O   UNL A   1      41.424  35.274  37.121  1.00  0.00    -0.237 OA
ATOM     61  O   UNL A   1      39.648  36.317  35.782  1.00  0.00    -0.744 OA
ENDBRANCH  55  58
ENDBRANCH  37  51
BRANCH  38  62
ATOM     62  C   UNL A   1      42.348  26.263  27.651  1.00  0.00     0.023 A 
ATOM     63  C   UNL A   1      43.252  26.827  26.729  1.00  0.00     0.012 A 
ATOM     64  C   UNL A   1      41.926  24.931  27.469  1.00  0.00     0.148 A 
ATOM     65  C   UNL A   1      43.707  26.089  25.636  1.00  0.00     0.002 A 
ATOM     66  C   UNL A   1      42.430  24.182  26.412  1.00  0.00     0.091 A 
ATOM     67  F   UNL A   1      41.046  24.420  28.341  1.00  0.00    -0.205 F 
ATOM     68  C   UNL A   1      43.307  24.763  25.484  1.00  0.00     0.022 A 
BRANCH  66  69
ATOM     69  S   UNL A   1      42.075  22.432  26.225  1.00  0.00     0.127 S 
ATOM     70  O   UNL A   1      42.822  22.102  25.015  1.00  0.00    -0.237 OA
ATOM     71  O   UNL A   1      42.627  21.876  27.462  1.00  0.00    -0.237 OA
ATOM     72  O   UNL A   1      40.624  22.336  26.123  1.00  0.00    -0.744 OA
ENDBRANCH  66  69
ENDBRANCH  38  62
BRANCH  50  73
ATOM     73  C   UNL A   1      44.755  27.239  34.130  1.00  0.00     0.023 A 
ATOM     74  C   UNL A   1      46.004  27.885  34.044  1.00  0.00     0.012 A 
ATOM     75  C   UNL A   1      44.617  26.111  34.962  1.00  0.00     0.148 A 
ATOM     76  C   UNL A   1      47.105  27.395  34.745  1.00  0.00     0.002 A 
ATOM     77  C   UNL A   1      45.707  25.657  35.696  1.00  0.00     0.091 A 
ATOM     78  F   UNL A   1      43.426  25.495  35.016  1.00  0.00    -0.205 F 
ATOM     79  C   UNL A   1      46.955  26.289  35.578  1.00  0.00     0.022 A 
BRANCH  77  80
ATOM     80  S   UNL A   1      45.573  24.298  36.865  1.00  0.00     0.127 S 
ATOM     81  O   UNL A   1      46.944  24.200  37.365  1.00  0.00    -0.237 OA
ATOM     82  O   UNL A   1      44.606  24.813  37.835  1.00  0.00    -0.237 OA
ATOM     83  O   UNL A   1      45.101  23.157  36.093  1.00  0.00    -0.744 OA
ENDBRANCH  77  80
ENDBRANCH  50  73
ENDBRANCH  24  25
ENDBRANCH  17  19
ENDBRANCH  16  17
ENDBRANCH   1  16
TORSDOF 16
ENDMDL
