MODEL 1
REMARK VINA RESULT:     -12.5      0.000      0.000
REMARK SMILES C[C@@H]1Cc2ccccc2N1S(=O)(=O)c1cccc(C(=O)OCCOC(=O)c2ccc(-c3c4nc(c(-c5cccc(S(=O)(=O)[O-])c5F)c5ccc([nH]5)c(-c5cccc(S(=O)(=O)[O-])c5F)c5nc(c(-c6cccc(S(=O)(=O)[O-])c6F)c6ccc3[nH]6)C=C5)C=C4)cc2)c1
REMARK SMILES IDX 23 1 22 2 21 3 19 4 20 5 18 6 14 7 15 8 90 9 16 10 17 11
REMARK SMILES IDX 11 12 12 13 13 14 10 15 1 16 2 17 3 18 4 19 9 20 5 21 8 22
REMARK SMILES IDX 6 23 7 24 24 25 25 26 26 27 27 28 28 29 89 30 29 31 88 32
REMARK SMILES IDX 30 33 31 34 32 35 82 36 33 37 87 38 81 39 83 40 34 41 86 42
REMARK SMILES IDX 80 43 79 44 35 46 67 47 47 48 66 49 48 50 51 51 65 52 84 53
REMARK SMILES IDX 49 54 50 55 64 57 85 58 52 59 36 60 37 61 45 62 38 63 40 64
REMARK SMILES IDX 46 65 39 66 41 67 42 68 43 69 44 70 68 71 69 72 77 73 70 74
REMARK SMILES IDX 72 75 78 76 71 77 73 78 74 79 75 80 76 81 53 82 54 83 62 84
REMARK SMILES IDX 55 85 57 86 63 87 56 88 58 89 59 90 60 91 61 92
REMARK H PARENT 83 45 51 56
REMARK Flexibility Score: inf
ROOT
ATOM      1  C   UNL A   1      31.846  30.958  26.442  1.00  0.00     0.275 C 
ENDROOT
BRANCH   1   2
ATOM      2  C   UNL A   1      31.397  29.857  25.478  1.00  0.00     0.275 C 
BRANCH   2   3
ATOM      3  O   UNL A   1      32.104  28.626  25.714  1.00  0.00    -0.458 OA
BRANCH   3   4
ATOM      4  C   UNL A   1      31.486  27.708  26.505  1.00  0.00     0.338 C 
ATOM      5  O   UNL A   1      31.124  27.872  27.649  1.00  0.00    -0.246 OA
BRANCH   4   6
ATOM      6  C   UNL A   1      31.237  26.453  25.737  1.00  0.00     0.061 A 
ATOM      7  C   UNL A   1      31.352  24.050  25.476  1.00  0.00     0.088 A 
ATOM      8  C   UNL A   1      30.869  24.145  24.168  1.00  0.00     0.022 A 
ATOM      9  C   UNL A   1      31.524  25.195  26.267  1.00  0.00     0.038 A 
ATOM     10  C   UNL A   1      30.571  25.402  23.643  1.00  0.00     0.002 A 
ATOM     11  C   UNL A   1      30.744  26.550  24.426  1.00  0.00     0.016 A 
BRANCH   7  12
ATOM     12  S   UNL A   1      31.829  22.482  26.150  1.00  0.00     0.264 S 
ATOM     13  O   UNL A   1      30.742  21.571  25.849  1.00  0.00    -0.201 OA
ATOM     14  O   UNL A   1      32.225  22.702  27.528  1.00  0.00    -0.201 OA
BRANCH  12  15
ATOM     15  N   UNL A   1      33.180  21.960  25.294  1.00  0.00    -0.263 N 
ATOM     16  C   UNL A   1      32.881  19.585  26.167  1.00  0.00     0.032 C 
ATOM     17  C   UNL A   1      33.291  20.481  24.997  1.00  0.00     0.101 C 
ATOM     18  C   UNL A   1      34.774  20.240  24.632  1.00  0.00     0.063 C 
ATOM     19  C   UNL A   1      35.430  21.530  24.997  1.00  0.00    -0.021 A 
ATOM     20  C   UNL A   1      34.510  22.465  25.473  1.00  0.00     0.055 A 
ATOM     21  C   UNL A   1      36.776  21.840  24.839  1.00  0.00     0.006 A 
ATOM     22  C   UNL A   1      34.941  23.738  25.809  1.00  0.00     0.027 A 
ATOM     23  C   UNL A   1      37.203  23.126  25.159  1.00  0.00     0.000 A 
ATOM     24  C   UNL A   1      36.293  24.066  25.650  1.00  0.00     0.002 A 
ENDBRANCH  12  15
ENDBRANCH   7  12
ENDBRANCH   4   6
ENDBRANCH   3   4
ENDBRANCH   2   3
ENDBRANCH   1   2
BRANCH   1  25
ATOM     25  O   UNL A   1      33.218  30.785  26.842  1.00  0.00    -0.458 OA
BRANCH  25  26
ATOM     26  C   UNL A   1      33.774  31.847  27.472  1.00  0.00     0.338 C 
ATOM     27  O   UNL A   1      33.267  32.942  27.661  1.00  0.00    -0.246 OA
BRANCH  26  28
ATOM     28  C   UNL A   1      35.058  31.438  28.068  1.00  0.00     0.060 A 
ATOM     29  C   UNL A   1      36.139  32.314  28.177  1.00  0.00     0.016 A 
ATOM     30  C   UNL A   1      35.151  30.134  28.559  1.00  0.00     0.016 A 
ATOM     31  C   UNL A   1      37.328  31.860  28.758  1.00  0.00     0.010 A 
ATOM     32  C   UNL A   1      36.334  29.685  29.142  1.00  0.00     0.010 A 
ATOM     33  C   UNL A   1      37.439  30.540  29.237  1.00  0.00    -0.014 A 
BRANCH  33  34
ATOM     34  C   UNL A   1      38.688  30.070  29.889  1.00  0.00     0.031 A 
ATOM     35  C   UNL A   1      39.072  30.537  31.266  1.00  0.00     0.074 A 
ATOM     36  C   UNL A   1      39.511  29.247  29.209  1.00  0.00     0.049 A 
ATOM     37  N   UNL A   1      40.076  30.150  32.010  1.00  0.00    -0.248 NA
ATOM     38  C   UNL A   1      38.246  31.590  31.880  1.00  0.00     0.031 C 
ATOM     39  C   UNL A   1      39.312  28.818  27.823  1.00  0.00     0.029 A 
ATOM     40  N   UNL A   1      40.674  28.627  29.587  1.00  0.00    -0.354 N 
ATOM     41  C   UNL A   1      40.017  30.918  33.166  1.00  0.00     0.074 A 
ATOM     42  C   UNL A   1      38.896  31.820  33.015  1.00  0.00     0.031 C 
ATOM     43  C   UNL A   1      40.298  27.975  27.481  1.00  0.00     0.029 A 
ATOM     44  C   UNL A   1      41.197  27.802  28.618  1.00  0.00     0.049 A 
ATOM     45  H   UNL A   1      41.094  28.759  30.467  1.00  0.00     0.167 HD
ATOM     46  C   UNL A   1      40.798  30.849  34.268  1.00  0.00     0.034 A 
ATOM     47  C   UNL A   1      42.261  26.975  28.651  1.00  0.00     0.034 A 
ATOM     48  C   UNL A   1      41.867  29.904  34.441  1.00  0.00     0.049 A 
ATOM     49  C   UNL A   1      43.057  26.844  29.919  1.00  0.00     0.074 A 
ATOM     50  C   UNL A   1      42.633  29.674  35.571  1.00  0.00     0.029 A 
ATOM     51  N   UNL A   1      42.321  29.034  33.463  1.00  0.00    -0.354 N 
ATOM     52  N   UNL A   1      42.870  27.445  31.068  1.00  0.00    -0.248 NA
ATOM     53  C   UNL A   1      44.187  25.902  29.910  1.00  0.00     0.031 C 
ATOM     54  C   UNL A   1      43.553  28.664  35.275  1.00  0.00     0.029 A 
ATOM     55  C   UNL A   1      43.358  28.268  33.961  1.00  0.00     0.049 A 
ATOM     56  H   UNL A   1      41.959  28.972  32.550  1.00  0.00     0.167 HD
ATOM     57  C   UNL A   1      43.844  26.945  31.923  1.00  0.00     0.074 A 
ATOM     58  C   UNL A   1      44.612  25.979  31.166  1.00  0.00     0.031 C 
ATOM     59  C   UNL A   1      44.085  27.275  33.214  1.00  0.00     0.034 A 
BRANCH  46  60
ATOM     60  C   UNL A   1      40.471  31.745  35.431  1.00  0.00     0.023 A 
ATOM     61  C   UNL A   1      41.250  32.901  35.636  1.00  0.00     0.012 A 
ATOM     62  C   UNL A   1      39.337  31.520  36.236  1.00  0.00     0.148 A 
ATOM     63  C   UNL A   1      40.918  33.815  36.633  1.00  0.00     0.002 A 
ATOM     64  C   UNL A   1      38.995  32.451  37.211  1.00  0.00     0.091 A 
ATOM     65  F   UNL A   1      38.614  30.412  36.025  1.00  0.00    -0.205 F 
ATOM     66  C   UNL A   1      39.786  33.595  37.414  1.00  0.00     0.022 A 
BRANCH  64  67
ATOM     67  S   UNL A   1      37.526  32.299  38.235  1.00  0.00     0.127 S 
ATOM     68  O   UNL A   1      37.951  32.977  39.461  1.00  0.00    -0.237 OA
ATOM     69  O   UNL A   1      36.528  33.026  37.452  1.00  0.00    -0.237 OA
ATOM     70  O   UNL A   1      37.276  30.871  38.375  1.00  0.00    -0.744 OA
ENDBRANCH  64  67
ENDBRANCH  46  60
BRANCH  47  71
ATOM     71  C   UNL A   1      42.540  26.114  27.470  1.00  0.00     0.023 A 
ATOM     72  C   UNL A   1      43.363  26.614  26.443  1.00  0.00     0.012 A 
ATOM     73  C   UNL A   1      42.081  24.785  27.404  1.00  0.00     0.148 A 
ATOM     74  C   UNL A   1      43.720  25.806  25.364  1.00  0.00     0.002 A 
ATOM     75  C   UNL A   1      42.472  23.973  26.346  1.00  0.00     0.091 A 
ATOM     76  F   UNL A   1      41.300  24.336  28.396  1.00  0.00    -0.205 F 
ATOM     77  C   UNL A   1      43.285  24.484  25.320  1.00  0.00     0.022 A 
BRANCH  75  78
ATOM     78  S   UNL A   1      42.055  22.228  26.254  1.00  0.00     0.127 S 
ATOM     79  O   UNL A   1      42.775  21.812  25.052  1.00  0.00    -0.237 OA
ATOM     80  O   UNL A   1      42.608  21.722  27.511  1.00  0.00    -0.237 OA
ATOM     81  O   UNL A   1      40.603  22.172  26.165  1.00  0.00    -0.744 OA
ENDBRANCH  75  78
ENDBRANCH  47  71
BRANCH  59  82
ATOM     82  C   UNL A   1      45.230  26.608  33.925  1.00  0.00     0.023 A 
ATOM     83  C   UNL A   1      46.476  27.261  33.970  1.00  0.00     0.012 A 
ATOM     84  C   UNL A   1      45.021  25.445  34.692  1.00  0.00     0.148 A 
ATOM     85  C   UNL A   1      47.500  26.771  34.778  1.00  0.00     0.002 A 
ATOM     86  C   UNL A   1      46.036  24.980  35.519  1.00  0.00     0.091 A 
ATOM     87  F   UNL A   1      43.824  24.847  34.630  1.00  0.00    -0.205 F 
ATOM     88  C   UNL A   1      47.276  25.641  35.562  1.00  0.00     0.022 A 
BRANCH  86  89
ATOM     89  S   UNL A   1      45.825  23.583  36.628  1.00  0.00     0.127 S 
ATOM     90  O   UNL A   1      47.209  23.162  36.845  1.00  0.00    -0.237 OA
ATOM     91  O   UNL A   1      45.187  24.204  37.787  1.00  0.00    -0.237 OA
ATOM     92  O   UNL A   1      44.998  22.619  35.914  1.00  0.00    -0.744 OA
ENDBRANCH  86  89
ENDBRANCH  59  82
ENDBRANCH  33  34
ENDBRANCH  26  28
ENDBRANCH  25  26
ENDBRANCH   1  25
TORSDOF 16
ENDMDL
MODEL 2
REMARK VINA RESULT:     -12.5      1.973      2.535
REMARK SMILES C[C@@H]1Cc2ccccc2N1S(=O)(=O)c1cccc(C(=O)OCCOC(=O)c2ccc(-c3c4nc(c(-c5cccc(S(=O)(=O)[O-])c5F)c5ccc([nH]5)c(-c5cccc(S(=O)(=O)[O-])c5F)c5nc(c(-c6cccc(S(=O)(=O)[O-])c6F)c6ccc3[nH]6)C=C5)C=C4)cc2)c1
REMARK SMILES IDX 23 1 22 2 21 3 19 4 20 5 18 6 14 7 15 8 90 9 16 10 17 11
REMARK SMILES IDX 11 12 12 13 13 14 10 15 1 16 2 17 3 18 4 19 9 20 5 21 8 22
REMARK SMILES IDX 6 23 7 24 24 25 25 26 26 27 27 28 28 29 89 30 29 31 88 32
REMARK SMILES IDX 30 33 31 34 32 35 82 36 33 37 87 38 81 39 83 40 34 41 86 42
REMARK SMILES IDX 80 43 79 44 35 46 67 47 47 48 66 49 48 50 51 51 65 52 84 53
REMARK SMILES IDX 49 54 50 55 64 57 85 58 52 59 36 60 37 61 45 62 38 63 40 64
REMARK SMILES IDX 46 65 39 66 41 67 42 68 43 69 44 70 68 71 69 72 77 73 70 74
REMARK SMILES IDX 72 75 78 76 71 77 73 78 74 79 75 80 76 81 53 82 54 83 62 84
REMARK SMILES IDX 55 85 57 86 63 87 56 88 58 89 59 90 60 91 61 92
REMARK H PARENT 83 45 51 56
REMARK Flexibility Score: inf
ROOT
ATOM      1  C   UNL A   1      31.377  30.694  25.771  1.00  0.00     0.275 C 
ENDROOT
BRANCH   1   2
ATOM      2  C   UNL A   1      31.124  29.609  24.721  1.00  0.00     0.275 C 
BRANCH   2   3
ATOM      3  O   UNL A   1      30.103  30.004  23.786  1.00  0.00    -0.458 OA
BRANCH   3   4
ATOM      4  C   UNL A   1      29.969  29.241  22.669  1.00  0.00     0.338 C 
ATOM      5  O   UNL A   1      29.759  29.642  21.545  1.00  0.00    -0.246 OA
BRANCH   4   6
ATOM      6  C   UNL A   1      30.192  27.803  22.999  1.00  0.00     0.061 A 
ATOM      7  C   UNL A   1      31.534  25.790  22.980  1.00  0.00     0.088 A 
ATOM      8  C   UNL A   1      30.480  25.053  23.527  1.00  0.00     0.022 A 
ATOM      9  C   UNL A   1      31.402  27.162  22.728  1.00  0.00     0.038 A 
ATOM     10  C   UNL A   1      29.275  25.697  23.809  1.00  0.00     0.002 A 
ATOM     11  C   UNL A   1      29.134  27.067  23.556  1.00  0.00     0.016 A 
BRANCH   7  12
ATOM     12  S   UNL A   1      33.049  24.993  22.523  1.00  0.00     0.264 S 
ATOM     13  O   UNL A   1      33.879  26.024  21.930  1.00  0.00    -0.201 OA
ATOM     14  O   UNL A   1      32.706  23.812  21.753  1.00  0.00    -0.201 OA
BRANCH  12  15
ATOM     15  N   UNL A   1      33.800  24.492  23.942  1.00  0.00    -0.263 N 
ATOM     16  C   UNL A   1      33.741  26.862  24.873  1.00  0.00     0.032 C 
ATOM     17  C   UNL A   1      33.636  25.365  25.166  1.00  0.00     0.101 C 
ATOM     18  C   UNL A   1      34.755  24.930  26.141  1.00  0.00     0.063 C 
ATOM     19  C   UNL A   1      35.611  24.039  25.303  1.00  0.00    -0.021 A 
ATOM     20  C   UNL A   1      35.098  23.887  24.014  1.00  0.00     0.055 A 
ATOM     21  C   UNL A   1      36.751  23.364  25.724  1.00  0.00     0.006 A 
ATOM     22  C   UNL A   1      35.741  23.050  23.118  1.00  0.00     0.027 A 
ATOM     23  C   UNL A   1      37.384  22.507  24.827  1.00  0.00     0.000 A 
ATOM     24  C   UNL A   1      36.887  22.358  23.529  1.00  0.00     0.002 A 
ENDBRANCH  12  15
ENDBRANCH   7  12
ENDBRANCH   4   6
ENDBRANCH   3   4
ENDBRANCH   2   3
ENDBRANCH   1   2
BRANCH   1  25
ATOM     25  O   UNL A   1      32.719  30.630  26.286  1.00  0.00    -0.458 OA
BRANCH  25  26
ATOM     26  C   UNL A   1      33.104  31.696  27.028  1.00  0.00     0.338 C 
ATOM     27  O   UNL A   1      32.464  32.711  27.249  1.00  0.00    -0.246 OA
BRANCH  26  28
ATOM     28  C   UNL A   1      34.381  31.385  27.694  1.00  0.00     0.060 A 
ATOM     29  C   UNL A   1      35.327  32.370  27.982  1.00  0.00     0.016 A 
ATOM     30  C   UNL A   1      34.606  30.057  28.065  1.00  0.00     0.016 A 
ATOM     31  C   UNL A   1      36.518  32.004  28.622  1.00  0.00     0.010 A 
ATOM     32  C   UNL A   1      35.789  29.697  28.705  1.00  0.00     0.010 A 
ATOM     33  C   UNL A   1      36.763  30.664  28.979  1.00  0.00    -0.014 A 
BRANCH  33  34
ATOM     34  C   UNL A   1      38.008  30.283  29.693  1.00  0.00     0.031 A 
ATOM     35  C   UNL A   1      38.293  30.778  31.084  1.00  0.00     0.074 A 
ATOM     36  C   UNL A   1      38.918  29.519  29.057  1.00  0.00     0.049 A 
ATOM     37  N   UNL A   1      39.285  30.463  31.877  1.00  0.00    -0.248 NA
ATOM     38  C   UNL A   1      37.366  31.771  31.654  1.00  0.00     0.031 C 
ATOM     39  C   UNL A   1      38.817  29.076  27.664  1.00  0.00     0.029 A 
ATOM     40  N   UNL A   1      40.102  28.982  29.493  1.00  0.00    -0.354 N 
ATOM     41  C   UNL A   1      39.116  31.226  33.025  1.00  0.00     0.074 A 
ATOM     42  C   UNL A   1      37.944  32.047  32.817  1.00  0.00     0.031 C 
ATOM     43  C   UNL A   1      39.874  28.303  27.373  1.00  0.00     0.029 A 
ATOM     44  C   UNL A   1      40.727  28.195  28.553  1.00  0.00     0.049 A 
ATOM     45  H   UNL A   1      40.470  29.144  30.391  1.00  0.00     0.167 HD
ATOM     46  C   UNL A   1      39.847  31.212  34.164  1.00  0.00     0.034 A 
ATOM     47  C   UNL A   1      41.843  27.444  28.641  1.00  0.00     0.034 A 
ATOM     48  C   UNL A   1      40.970  30.345  34.392  1.00  0.00     0.049 A 
ATOM     49  C   UNL A   1      42.585  27.370  29.945  1.00  0.00     0.074 A 
ATOM     50  C   UNL A   1      41.694  30.170  35.558  1.00  0.00     0.029 A 
ATOM     51  N   UNL A   1      41.529  29.508  33.441  1.00  0.00    -0.354 N 
ATOM     52  N   UNL A   1      42.301  27.957  31.082  1.00  0.00    -0.248 NA
ATOM     53  C   UNL A   1      43.777  26.509  29.995  1.00  0.00     0.031 C 
ATOM     54  C   UNL A   1      42.696  29.226  35.311  1.00  0.00     0.029 A 
ATOM     55  C   UNL A   1      42.592  28.816  33.991  1.00  0.00     0.049 A 
ATOM     56  H   UNL A   1      41.216  29.419  32.512  1.00  0.00     0.167 HD
ATOM     57  C   UNL A   1      43.266  27.528  31.985  1.00  0.00     0.074 A 
ATOM     58  C   UNL A   1      44.135  26.617  31.269  1.00  0.00     0.031 C 
ATOM     59  C   UNL A   1      43.421  27.875  33.284  1.00  0.00     0.034 A 
BRANCH  46  60
ATOM     60  C   UNL A   1      39.403  32.085  35.306  1.00  0.00     0.023 A 
ATOM     61  C   UNL A   1      38.572  31.529  36.300  1.00  0.00     0.012 A 
ATOM     62  C   UNL A   1      39.896  33.394  35.465  1.00  0.00     0.148 A 
ATOM     63  C   UNL A   1      38.225  32.267  37.429  1.00  0.00     0.002 A 
ATOM     64  C   UNL A   1      39.568  34.115  36.609  1.00  0.00     0.091 A 
ATOM     65  F   UNL A   1      40.682  33.902  34.506  1.00  0.00    -0.205 F 
ATOM     66  C   UNL A   1      38.730  33.555  37.589  1.00  0.00     0.022 A 
BRANCH  64  67
ATOM     67  S   UNL A   1      40.209  35.760  36.946  1.00  0.00     0.127 S 
ATOM     68  O   UNL A   1      39.667  36.018  38.281  1.00  0.00    -0.237 OA
ATOM     69  O   UNL A   1      41.654  35.541  36.908  1.00  0.00    -0.237 OA
ATOM     70  O   UNL A   1      39.690  36.620  35.892  1.00  0.00    -0.744 OA
ENDBRANCH  64  67
ENDBRANCH  46  60
BRANCH  47  71
ATOM     71  C   UNL A   1      42.238  26.603  27.478  1.00  0.00     0.023 A 
ATOM     72  C   UNL A   1      43.069  27.160  26.488  1.00  0.00     0.012 A 
ATOM     73  C   UNL A   1      41.879  25.245  27.397  1.00  0.00     0.148 A 
ATOM     74  C   UNL A   1      43.533  26.377  25.430  1.00  0.00     0.002 A 
ATOM     75  C   UNL A   1      42.376  24.461  26.363  1.00  0.00     0.091 A 
ATOM     76  F   UNL A   1      41.088  24.741  28.355  1.00  0.00    -0.205 F 
ATOM     77  C   UNL A   1      43.197  25.027  25.373  1.00  0.00     0.022 A 
BRANCH  75  78
ATOM     78  S   UNL A   1      42.091  22.690  26.261  1.00  0.00     0.127 S 
ATOM     79  O   UNL A   1      42.724  22.359  24.986  1.00  0.00    -0.237 OA
ATOM     80  O   UNL A   1      42.798  22.205  27.446  1.00  0.00    -0.237 OA
ATOM     81  O   UNL A   1      40.646  22.519  26.305  1.00  0.00    -0.744 OA
ENDBRANCH  75  78
ENDBRANCH  47  71
BRANCH  59  82
ATOM     82  C   UNL A   1      44.574  27.290  34.052  1.00  0.00     0.023 A 
ATOM     83  C   UNL A   1      45.781  28.011  34.120  1.00  0.00     0.012 A 
ATOM     84  C   UNL A   1      44.401  26.139  34.844  1.00  0.00     0.148 A 
ATOM     85  C   UNL A   1      46.801  27.599  34.975  1.00  0.00     0.002 A 
ATOM     86  C   UNL A   1      45.410  25.752  35.718  1.00  0.00     0.091 A 
ATOM     87  F   UNL A   1      43.240  25.476  34.759  1.00  0.00    -0.205 F 
ATOM     88  C   UNL A   1      46.610  26.480  35.783  1.00  0.00     0.022 A 
BRANCH  86  89
ATOM     89  S   UNL A   1      45.234  24.375  36.858  1.00  0.00     0.127 S 
ATOM     90  O   UNL A   1      44.231  24.887  37.793  1.00  0.00    -0.237 OA
ATOM     91  O   UNL A   1      44.761  23.307  35.979  1.00  0.00    -0.237 OA
ATOM     92  O   UNL A   1      46.553  24.156  37.437  1.00  0.00    -0.744 OA
ENDBRANCH  86  89
ENDBRANCH  59  82
ENDBRANCH  33  34
ENDBRANCH  26  28
ENDBRANCH  25  26
ENDBRANCH   1  25
TORSDOF 16
ENDMDL
MODEL 3
REMARK VINA RESULT:     -12.4      5.139     10.385
REMARK SMILES C[C@@H]1Cc2ccccc2N1S(=O)(=O)c1cccc(C(=O)OCCOC(=O)c2ccc(-c3c4nc(c(-c5cccc(S(=O)(=O)[O-])c5F)c5ccc([nH]5)c(-c5cccc(S(=O)(=O)[O-])c5F)c5nc(c(-c6cccc(S(=O)(=O)[O-])c6F)c6ccc3[nH]6)C=C5)C=C4)cc2)c1
REMARK SMILES IDX 23 1 22 2 21 3 19 4 20 5 18 6 14 7 15 8 90 9 16 10 17 11
REMARK SMILES IDX 11 12 12 13 13 14 10 15 1 16 2 17 3 18 4 19 9 20 5 21 8 22
REMARK SMILES IDX 6 23 7 24 24 25 25 26 26 27 27 28 28 29 89 30 29 31 88 32
REMARK SMILES IDX 30 33 31 34 32 35 82 36 33 37 87 38 81 39 83 40 34 41 86 42
REMARK SMILES IDX 80 43 79 44 35 46 67 47 47 48 66 49 48 50 51 51 65 52 84 53
REMARK SMILES IDX 49 54 50 55 64 57 85 58 52 59 36 60 37 61 45 62 38 63 40 64
REMARK SMILES IDX 46 65 39 66 41 67 42 68 43 69 44 70 68 71 69 72 77 73 70 74
REMARK SMILES IDX 72 75 78 76 71 77 73 78 74 79 75 80 76 81 53 82 54 83 62 84
REMARK SMILES IDX 55 85 57 86 63 87 56 88 58 89 59 90 60 91 61 92
REMARK H PARENT 83 45 51 56
REMARK Flexibility Score: inf
ROOT
ATOM      1  C   UNL A   1      37.146  21.052  24.992  1.00  0.00     0.275 C 
ENDROOT
BRANCH   1   2
ATOM      2  C   UNL A   1      35.616  21.067  25.040  1.00  0.00     0.275 C 
BRANCH   2   3
ATOM      3  O   UNL A   1      35.057  21.712  23.881  1.00  0.00    -0.458 OA
BRANCH   3   4
ATOM      4  C   UNL A   1      35.644  22.874  23.486  1.00  0.00     0.338 C 
ATOM      5  O   UNL A   1      36.614  22.981  22.769  1.00  0.00    -0.246 OA
BRANCH   4   6
ATOM      6  C   UNL A   1      34.874  24.042  24.007  1.00  0.00     0.061 A 
ATOM      7  C   UNL A   1      33.418  25.949  23.699  1.00  0.00     0.088 A 
ATOM      8  C   UNL A   1      33.568  26.311  25.040  1.00  0.00     0.022 A 
ATOM      9  C   UNL A   1      34.054  24.812  23.181  1.00  0.00     0.038 A 
ATOM     10  C   UNL A   1      34.378  25.533  25.867  1.00  0.00     0.002 A 
ATOM     11  C   UNL A   1      35.021  24.398  25.357  1.00  0.00     0.016 A 
BRANCH   7  12
ATOM     12  S   UNL A   1      32.472  26.960  22.592  1.00  0.00     0.264 S 
ATOM     13  O   UNL A   1      32.247  26.153  21.408  1.00  0.00    -0.201 OA
ATOM     14  O   UNL A   1      33.152  28.236  22.478  1.00  0.00    -0.201 OA
BRANCH  12  15
ATOM     15  N   UNL A   1      30.976  27.227  23.314  1.00  0.00    -0.263 N 
ATOM     16  C   UNL A   1      30.386  24.756  23.131  1.00  0.00     0.032 C 
ATOM     17  C   UNL A   1      30.285  26.042  23.951  1.00  0.00     0.101 C 
ATOM     18  C   UNL A   1      28.804  26.460  24.111  1.00  0.00     0.063 C 
ATOM     19  C   UNL A   1      28.720  27.728  23.329  1.00  0.00    -0.021 A 
ATOM     20  C   UNL A   1      29.957  28.092  22.794  1.00  0.00     0.055 A 
ATOM     21  C   UNL A   1      27.592  28.525  23.176  1.00  0.00     0.006 A 
ATOM     22  C   UNL A   1      30.072  29.274  22.080  1.00  0.00     0.027 A 
ATOM     23  C   UNL A   1      27.714  29.723  22.475  1.00  0.00     0.000 A 
ATOM     24  C   UNL A   1      28.945  30.090  21.923  1.00  0.00     0.002 A 
ENDBRANCH  12  15
ENDBRANCH   7  12
ENDBRANCH   4   6
ENDBRANCH   3   4
ENDBRANCH   2   3
ENDBRANCH   1   2
BRANCH   1  25
ATOM     25  O   UNL A   1      37.717  21.909  25.996  1.00  0.00    -0.458 OA
BRANCH  25  26
ATOM     26  C   UNL A   1      39.024  21.685  26.273  1.00  0.00     0.338 C 
ATOM     27  O   UNL A   1      39.669  20.679  26.023  1.00  0.00    -0.246 OA
BRANCH  26  28
ATOM     28  C   UNL A   1      39.630  22.926  26.786  1.00  0.00     0.060 A 
ATOM     29  C   UNL A   1      40.689  22.915  27.694  1.00  0.00     0.016 A 
ATOM     30  C   UNL A   1      39.125  24.135  26.302  1.00  0.00     0.016 A 
ATOM     31  C   UNL A   1      41.220  24.132  28.138  1.00  0.00     0.010 A 
ATOM     32  C   UNL A   1      39.657  25.345  26.741  1.00  0.00     0.010 A 
ATOM     33  C   UNL A   1      40.702  25.357  27.672  1.00  0.00    -0.014 A 
BRANCH  33  34
ATOM     34  C   UNL A   1      41.291  26.648  28.112  1.00  0.00     0.031 A 
ATOM     35  C   UNL A   1      42.729  26.985  27.829  1.00  0.00     0.074 A 
ATOM     36  C   UNL A   1      40.530  27.505  28.819  1.00  0.00     0.049 A 
ATOM     37  N   UNL A   1      43.367  28.104  28.061  1.00  0.00    -0.248 NA
ATOM     38  C   UNL A   1      43.569  25.932  27.234  1.00  0.00     0.031 C 
ATOM     39  C   UNL A   1      39.160  27.243  29.264  1.00  0.00     0.029 A 
ATOM     40  N   UNL A   1      40.798  28.766  29.289  1.00  0.00    -0.354 N 
ATOM     41  C   UNL A   1      44.680  27.887  27.662  1.00  0.00     0.074 A 
ATOM     42  C   UNL A   1      44.760  26.518  27.202  1.00  0.00     0.031 C 
ATOM     43  C   UNL A   1      38.693  28.324  29.906  1.00  0.00     0.029 A 
ATOM     44  C   UNL A   1      39.728  29.355  29.922  1.00  0.00     0.049 A 
ATOM     45  H   UNL A   1      41.671  29.207  29.183  1.00  0.00     0.167 HD
ATOM     46  C   UNL A   1      45.712  28.762  27.642  1.00  0.00     0.034 A 
ATOM     47  C   UNL A   1      39.583  30.596  30.428  1.00  0.00     0.034 A 
ATOM     48  C   UNL A   1      45.610  30.140  28.036  1.00  0.00     0.049 A 
ATOM     49  C   UNL A   1      40.712  31.580  30.309  1.00  0.00     0.074 A 
ATOM     50  C   UNL A   1      46.567  31.134  27.934  1.00  0.00     0.029 A 
ATOM     51  N   UNL A   1      44.488  30.719  28.605  1.00  0.00    -0.354 N 
ATOM     52  N   UNL A   1      41.888  31.412  29.757  1.00  0.00    -0.248 NA
ATOM     53  C   UNL A   1      40.488  32.930  30.849  1.00  0.00     0.031 C 
ATOM     54  C   UNL A   1      46.024  32.317  28.443  1.00  0.00     0.029 A 
ATOM     55  C   UNL A   1      44.729  32.057  28.862  1.00  0.00     0.049 A 
ATOM     56  H   UNL A   1      43.645  30.250  28.798  1.00  0.00     0.167 HD
ATOM     57  C   UNL A   1      42.539  32.635  29.868  1.00  0.00     0.074 A 
ATOM     58  C   UNL A   1      41.622  33.541  30.525  1.00  0.00     0.031 C 
ATOM     59  C   UNL A   1      43.792  32.963  29.473  1.00  0.00     0.034 A 
BRANCH  46  60
ATOM     60  C   UNL A   1      47.028  28.298  27.080  1.00  0.00     0.023 A 
ATOM     61  C   UNL A   1      48.067  27.967  27.972  1.00  0.00     0.012 A 
ATOM     62  C   UNL A   1      47.199  28.072  25.700  1.00  0.00     0.148 A 
ATOM     63  C   UNL A   1      49.264  27.431  27.502  1.00  0.00     0.002 A 
ATOM     64  C   UNL A   1      48.385  27.511  25.240  1.00  0.00     0.091 A 
ATOM     65  F   UNL A   1      46.198  28.398  24.871  1.00  0.00    -0.205 F 
ATOM     66  C   UNL A   1      49.419  27.194  26.139  1.00  0.00     0.022 A 
BRANCH  64  67
ATOM     67  S   UNL A   1      48.672  27.109  23.513  1.00  0.00     0.127 S 
ATOM     68  O   UNL A   1      47.898  25.876  23.365  1.00  0.00    -0.237 OA
ATOM     69  O   UNL A   1      48.105  28.270  22.828  1.00  0.00    -0.237 OA
ATOM     70  O   UNL A   1      50.113  26.955  23.367  1.00  0.00    -0.744 OA
ENDBRANCH  64  67
ENDBRANCH  46  60
BRANCH  47  71
ATOM     71  C   UNL A   1      38.259  30.999  30.976  1.00  0.00     0.023 A 
ATOM     72  C   UNL A   1      38.009  30.820  32.350  1.00  0.00     0.012 A 
ATOM     73  C   UNL A   1      37.296  31.640  30.174  1.00  0.00     0.148 A 
ATOM     74  C   UNL A   1      36.815  31.268  32.917  1.00  0.00     0.002 A 
ATOM     75  C   UNL A   1      36.126  32.119  30.753  1.00  0.00     0.091 A 
ATOM     76  F   UNL A   1      37.562  31.798  28.871  1.00  0.00    -0.205 F 
ATOM     77  C   UNL A   1      35.880  31.926  32.122  1.00  0.00     0.022 A 
BRANCH  75  78
ATOM     78  S   UNL A   1      34.911  33.074  29.839  1.00  0.00     0.127 S 
ATOM     79  O   UNL A   1      34.339  32.061  28.954  1.00  0.00    -0.237 OA
ATOM     80  O   UNL A   1      34.023  33.530  30.908  1.00  0.00    -0.237 OA
ATOM     81  O   UNL A   1      35.656  34.134  29.176  1.00  0.00    -0.744 OA
ENDBRANCH  75  78
ENDBRANCH  47  71
BRANCH  59  82
ATOM     82  C   UNL A   1      44.285  34.360  29.732  1.00  0.00     0.023 A 
ATOM     83  C   UNL A   1      45.056  34.606  30.884  1.00  0.00     0.012 A 
ATOM     84  C   UNL A   1      44.143  35.366  28.757  1.00  0.00     0.148 A 
ATOM     85  C   UNL A   1      45.689  35.835  31.059  1.00  0.00     0.002 A 
ATOM     86  C   UNL A   1      44.803  36.577  28.923  1.00  0.00     0.091 A 
ATOM     87  F   UNL A   1      43.405  35.100  27.670  1.00  0.00    -0.205 F 
ATOM     88  C   UNL A   1      45.575  36.813  30.073  1.00  0.00     0.022 A 
BRANCH  86  89
ATOM     89  S   UNL A   1      44.787  37.872  27.678  1.00  0.00     0.127 S 
ATOM     90  O   UNL A   1      45.024  39.068  28.488  1.00  0.00    -0.237 OA
ATOM     91  O   UNL A   1      45.906  37.486  26.818  1.00  0.00    -0.237 OA
ATOM     92  O   UNL A   1      43.477  37.813  27.046  1.00  0.00    -0.744 OA
ENDBRANCH  86  89
ENDBRANCH  59  82
ENDBRANCH  33  34
ENDBRANCH  26  28
ENDBRANCH  25  26
ENDBRANCH   1  25
TORSDOF 16
ENDMDL
