MODEL 1
REMARK VINA RESULT:     -10.9      0.000      0.000
REMARK SMILES Cc1cc(C)c2c(OCCCC(=O)OCCOC(=O)c3ccc(-c4c5nc(c(-c6cccc(S(=O)(=O)[O-])c6F)c6ccc([nH]6)c(-c6cccc(S(=O)(=O)[O-])c6F)c6nc(c(-c7cccc(S(=O)(=O)[O-])c7F)c7ccc4[nH]7)C=C6)C=C5)cc3)nsc2n1
REMARK SMILES IDX 15 1 14 2 12 3 13 4 11 5 10 6 9 7 8 8 7 9 1 10 2 11 3 12
REMARK SMILES IDX 86 13 4 14 85 15 5 16 6 17 84 18 83 19 16 20 17 21 18 22
REMARK SMILES IDX 19 23 20 24 21 25 82 26 22 27 81 28 23 29 24 30 25 31 75 32
REMARK SMILES IDX 26 33 80 34 74 35 76 36 27 37 79 38 73 39 72 40 28 42 60 43
REMARK SMILES IDX 40 44 59 45 41 46 44 47 58 48 77 49 42 50 43 51 57 53 78 54
REMARK SMILES IDX 45 55 29 56 30 57 38 58 31 59 33 60 39 61 32 62 34 63 35 64
REMARK SMILES IDX 36 65 37 66 61 67 62 68 70 69 63 70 65 71 71 72 64 73 66 74
REMARK SMILES IDX 67 75 68 76 69 77 46 78 47 79 55 80 48 81 50 82 56 83 49 84
REMARK SMILES IDX 51 85 52 86 53 87 54 88
REMARK H PARENT 76 41 44 52
REMARK Flexibility Score: inf
ROOT
ATOM      1  C   UNL A   1      36.370  21.443  25.660  1.00  0.00     0.274 C 
ENDROOT
BRANCH   1   2
ATOM      2  O   UNL A   1      36.165  22.807  26.126  1.00  0.00    -0.462 OA
BRANCH   2   3
ATOM      3  C   UNL A   1      35.048  23.467  25.743  1.00  0.00     0.306 C 
ATOM      4  O   UNL A   1      34.077  23.620  26.477  1.00  0.00    -0.252 OA
BRANCH   3   5
ATOM      5  C   UNL A   1      35.027  23.893  24.276  1.00  0.00     0.126 C 
BRANCH   5   6
ATOM      6  C   UNL A   1      33.772  23.791  23.402  1.00  0.00     0.053 C 
BRANCH   6   7
ATOM      7  C   UNL A   1      33.185  24.998  22.642  1.00  0.00     0.232 C 
BRANCH   7   8
ATOM      8  O   UNL A   1      31.779  25.231  22.588  1.00  0.00    -0.477 OA
BRANCH   8   9
ATOM      9  C   UNL A   1      31.292  26.422  22.997  1.00  0.00     0.235 A 
ATOM     10  C   UNL A   1      32.507  29.788  27.138  1.00  0.00     0.067 C 
ATOM     11  C   UNL A   1      31.761  28.861  26.219  1.00  0.00     0.039 A 
ATOM     12  C   UNL A   1      31.522  27.547  26.604  1.00  0.00     0.027 A 
ATOM     13  N   UNL A   1      31.421  29.341  25.012  1.00  0.00    -0.240 NA
ATOM     14  C   UNL A   1      31.188  26.557  25.654  1.00  0.00    -0.034 A 
ATOM     15  C   UNL A   1      31.132  28.381  24.116  1.00  0.00     0.147 A 
ATOM     16  C   UNL A   1      30.961  25.138  26.101  1.00  0.00     0.045 C 
ATOM     17  C   UNL A   1      31.161  26.999  24.309  1.00  0.00     0.078 A 
ATOM     18  S   UNL A   1      30.705  28.724  22.507  1.00  0.00    -0.012 S 
ATOM     19  N   UNL A   1      30.901  27.171  21.964  1.00  0.00    -0.153 NA
ENDBRANCH   8   9
ENDBRANCH   7   8
ENDBRANCH   6   7
ENDBRANCH   5   6
ENDBRANCH   3   5
ENDBRANCH   2   3
ENDBRANCH   1   2
BRANCH   1  20
ATOM     20  C   UNL A   1      37.643  21.367  24.805  1.00  0.00     0.275 C 
BRANCH  20  21
ATOM     21  O   UNL A   1      38.798  21.742  25.540  1.00  0.00    -0.458 OA
BRANCH  21  22
ATOM     22  C   UNL A   1      39.590  20.678  25.832  1.00  0.00     0.338 C 
ATOM     23  O   UNL A   1      39.304  19.522  25.695  1.00  0.00    -0.246 OA
BRANCH  22  24
ATOM     24  C   UNL A   1      40.855  21.221  26.371  1.00  0.00     0.060 A 
ATOM     25  C   UNL A   1      41.102  20.941  27.708  1.00  0.00     0.016 A 
ATOM     26  C   UNL A   1      41.531  22.233  25.666  1.00  0.00     0.016 A 
ATOM     27  C   UNL A   1      41.684  21.944  28.435  1.00  0.00     0.010 A 
ATOM     28  C   UNL A   1      42.111  23.231  26.389  1.00  0.00     0.010 A 
ATOM     29  C   UNL A   1      42.016  23.126  27.765  1.00  0.00    -0.014 A 
BRANCH  29  30
ATOM     30  C   UNL A   1      42.195  24.312  28.553  1.00  0.00     0.031 A 
ATOM     31  C   UNL A   1      41.117  25.276  28.336  1.00  0.00     0.074 A 
ATOM     32  C   UNL A   1      43.225  24.445  29.409  1.00  0.00     0.049 A 
ATOM     33  N   UNL A   1      41.154  26.312  27.568  1.00  0.00    -0.248 NA
ATOM     34  C   UNL A   1      39.780  24.906  28.817  1.00  0.00     0.031 C 
ATOM     35  C   UNL A   1      44.159  23.423  29.897  1.00  0.00     0.029 A 
ATOM     36  N   UNL A   1      43.570  25.541  30.126  1.00  0.00    -0.354 N 
ATOM     37  C   UNL A   1      39.891  26.868  27.694  1.00  0.00     0.074 A 
ATOM     38  C   UNL A   1      39.036  25.837  28.221  1.00  0.00     0.031 C 
ATOM     39  C   UNL A   1      44.785  23.893  31.003  1.00  0.00     0.029 A 
ATOM     40  C   UNL A   1      44.406  25.281  31.204  1.00  0.00     0.049 A 
ATOM     41  H   UNL A   1      43.254  26.446  29.901  1.00  0.00     0.167 HD
ATOM     42  C   UNL A   1      39.719  28.213  27.677  1.00  0.00     0.034 A 
ATOM     43  C   UNL A   1      44.662  26.148  32.213  1.00  0.00     0.034 A 
ATOM     44  C   UNL A   1      40.885  28.898  27.182  1.00  0.00     0.049 A 
ATOM     45  C   UNL A   1      44.302  27.503  31.721  1.00  0.00     0.074 A 
ATOM     46  C   UNL A   1      41.591  28.891  25.996  1.00  0.00     0.029 A 
ATOM     47  N   UNL A   1      41.727  29.431  28.129  1.00  0.00    -0.354 N 
ATOM     48  N   UNL A   1      44.949  28.126  30.779  1.00  0.00    -0.248 NA
ATOM     49  C   UNL A   1      42.961  27.996  31.990  1.00  0.00     0.031 C 
ATOM     50  C   UNL A   1      42.959  29.033  26.372  1.00  0.00     0.029 A 
ATOM     51  C   UNL A   1      43.020  29.165  27.761  1.00  0.00     0.049 A 
ATOM     52  H   UNL A   1      41.448  29.921  28.936  1.00  0.00     0.167 HD
ATOM     53  C   UNL A   1      43.960  28.765  30.043  1.00  0.00     0.074 A 
ATOM     54  C   UNL A   1      42.782  28.758  30.907  1.00  0.00     0.031 C 
ATOM     55  C   UNL A   1      44.109  28.971  28.700  1.00  0.00     0.034 A 
BRANCH  42  56
ATOM     56  C   UNL A   1      38.647  28.910  28.465  1.00  0.00     0.023 A 
ATOM     57  C   UNL A   1      37.735  29.715  27.757  1.00  0.00     0.012 A 
ATOM     58  C   UNL A   1      38.619  28.991  29.877  1.00  0.00     0.148 A 
ATOM     59  C   UNL A   1      36.839  30.554  28.425  1.00  0.00     0.002 A 
ATOM     60  C   UNL A   1      37.656  29.739  30.537  1.00  0.00     0.091 A 
ATOM     61  F   UNL A   1      39.613  28.466  30.601  1.00  0.00    -0.205 F 
ATOM     62  C   UNL A   1      36.780  30.547  29.815  1.00  0.00     0.022 A 
BRANCH  60  63
ATOM     63  S   UNL A   1      37.495  29.677  32.324  1.00  0.00     0.127 S 
ATOM     64  O   UNL A   1      38.696  30.387  32.753  1.00  0.00    -0.237 OA
ATOM     65  O   UNL A   1      36.238  30.394  32.538  1.00  0.00    -0.237 OA
ATOM     66  O   UNL A   1      37.430  28.258  32.655  1.00  0.00    -0.744 OA
ENDBRANCH  60  63
ENDBRANCH  42  56
BRANCH  43  67
ATOM     67  C   UNL A   1      44.875  25.909  33.659  1.00  0.00     0.023 A 
ATOM     68  C   UNL A   1      46.186  26.003  34.172  1.00  0.00     0.012 A 
ATOM     69  C   UNL A   1      43.796  25.950  34.569  1.00  0.00     0.148 A 
ATOM     70  C   UNL A   1      46.415  26.206  35.536  1.00  0.00     0.002 A 
ATOM     71  C   UNL A   1      44.030  26.156  35.926  1.00  0.00     0.091 A 
ATOM     72  F   UNL A   1      42.546  25.895  34.093  1.00  0.00    -0.205 F 
ATOM     73  C   UNL A   1      45.338  26.301  36.411  1.00  0.00     0.022 A 
BRANCH  71  74
ATOM     74  S   UNL A   1      42.692  26.346  37.111  1.00  0.00     0.127 S 
ATOM     75  O   UNL A   1      43.418  26.443  38.378  1.00  0.00    -0.237 OA
ATOM     76  O   UNL A   1      42.071  27.589  36.665  1.00  0.00    -0.237 OA
ATOM     77  O   UNL A   1      41.874  25.146  36.981  1.00  0.00    -0.744 OA
ENDBRANCH  71  74
ENDBRANCH  43  67
BRANCH  55  78
ATOM     78  C   UNL A   1      45.479  28.735  28.106  1.00  0.00     0.023 A 
ATOM     79  C   UNL A   1      46.505  29.704  28.155  1.00  0.00     0.012 A 
ATOM     80  C   UNL A   1      45.786  27.454  27.620  1.00  0.00     0.148 A 
ATOM     81  C   UNL A   1      47.795  29.411  27.703  1.00  0.00     0.002 A 
ATOM     82  C   UNL A   1      47.082  27.150  27.219  1.00  0.00     0.091 A 
ATOM     83  F   UNL A   1      44.804  26.541  27.575  1.00  0.00    -0.205 F 
ATOM     84  C   UNL A   1      48.088  28.128  27.247  1.00  0.00     0.022 A 
BRANCH  82  85
ATOM     85  S   UNL A   1      47.544  25.481  26.751  1.00  0.00     0.127 S 
ATOM     86  O   UNL A   1      46.780  25.283  25.522  1.00  0.00    -0.237 OA
ATOM     87  O   UNL A   1      48.992  25.595  26.558  1.00  0.00    -0.237 OA
ATOM     88  O   UNL A   1      47.163  24.634  27.875  1.00  0.00    -0.744 OA
ENDBRANCH  82  85
ENDBRANCH  55  78
ENDBRANCH  29  30
ENDBRANCH  22  24
ENDBRANCH  21  22
ENDBRANCH  20  21
ENDBRANCH   1  20
TORSDOF 18
ENDMDL
MODEL 2
REMARK VINA RESULT:     -10.8      1.713      1.946
REMARK SMILES Cc1cc(C)c2c(OCCCC(=O)OCCOC(=O)c3ccc(-c4c5nc(c(-c6cccc(S(=O)(=O)[O-])c6F)c6ccc([nH]6)c(-c6cccc(S(=O)(=O)[O-])c6F)c6nc(c(-c7cccc(S(=O)(=O)[O-])c7F)c7ccc4[nH]7)C=C6)C=C5)cc3)nsc2n1
REMARK SMILES IDX 15 1 14 2 12 3 13 4 11 5 10 6 9 7 8 8 7 9 1 10 2 11 3 12
REMARK SMILES IDX 86 13 4 14 85 15 5 16 6 17 84 18 83 19 16 20 17 21 18 22
REMARK SMILES IDX 19 23 20 24 21 25 82 26 22 27 81 28 23 29 24 30 25 31 75 32
REMARK SMILES IDX 26 33 80 34 74 35 76 36 27 37 79 38 73 39 72 40 28 42 60 43
REMARK SMILES IDX 40 44 59 45 41 46 44 47 58 48 77 49 42 50 43 51 57 53 78 54
REMARK SMILES IDX 45 55 29 56 30 57 38 58 31 59 33 60 39 61 32 62 34 63 35 64
REMARK SMILES IDX 36 65 37 66 61 67 62 68 70 69 63 70 65 71 71 72 64 73 66 74
REMARK SMILES IDX 67 75 68 76 69 77 46 78 47 79 55 80 48 81 50 82 56 83 49 84
REMARK SMILES IDX 51 85 52 86 53 87 54 88
REMARK H PARENT 76 41 44 52
REMARK Flexibility Score: inf
ROOT
ATOM      1  C   UNL A   1      37.206  22.048  24.429  1.00  0.00     0.274 C 
ENDROOT
BRANCH   1   2
ATOM      2  O   UNL A   1      35.832  21.600  24.248  1.00  0.00    -0.462 OA
BRANCH   2   3
ATOM      3  C   UNL A   1      34.829  22.495  24.400  1.00  0.00     0.306 C 
ATOM      4  O   UNL A   1      34.132  22.554  25.408  1.00  0.00    -0.252 OA
BRANCH   3   5
ATOM      5  C   UNL A   1      34.535  23.342  23.163  1.00  0.00     0.126 C 
BRANCH   5   6
ATOM      6  C   UNL A   1      33.132  23.864  22.831  1.00  0.00     0.053 C 
BRANCH   6   7
ATOM      7  C   UNL A   1      32.890  25.063  21.892  1.00  0.00     0.232 C 
BRANCH   7   8
ATOM      8  O   UNL A   1      33.238  26.392  22.277  1.00  0.00    -0.477 OA
BRANCH   8   9
ATOM      9  C   UNL A   1      32.386  27.100  23.049  1.00  0.00     0.235 A 
ATOM     10  C   UNL A   1      33.063  30.724  27.094  1.00  0.00     0.067 C 
ATOM     11  C   UNL A   1      32.657  29.499  26.323  1.00  0.00     0.039 A 
ATOM     12  C   UNL A   1      33.346  28.305  26.506  1.00  0.00     0.027 A 
ATOM     13  N   UNL A   1      31.673  29.643  25.421  1.00  0.00    -0.240 NA
ATOM     14  C   UNL A   1      33.268  27.264  25.555  1.00  0.00    -0.034 A 
ATOM     15  C   UNL A   1      31.634  28.654  24.510  1.00  0.00     0.147 A 
ATOM     16  C   UNL A   1      34.047  25.994  25.771  1.00  0.00     0.045 C 
ATOM     17  C   UNL A   1      32.484  27.552  24.412  1.00  0.00     0.078 A 
ATOM     18  S   UNL A   1      30.504  28.619  23.240  1.00  0.00    -0.012 S 
ATOM     19  N   UNL A   1      31.286  27.441  22.375  1.00  0.00    -0.153 NA
ENDBRANCH   8   9
ENDBRANCH   7   8
ENDBRANCH   6   7
ENDBRANCH   5   6
ENDBRANCH   3   5
ENDBRANCH   2   3
ENDBRANCH   1   2
BRANCH   1  20
ATOM     20  C   UNL A   1      37.965  21.058  25.324  1.00  0.00     0.275 C 
BRANCH  20  21
ATOM     21  O   UNL A   1      39.195  21.595  25.785  1.00  0.00    -0.458 OA
BRANCH  21  22
ATOM     22  C   UNL A   1      40.151  20.642  25.929  1.00  0.00     0.338 C 
ATOM     23  O   UNL A   1      40.026  19.471  25.703  1.00  0.00    -0.246 OA
BRANCH  22  24
ATOM     24  C   UNL A   1      41.361  21.323  26.438  1.00  0.00     0.060 A 
ATOM     25  C   UNL A   1      41.659  21.088  27.773  1.00  0.00     0.016 A 
ATOM     26  C   UNL A   1      41.914  22.391  25.709  1.00  0.00     0.016 A 
ATOM     27  C   UNL A   1      42.144  22.157  28.478  1.00  0.00     0.010 A 
ATOM     28  C   UNL A   1      42.397  23.453  26.409  1.00  0.00     0.010 A 
ATOM     29  C   UNL A   1      42.338  23.358  27.788  1.00  0.00    -0.014 A 
BRANCH  29  30
ATOM     30  C   UNL A   1      42.405  24.568  28.559  1.00  0.00     0.031 A 
ATOM     31  C   UNL A   1      41.281  25.459  28.269  1.00  0.00     0.074 A 
ATOM     32  C   UNL A   1      43.380  24.779  29.462  1.00  0.00     0.049 A 
ATOM     33  N   UNL A   1      41.294  26.480  27.482  1.00  0.00    -0.248 NA
ATOM     34  C   UNL A   1      39.947  25.015  28.691  1.00  0.00     0.031 C 
ATOM     35  C   UNL A   1      44.348  23.826  30.017  1.00  0.00     0.029 A 
ATOM     36  N   UNL A   1      43.620  25.907  30.171  1.00  0.00    -0.354 N 
ATOM     37  C   UNL A   1      39.995  26.959  27.533  1.00  0.00     0.074 A 
ATOM     38  C   UNL A   1      39.178  25.887  28.040  1.00  0.00     0.031 C 
ATOM     39  C   UNL A   1      44.888  24.354  31.142  1.00  0.00     0.029 A 
ATOM     40  C   UNL A   1      44.415  25.719  31.294  1.00  0.00     0.049 A 
ATOM     41  H   UNL A   1      43.262  26.787  29.912  1.00  0.00     0.167 HD
ATOM     42  C   UNL A   1      39.742  28.291  27.480  1.00  0.00     0.034 A 
ATOM     43  C   UNL A   1      44.566  26.619  32.296  1.00  0.00     0.034 A 
ATOM     44  C   UNL A   1      40.888  29.037  27.028  1.00  0.00     0.049 A 
ATOM     45  C   UNL A   1      44.149  27.939  31.759  1.00  0.00     0.074 A 
ATOM     46  C   UNL A   1      41.652  29.053  25.879  1.00  0.00     0.029 A 
ATOM     47  N   UNL A   1      41.647  29.638  28.004  1.00  0.00    -0.354 N 
ATOM     48  N   UNL A   1      44.804  28.584  30.836  1.00  0.00    -0.248 NA
ATOM     49  C   UNL A   1      42.769  28.353  31.951  1.00  0.00     0.031 C 
ATOM     50  C   UNL A   1      42.988  29.287  26.319  1.00  0.00     0.029 A 
ATOM     51  C   UNL A   1      42.970  29.447  27.706  1.00  0.00     0.049 A 
ATOM     52  H   UNL A   1      41.297  30.125  28.786  1.00  0.00     0.167 HD
ATOM     53  C   UNL A   1      43.816  29.148  30.040  1.00  0.00     0.074 A 
ATOM     54  C   UNL A   1      42.598  29.082  30.844  1.00  0.00     0.031 C 
ATOM     55  C   UNL A   1      44.020  29.338  28.702  1.00  0.00     0.034 A 
BRANCH  42  56
ATOM     56  C   UNL A   1      38.590  28.934  28.199  1.00  0.00     0.023 A 
ATOM     57  C   UNL A   1      37.620  29.590  27.421  1.00  0.00     0.012 A 
ATOM     58  C   UNL A   1      38.526  29.115  29.601  1.00  0.00     0.148 A 
ATOM     59  C   UNL A   1      36.632  30.383  28.012  1.00  0.00     0.002 A 
ATOM     60  C   UNL A   1      37.481  29.810  30.190  1.00  0.00     0.091 A 
ATOM     61  F   UNL A   1      39.551  28.745  30.375  1.00  0.00    -0.205 F 
ATOM     62  C   UNL A   1      36.545  30.472  29.397  1.00  0.00     0.022 A 
BRANCH  60  63
ATOM     63  S   UNL A   1      37.290  29.863  31.974  1.00  0.00     0.127 S 
ATOM     64  O   UNL A   1      35.975  30.481  32.112  1.00  0.00    -0.237 OA
ATOM     65  O   UNL A   1      37.352  28.444  32.326  1.00  0.00    -0.237 OA
ATOM     66  O   UNL A   1      38.424  30.642  32.458  1.00  0.00    -0.744 OA
ENDBRANCH  60  63
ENDBRANCH  42  56
BRANCH  43  67
ATOM     67  C   UNL A   1      44.720  26.419  33.756  1.00  0.00     0.023 A 
ATOM     68  C   UNL A   1      45.911  26.856  34.374  1.00  0.00     0.012 A 
ATOM     69  C   UNL A   1      43.602  26.148  34.574  1.00  0.00     0.148 A 
ATOM     70  C   UNL A   1      45.966  27.088  35.751  1.00  0.00     0.002 A 
ATOM     71  C   UNL A   1      43.662  26.384  35.945  1.00  0.00     0.091 A 
ATOM     72  F   UNL A   1      42.456  25.764  33.997  1.00  0.00    -0.205 F 
ATOM     73  C   UNL A   1      44.837  26.870  36.535  1.00  0.00     0.022 A 
BRANCH  71  74
ATOM     74  S   UNL A   1      42.232  26.181  37.016  1.00  0.00     0.127 S 
ATOM     75  O   UNL A   1      42.820  26.352  38.345  1.00  0.00    -0.237 OA
ATOM     76  O   UNL A   1      41.373  27.278  36.580  1.00  0.00    -0.237 OA
ATOM     77  O   UNL A   1      41.729  24.838  36.753  1.00  0.00    -0.744 OA
ENDBRANCH  71  74
ENDBRANCH  43  67
BRANCH  55  78
ATOM     78  C   UNL A   1      45.430  29.177  28.181  1.00  0.00     0.023 A 
ATOM     79  C   UNL A   1      45.914  27.955  27.666  1.00  0.00     0.012 A 
ATOM     80  C   UNL A   1      46.238  30.320  28.073  1.00  0.00     0.148 A 
ATOM     81  C   UNL A   1      47.183  27.871  27.083  1.00  0.00     0.002 A 
ATOM     82  C   UNL A   1      47.477  30.245  27.447  1.00  0.00     0.091 A 
ATOM     83  F   UNL A   1      45.770  31.476  28.568  1.00  0.00    -0.205 F 
ATOM     84  C   UNL A   1      47.960  29.020  26.962  1.00  0.00     0.022 A 
BRANCH  82  85
ATOM     85  S   UNL A   1      48.459  31.715  27.145  1.00  0.00     0.127 S 
ATOM     86  O   UNL A   1      49.673  31.158  26.554  1.00  0.00    -0.237 OA
ATOM     87  O   UNL A   1      47.619  32.472  26.214  1.00  0.00    -0.237 OA
ATOM     88  O   UNL A   1      48.625  32.355  28.445  1.00  0.00    -0.744 OA
ENDBRANCH  82  85
ENDBRANCH  55  78
ENDBRANCH  29  30
ENDBRANCH  22  24
ENDBRANCH  21  22
ENDBRANCH  20  21
ENDBRANCH   1  20
TORSDOF 18
ENDMDL
MODEL 3
REMARK VINA RESULT:     -10.8      1.868      2.496
REMARK SMILES Cc1cc(C)c2c(OCCCC(=O)OCCOC(=O)c3ccc(-c4c5nc(c(-c6cccc(S(=O)(=O)[O-])c6F)c6ccc([nH]6)c(-c6cccc(S(=O)(=O)[O-])c6F)c6nc(c(-c7cccc(S(=O)(=O)[O-])c7F)c7ccc4[nH]7)C=C6)C=C5)cc3)nsc2n1
REMARK SMILES IDX 15 1 14 2 12 3 13 4 11 5 10 6 9 7 8 8 7 9 1 10 2 11 3 12
REMARK SMILES IDX 86 13 4 14 85 15 5 16 6 17 84 18 83 19 16 20 17 21 18 22
REMARK SMILES IDX 19 23 20 24 21 25 82 26 22 27 81 28 23 29 24 30 25 31 75 32
REMARK SMILES IDX 26 33 80 34 74 35 76 36 27 37 79 38 73 39 72 40 28 42 60 43
REMARK SMILES IDX 40 44 59 45 41 46 44 47 58 48 77 49 42 50 43 51 57 53 78 54
REMARK SMILES IDX 45 55 29 56 30 57 38 58 31 59 33 60 39 61 32 62 34 63 35 64
REMARK SMILES IDX 36 65 37 66 61 67 62 68 70 69 63 70 65 71 71 72 64 73 66 74
REMARK SMILES IDX 67 75 68 76 69 77 46 78 47 79 55 80 48 81 50 82 56 83 49 84
REMARK SMILES IDX 51 85 52 86 53 87 54 88
REMARK H PARENT 76 41 44 52
REMARK Flexibility Score: inf
ROOT
ATOM      1  C   UNL A   1      36.196  21.228  25.535  1.00  0.00     0.274 C 
ENDROOT
BRANCH   1   2
ATOM      2  O   UNL A   1      35.388  20.185  24.917  1.00  0.00    -0.462 OA
BRANCH   2   3
ATOM      3  C   UNL A   1      34.047  20.215  25.083  1.00  0.00     0.306 C 
ATOM      4  O   UNL A   1      33.338  19.217  24.986  1.00  0.00    -0.252 OA
BRANCH   3   5
ATOM      5  C   UNL A   1      33.455  21.611  25.265  1.00  0.00     0.126 C 
BRANCH   5   6
ATOM      6  C   UNL A   1      33.001  22.147  26.629  1.00  0.00     0.053 C 
BRANCH   6   7
ATOM      7  C   UNL A   1      31.628  22.813  26.847  1.00  0.00     0.232 C 
BRANCH   7   8
ATOM      8  O   UNL A   1      31.515  24.204  27.145  1.00  0.00    -0.477 OA
BRANCH   8   9
ATOM      9  C   UNL A   1      31.268  25.075  26.142  1.00  0.00     0.235 A 
ATOM     10  C   UNL A   1      32.753  25.310  20.880  1.00  0.00     0.067 C 
ATOM     11  C   UNL A   1      32.576  25.650  22.333  1.00  0.00     0.039 A 
ATOM     12  C   UNL A   1      33.636  25.487  23.219  1.00  0.00     0.027 A 
ATOM     13  N   UNL A   1      31.351  26.034  22.726  1.00  0.00    -0.240 NA
ATOM     14  C   UNL A   1      33.419  25.416  24.612  1.00  0.00    -0.034 A 
ATOM     15  C   UNL A   1      31.158  25.934  24.053  1.00  0.00     0.147 A 
ATOM     16  C   UNL A   1      34.586  25.212  25.541  1.00  0.00     0.045 C 
ATOM     17  C   UNL A   1      32.063  25.481  25.014  1.00  0.00     0.078 A 
ATOM     18  S   UNL A   1      29.681  26.325  24.799  1.00  0.00    -0.012 S 
ATOM     19  N   UNL A   1      30.048  25.605  26.246  1.00  0.00    -0.153 NA
ENDBRANCH   8   9
ENDBRANCH   7   8
ENDBRANCH   6   7
ENDBRANCH   5   6
ENDBRANCH   3   5
ENDBRANCH   2   3
ENDBRANCH   1   2
BRANCH   1  20
ATOM     20  C   UNL A   1      37.549  21.337  24.816  1.00  0.00     0.275 C 
BRANCH  20  21
ATOM     21  O   UNL A   1      38.620  21.527  25.728  1.00  0.00    -0.458 OA
BRANCH  21  22
ATOM     22  C   UNL A   1      39.486  20.481  25.729  1.00  0.00     0.338 C 
ATOM     23  O   UNL A   1      39.245  19.360  25.380  1.00  0.00    -0.246 OA
BRANCH  22  24
ATOM     24  C   UNL A   1      40.769  20.989  26.261  1.00  0.00     0.060 A 
ATOM     25  C   UNL A   1      41.027  20.679  27.589  1.00  0.00     0.016 A 
ATOM     26  C   UNL A   1      41.456  22.000  25.565  1.00  0.00     0.016 A 
ATOM     27  C   UNL A   1      41.638  21.657  28.327  1.00  0.00     0.010 A 
ATOM     28  C   UNL A   1      42.065  22.972  26.299  1.00  0.00     0.010 A 
ATOM     29  C   UNL A   1      41.986  22.844  27.675  1.00  0.00    -0.014 A 
BRANCH  29  30
ATOM     30  C   UNL A   1      42.199  24.012  28.482  1.00  0.00     0.031 A 
ATOM     31  C   UNL A   1      41.178  25.031  28.242  1.00  0.00     0.074 A 
ATOM     32  C   UNL A   1      43.206  24.083  29.372  1.00  0.00     0.049 A 
ATOM     33  N   UNL A   1      41.291  26.071  27.488  1.00  0.00    -0.248 NA
ATOM     34  C   UNL A   1      39.809  24.724  28.676  1.00  0.00     0.031 C 
ATOM     35  C   UNL A   1      44.071  23.010  29.877  1.00  0.00     0.029 A 
ATOM     36  N   UNL A   1      43.582  25.152  30.112  1.00  0.00    -0.354 N 
ATOM     37  C   UNL A   1      40.055  26.689  27.580  1.00  0.00     0.074 A 
ATOM     38  C   UNL A   1      39.132  25.698  28.068  1.00  0.00     0.031 C 
ATOM     39  C   UNL A   1      44.684  23.436  31.007  1.00  0.00     0.029 A 
ATOM     40  C   UNL A   1      44.369  24.840  31.213  1.00  0.00     0.049 A 
ATOM     41  H   UNL A   1      43.320  26.075  29.888  1.00  0.00     0.167 HD
ATOM     42  C   UNL A   1      39.952  28.042  27.573  1.00  0.00     0.034 A 
ATOM     43  C   UNL A   1      44.635  25.683  32.239  1.00  0.00     0.034 A 
ATOM     44  C   UNL A   1      41.166  28.671  27.123  1.00  0.00     0.049 A 
ATOM     45  C   UNL A   1      44.359  27.059  31.752  1.00  0.00     0.074 A 
ATOM     46  C   UNL A   1      41.909  28.641  25.960  1.00  0.00     0.029 A 
ATOM     47  N   UNL A   1      42.003  29.151  28.103  1.00  0.00    -0.354 N 
ATOM     48  N   UNL A   1      45.067  27.658  30.838  1.00  0.00    -0.248 NA
ATOM     49  C   UNL A   1      43.037  27.617  31.985  1.00  0.00     0.031 C 
ATOM     50  C   UNL A   1      43.269  28.710  26.382  1.00  0.00     0.029 A 
ATOM     51  C   UNL A   1      43.292  28.824  27.774  1.00  0.00     0.049 A 
ATOM     52  H   UNL A   1      41.722  29.647  28.907  1.00  0.00     0.167 HD
ATOM     53  C   UNL A   1      44.136  28.354  30.079  1.00  0.00     0.074 A 
ATOM     54  C   UNL A   1      42.932  28.397  30.905  1.00  0.00     0.031 C 
ATOM     55  C   UNL A   1      44.338  28.566  28.745  1.00  0.00     0.034 A 
BRANCH  42  56
ATOM     56  C   UNL A   1      38.890  28.784  28.335  1.00  0.00     0.023 A 
ATOM     57  C   UNL A   1      38.069  29.671  27.614  1.00  0.00     0.012 A 
ATOM     58  C   UNL A   1      38.800  28.822  29.747  1.00  0.00     0.148 A 
ATOM     59  C   UNL A   1      37.199  30.546  28.270  1.00  0.00     0.002 A 
ATOM     60  C   UNL A   1      37.858  29.611  30.387  1.00  0.00     0.091 A 
ATOM     61  F   UNL A   1      39.721  28.208  30.497  1.00  0.00    -0.205 F 
ATOM     62  C   UNL A   1      37.073  30.499  29.654  1.00  0.00     0.022 A 
BRANCH  60  63
ATOM     63  S   UNL A   1      37.607  29.504  32.162  1.00  0.00     0.127 S 
ATOM     64  O   UNL A   1      38.774  30.219  32.668  1.00  0.00    -0.237 OA
ATOM     65  O   UNL A   1      36.331  30.199  32.328  1.00  0.00    -0.237 OA
ATOM     66  O   UNL A   1      37.546  28.077  32.455  1.00  0.00    -0.744 OA
ENDBRANCH  60  63
ENDBRANCH  42  56
BRANCH  43  67
ATOM     67  C   UNL A   1      44.789  25.419  33.689  1.00  0.00     0.023 A 
ATOM     68  C   UNL A   1      43.647  25.053  34.432  1.00  0.00     0.012 A 
ATOM     69  C   UNL A   1      46.060  25.174  34.251  1.00  0.00     0.148 A 
ATOM     70  C   UNL A   1      43.765  24.398  35.661  1.00  0.00     0.002 A 
ATOM     71  C   UNL A   1      46.172  24.518  35.474  1.00  0.00     0.091 A 
ATOM     72  F   UNL A   1      47.152  25.486  33.542  1.00  0.00    -0.205 F 
ATOM     73  C   UNL A   1      45.027  24.113  36.174  1.00  0.00     0.022 A 
BRANCH  71  74
ATOM     74  S   UNL A   1      47.764  24.065  36.177  1.00  0.00     0.127 S 
ATOM     75  O   UNL A   1      48.463  25.351  36.202  1.00  0.00    -0.237 OA
ATOM     76  O   UNL A   1      47.377  23.554  37.489  1.00  0.00    -0.237 OA
ATOM     77  O   UNL A   1      48.338  23.090  35.259  1.00  0.00    -0.744 OA
ENDBRANCH  71  74
ENDBRANCH  43  67
BRANCH  55  78
ATOM     78  C   UNL A   1      45.714  28.267  28.192  1.00  0.00     0.023 A 
ATOM     79  C   UNL A   1      46.787  29.179  28.291  1.00  0.00     0.012 A 
ATOM     80  C   UNL A   1      45.969  26.979  27.692  1.00  0.00     0.148 A 
ATOM     81  C   UNL A   1      48.074  28.824  27.877  1.00  0.00     0.002 A 
ATOM     82  C   UNL A   1      47.259  26.612  27.329  1.00  0.00     0.091 A 
ATOM     83  F   UNL A   1      44.942  26.120  27.600  1.00  0.00    -0.205 F 
ATOM     84  C   UNL A   1      48.314  27.535  27.408  1.00  0.00     0.022 A 
BRANCH  82  85
ATOM     85  S   UNL A   1      47.649  24.929  26.846  1.00  0.00     0.127 S 
ATOM     86  O   UNL A   1      47.512  24.986  25.393  1.00  0.00    -0.237 OA
ATOM     87  O   UNL A   1      49.024  24.772  27.325  1.00  0.00    -0.237 OA
ATOM     88  O   UNL A   1      46.682  24.085  27.539  1.00  0.00    -0.744 OA
ENDBRANCH  82  85
ENDBRANCH  55  78
ENDBRANCH  29  30
ENDBRANCH  22  24
ENDBRANCH  21  22
ENDBRANCH  20  21
ENDBRANCH   1  20
TORSDOF 18
ENDMDL
