MODEL 1
REMARK VINA RESULT:     -11.5      0.000      0.000
REMARK SMILES Cn1nc(N2CCC(CC(=O)OCCOC(=O)c3ccc(-c4c5nc(c(-c6cccc(S(=O)(=O)[O-])c6F)c6ccc([nH]6)c(-c6cccc(S(=O)(=O)[O-])c6F)c6nc(c(-c7cccc(S(=O)(=O)[O-])c7F)c7ccc4[nH]7)C=C6)C=C5)cc3)CC2)c(=O)n(C)c1=O
REMARK SMILES IDX 14 1 13 2 12 3 10 4 11 5 9 6 8 7 5 8 6 9 82 10 7 11 81 12
REMARK SMILES IDX 4 13 1 14 2 15 3 16 87 17 85 18 88 19 83 20 86 21 84 22
REMARK SMILES IDX 15 23 16 24 17 25 18 26 19 27 80 28 20 29 79 30 21 31 22 32
REMARK SMILES IDX 23 33 73 34 24 35 78 36 72 37 74 38 25 39 77 40 71 41 70 42
REMARK SMILES IDX 26 44 58 45 38 46 57 47 39 48 42 49 56 50 75 51 40 52 41 53
REMARK SMILES IDX 55 55 76 56 43 57 27 58 28 59 36 60 29 61 31 62 37 63 30 64
REMARK SMILES IDX 32 65 33 66 34 67 35 68 59 69 60 70 68 71 61 72 63 73 69 74
REMARK SMILES IDX 62 75 64 76 65 77 66 78 67 79 44 80 45 81 53 82 46 83 48 84
REMARK SMILES IDX 54 85 47 86 49 87 50 88 51 89 52 90
REMARK H PARENT 74 43 42 54
REMARK Flexibility Score: inf
ROOT
ATOM      1  C   UNL A   1      36.493  20.432  25.061  1.00  0.00     0.275 C 
ENDROOT
BRANCH   1   2
ATOM      2  C   UNL A   1      35.158  21.096  25.401  1.00  0.00     0.274 C 
BRANCH   2   3
ATOM      3  O   UNL A   1      34.052  20.308  24.921  1.00  0.00    -0.462 OA
BRANCH   3   4
ATOM      4  C   UNL A   1      33.211  20.898  24.037  1.00  0.00     0.306 C 
ATOM      5  O   UNL A   1      32.255  20.345  23.508  1.00  0.00    -0.252 OA
BRANCH   4   6
ATOM      6  C   UNL A   1      33.619  22.318  23.694  1.00  0.00     0.126 C 
BRANCH   6   7
ATOM      7  C   UNL A   1      32.555  23.201  23.017  1.00  0.00     0.003 C 
ATOM      8  N   UNL A   1      31.271  25.790  22.870  1.00  0.00    -0.351 N 
ATOM      9  C   UNL A   1      30.520  24.664  23.400  1.00  0.00     0.118 C 
ATOM     10  C   UNL A   1      32.214  25.443  21.813  1.00  0.00     0.118 C 
ATOM     11  C   UNL A   1      31.474  23.653  24.018  1.00  0.00     0.026 C 
ATOM     12  C   UNL A   1      33.228  24.431  22.361  1.00  0.00     0.026 C 
BRANCH   8  13
ATOM     13  C   UNL A   1      31.389  26.971  23.587  1.00  0.00     0.215 A 
ATOM     14  C   UNL A   1      33.135  28.223  26.462  1.00  0.00     0.180 C 
ATOM     15  N   UNL A   1      32.186  28.203  25.363  1.00  0.00    -0.216 N 
ATOM     16  N   UNL A   1      32.122  27.032  24.661  1.00  0.00    -0.145 NA
ATOM     17  C   UNL A   1      31.444  29.346  25.083  1.00  0.00     0.346 A 
ATOM     18  N   UNL A   1      30.615  29.280  23.982  1.00  0.00    -0.259 N 
ATOM     19  O   UNL A   1      31.537  30.364  25.774  1.00  0.00    -0.246 OA
ATOM     20  C   UNL A   1      30.597  28.200  23.124  1.00  0.00     0.299 A 
ATOM     21  C   UNL A   1      29.764  30.402  23.651  1.00  0.00     0.159 C 
ATOM     22  O   UNL A   1      29.974  28.162  22.068  1.00  0.00    -0.265 OA
ENDBRANCH   8  13
ENDBRANCH   6   7
ENDBRANCH   4   6
ENDBRANCH   3   4
ENDBRANCH   2   3
ENDBRANCH   1   2
BRANCH   1  23
ATOM     23  O   UNL A   1      37.564  21.391  25.081  1.00  0.00    -0.458 OA
BRANCH  23  24
ATOM     24  C   UNL A   1      38.655  21.030  25.797  1.00  0.00     0.338 C 
ATOM     25  O   UNL A   1      39.109  19.908  25.939  1.00  0.00    -0.246 OA
BRANCH  24  26
ATOM     26  C   UNL A   1      39.314  22.241  26.303  1.00  0.00     0.060 A 
ATOM     27  C   UNL A   1      38.849  23.485  25.867  1.00  0.00     0.016 A 
ATOM     28  C   UNL A   1      40.415  22.149  27.156  1.00  0.00     0.016 A 
ATOM     29  C   UNL A   1      39.489  24.650  26.284  1.00  0.00     0.010 A 
ATOM     30  C   UNL A   1      41.053  23.319  27.575  1.00  0.00     0.010 A 
ATOM     31  C   UNL A   1      40.602  24.575  27.133  1.00  0.00    -0.014 A 
BRANCH  31  32
ATOM     32  C   UNL A   1      41.316  25.810  27.530  1.00  0.00     0.031 A 
ATOM     33  C   UNL A   1      40.599  26.864  28.324  1.00  0.00     0.074 A 
ATOM     34  C   UNL A   1      42.606  25.980  27.180  1.00  0.00     0.049 A 
ATOM     35  N   UNL A   1      41.031  28.030  28.726  1.00  0.00    -0.248 NA
ATOM     36  C   UNL A   1      39.213  26.565  28.723  1.00  0.00     0.031 C 
ATOM     37  C   UNL A   1      43.407  25.013  26.430  1.00  0.00     0.029 A 
ATOM     38  N   UNL A   1      43.462  27.027  27.401  1.00  0.00    -0.354 N 
ATOM     39  C   UNL A   1      39.971  28.614  29.408  1.00  0.00     0.074 A 
ATOM     40  C   UNL A   1      38.867  27.680  29.353  1.00  0.00     0.031 C 
ATOM     41  C   UNL A   1      44.641  25.513  26.253  1.00  0.00     0.029 A 
ATOM     42  C   UNL A   1      44.707  26.847  26.844  1.00  0.00     0.049 A 
ATOM     43  H   UNL A   1      43.211  27.832  27.910  1.00  0.00     0.167 HD
ATOM     44  C   UNL A   1      39.931  29.809  30.042  1.00  0.00     0.034 A 
ATOM     45  C   UNL A   1      45.774  27.671  26.805  1.00  0.00     0.034 A 
ATOM     46  C   UNL A   1      41.038  30.724  30.109  1.00  0.00     0.049 A 
ATOM     47  C   UNL A   1      45.682  29.016  27.474  1.00  0.00     0.074 A 
ATOM     48  C   UNL A   1      41.095  31.960  30.729  1.00  0.00     0.029 A 
ATOM     49  N   UNL A   1      42.284  30.505  29.540  1.00  0.00    -0.354 N 
ATOM     50  N   UNL A   1      44.696  29.525  28.173  1.00  0.00    -0.248 NA
ATOM     51  C   UNL A   1      46.856  29.895  27.367  1.00  0.00     0.031 C 
ATOM     52  C   UNL A   1      42.371  32.492  30.526  1.00  0.00     0.029 A 
ATOM     53  C   UNL A   1      43.115  31.582  29.793  1.00  0.00     0.049 A 
ATOM     54  H   UNL A   1      42.539  29.701  29.032  1.00  0.00     0.167 HD
ATOM     55  C   UNL A   1      45.139  30.767  28.614  1.00  0.00     0.074 A 
ATOM     56  C   UNL A   1      46.492  30.926  28.120  1.00  0.00     0.031 C 
ATOM     57  C   UNL A   1      44.479  31.700  29.343  1.00  0.00     0.034 A 
BRANCH  44  58
ATOM     58  C   UNL A   1      38.662  30.181  30.762  1.00  0.00     0.023 A 
ATOM     59  C   UNL A   1      38.502  29.803  32.110  1.00  0.00     0.012 A 
ATOM     60  C   UNL A   1      37.672  30.967  30.141  1.00  0.00     0.148 A 
ATOM     61  C   UNL A   1      37.369  30.186  32.825  1.00  0.00     0.002 A 
ATOM     62  C   UNL A   1      36.562  31.377  30.872  1.00  0.00     0.091 A 
ATOM     63  F   UNL A   1      37.833  31.297  28.852  1.00  0.00    -0.205 F 
ATOM     64  C   UNL A   1      36.406  30.981  32.210  1.00  0.00     0.022 A 
BRANCH  62  65
ATOM     65  S   UNL A   1      35.300  32.462  30.195  1.00  0.00     0.127 S 
ATOM     66  O   UNL A   1      36.087  33.643  29.839  1.00  0.00    -0.237 OA
ATOM     67  O   UNL A   1      34.808  31.690  29.055  1.00  0.00    -0.237 OA
ATOM     68  O   UNL A   1      34.327  32.662  31.261  1.00  0.00    -0.744 OA
ENDBRANCH  62  65
ENDBRANCH  44  58
BRANCH  45  69
ATOM     69  C   UNL A   1      47.039  27.217  26.160  1.00  0.00     0.023 A 
ATOM     70  C   UNL A   1      47.261  27.515  24.802  1.00  0.00     0.012 A 
ATOM     71  C   UNL A   1      48.039  26.537  26.884  1.00  0.00     0.148 A 
ATOM     72  C   UNL A   1      48.445  27.131  24.171  1.00  0.00     0.002 A 
ATOM     73  C   UNL A   1      49.239  26.207  26.266  1.00  0.00     0.091 A 
ATOM     74  F   UNL A   1      47.801  26.241  28.170  1.00  0.00    -0.205 F 
ATOM     75  C   UNL A   1      49.439  26.490  24.906  1.00  0.00     0.022 A 
BRANCH  73  76
ATOM     76  S   UNL A   1      50.624  25.500  27.167  1.00  0.00     0.127 S 
ATOM     77  O   UNL A   1      50.899  26.540  28.156  1.00  0.00    -0.237 OA
ATOM     78  O   UNL A   1      50.040  24.273  27.710  1.00  0.00    -0.237 OA
ATOM     79  O   UNL A   1      51.665  25.279  26.174  1.00  0.00    -0.744 OA
ENDBRANCH  73  76
ENDBRANCH  45  69
BRANCH  57  80
ATOM     80  C   UNL A   1      45.203  32.980  29.672  1.00  0.00     0.023 A 
ATOM     81  C   UNL A   1      45.978  33.055  30.846  1.00  0.00     0.012 A 
ATOM     82  C   UNL A   1      45.208  34.061  28.768  1.00  0.00     0.148 A 
ATOM     83  C   UNL A   1      46.732  34.193  31.125  1.00  0.00     0.002 A 
ATOM     84  C   UNL A   1      45.999  35.174  29.030  1.00  0.00     0.091 A 
ATOM     85  F   UNL A   1      44.451  33.977  27.664  1.00  0.00    -0.205 F 
ATOM     86  C   UNL A   1      46.754  35.245  30.212  1.00  0.00     0.022 A 
BRANCH  84  87
ATOM     87  S   UNL A   1      46.168  36.533  27.866  1.00  0.00     0.127 S 
ATOM     88  O   UNL A   1      44.803  37.051  27.813  1.00  0.00    -0.237 OA
ATOM     89  O   UNL A   1      47.127  37.406  28.543  1.00  0.00    -0.237 OA
ATOM     90  O   UNL A   1      46.661  35.941  26.629  1.00  0.00    -0.744 OA
ENDBRANCH  84  87
ENDBRANCH  57  80
ENDBRANCH  31  32
ENDBRANCH  24  26
ENDBRANCH  23  24
ENDBRANCH   1  23
TORSDOF 16
ENDMDL
MODEL 2
REMARK VINA RESULT:     -11.5      4.713      9.972
REMARK SMILES Cn1nc(N2CCC(CC(=O)OCCOC(=O)c3ccc(-c4c5nc(c(-c6cccc(S(=O)(=O)[O-])c6F)c6ccc([nH]6)c(-c6cccc(S(=O)(=O)[O-])c6F)c6nc(c(-c7cccc(S(=O)(=O)[O-])c7F)c7ccc4[nH]7)C=C6)C=C5)cc3)CC2)c(=O)n(C)c1=O
REMARK SMILES IDX 14 1 13 2 12 3 10 4 11 5 9 6 8 7 5 8 6 9 82 10 7 11 81 12
REMARK SMILES IDX 4 13 1 14 2 15 3 16 87 17 85 18 88 19 83 20 86 21 84 22
REMARK SMILES IDX 15 23 16 24 17 25 18 26 19 27 80 28 20 29 79 30 21 31 22 32
REMARK SMILES IDX 23 33 73 34 24 35 78 36 72 37 74 38 25 39 77 40 71 41 70 42
REMARK SMILES IDX 26 44 58 45 38 46 57 47 39 48 42 49 56 50 75 51 40 52 41 53
REMARK SMILES IDX 55 55 76 56 43 57 27 58 28 59 36 60 29 61 31 62 37 63 30 64
REMARK SMILES IDX 32 65 33 66 34 67 35 68 59 69 60 70 68 71 61 72 63 73 69 74
REMARK SMILES IDX 62 75 64 76 65 77 66 78 67 79 44 80 45 81 53 82 46 83 48 84
REMARK SMILES IDX 54 85 47 86 49 87 50 88 51 89 52 90
REMARK H PARENT 74 43 42 54
REMARK Flexibility Score: inf
ROOT
ATOM      1  C   UNL A   1      32.890  29.703  24.867  1.00  0.00     0.275 C 
ENDROOT
BRANCH   1   2
ATOM      2  C   UNL A   1      32.533  28.298  24.379  1.00  0.00     0.274 C 
BRANCH   2   3
ATOM      3  O   UNL A   1      31.391  28.329  23.503  1.00  0.00    -0.462 OA
BRANCH   3   4
ATOM      4  C   UNL A   1      30.313  27.593  23.866  1.00  0.00     0.306 C 
ATOM      5  O   UNL A   1      29.209  27.666  23.342  1.00  0.00    -0.252 OA
BRANCH   4   6
ATOM      6  C   UNL A   1      30.584  26.704  25.065  1.00  0.00     0.126 C 
BRANCH   6   7
ATOM      7  C   UNL A   1      30.346  25.195  24.878  1.00  0.00     0.003 C 
ATOM      8  N   UNL A   1      31.485  22.536  24.822  1.00  0.00    -0.351 N 
ATOM      9  C   UNL A   1      31.028  23.129  23.576  1.00  0.00     0.118 C 
ATOM     10  C   UNL A   1      30.699  22.909  25.993  1.00  0.00     0.118 C 
ATOM     11  C   UNL A   1      31.118  24.646  23.664  1.00  0.00     0.026 C 
ATOM     12  C   UNL A   1      30.751  24.433  26.163  1.00  0.00     0.026 C 
BRANCH   8  13
ATOM     13  C   UNL A   1      32.771  22.031  24.943  1.00  0.00     0.215 A 
ATOM     14  C   UNL A   1      36.117  23.244  25.407  1.00  0.00     0.180 C 
ATOM     15  N   UNL A   1      35.051  22.295  25.138  1.00  0.00    -0.216 N 
ATOM     16  N   UNL A   1      33.795  22.827  25.058  1.00  0.00    -0.145 NA
ATOM     17  C   UNL A   1      35.359  20.945  25.010  1.00  0.00     0.346 A 
ATOM     18  N   UNL A   1      34.290  20.091  24.826  1.00  0.00    -0.259 N 
ATOM     19  O   UNL A   1      36.522  20.537  25.072  1.00  0.00    -0.246 OA
ATOM     20  C   UNL A   1      32.978  20.513  24.885  1.00  0.00     0.299 A 
ATOM     21  C   UNL A   1      34.523  18.677  24.626  1.00  0.00     0.159 C 
ATOM     22  O   UNL A   1      32.006  19.765  24.860  1.00  0.00    -0.265 OA
ENDBRANCH   8  13
ENDBRANCH   6   7
ENDBRANCH   4   6
ENDBRANCH   3   4
ENDBRANCH   2   3
ENDBRANCH   1   2
BRANCH   1  23
ATOM     23  O   UNL A   1      32.484  29.891  26.233  1.00  0.00    -0.458 OA
BRANCH  23  24
ATOM     24  C   UNL A   1      32.929  31.027  26.821  1.00  0.00     0.338 C 
ATOM     25  O   UNL A   1      32.351  32.096  26.897  1.00  0.00    -0.246 OA
BRANCH  24  26
ATOM     26  C   UNL A   1      34.208  30.747  27.488  1.00  0.00     0.060 A 
ATOM     27  C   UNL A   1      34.442  29.455  27.964  1.00  0.00     0.016 A 
ATOM     28  C   UNL A   1      35.142  31.764  27.690  1.00  0.00     0.016 A 
ATOM     29  C   UNL A   1      35.621  29.172  28.652  1.00  0.00     0.010 A 
ATOM     30  C   UNL A   1      36.325  31.477  28.377  1.00  0.00     0.010 A 
ATOM     31  C   UNL A   1      36.566  30.184  28.872  1.00  0.00    -0.014 A 
BRANCH  31  32
ATOM     32  C   UNL A   1      37.792  29.896  29.652  1.00  0.00     0.031 A 
ATOM     33  C   UNL A   1      38.836  28.976  29.087  1.00  0.00     0.074 A 
ATOM     34  C   UNL A   1      37.965  30.464  30.860  1.00  0.00     0.049 A 
ATOM     35  N   UNL A   1      39.951  28.562  29.630  1.00  0.00    -0.248 NA
ATOM     36  C   UNL A   1      38.598  28.455  27.731  1.00  0.00     0.031 C 
ATOM     37  C   UNL A   1      37.029  31.392  31.495  1.00  0.00     0.029 A 
ATOM     38  N   UNL A   1      38.984  30.338  31.770  1.00  0.00    -0.354 N 
ATOM     39  C   UNL A   1      40.539  27.720  28.695  1.00  0.00     0.074 A 
ATOM     40  C   UNL A   1      39.651  27.668  27.554  1.00  0.00     0.031 C 
ATOM     41  C   UNL A   1      37.517  31.752  32.694  1.00  0.00     0.029 A 
ATOM     42  C   UNL A   1      38.780  31.055  32.927  1.00  0.00     0.049 A 
ATOM     43  H   UNL A   1      39.785  29.788  31.612  1.00  0.00     0.167 HD
ATOM     44  C   UNL A   1      41.724  27.070  28.772  1.00  0.00     0.034 A 
ATOM     45  C   UNL A   1      39.521  31.129  34.050  1.00  0.00     0.034 A 
ATOM     46  C   UNL A   1      42.611  27.141  29.901  1.00  0.00     0.049 A 
ATOM     47  C   UNL A   1      40.808  30.353  34.128  1.00  0.00     0.074 A 
ATOM     48  C   UNL A   1      43.835  26.518  30.073  1.00  0.00     0.029 A 
ATOM     49  N   UNL A   1      42.375  27.882  31.050  1.00  0.00    -0.354 N 
ATOM     50  N   UNL A   1      41.384  29.615  33.209  1.00  0.00    -0.248 NA
ATOM     51  C   UNL A   1      41.560  30.432  35.390  1.00  0.00     0.031 C 
ATOM     52  C   UNL A   1      44.333  26.873  31.330  1.00  0.00     0.029 A 
ATOM     53  C   UNL A   1      43.428  27.729  31.935  1.00  0.00     0.049 A 
ATOM     54  H   UNL A   1      41.576  28.434  31.211  1.00  0.00     0.167 HD
ATOM     55  C   UNL A   1      42.577  29.168  33.767  1.00  0.00     0.074 A 
ATOM     56  C   UNL A   1      42.652  29.735  35.099  1.00  0.00     0.031 C 
ATOM     57  C   UNL A   1      43.514  28.346  33.235  1.00  0.00     0.034 A 
BRANCH  44  58
ATOM     58  C   UNL A   1      42.160  26.259  27.581  1.00  0.00     0.023 A 
ATOM     59  C   UNL A   1      42.984  26.859  26.607  1.00  0.00     0.012 A 
ATOM     60  C   UNL A   1      41.830  24.895  27.463  1.00  0.00     0.148 A 
ATOM     61  C   UNL A   1      43.459  26.119  25.525  1.00  0.00     0.002 A 
ATOM     62  C   UNL A   1      42.338  24.154  26.402  1.00  0.00     0.091 A 
ATOM     63  F   UNL A   1      41.027  24.350  28.388  1.00  0.00    -0.205 F 
ATOM     64  C   UNL A   1      43.145  24.766  25.429  1.00  0.00     0.022 A 
BRANCH  62  65
ATOM     65  S   UNL A   1      42.053  22.389  26.225  1.00  0.00     0.127 S 
ATOM     66  O   UNL A   1      42.797  22.092  25.001  1.00  0.00    -0.237 OA
ATOM     67  O   UNL A   1      42.652  21.856  27.448  1.00  0.00    -0.237 OA
ATOM     68  O   UNL A   1      40.609  22.221  26.131  1.00  0.00    -0.744 OA
ENDBRANCH  62  65
ENDBRANCH  44  58
BRANCH  45  69
ATOM     69  C   UNL A   1      39.092  32.021  35.166  1.00  0.00     0.023 A 
ATOM     70  C   UNL A   1      38.181  31.532  36.121  1.00  0.00     0.012 A 
ATOM     71  C   UNL A   1      39.608  33.323  35.314  1.00  0.00     0.148 A 
ATOM     72  C   UNL A   1      37.777  32.328  37.195  1.00  0.00     0.002 A 
ATOM     73  C   UNL A   1      39.246  34.091  36.415  1.00  0.00     0.091 A 
ATOM     74  F   UNL A   1      40.457  33.781  34.382  1.00  0.00    -0.205 F 
ATOM     75  C   UNL A   1      38.320  33.601  37.349  1.00  0.00     0.022 A 
BRANCH  73  76
ATOM     76  S   UNL A   1      39.995  35.686  36.765  1.00  0.00     0.127 S 
ATOM     77  O   UNL A   1      41.408  35.333  36.887  1.00  0.00    -0.237 OA
ATOM     78  O   UNL A   1      39.653  36.453  35.567  1.00  0.00    -0.237 OA
ATOM     79  O   UNL A   1      39.354  36.161  37.983  1.00  0.00    -0.744 OA
ENDBRANCH  73  76
ENDBRANCH  45  69
BRANCH  57  80
ATOM     80  C   UNL A   1      44.718  28.011  34.076  1.00  0.00     0.023 A 
ATOM     81  C   UNL A   1      45.844  28.856  34.043  1.00  0.00     0.012 A 
ATOM     82  C   UNL A   1      44.690  26.929  34.980  1.00  0.00     0.148 A 
ATOM     83  C   UNL A   1      46.932  28.621  34.882  1.00  0.00     0.002 A 
ATOM     84  C   UNL A   1      45.759  26.728  35.845  1.00  0.00     0.091 A 
ATOM     85  F   UNL A   1      43.616  26.126  34.984  1.00  0.00    -0.205 F 
ATOM     86  C   UNL A   1      46.884  27.567  35.792  1.00  0.00     0.022 A 
BRANCH  84  87
ATOM     87  S   UNL A   1      45.744  25.458  37.118  1.00  0.00     0.127 S 
ATOM     88  O   UNL A   1      45.625  24.239  36.320  1.00  0.00    -0.237 OA
ATOM     89  O   UNL A   1      47.045  25.645  37.760  1.00  0.00    -0.237 OA
ATOM     90  O   UNL A   1      44.602  25.761  37.971  1.00  0.00    -0.744 OA
ENDBRANCH  84  87
ENDBRANCH  57  80
ENDBRANCH  31  32
ENDBRANCH  24  26
ENDBRANCH  23  24
ENDBRANCH   1  23
TORSDOF 16
ENDMDL
MODEL 3
REMARK VINA RESULT:     -11.4      1.514      7.707
REMARK SMILES Cn1nc(N2CCC(CC(=O)OCCOC(=O)c3ccc(-c4c5nc(c(-c6cccc(S(=O)(=O)[O-])c6F)c6ccc([nH]6)c(-c6cccc(S(=O)(=O)[O-])c6F)c6nc(c(-c7cccc(S(=O)(=O)[O-])c7F)c7ccc4[nH]7)C=C6)C=C5)cc3)CC2)c(=O)n(C)c1=O
REMARK SMILES IDX 14 1 13 2 12 3 10 4 11 5 9 6 8 7 5 8 6 9 82 10 7 11 81 12
REMARK SMILES IDX 4 13 1 14 2 15 3 16 87 17 85 18 88 19 83 20 86 21 84 22
REMARK SMILES IDX 15 23 16 24 17 25 18 26 19 27 80 28 20 29 79 30 21 31 22 32
REMARK SMILES IDX 23 33 73 34 24 35 78 36 72 37 74 38 25 39 77 40 71 41 70 42
REMARK SMILES IDX 26 44 58 45 38 46 57 47 39 48 42 49 56 50 75 51 40 52 41 53
REMARK SMILES IDX 55 55 76 56 43 57 27 58 28 59 36 60 29 61 31 62 37 63 30 64
REMARK SMILES IDX 32 65 33 66 34 67 35 68 59 69 60 70 68 71 61 72 63 73 69 74
REMARK SMILES IDX 62 75 64 76 65 77 66 78 67 79 44 80 45 81 53 82 46 83 48 84
REMARK SMILES IDX 54 85 47 86 49 87 50 88 51 89 52 90
REMARK H PARENT 74 43 42 54
REMARK Flexibility Score: inf
ROOT
ATOM      1  C   UNL A   1      36.803  20.263  25.002  1.00  0.00     0.275 C 
ENDROOT
BRANCH   1   2
ATOM      2  C   UNL A   1      35.385  20.665  25.412  1.00  0.00     0.274 C 
BRANCH   2   3
ATOM      3  O   UNL A   1      34.401  19.966  24.625  1.00  0.00    -0.462 OA
BRANCH   3   4
ATOM      4  C   UNL A   1      33.109  20.345  24.775  1.00  0.00     0.306 C 
ATOM      5  O   UNL A   1      32.144  19.609  24.610  1.00  0.00    -0.252 OA
BRANCH   4   6
ATOM      6  C   UNL A   1      32.960  21.820  25.094  1.00  0.00     0.126 C 
BRANCH   6   7
ATOM      7  C   UNL A   1      32.400  22.718  23.976  1.00  0.00     0.003 C 
ATOM      8  N   UNL A   1      31.690  25.390  23.122  1.00  0.00    -0.351 N 
ATOM      9  C   UNL A   1      30.629  24.431  23.379  1.00  0.00     0.118 C 
ATOM     10  C   UNL A   1      32.911  24.808  22.575  1.00  0.00     0.118 C 
ATOM     11  C   UNL A   1      31.093  23.411  24.408  1.00  0.00     0.026 C 
ATOM     12  C   UNL A   1      33.457  23.772  23.566  1.00  0.00     0.026 C 
BRANCH   8  13
ATOM     13  C   UNL A   1      31.693  26.635  23.735  1.00  0.00     0.215 A 
ATOM     14  C   UNL A   1      33.124  28.226  26.615  1.00  0.00     0.180 C 
ATOM     15  N   UNL A   1      32.276  28.058  25.449  1.00  0.00    -0.216 N 
ATOM     16  N   UNL A   1      32.326  26.829  24.855  1.00  0.00    -0.145 NA
ATOM     17  C   UNL A   1      31.510  29.131  25.005  1.00  0.00     0.346 A 
ATOM     18  N   UNL A   1      30.782  28.924  23.851  1.00  0.00    -0.259 N 
ATOM     19  O   UNL A   1      31.496  30.210  25.605  1.00  0.00    -0.246 OA
ATOM     20  C   UNL A   1      30.887  27.773  23.097  1.00  0.00     0.299 A 
ATOM     21  C   UNL A   1      29.913  29.966  23.349  1.00  0.00     0.159 C 
ATOM     22  O   UNL A   1      30.360  27.610  22.002  1.00  0.00    -0.265 OA
ENDBRANCH   8  13
ENDBRANCH   6   7
ENDBRANCH   4   6
ENDBRANCH   3   4
ENDBRANCH   2   3
ENDBRANCH   1   2
BRANCH   1  23
ATOM     23  O   UNL A   1      37.711  21.369  25.138  1.00  0.00    -0.458 OA
BRANCH  23  24
ATOM     24  C   UNL A   1      38.864  21.097  25.792  1.00  0.00     0.338 C 
ATOM     25  O   UNL A   1      39.416  20.016  25.901  1.00  0.00    -0.246 OA
BRANCH  24  26
ATOM     26  C   UNL A   1      39.448  22.357  26.272  1.00  0.00     0.060 A 
ATOM     27  C   UNL A   1      38.892  23.560  25.828  1.00  0.00     0.016 A 
ATOM     28  C   UNL A   1      40.565  22.351  27.108  1.00  0.00     0.016 A 
ATOM     29  C   UNL A   1      39.458  24.772  26.219  1.00  0.00     0.010 A 
ATOM     30  C   UNL A   1      41.129  23.568  27.503  1.00  0.00     0.010 A 
ATOM     31  C   UNL A   1      40.587  24.784  27.051  1.00  0.00    -0.014 A 
BRANCH  31  32
ATOM     32  C   UNL A   1      41.222  26.070  27.421  1.00  0.00     0.031 A 
ATOM     33  C   UNL A   1      42.640  26.347  27.010  1.00  0.00     0.074 A 
ATOM     34  C   UNL A   1      40.523  26.985  28.119  1.00  0.00     0.049 A 
ATOM     35  N   UNL A   1      43.387  27.386  27.275  1.00  0.00    -0.248 NA
ATOM     36  C   UNL A   1      43.305  25.321  26.189  1.00  0.00     0.031 C 
ATOM     37  C   UNL A   1      39.134  26.833  28.550  1.00  0.00     0.029 A 
ATOM     38  N   UNL A   1      40.889  28.218  28.595  1.00  0.00    -0.354 N 
ATOM     39  C   UNL A   1      44.613  27.136  26.672  1.00  0.00     0.074 A 
ATOM     40  C   UNL A   1      44.517  25.838  26.040  1.00  0.00     0.031 C 
ATOM     41  C   UNL A   1      38.763  27.932  29.227  1.00  0.00     0.029 A 
ATOM     42  C   UNL A   1      39.898  28.849  29.310  1.00  0.00     0.049 A 
ATOM     43  H   UNL A   1      41.777  28.615  28.440  1.00  0.00     0.167 HD
ATOM     44  C   UNL A   1      45.710  27.927  26.630  1.00  0.00     0.034 A 
ATOM     45  C   UNL A   1      39.909  30.026  29.967  1.00  0.00     0.034 A 
ATOM     46  C   UNL A   1      45.792  29.225  27.245  1.00  0.00     0.049 A 
ATOM     47  C   UNL A   1      41.161  30.861  29.947  1.00  0.00     0.074 A 
ATOM     48  C   UNL A   1      46.861  30.104  27.257  1.00  0.00     0.029 A 
ATOM     49  N   UNL A   1      44.767  29.833  27.953  1.00  0.00    -0.354 N 
ATOM     50  N   UNL A   1      42.290  30.642  29.316  1.00  0.00    -0.248 NA
ATOM     51  C   UNL A   1      41.137  32.116  30.714  1.00  0.00     0.031 C 
ATOM     52  C   UNL A   1      46.486  31.238  27.982  1.00  0.00     0.029 A 
ATOM     53  C   UNL A   1      45.178  31.074  28.409  1.00  0.00     0.049 A 
ATOM     54  H   UNL A   1      43.878  29.440  28.109  1.00  0.00     0.167 HD
ATOM     55  C   UNL A   1      43.098  31.741  29.583  1.00  0.00     0.074 A 
ATOM     56  C   UNL A   1      42.322  32.637  30.417  1.00  0.00     0.031 C 
ATOM     57  C   UNL A   1      44.374  31.978  29.191  1.00  0.00     0.034 A 
BRANCH  44  58
ATOM     58  C   UNL A   1      46.902  27.438  25.851  1.00  0.00     0.023 A 
ATOM     59  C   UNL A   1      47.795  26.533  26.459  1.00  0.00     0.012 A 
ATOM     60  C   UNL A   1      47.094  27.801  24.504  1.00  0.00     0.148 A 
ATOM     61  C   UNL A   1      48.871  26.010  25.745  1.00  0.00     0.002 A 
ATOM     62  C   UNL A   1      48.149  27.247  23.787  1.00  0.00     0.091 A 
ATOM     63  F   UNL A   1      46.246  28.680  23.952  1.00  0.00    -0.205 F 
ATOM     64  C   UNL A   1      49.042  26.358  24.408  1.00  0.00     0.022 A 
BRANCH  62  65
ATOM     65  S   UNL A   1      48.414  27.573  22.041  1.00  0.00     0.127 S 
ATOM     66  O   UNL A   1      47.154  28.215  21.666  1.00  0.00    -0.237 OA
ATOM     67  O   UNL A   1      49.571  28.468  22.066  1.00  0.00    -0.237 OA
ATOM     68  O   UNL A   1      48.661  26.278  21.421  1.00  0.00    -0.744 OA
ENDBRANCH  62  65
ENDBRANCH  44  58
BRANCH  45  69
ATOM     69  C   UNL A   1      38.672  30.510  30.645  1.00  0.00     0.023 A 
ATOM     70  C   UNL A   1      38.524  30.301  32.030  1.00  0.00     0.012 A 
ATOM     71  C   UNL A   1      37.669  31.209  29.946  1.00  0.00     0.148 A 
ATOM     72  C   UNL A   1      37.393  30.763  32.704  1.00  0.00     0.002 A 
ATOM     73  C   UNL A   1      36.571  31.716  30.633  1.00  0.00     0.091 A 
ATOM     74  F   UNL A   1      37.815  31.378  28.624  1.00  0.00    -0.205 F 
ATOM     75  C   UNL A   1      36.424  31.482  32.009  1.00  0.00     0.022 A 
BRANCH  73  76
ATOM     76  S   UNL A   1      35.344  32.766  29.846  1.00  0.00     0.127 S 
ATOM     77  O   UNL A   1      34.819  31.885  28.805  1.00  0.00    -0.237 OA
ATOM     78  O   UNL A   1      34.421  33.036  30.948  1.00  0.00    -0.237 OA
ATOM     79  O   UNL A   1      36.073  33.936  29.376  1.00  0.00    -0.744 OA
ENDBRANCH  73  76
ENDBRANCH  45  69
BRANCH  57  80
ATOM     80  C   UNL A   1      45.023  33.262  29.640  1.00  0.00     0.023 A 
ATOM     81  C   UNL A   1      45.802  33.271  30.813  1.00  0.00     0.012 A 
ATOM     82  C   UNL A   1      44.954  34.423  28.845  1.00  0.00     0.148 A 
ATOM     83  C   UNL A   1      46.489  34.420  31.199  1.00  0.00     0.002 A 
ATOM     84  C   UNL A   1      45.679  35.552  29.211  1.00  0.00     0.091 A 
ATOM     85  F   UNL A   1      44.193  34.400  27.741  1.00  0.00    -0.205 F 
ATOM     86  C   UNL A   1      46.439  35.555  30.392  1.00  0.00     0.022 A 
BRANCH  84  87
ATOM     87  S   UNL A   1      45.755  37.025  28.184  1.00  0.00     0.127 S 
ATOM     88  O   UNL A   1      46.257  36.483  26.923  1.00  0.00    -0.237 OA
ATOM     89  O   UNL A   1      44.357  37.455  28.152  1.00  0.00    -0.237 OA
ATOM     90  O   UNL A   1      46.653  37.945  28.871  1.00  0.00    -0.744 OA
ENDBRANCH  84  87
ENDBRANCH  57  80
ENDBRANCH  31  32
ENDBRANCH  24  26
ENDBRANCH  23  24
ENDBRANCH   1  23
TORSDOF 16
ENDMDL
