MODEL 1
REMARK VINA RESULT:     -10.2      0.000      0.000
REMARK SMILES CCCC[C@@H](C(=O)OCCOC(=O)c1ccc(-c2c3nc(c(-c4cccc(S(=O)(=O)[O-])c4F)c4ccc([nH]4)c(-c4cccc(S(=O)(=O)[O-])c4F)c4nc(c(-c5cccc(S(=O)(=O)[O-])c5F)c5ccc2[nH]5)C=C4)C=C3)cc1)[C@H](O)c1cncn1C(C)C
REMARK SMILES IDX 9 1 8 2 6 3 7 4 5 5 4 6 3 7 2 8 1 9 77 10 79 11 80 12 83 13
REMARK SMILES IDX 81 14 82 15 84 16 85 17 86 18 78 19 10 21 11 22 12 23 13 24
REMARK SMILES IDX 14 25 15 26 76 27 16 28 75 29 17 30 18 31 19 32 69 33 20 34
REMARK SMILES IDX 74 35 68 36 70 37 21 38 73 39 67 40 66 41 22 43 54 44 34 45
REMARK SMILES IDX 53 46 35 47 38 48 52 49 71 50 36 51 37 52 51 54 72 55 39 56
REMARK SMILES IDX 23 57 24 58 32 59 25 60 27 61 33 62 26 63 28 64 29 65 30 66
REMARK SMILES IDX 31 67 55 68 56 69 64 70 57 71 59 72 65 73 58 74 60 75 61 76
REMARK SMILES IDX 62 77 63 78 40 79 41 80 49 81 42 82 44 83 50 84 43 85 45 86
REMARK SMILES IDX 46 87 47 88 48 89
REMARK H PARENT 78 20 70 42 38 53
REMARK Flexibility Score: inf
ROOT
ATOM      1  C   UNL A   1      31.540  29.605  25.649  1.00  0.00     0.274 C 
ENDROOT
BRANCH   1   2
ATOM      2  O   UNL A   1      32.377  29.460  24.482  1.00  0.00    -0.462 OA
BRANCH   2   3
ATOM      3  C   UNL A   1      33.039  28.289  24.323  1.00  0.00     0.312 C 
ATOM      4  O   UNL A   1      34.054  27.980  24.941  1.00  0.00    -0.252 OA
BRANCH   3   5
ATOM      5  C   UNL A   1      32.394  27.343  23.314  1.00  0.00     0.134 C 
BRANCH   5   6
ATOM      6  C   UNL A   1      31.399  26.338  23.937  1.00  0.00     0.018 C 
BRANCH   6   7
ATOM      7  C   UNL A   1      29.916  26.741  23.918  1.00  0.00     0.001 C 
BRANCH   7   8
ATOM      8  C   UNL A   1      29.557  27.960  23.068  1.00  0.00    -0.003 C 
ATOM      9  C   UNL A   1      28.074  28.293  23.074  1.00  0.00     0.004 C 
ENDBRANCH   7   8
ENDBRANCH   6   7
ENDBRANCH   5   6
BRANCH   5  10
ATOM     10  C   UNL A   1      33.562  26.634  22.588  1.00  0.00     0.177 C 
BRANCH  10  11
ATOM     11  C   UNL A   1      33.495  25.145  22.602  1.00  0.00     0.067 A 
ATOM     12  C   UNL A   1      32.973  24.275  21.663  1.00  0.00     0.137 A 
ATOM     13  N   UNL A   1      33.989  24.315  23.591  1.00  0.00    -0.330 N 
ATOM     14  N   UNL A   1      33.041  22.977  22.085  1.00  0.00    -0.245 NA
ATOM     15  C   UNL A   1      33.663  23.030  23.237  1.00  0.00     0.199 A 
BRANCH  13  16
ATOM     16  C   UNL A   1      34.711  24.678  24.808  1.00  0.00     0.082 C 
ATOM     17  C   UNL A   1      33.820  24.546  26.044  1.00  0.00     0.031 C 
ATOM     18  C   UNL A   1      36.010  23.887  24.972  1.00  0.00     0.031 C 
ENDBRANCH  13  16
ENDBRANCH  10  11
BRANCH  10  19
ATOM     19  O   UNL A   1      33.585  26.965  21.202  1.00  0.00    -0.386 OA
ATOM     20  H   UNL A   1      32.676  27.067  20.878  1.00  0.00     0.211 HD
ENDBRANCH  10  19
ENDBRANCH   5  10
ENDBRANCH   3   5
ENDBRANCH   2   3
ENDBRANCH   1   2
BRANCH   1  21
ATOM     21  C   UNL A   1      31.926  30.877  26.397  1.00  0.00     0.275 C 
BRANCH  21  22
ATOM     22  O   UNL A   1      33.183  30.653  27.058  1.00  0.00    -0.458 OA
BRANCH  22  23
ATOM     23  C   UNL A   1      33.814  31.748  27.537  1.00  0.00     0.338 C 
ATOM     24  O   UNL A   1      33.397  32.891  27.585  1.00  0.00    -0.246 OA
BRANCH  23  25
ATOM     25  C   UNL A   1      35.112  31.335  28.090  1.00  0.00     0.060 A 
ATOM     26  C   UNL A   1      35.265  30.034  28.560  1.00  0.00     0.016 A 
ATOM     27  C   UNL A   1      36.144  32.260  28.235  1.00  0.00     0.016 A 
ATOM     28  C   UNL A   1      36.403  29.682  29.279  1.00  0.00     0.010 A 
ATOM     29  C   UNL A   1      37.345  31.858  28.828  1.00  0.00     0.010 A 
ATOM     30  C   UNL A   1      37.483  30.572  29.383  1.00  0.00    -0.014 A 
BRANCH  30  31
ATOM     31  C   UNL A   1      38.763  30.137  30.015  1.00  0.00     0.031 A 
ATOM     32  C   UNL A   1      39.642  29.097  29.366  1.00  0.00     0.074 A 
ATOM     33  C   UNL A   1      39.128  30.660  31.205  1.00  0.00     0.049 A 
ATOM     34  N   UNL A   1      40.729  28.533  29.826  1.00  0.00    -0.248 NA
ATOM     35  C   UNL A   1      39.251  28.627  28.027  1.00  0.00     0.031 C 
ATOM     36  C   UNL A   1      38.372  31.668  31.953  1.00  0.00     0.029 A 
ATOM     37  N   UNL A   1      40.214  30.405  32.007  1.00  0.00    -0.354 N 
ATOM     38  C   UNL A   1      41.131  27.623  28.856  1.00  0.00     0.074 A 
ATOM     39  C   UNL A   1      40.175  27.710  27.775  1.00  0.00     0.031 C 
ATOM     40  C   UNL A   1      39.023  31.962  33.085  1.00  0.00     0.029 A 
ATOM     41  C   UNL A   1      40.191  31.097  33.197  1.00  0.00     0.049 A 
ATOM     42  H   UNL A   1      40.938  29.787  31.756  1.00  0.00     0.167 HD
ATOM     43  C   UNL A   1      42.203  26.797  28.857  1.00  0.00     0.034 A 
ATOM     44  C   UNL A   1      40.978  31.013  34.287  1.00  0.00     0.034 A 
ATOM     45  C   UNL A   1      43.170  26.720  29.918  1.00  0.00     0.049 A 
ATOM     46  C   UNL A   1      42.111  30.032  34.296  1.00  0.00     0.074 A 
ATOM     47  C   UNL A   1      44.318  25.949  29.981  1.00  0.00     0.029 A 
ATOM     48  N   UNL A   1      43.093  27.424  31.109  1.00  0.00    -0.354 N 
ATOM     49  N   UNL A   1      42.529  29.251  33.330  1.00  0.00    -0.248 NA
ATOM     50  C   UNL A   1      42.876  29.911  35.544  1.00  0.00     0.031 C 
ATOM     51  C   UNL A   1      44.923  26.169  31.224  1.00  0.00     0.029 A 
ATOM     52  C   UNL A   1      44.153  27.081  31.930  1.00  0.00     0.049 A 
ATOM     53  H   UNL A   1      42.388  28.072  31.337  1.00  0.00     0.167 HD
ATOM     54  C   UNL A   1      43.605  28.544  33.852  1.00  0.00     0.074 A 
ATOM     55  C   UNL A   1      43.797  29.016  35.208  1.00  0.00     0.031 C 
ATOM     56  C   UNL A   1      44.348  27.573  33.269  1.00  0.00     0.034 A 
BRANCH  43  57
ATOM     57  C   UNL A   1      42.407  25.919  27.653  1.00  0.00     0.023 A 
ATOM     58  C   UNL A   1      43.103  26.427  26.538  1.00  0.00     0.012 A 
ATOM     59  C   UNL A   1      41.964  24.583  27.646  1.00  0.00     0.148 A 
ATOM     60  C   UNL A   1      43.343  25.621  25.426  1.00  0.00     0.002 A 
ATOM     61  C   UNL A   1      42.228  23.777  26.543  1.00  0.00     0.091 A 
ATOM     62  F   UNL A   1      41.277  24.132  28.705  1.00  0.00    -0.205 F 
ATOM     63  C   UNL A   1      42.915  24.296  25.433  1.00  0.00     0.022 A 
BRANCH  61  64
ATOM     64  S   UNL A   1      41.749  22.047  26.478  1.00  0.00     0.127 S 
ATOM     65  O   UNL A   1      42.435  21.598  25.268  1.00  0.00    -0.237 OA
ATOM     66  O   UNL A   1      42.305  21.522  27.725  1.00  0.00    -0.237 OA
ATOM     67  O   UNL A   1      40.293  22.040  26.415  1.00  0.00    -0.744 OA
ENDBRANCH  61  64
ENDBRANCH  43  57
BRANCH  44  68
ATOM     68  C   UNL A   1      40.692  31.883  35.463  1.00  0.00     0.023 A 
ATOM     69  C   UNL A   1      41.521  32.986  35.731  1.00  0.00     0.012 A 
ATOM     70  C   UNL A   1      39.552  31.670  36.265  1.00  0.00     0.148 A 
ATOM     71  C   UNL A   1      41.220  33.862  36.776  1.00  0.00     0.002 A 
ATOM     72  C   UNL A   1      39.221  32.584  37.259  1.00  0.00     0.091 A 
ATOM     73  F   UNL A   1      38.789  30.593  36.023  1.00  0.00    -0.205 F 
ATOM     74  C   UNL A   1      40.061  33.674  37.526  1.00  0.00     0.022 A 
BRANCH  72  75
ATOM     75  S   UNL A   1      37.651  32.484  38.128  1.00  0.00     0.127 S 
ATOM     76  O   UNL A   1      37.638  31.095  38.574  1.00  0.00    -0.237 OA
ATOM     77  O   UNL A   1      37.818  33.473  39.195  1.00  0.00    -0.237 OA
ATOM     78  O   UNL A   1      36.650  32.854  37.135  1.00  0.00    -0.744 OA
ENDBRANCH  72  75
ENDBRANCH  44  68
BRANCH  56  79
ATOM     79  C   UNL A   1      45.422  26.931  34.101  1.00  0.00     0.023 A 
ATOM     80  C   UNL A   1      46.725  27.465  34.065  1.00  0.00     0.012 A 
ATOM     81  C   UNL A   1      45.134  25.857  34.964  1.00  0.00     0.148 A 
ATOM     82  C   UNL A   1      47.732  26.928  34.864  1.00  0.00     0.002 A 
ATOM     83  C   UNL A   1      46.135  25.350  35.785  1.00  0.00     0.091 A 
ATOM     84  F   UNL A   1      43.893  25.349  34.964  1.00  0.00    -0.205 F 
ATOM     85  C   UNL A   1      47.435  25.880  35.731  1.00  0.00     0.022 A 
BRANCH  83  86
ATOM     86  S   UNL A   1      45.819  24.057  36.991  1.00  0.00     0.127 S 
ATOM     87  O   UNL A   1      47.129  23.913  37.625  1.00  0.00    -0.237 OA
ATOM     88  O   UNL A   1      44.793  24.662  37.841  1.00  0.00    -0.237 OA
ATOM     89  O   UNL A   1      45.360  22.906  36.224  1.00  0.00    -0.744 OA
ENDBRANCH  83  86
ENDBRANCH  56  79
ENDBRANCH  30  31
ENDBRANCH  23  25
ENDBRANCH  22  23
ENDBRANCH  21  22
ENDBRANCH   1  21
TORSDOF 21
ENDMDL
MODEL 2
REMARK VINA RESULT:     -10.1      1.763      2.938
REMARK SMILES CCCC[C@@H](C(=O)OCCOC(=O)c1ccc(-c2c3nc(c(-c4cccc(S(=O)(=O)[O-])c4F)c4ccc([nH]4)c(-c4cccc(S(=O)(=O)[O-])c4F)c4nc(c(-c5cccc(S(=O)(=O)[O-])c5F)c5ccc2[nH]5)C=C4)C=C3)cc1)[C@H](O)c1cncn1C(C)C
REMARK SMILES IDX 9 1 8 2 6 3 7 4 5 5 4 6 3 7 2 8 1 9 77 10 79 11 80 12 83 13
REMARK SMILES IDX 81 14 82 15 84 16 85 17 86 18 78 19 10 21 11 22 12 23 13 24
REMARK SMILES IDX 14 25 15 26 76 27 16 28 75 29 17 30 18 31 19 32 69 33 20 34
REMARK SMILES IDX 74 35 68 36 70 37 21 38 73 39 67 40 66 41 22 43 54 44 34 45
REMARK SMILES IDX 53 46 35 47 38 48 52 49 71 50 36 51 37 52 51 54 72 55 39 56
REMARK SMILES IDX 23 57 24 58 32 59 25 60 27 61 33 62 26 63 28 64 29 65 30 66
REMARK SMILES IDX 31 67 55 68 56 69 64 70 57 71 59 72 65 73 58 74 60 75 61 76
REMARK SMILES IDX 62 77 63 78 40 79 41 80 49 81 42 82 44 83 50 84 43 85 45 86
REMARK SMILES IDX 46 87 47 88 48 89
REMARK H PARENT 78 20 70 42 38 53
REMARK Flexibility Score: inf
ROOT
ATOM      1  C   UNL A   1      33.631  28.405  24.543  1.00  0.00     0.274 C 
ENDROOT
BRANCH   1   2
ATOM      2  O   UNL A   1      32.833  27.257  24.187  1.00  0.00    -0.462 OA
BRANCH   2   3
ATOM      3  C   UNL A   1      33.354  26.379  23.298  1.00  0.00     0.312 C 
ATOM      4  O   UNL A   1      33.704  26.675  22.159  1.00  0.00    -0.252 OA
BRANCH   3   5
ATOM      5  C   UNL A   1      33.510  24.962  23.842  1.00  0.00     0.134 C 
BRANCH   5   6
ATOM      6  C   UNL A   1      34.690  24.175  23.227  1.00  0.00     0.018 C 
BRANCH   6   7
ATOM      7  C   UNL A   1      35.764  23.675  24.206  1.00  0.00     0.001 C 
BRANCH   7   8
ATOM      8  C   UNL A   1      36.772  22.670  23.647  1.00  0.00    -0.003 C 
ATOM      9  C   UNL A   1      37.214  21.623  24.657  1.00  0.00     0.004 C 
ENDBRANCH   7   8
ENDBRANCH   6   7
ENDBRANCH   5   6
BRANCH   5  10
ATOM     10  C   UNL A   1      32.152  24.260  23.601  1.00  0.00     0.177 C 
BRANCH  10  11
ATOM     11  C   UNL A   1      31.382  23.946  24.837  1.00  0.00     0.067 A 
ATOM     12  C   UNL A   1      30.521  24.743  25.568  1.00  0.00     0.137 A 
ATOM     13  N   UNL A   1      31.364  22.734  25.501  1.00  0.00    -0.330 N 
ATOM     14  N   UNL A   1      30.068  24.101  26.686  1.00  0.00    -0.245 NA
ATOM     15  C   UNL A   1      30.580  22.897  26.616  1.00  0.00     0.199 A 
BRANCH  13  16
ATOM     16  C   UNL A   1      32.041  21.489  25.145  1.00  0.00     0.082 C 
ATOM     17  C   UNL A   1      32.109  21.305  23.629  1.00  0.00     0.031 C 
ATOM     18  C   UNL A   1      33.428  21.378  25.781  1.00  0.00     0.031 C 
ENDBRANCH  13  16
ENDBRANCH  10  11
BRANCH  10  19
ATOM     19  O   UNL A   1      31.271  25.087  22.846  1.00  0.00    -0.386 OA
ATOM     20  H   UNL A   1      31.590  25.151  21.931  1.00  0.00     0.211 HD
ENDBRANCH  10  19
ENDBRANCH   5  10
ENDBRANCH   3   5
ENDBRANCH   2   3
ENDBRANCH   1   2
BRANCH   1  21
ATOM     21  C   UNL A   1      32.717  29.594  24.822  1.00  0.00     0.275 C 
BRANCH  21  22
ATOM     22  O   UNL A   1      32.585  29.743  26.245  1.00  0.00    -0.458 OA
BRANCH  22  23
ATOM     23  C   UNL A   1      33.006  30.917  26.768  1.00  0.00     0.338 C 
ATOM     24  O   UNL A   1      32.476  32.010  26.676  1.00  0.00    -0.246 OA
BRANCH  23  25
ATOM     25  C   UNL A   1      34.215  30.667  27.567  1.00  0.00     0.060 A 
ATOM     26  C   UNL A   1      35.162  31.679  27.698  1.00  0.00     0.016 A 
ATOM     27  C   UNL A   1      34.458  29.404  28.101  1.00  0.00     0.016 A 
ATOM     28  C   UNL A   1      36.403  31.403  28.262  1.00  0.00     0.010 A 
ATOM     29  C   UNL A   1      35.649  29.173  28.799  1.00  0.00     0.010 A 
ATOM     30  C   UNL A   1      36.650  30.160  28.865  1.00  0.00    -0.014 A 
BRANCH  30  31
ATOM     31  C   UNL A   1      37.921  29.920  29.609  1.00  0.00     0.031 A 
ATOM     32  C   UNL A   1      38.987  29.003  29.064  1.00  0.00     0.074 A 
ATOM     33  C   UNL A   1      38.109  30.509  30.810  1.00  0.00     0.049 A 
ATOM     34  N   UNL A   1      40.100  28.606  29.626  1.00  0.00    -0.248 NA
ATOM     35  C   UNL A   1      38.779  28.460  27.712  1.00  0.00     0.031 C 
ATOM     36  C   UNL A   1      37.161  31.414  31.465  1.00  0.00     0.029 A 
ATOM     37  N   UNL A   1      39.150  30.424  31.703  1.00  0.00    -0.354 N 
ATOM     38  C   UNL A   1      40.704  27.745  28.718  1.00  0.00     0.074 A 
ATOM     39  C   UNL A   1      39.839  27.678  27.561  1.00  0.00     0.031 C 
ATOM     40  C   UNL A   1      37.668  31.816  32.637  1.00  0.00     0.029 A 
ATOM     41  C   UNL A   1      38.931  31.126  32.867  1.00  0.00     0.049 A 
ATOM     42  H   UNL A   1      39.971  29.910  31.529  1.00  0.00     0.167 HD
ATOM     43  C   UNL A   1      41.877  27.078  28.829  1.00  0.00     0.034 A 
ATOM     44  C   UNL A   1      39.628  31.173  34.018  1.00  0.00     0.034 A 
ATOM     45  C   UNL A   1      42.752  27.157  29.966  1.00  0.00     0.049 A 
ATOM     46  C   UNL A   1      40.881  30.361  34.147  1.00  0.00     0.074 A 
ATOM     47  C   UNL A   1      43.987  26.556  30.143  1.00  0.00     0.029 A 
ATOM     48  N   UNL A   1      42.479  27.863  31.126  1.00  0.00    -0.354 N 
ATOM     49  N   UNL A   1      41.483  29.630  33.241  1.00  0.00    -0.248 NA
ATOM     50  C   UNL A   1      41.549  30.371  35.455  1.00  0.00     0.031 C 
ATOM     51  C   UNL A   1      44.449  26.881  31.424  1.00  0.00     0.029 A 
ATOM     52  C   UNL A   1      43.505  27.687  32.039  1.00  0.00     0.049 A 
ATOM     53  H   UNL A   1      41.674  28.409  31.278  1.00  0.00     0.167 HD
ATOM     54  C   UNL A   1      42.599  29.092  33.868  1.00  0.00     0.074 A 
ATOM     55  C   UNL A   1      42.610  29.609  35.221  1.00  0.00     0.031 C 
ATOM     56  C   UNL A   1      43.516  28.225  33.375  1.00  0.00     0.034 A 
BRANCH  43  57
ATOM     57  C   UNL A   1      42.301  26.217  27.671  1.00  0.00     0.023 A 
ATOM     58  C   UNL A   1      43.149  26.756  26.684  1.00  0.00     0.012 A 
ATOM     59  C   UNL A   1      41.910  24.867  27.589  1.00  0.00     0.148 A 
ATOM     60  C   UNL A   1      43.591  25.967  25.623  1.00  0.00     0.002 A 
ATOM     61  C   UNL A   1      42.374  24.080  26.541  1.00  0.00     0.091 A 
ATOM     62  F   UNL A   1      41.077  24.385  28.523  1.00  0.00    -0.205 F 
ATOM     63  C   UNL A   1      43.213  24.629  25.557  1.00  0.00     0.022 A 
BRANCH  61  64
ATOM     64  S   UNL A   1      41.970  22.335  26.396  1.00  0.00     0.127 S 
ATOM     65  O   UNL A   1      42.437  21.817  27.681  1.00  0.00    -0.237 OA
ATOM     66  O   UNL A   1      40.515  22.364  26.242  1.00  0.00    -0.237 OA
ATOM     67  O   UNL A   1      42.692  21.857  25.225  1.00  0.00    -0.744 OA
ENDBRANCH  61  64
ENDBRANCH  43  57
BRANCH  44  68
ATOM     68  C   UNL A   1      39.126  32.014  35.143  1.00  0.00     0.023 A 
ATOM     69  C   UNL A   1      38.196  31.478  36.050  1.00  0.00     0.012 A 
ATOM     70  C   UNL A   1      39.632  33.311  35.364  1.00  0.00     0.148 A 
ATOM     71  C   UNL A   1      37.779  32.218  37.158  1.00  0.00     0.002 A 
ATOM     72  C   UNL A   1      39.265  34.015  36.506  1.00  0.00     0.091 A 
ATOM     73  F   UNL A   1      40.491  33.825  34.471  1.00  0.00    -0.205 F 
ATOM     74  C   UNL A   1      38.328  33.476  37.398  1.00  0.00     0.022 A 
BRANCH  72  75
ATOM     75  S   UNL A   1      40.078  35.555  36.949  1.00  0.00     0.127 S 
ATOM     76  O   UNL A   1      41.487  35.177  36.913  1.00  0.00    -0.237 OA
ATOM     77  O   UNL A   1      39.653  36.456  35.876  1.00  0.00    -0.237 OA
ATOM     78  O   UNL A   1      39.534  35.901  38.257  1.00  0.00    -0.744 OA
ENDBRANCH  72  75
ENDBRANCH  44  68
BRANCH  56  79
ATOM     79  C   UNL A   1      44.596  27.755  34.309  1.00  0.00     0.023 A 
ATOM     80  C   UNL A   1      45.735  28.561  34.496  1.00  0.00     0.012 A 
ATOM     81  C   UNL A   1      44.455  26.566  35.049  1.00  0.00     0.148 A 
ATOM     82  C   UNL A   1      46.731  28.181  35.394  1.00  0.00     0.002 A 
ATOM     83  C   UNL A   1      45.435  26.213  35.971  1.00  0.00     0.091 A 
ATOM     84  F   UNL A   1      43.373  25.802  34.837  1.00  0.00    -0.205 F 
ATOM     85  C   UNL A   1      46.575  27.015  36.139  1.00  0.00     0.022 A 
BRANCH  83  86
ATOM     86  S   UNL A   1      45.274  24.771  37.030  1.00  0.00     0.127 S 
ATOM     87  O   UNL A   1      44.112  25.126  37.843  1.00  0.00    -0.237 OA
ATOM     88  O   UNL A   1      45.039  23.697  36.066  1.00  0.00    -0.237 OA
ATOM     89  O   UNL A   1      46.537  24.666  37.749  1.00  0.00    -0.744 OA
ENDBRANCH  83  86
ENDBRANCH  56  79
ENDBRANCH  30  31
ENDBRANCH  23  25
ENDBRANCH  22  23
ENDBRANCH  21  22
ENDBRANCH   1  21
TORSDOF 21
ENDMDL
MODEL 3
REMARK VINA RESULT:     -10.0      5.154      9.845
REMARK SMILES CCCC[C@@H](C(=O)OCCOC(=O)c1ccc(-c2c3nc(c(-c4cccc(S(=O)(=O)[O-])c4F)c4ccc([nH]4)c(-c4cccc(S(=O)(=O)[O-])c4F)c4nc(c(-c5cccc(S(=O)(=O)[O-])c5F)c5ccc2[nH]5)C=C4)C=C3)cc1)[C@H](O)c1cncn1C(C)C
REMARK SMILES IDX 9 1 8 2 6 3 7 4 5 5 4 6 3 7 2 8 1 9 77 10 79 11 80 12 83 13
REMARK SMILES IDX 81 14 82 15 84 16 85 17 86 18 78 19 10 21 11 22 12 23 13 24
REMARK SMILES IDX 14 25 15 26 76 27 16 28 75 29 17 30 18 31 19 32 69 33 20 34
REMARK SMILES IDX 74 35 68 36 70 37 21 38 73 39 67 40 66 41 22 43 54 44 34 45
REMARK SMILES IDX 53 46 35 47 38 48 52 49 71 50 36 51 37 52 51 54 72 55 39 56
REMARK SMILES IDX 23 57 24 58 32 59 25 60 27 61 33 62 26 63 28 64 29 65 30 66
REMARK SMILES IDX 31 67 55 68 56 69 64 70 57 71 59 72 65 73 58 74 60 75 61 76
REMARK SMILES IDX 62 77 63 78 40 79 41 80 49 81 42 82 44 83 50 84 43 85 45 86
REMARK SMILES IDX 46 87 47 88 48 89
REMARK H PARENT 78 20 70 42 38 53
REMARK Flexibility Score: inf
ROOT
ATOM      1  C   UNL A   1      34.402  21.367  24.913  1.00  0.00     0.274 C 
ENDROOT
BRANCH   1   2
ATOM      2  O   UNL A   1      34.466  22.771  25.240  1.00  0.00    -0.462 OA
BRANCH   2   3
ATOM      3  C   UNL A   1      33.376  23.335  25.814  1.00  0.00     0.312 C 
ATOM      4  O   UNL A   1      32.712  22.805  26.701  1.00  0.00    -0.252 OA
BRANCH   3   5
ATOM      5  C   UNL A   1      33.046  24.728  25.288  1.00  0.00     0.134 C 
BRANCH   5   6
ATOM      6  C   UNL A   1      32.681  25.749  26.388  1.00  0.00     0.018 C 
BRANCH   6   7
ATOM      7  C   UNL A   1      33.335  27.136  26.281  1.00  0.00     0.001 C 
BRANCH   7   8
ATOM      8  C   UNL A   1      32.683  28.255  27.094  1.00  0.00    -0.003 C 
ATOM      9  C   UNL A   1      31.827  29.196  26.261  1.00  0.00     0.004 C 
ENDBRANCH   7   8
ENDBRANCH   6   7
ENDBRANCH   5   6
BRANCH   5  10
ATOM     10  C   UNL A   1      31.900  24.538  24.265  1.00  0.00     0.177 C 
BRANCH  10  11
ATOM     11  C   UNL A   1      32.267  24.835  22.852  1.00  0.00     0.067 A 
ATOM     12  C   UNL A   1      33.051  24.112  21.972  1.00  0.00     0.137 A 
ATOM     13  N   UNL A   1      31.852  25.927  22.114  1.00  0.00    -0.330 N 
ATOM     14  N   UNL A   1      33.205  24.765  20.782  1.00  0.00    -0.245 NA
ATOM     15  C   UNL A   1      32.468  25.843  20.890  1.00  0.00     0.199 A 
BRANCH  13  16
ATOM     16  C   UNL A   1      30.948  27.005  22.509  1.00  0.00     0.082 C 
ATOM     17  C   UNL A   1      30.097  26.604  23.715  1.00  0.00     0.031 C 
ATOM     18  C   UNL A   1      31.686  28.320  22.761  1.00  0.00     0.031 C 
ENDBRANCH  13  16
ENDBRANCH  10  11
BRANCH  10  19
ATOM     19  O   UNL A   1      31.460  23.182  24.230  1.00  0.00    -0.386 OA
ATOM     20  H   UNL A   1      30.716  23.100  23.613  1.00  0.00     0.211 HD
ENDBRANCH  10  19
ENDBRANCH   5  10
ENDBRANCH   3   5
ENDBRANCH   2   3
ENDBRANCH   1   2
BRANCH   1  21
ATOM     21  C   UNL A   1      35.683  20.679  25.373  1.00  0.00     0.275 C 
BRANCH  21  22
ATOM     22  O   UNL A   1      36.784  21.581  25.167  1.00  0.00    -0.458 OA
BRANCH  22  23
ATOM     23  C   UNL A   1      38.003  21.139  25.550  1.00  0.00     0.338 C 
ATOM     24  O   UNL A   1      38.473  20.025  25.408  1.00  0.00    -0.246 OA
BRANCH  23  25
ATOM     25  C   UNL A   1      38.750  22.268  26.123  1.00  0.00     0.060 A 
ATOM     26  C   UNL A   1      38.297  23.565  25.898  1.00  0.00     0.016 A 
ATOM     27  C   UNL A   1      39.950  22.050  26.796  1.00  0.00     0.016 A 
ATOM     28  C   UNL A   1      39.095  24.651  26.242  1.00  0.00     0.010 A 
ATOM     29  C   UNL A   1      40.677  23.147  27.272  1.00  0.00     0.010 A 
ATOM     30  C   UNL A   1      40.275  24.463  26.977  1.00  0.00    -0.014 A 
BRANCH  30  31
ATOM     31  C   UNL A   1      41.045  25.636  27.484  1.00  0.00     0.031 A 
ATOM     32  C   UNL A   1      40.379  26.719  28.295  1.00  0.00     0.074 A 
ATOM     33  C   UNL A   1      42.357  25.749  27.185  1.00  0.00     0.049 A 
ATOM     34  N   UNL A   1      40.874  27.852  28.723  1.00  0.00    -0.248 NA
ATOM     35  C   UNL A   1      38.973  26.506  28.675  1.00  0.00     0.031 C 
ATOM     36  C   UNL A   1      43.132  24.783  26.403  1.00  0.00     0.029 A 
ATOM     37  N   UNL A   1      43.269  26.733  27.485  1.00  0.00    -0.354 N 
ATOM     38  C   UNL A   1      39.840  28.498  29.389  1.00  0.00     0.074 A 
ATOM     39  C   UNL A   1      38.685  27.631  29.314  1.00  0.00     0.031 C 
ATOM     40  C   UNL A   1      44.399  25.205  26.304  1.00  0.00     0.029 A 
ATOM     41  C   UNL A   1      44.510  26.517  26.928  1.00  0.00     0.049 A 
ATOM     42  H   UNL A   1      43.057  27.515  28.043  1.00  0.00     0.167 HD
ATOM     43  C   UNL A   1      39.849  29.698  30.015  1.00  0.00     0.034 A 
ATOM     44  C   UNL A   1      45.603  27.301  26.868  1.00  0.00     0.034 A 
ATOM     45  C   UNL A   1      40.998  30.556  30.112  1.00  0.00     0.049 A 
ATOM     46  C   UNL A   1      45.563  28.660  27.499  1.00  0.00     0.074 A 
ATOM     47  C   UNL A   1      41.114  31.767  30.772  1.00  0.00     0.029 A 
ATOM     48  N   UNL A   1      42.224  30.305  29.516  1.00  0.00    -0.354 N 
ATOM     49  N   UNL A   1      44.605  29.210  28.205  1.00  0.00    -0.248 NA
ATOM     50  C   UNL A   1      46.746  29.512  27.320  1.00  0.00     0.031 C 
ATOM     51  C   UNL A   1      42.406  32.260  30.554  1.00  0.00     0.029 A 
ATOM     52  C   UNL A   1      43.093  31.353  29.763  1.00  0.00     0.049 A 
ATOM     53  H   UNL A   1      42.443  29.500  28.994  1.00  0.00     0.167 HD
ATOM     54  C   UNL A   1      45.068  30.472  28.555  1.00  0.00     0.074 A 
ATOM     55  C   UNL A   1      46.406  30.592  28.012  1.00  0.00     0.031 C 
ATOM     56  C   UNL A   1      44.430  31.452  29.238  1.00  0.00     0.034 A 
BRANCH  43  57
ATOM     57  C   UNL A   1      38.575  30.150  30.674  1.00  0.00     0.023 A 
ATOM     58  C   UNL A   1      38.348  29.832  32.028  1.00  0.00     0.012 A 
ATOM     59  C   UNL A   1      37.634  30.931  29.977  1.00  0.00     0.148 A 
ATOM     60  C   UNL A   1      37.195  30.275  32.675  1.00  0.00     0.002 A 
ATOM     61  C   UNL A   1      36.499  31.390  30.635  1.00  0.00     0.091 A 
ATOM     62  F   UNL A   1      37.857  31.194  28.681  1.00  0.00    -0.205 F 
ATOM     63  C   UNL A   1      36.277  31.061  31.983  1.00  0.00     0.022 A 
BRANCH  61  64
ATOM     64  S   UNL A   1      35.279  32.439  29.835  1.00  0.00     0.127 S 
ATOM     65  O   UNL A   1      36.110  33.544  29.360  1.00  0.00    -0.237 OA
ATOM     66  O   UNL A   1      34.762  31.568  28.780  1.00  0.00    -0.237 OA
ATOM     67  O   UNL A   1      34.310  32.780  30.867  1.00  0.00    -0.744 OA
ENDBRANCH  61  64
ENDBRANCH  43  57
BRANCH  44  68
ATOM     68  C   UNL A   1      46.818  26.808  26.160  1.00  0.00     0.023 A 
ATOM     69  C   UNL A   1      46.956  27.029  24.778  1.00  0.00     0.012 A 
ATOM     70  C   UNL A   1      47.875  26.197  26.866  1.00  0.00     0.148 A 
ATOM     71  C   UNL A   1      48.124  26.651  24.112  1.00  0.00     0.002 A 
ATOM     72  C   UNL A   1      49.061  25.887  26.210  1.00  0.00     0.091 A 
ATOM     73  F   UNL A   1      47.717  25.958  28.176  1.00  0.00    -0.205 F 
ATOM     74  C   UNL A   1      49.183  26.100  24.830  1.00  0.00     0.022 A 
BRANCH  72  75
ATOM     75  S   UNL A   1      50.512  25.345  27.121  1.00  0.00     0.127 S 
ATOM     76  O   UNL A   1      50.815  26.517  27.936  1.00  0.00    -0.237 OA
ATOM     77  O   UNL A   1      50.005  24.190  27.865  1.00  0.00    -0.237 OA
ATOM     78  O   UNL A   1      51.490  25.001  26.095  1.00  0.00    -0.744 OA
ENDBRANCH  72  75
ENDBRANCH  44  68
BRANCH  56  79
ATOM     79  C   UNL A   1      45.157  32.756  29.418  1.00  0.00     0.023 A 
ATOM     80  C   UNL A   1      45.897  32.968  30.597  1.00  0.00     0.012 A 
ATOM     81  C   UNL A   1      45.169  33.732  28.404  1.00  0.00     0.148 A 
ATOM     82  C   UNL A   1      46.626  34.142  30.773  1.00  0.00     0.002 A 
ATOM     83  C   UNL A   1      45.928  34.884  28.571  1.00  0.00     0.091 A 
ATOM     84  F   UNL A   1      44.437  33.519  27.300  1.00  0.00    -0.205 F 
ATOM     85  C   UNL A   1      46.651  35.094  29.756  1.00  0.00     0.022 A 
BRANCH  83  86
ATOM     86  S   UNL A   1      46.082  36.123  27.279  1.00  0.00     0.127 S 
ATOM     87  O   UNL A   1      44.739  36.699  27.257  1.00  0.00    -0.237 OA
ATOM     88  O   UNL A   1      47.117  37.008  27.814  1.00  0.00    -0.237 OA
ATOM     89  O   UNL A   1      46.476  35.396  26.079  1.00  0.00    -0.744 OA
ENDBRANCH  83  86
ENDBRANCH  56  79
ENDBRANCH  30  31
ENDBRANCH  23  25
ENDBRANCH  22  23
ENDBRANCH  21  22
ENDBRANCH   1  21
TORSDOF 21
ENDMDL
