MODEL 1
REMARK VINA RESULT:     -13.8      0.000      0.000
REMARK SMILES O=C(OCCOC(=O)[C@H]1CCCCN1c1cc(-c2ccccc2)nc(-c2cccc(Cl)c2)n1)c1ccc(-c2c3nc(c(-c4cccc(S(=O)(=O)[O-])c4F)c4ccc([nH]4)c(-c4cccc(S(=O)(=O)[O-])c4F)c4nc(c(-c5cccc(S(=O)(=O)[O-])c5F)c5ccc2[nH]5)C=C4)C=C3)cc1
REMARK SMILES IDX 4 1 3 2 2 3 1 4 34 5 35 6 96 7 36 8 95 9 37 10 38 11 39 12
REMARK SMILES IDX 89 13 40 14 94 15 88 16 90 17 41 18 93 19 87 20 86 21 42 23
REMARK SMILES IDX 74 24 54 25 73 26 55 27 58 28 72 29 91 30 56 31 57 32 71 34
REMARK SMILES IDX 92 35 59 36 43 37 44 38 52 39 45 40 47 41 53 42 46 43 48 44
REMARK SMILES IDX 49 45 50 46 51 47 75 48 76 49 84 50 77 51 79 52 85 53 78 54
REMARK SMILES IDX 80 55 81 56 82 57 83 58 60 59 61 60 69 61 62 62 64 63 70 64
REMARK SMILES IDX 63 65 65 66 66 67 67 68 68 69 5 70 6 71 7 72 8 73 9 74 10 75
REMARK SMILES IDX 14 76 11 77 13 78 12 79 15 80 16 81 33 82 17 83 25 84 24 85
REMARK SMILES IDX 18 86 19 87 23 88 20 89 22 90 21 91 26 92 27 93 32 94 28 95
REMARK SMILES IDX 30 96 29 97 31 98
REMARK H PARENT 90 22 58 33
REMARK Flexibility Score: inf
ROOT
ATOM      1  C   UNL A   1      36.884  20.613  25.025  1.00  0.00     0.275 C 
ENDROOT
BRANCH   1   2
ATOM      2  O   UNL A   1      38.082  21.405  25.036  1.00  0.00    -0.458 OA
BRANCH   2   3
ATOM      3  C   UNL A   1      39.160  21.276  25.867  1.00  0.00     0.338 C 
ATOM      4  O   UNL A   1      39.695  20.221  26.056  1.00  0.00    -0.246 OA
BRANCH   3   5
ATOM      5  C   UNL A   1      39.516  22.452  26.703  1.00  0.00     0.060 A 
ATOM      6  C   UNL A   1      40.544  22.483  27.648  1.00  0.00     0.016 A 
ATOM      7  C   UNL A   1      38.819  23.615  26.410  1.00  0.00     0.016 A 
ATOM      8  C   UNL A   1      41.082  23.700  28.054  1.00  0.00     0.010 A 
ATOM      9  C   UNL A   1      39.317  24.821  26.874  1.00  0.00     0.010 A 
ATOM     10  C   UNL A   1      40.516  24.881  27.598  1.00  0.00    -0.014 A 
BRANCH  10  11
ATOM     11  C   UNL A   1      41.084  26.186  28.000  1.00  0.00     0.031 A 
ATOM     12  C   UNL A   1      42.861  26.164  27.482  1.00  0.00     0.074 A 
ATOM     13  C   UNL A   1      40.245  27.149  28.759  1.00  0.00     0.049 A 
ATOM     14  N   UNL A   1      43.921  26.685  28.114  1.00  0.00    -0.248 NA
ATOM     15  C   UNL A   1      43.395  25.396  26.342  1.00  0.00     0.031 C 
ATOM     16  C   UNL A   1      39.019  26.934  29.586  1.00  0.00     0.029 A 
ATOM     17  N   UNL A   1      40.381  28.534  29.136  1.00  0.00    -0.354 N 
ATOM     18  C   UNL A   1      45.092  26.637  27.417  1.00  0.00     0.074 A 
ATOM     19  C   UNL A   1      44.729  25.613  26.425  1.00  0.00     0.031 C 
ATOM     20  C   UNL A   1      38.797  27.987  30.452  1.00  0.00     0.029 A 
ATOM     21  C   UNL A   1      39.814  29.035  30.286  1.00  0.00     0.049 A 
ATOM     22  H   UNL A   1      40.895  29.139  28.552  1.00  0.00     0.167 HD
ATOM     23  C   UNL A   1      46.237  27.425  27.536  1.00  0.00     0.034 A 
ATOM     24  C   UNL A   1      40.167  30.186  30.986  1.00  0.00     0.034 A 
ATOM     25  C   UNL A   1      46.466  28.765  28.256  1.00  0.00     0.049 A 
ATOM     26  C   UNL A   1      41.602  31.062  30.866  1.00  0.00     0.074 A 
ATOM     27  C   UNL A   1      47.296  29.804  27.814  1.00  0.00     0.029 A 
ATOM     28  N   UNL A   1      45.984  29.307  29.493  1.00  0.00    -0.354 N 
ATOM     29  N   UNL A   1      42.858  30.670  30.736  1.00  0.00    -0.248 NA
ATOM     30  C   UNL A   1      41.605  32.527  31.078  1.00  0.00     0.031 C 
ATOM     31  C   UNL A   1      47.057  30.994  28.560  1.00  0.00     0.029 A 
ATOM     32  C   UNL A   1      46.015  30.771  29.464  1.00  0.00     0.049 A 
ATOM     33  H   UNL A   1      45.675  28.769  30.257  1.00  0.00     0.167 HD
ATOM     34  C   UNL A   1      43.745  31.762  30.561  1.00  0.00     0.074 A 
ATOM     35  C   UNL A   1      42.883  32.890  30.892  1.00  0.00     0.031 C 
ATOM     36  C   UNL A   1      45.054  31.854  30.056  1.00  0.00     0.034 A 
BRANCH  23  37
ATOM     37  C   UNL A   1      47.373  27.037  26.591  1.00  0.00     0.023 A 
ATOM     38  C   UNL A   1      48.370  26.132  27.010  1.00  0.00     0.012 A 
ATOM     39  C   UNL A   1      47.403  27.491  25.253  1.00  0.00     0.148 A 
ATOM     40  C   UNL A   1      49.439  25.793  26.179  1.00  0.00     0.002 A 
ATOM     41  C   UNL A   1      48.434  27.089  24.402  1.00  0.00     0.091 A 
ATOM     42  F   UNL A   1      46.437  28.319  24.826  1.00  0.00    -0.205 F 
ATOM     43  C   UNL A   1      49.470  26.271  24.875  1.00  0.00     0.022 A 
BRANCH  41  44
ATOM     44  S   UNL A   1      48.457  27.529  22.657  1.00  0.00     0.127 S 
ATOM     45  O   UNL A   1      49.718  28.262  22.548  1.00  0.00    -0.237 OA
ATOM     46  O   UNL A   1      48.458  26.223  21.995  1.00  0.00    -0.237 OA
ATOM     47  O   UNL A   1      47.245  28.306  22.439  1.00  0.00    -0.744 OA
ENDBRANCH  41  44
ENDBRANCH  23  37
BRANCH  24  48
ATOM     48  C   UNL A   1      39.194  30.804  31.969  1.00  0.00     0.023 A 
ATOM     49  C   UNL A   1      38.155  31.602  31.437  1.00  0.00     0.012 A 
ATOM     50  C   UNL A   1      39.317  30.738  33.368  1.00  0.00     0.148 A 
ATOM     51  C   UNL A   1      37.366  32.422  32.250  1.00  0.00     0.002 A 
ATOM     52  C   UNL A   1      38.506  31.535  34.183  1.00  0.00     0.091 A 
ATOM     53  F   UNL A   1      40.202  29.882  33.891  1.00  0.00    -0.205 F 
ATOM     54  C   UNL A   1      37.556  32.403  33.624  1.00  0.00     0.022 A 
BRANCH  52  55
ATOM     55  S   UNL A   1      38.613  31.534  35.982  1.00  0.00     0.127 S 
ATOM     56  O   UNL A   1      39.776  32.386  36.230  1.00  0.00    -0.237 OA
ATOM     57  O   UNL A   1      37.331  32.136  36.349  1.00  0.00    -0.237 OA
ATOM     58  O   UNL A   1      38.783  30.141  36.370  1.00  0.00    -0.744 OA
ENDBRANCH  52  55
ENDBRANCH  24  48
BRANCH  36  59
ATOM     59  C   UNL A   1      45.509  33.320  29.804  1.00  0.00     0.023 A 
ATOM     60  C   UNL A   1      46.291  33.960  30.783  1.00  0.00     0.012 A 
ATOM     61  C   UNL A   1      45.186  34.064  28.630  1.00  0.00     0.148 A 
ATOM     62  C   UNL A   1      46.731  35.281  30.611  1.00  0.00     0.002 A 
ATOM     63  C   UNL A   1      45.662  35.367  28.447  1.00  0.00     0.091 A 
ATOM     64  F   UNL A   1      44.402  33.509  27.700  1.00  0.00    -0.205 F 
ATOM     65  C   UNL A   1      46.429  35.979  29.443  1.00  0.00     0.022 A 
BRANCH  63  66
ATOM     66  S   UNL A   1      45.379  36.336  26.946  1.00  0.00     0.127 S 
ATOM     67  O   UNL A   1      43.925  36.488  26.952  1.00  0.00    -0.237 OA
ATOM     68  O   UNL A   1      46.117  37.568  27.229  1.00  0.00    -0.237 OA
ATOM     69  O   UNL A   1      45.915  35.547  25.845  1.00  0.00    -0.744 OA
ENDBRANCH  63  66
ENDBRANCH  36  59
ENDBRANCH  10  11
ENDBRANCH   3   5
ENDBRANCH   2   3
ENDBRANCH   1   2
BRANCH   1  70
ATOM     70  C   UNL A   1      35.555  21.261  25.482  1.00  0.00     0.274 C 
BRANCH  70  71
ATOM     71  O   UNL A   1      34.999  22.439  24.833  1.00  0.00    -0.461 OA
BRANCH  71  72
ATOM     72  C   UNL A   1      34.625  23.461  25.668  1.00  0.00     0.328 C 
ATOM     73  O   UNL A   1      34.770  23.328  26.881  1.00  0.00    -0.250 OA
BRANCH  72  74
ATOM     74  C   UNL A   1      33.827  24.666  24.974  1.00  0.00     0.193 C 
ATOM     75  C   UNL A   1      32.947  23.975  23.898  1.00  0.00     0.037 C 
ATOM     76  N   UNL A   1      32.949  25.530  25.866  1.00  0.00    -0.343 N 
ATOM     77  C   UNL A   1      31.783  23.182  24.504  1.00  0.00     0.005 C 
ATOM     78  C   UNL A   1      31.771  24.859  26.433  1.00  0.00     0.119 C 
ATOM     79  C   UNL A   1      30.947  24.073  25.409  1.00  0.00     0.022 C 
BRANCH  76  80
ATOM     80  C   UNL A   1      32.925  26.955  25.756  1.00  0.00     0.134 A 
ATOM     81  C   UNL A   1      32.325  27.629  24.658  1.00  0.00     0.076 A 
ATOM     82  N   UNL A   1      33.409  27.736  26.692  1.00  0.00    -0.211 NA
ATOM     83  C   UNL A   1      31.766  28.997  24.683  1.00  0.00     0.076 A 
ATOM     84  C   UNL A   1      33.297  29.088  26.462  1.00  0.00     0.162 A 
ATOM     85  N   UNL A   1      32.453  29.741  25.568  1.00  0.00    -0.228 NA
BRANCH  83  86
ATOM     86  C   UNL A   1      30.233  29.659  23.918  1.00  0.00     0.000 A 
ATOM     87  C   UNL A   1      29.448  28.941  23.098  1.00  0.00     0.010 A 
ATOM     88  C   UNL A   1      29.482  30.966  23.948  1.00  0.00     0.010 A 
ATOM     89  C   UNL A   1      28.175  29.259  22.508  1.00  0.00     0.001 A 
ATOM     90  C   UNL A   1      28.239  31.366  23.392  1.00  0.00     0.001 A 
ATOM     91  C   UNL A   1      27.544  30.461  22.672  1.00  0.00     0.000 A 
ENDBRANCH  83  86
BRANCH  84  92
ATOM     92  C   UNL A   1      34.354  29.878  27.134  1.00  0.00     0.021 A 
ATOM     93  C   UNL A   1      35.653  29.341  27.303  1.00  0.00     0.012 A 
ATOM     94  C   UNL A   1      34.127  31.168  27.625  1.00  0.00     0.032 A 
ATOM     95  C   UNL A   1      36.665  30.046  27.958  1.00  0.00     0.002 A 
ATOM     96  C   UNL A   1      35.125  31.858  28.314  1.00  0.00     0.041 A 
ATOM     97  C   UNL A   1      36.392  31.305  28.481  1.00  0.00     0.020 A 
ATOM     98  Cl  UNL A   1      34.784  33.419  28.959  1.00  0.00    -0.084 Cl
ENDBRANCH  84  92
ENDBRANCH  76  80
ENDBRANCH  72  74
ENDBRANCH  71  72
ENDBRANCH  70  71
ENDBRANCH   1  70
TORSDOF 17
ENDMDL
MODEL 2
REMARK VINA RESULT:     -13.7      1.337      3.332
REMARK SMILES O=C(OCCOC(=O)[C@H]1CCCCN1c1cc(-c2ccccc2)nc(-c2cccc(Cl)c2)n1)c1ccc(-c2c3nc(c(-c4cccc(S(=O)(=O)[O-])c4F)c4ccc([nH]4)c(-c4cccc(S(=O)(=O)[O-])c4F)c4nc(c(-c5cccc(S(=O)(=O)[O-])c5F)c5ccc2[nH]5)C=C4)C=C3)cc1
REMARK SMILES IDX 4 1 3 2 2 3 1 4 34 5 35 6 96 7 36 8 95 9 37 10 38 11 39 12
REMARK SMILES IDX 89 13 40 14 94 15 88 16 90 17 41 18 93 19 87 20 86 21 42 23
REMARK SMILES IDX 74 24 54 25 73 26 55 27 58 28 72 29 91 30 56 31 57 32 71 34
REMARK SMILES IDX 92 35 59 36 43 37 44 38 52 39 45 40 47 41 53 42 46 43 48 44
REMARK SMILES IDX 49 45 50 46 51 47 75 48 76 49 84 50 77 51 79 52 85 53 78 54
REMARK SMILES IDX 80 55 81 56 82 57 83 58 60 59 61 60 69 61 62 62 64 63 70 64
REMARK SMILES IDX 63 65 65 66 66 67 67 68 68 69 5 70 6 71 7 72 8 73 9 74 10 75
REMARK SMILES IDX 14 76 11 77 13 78 12 79 15 80 16 81 33 82 17 83 25 84 24 85
REMARK SMILES IDX 18 86 19 87 23 88 20 89 22 90 21 91 26 92 27 93 32 94 28 95
REMARK SMILES IDX 30 96 29 97 31 98
REMARK H PARENT 90 22 58 33
REMARK Flexibility Score: inf
ROOT
ATOM      1  C   UNL A   1      36.711  20.927  25.200  1.00  0.00     0.275 C 
ENDROOT
BRANCH   1   2
ATOM      2  O   UNL A   1      38.019  21.488  25.004  1.00  0.00    -0.458 OA
BRANCH   2   3
ATOM      3  C   UNL A   1      39.109  21.370  25.821  1.00  0.00     0.338 C 
ATOM      4  O   UNL A   1      39.660  20.322  26.000  1.00  0.00    -0.246 OA
BRANCH   3   5
ATOM      5  C   UNL A   1      39.460  22.548  26.657  1.00  0.00     0.060 A 
ATOM      6  C   UNL A   1      40.458  22.570  27.634  1.00  0.00     0.016 A 
ATOM      7  C   UNL A   1      38.795  23.721  26.330  1.00  0.00     0.016 A 
ATOM      8  C   UNL A   1      41.006  23.781  28.044  1.00  0.00     0.010 A 
ATOM      9  C   UNL A   1      39.299  24.922  26.798  1.00  0.00     0.010 A 
ATOM     10  C   UNL A   1      40.476  24.968  27.559  1.00  0.00    -0.014 A 
BRANCH  10  11
ATOM     11  C   UNL A   1      41.055  26.266  27.966  1.00  0.00     0.031 A 
ATOM     12  C   UNL A   1      42.831  26.233  27.444  1.00  0.00     0.074 A 
ATOM     13  C   UNL A   1      40.225  27.232  28.732  1.00  0.00     0.049 A 
ATOM     14  N   UNL A   1      43.896  26.742  28.077  1.00  0.00    -0.248 NA
ATOM     15  C   UNL A   1      43.356  25.466  26.300  1.00  0.00     0.031 C 
ATOM     16  C   UNL A   1      39.000  27.023  29.560  1.00  0.00     0.029 A 
ATOM     17  N   UNL A   1      40.374  28.615  29.115  1.00  0.00    -0.354 N 
ATOM     18  C   UNL A   1      45.066  26.688  27.378  1.00  0.00     0.074 A 
ATOM     19  C   UNL A   1      44.693  25.671  26.381  1.00  0.00     0.031 C 
ATOM     20  C   UNL A   1      38.788  28.074  30.432  1.00  0.00     0.029 A 
ATOM     21  C   UNL A   1      39.813  29.114  30.268  1.00  0.00     0.049 A 
ATOM     22  H   UNL A   1      40.891  29.218  28.533  1.00  0.00     0.167 HD
ATOM     23  C   UNL A   1      46.217  27.466  27.498  1.00  0.00     0.034 A 
ATOM     24  C   UNL A   1      40.176  30.259  30.974  1.00  0.00     0.034 A 
ATOM     25  C   UNL A   1      46.459  28.800  28.224  1.00  0.00     0.049 A 
ATOM     26  C   UNL A   1      41.618  31.124  30.855  1.00  0.00     0.074 A 
ATOM     27  C   UNL A   1      47.296  29.835  27.785  1.00  0.00     0.029 A 
ATOM     28  N   UNL A   1      45.983  29.341  29.465  1.00  0.00    -0.354 N 
ATOM     29  N   UNL A   1      42.871  30.723  30.721  1.00  0.00    -0.248 NA
ATOM     30  C   UNL A   1      41.634  32.588  31.074  1.00  0.00     0.031 C 
ATOM     31  C   UNL A   1      47.068  31.024  28.537  1.00  0.00     0.029 A 
ATOM     32  C   UNL A   1      46.026  30.805  29.443  1.00  0.00     0.049 A 
ATOM     33  H   UNL A   1      45.671  28.801  30.226  1.00  0.00     0.167 HD
ATOM     34  C   UNL A   1      43.766  31.808  30.549  1.00  0.00     0.074 A 
ATOM     35  C   UNL A   1      42.914  32.942  30.887  1.00  0.00     0.031 C 
ATOM     36  C   UNL A   1      45.075  31.892  30.042  1.00  0.00     0.034 A 
BRANCH  23  37
ATOM     37  C   UNL A   1      47.349  27.073  26.549  1.00  0.00     0.023 A 
ATOM     38  C   UNL A   1      48.335  26.153  26.959  1.00  0.00     0.012 A 
ATOM     39  C   UNL A   1      47.384  27.540  25.215  1.00  0.00     0.148 A 
ATOM     40  C   UNL A   1      49.399  25.809  26.124  1.00  0.00     0.002 A 
ATOM     41  C   UNL A   1      48.409  27.134  24.360  1.00  0.00     0.091 A 
ATOM     42  F   UNL A   1      46.427  28.383  24.797  1.00  0.00    -0.205 F 
ATOM     43  C   UNL A   1      49.436  26.299  24.824  1.00  0.00     0.022 A 
BRANCH  41  44
ATOM     44  S   UNL A   1      48.437  27.590  22.619  1.00  0.00     0.127 S 
ATOM     45  O   UNL A   1      47.171  28.306  22.475  1.00  0.00    -0.237 OA
ATOM     46  O   UNL A   1      49.626  28.441  22.528  1.00  0.00    -0.237 OA
ATOM     47  O   UNL A   1      48.548  26.333  21.894  1.00  0.00    -0.744 OA
ENDBRANCH  41  44
ENDBRANCH  23  37
BRANCH  24  48
ATOM     48  C   UNL A   1      39.210  30.880  31.961  1.00  0.00     0.023 A 
ATOM     49  C   UNL A   1      38.196  31.715  31.438  1.00  0.00     0.012 A 
ATOM     50  C   UNL A   1      39.319  30.780  33.360  1.00  0.00     0.148 A 
ATOM     51  C   UNL A   1      37.421  32.537  32.262  1.00  0.00     0.002 A 
ATOM     52  C   UNL A   1      38.521  31.580  34.185  1.00  0.00     0.091 A 
ATOM     53  F   UNL A   1      40.177  29.891  33.872  1.00  0.00    -0.205 F 
ATOM     54  C   UNL A   1      37.597  32.484  33.636  1.00  0.00     0.022 A 
BRANCH  52  55
ATOM     55  S   UNL A   1      38.611  31.537  35.984  1.00  0.00     0.127 S 
ATOM     56  O   UNL A   1      37.508  32.416  36.377  1.00  0.00    -0.237 OA
ATOM     57  O   UNL A   1      38.380  30.118  36.252  1.00  0.00    -0.237 OA
ATOM     58  O   UNL A   1      39.936  32.031  36.329  1.00  0.00    -0.744 OA
ENDBRANCH  52  55
ENDBRANCH  24  48
BRANCH  36  59
ATOM     59  C   UNL A   1      45.541  33.356  29.796  1.00  0.00     0.023 A 
ATOM     60  C   UNL A   1      46.344  33.979  30.768  1.00  0.00     0.012 A 
ATOM     61  C   UNL A   1      45.208  34.113  28.633  1.00  0.00     0.148 A 
ATOM     62  C   UNL A   1      46.795  35.296  30.601  1.00  0.00     0.002 A 
ATOM     63  C   UNL A   1      45.695  35.413  28.455  1.00  0.00     0.091 A 
ATOM     64  F   UNL A   1      44.404  33.575  27.711  1.00  0.00    -0.205 F 
ATOM     65  C   UNL A   1      46.483  36.009  29.445  1.00  0.00     0.022 A 
BRANCH  63  66
ATOM     66  S   UNL A   1      45.399  36.398  26.968  1.00  0.00     0.127 S 
ATOM     67  O   UNL A   1      46.248  37.566  27.202  1.00  0.00    -0.237 OA
ATOM     68  O   UNL A   1      45.875  35.508  25.907  1.00  0.00    -0.237 OA
ATOM     69  O   UNL A   1      43.968  36.669  26.936  1.00  0.00    -0.744 OA
ENDBRANCH  63  66
ENDBRANCH  36  59
ENDBRANCH  10  11
ENDBRANCH   3   5
ENDBRANCH   2   3
ENDBRANCH   1   2
BRANCH   1  70
ATOM     70  C   UNL A   1      35.501  21.883  25.338  1.00  0.00     0.274 C 
BRANCH  70  71
ATOM     71  O   UNL A   1      35.559  23.277  24.925  1.00  0.00    -0.461 OA
BRANCH  71  72
ATOM     72  C   UNL A   1      35.297  23.519  23.601  1.00  0.00     0.328 C 
ATOM     73  O   UNL A   1      36.085  23.113  22.750  1.00  0.00    -0.250 OA
BRANCH  72  74
ATOM     74  C   UNL A   1      34.071  24.509  23.306  1.00  0.00     0.193 C 
ATOM     75  C   UNL A   1      33.209  23.751  22.261  1.00  0.00     0.037 C 
ATOM     76  N   UNL A   1      33.197  24.912  24.484  1.00  0.00    -0.343 N 
ATOM     77  C   UNL A   1      32.464  22.554  22.862  1.00  0.00     0.005 C 
ATOM     78  C   UNL A   1      32.397  23.830  25.075  1.00  0.00     0.119 C 
ATOM     79  C   UNL A   1      31.625  22.993  24.051  1.00  0.00     0.022 C 
BRANCH  76  80
ATOM     80  C   UNL A   1      32.758  26.258  24.678  1.00  0.00     0.134 A 
ATOM     81  C   UNL A   1      33.033  26.991  25.865  1.00  0.00     0.076 A 
ATOM     82  N   UNL A   1      32.117  26.925  23.748  1.00  0.00    -0.211 NA
ATOM     83  C   UNL A   1      33.127  28.462  25.971  1.00  0.00     0.076 A 
ATOM     84  C   UNL A   1      31.776  28.219  24.065  1.00  0.00     0.162 A 
ATOM     85  N   UNL A   1      32.303  29.025  25.071  1.00  0.00    -0.228 NA
BRANCH  83  86
ATOM     86  C   UNL A   1      34.311  29.503  26.914  1.00  0.00     0.000 A 
ATOM     87  C   UNL A   1      35.549  29.098  27.243  1.00  0.00     0.010 A 
ATOM     88  C   UNL A   1      34.301  30.887  27.511  1.00  0.00     0.010 A 
ATOM     89  C   UNL A   1      36.629  29.812  27.871  1.00  0.00     0.001 A 
ATOM     90  C   UNL A   1      35.308  31.657  28.152  1.00  0.00     0.001 A 
ATOM     91  C   UNL A   1      36.529  31.106  28.304  1.00  0.00     0.000 A 
ENDBRANCH  83  86
BRANCH  84  92
ATOM     92  C   UNL A   1      30.573  28.693  23.345  1.00  0.00     0.021 A 
ATOM     93  C   UNL A   1      30.693  29.627  22.287  1.00  0.00     0.012 A 
ATOM     94  C   UNL A   1      29.285  28.253  23.665  1.00  0.00     0.032 A 
ATOM     95  C   UNL A   1      29.577  30.119  21.604  1.00  0.00     0.002 A 
ATOM     96  C   UNL A   1      28.166  28.773  23.012  1.00  0.00     0.041 A 
ATOM     97  C   UNL A   1      28.307  29.700  21.983  1.00  0.00     0.020 A 
ATOM     98  Cl  UNL A   1      26.593  28.250  23.481  1.00  0.00    -0.084 Cl
ENDBRANCH  84  92
ENDBRANCH  76  80
ENDBRANCH  72  74
ENDBRANCH  71  72
ENDBRANCH  70  71
ENDBRANCH   1  70
TORSDOF 17
ENDMDL
MODEL 3
REMARK VINA RESULT:     -13.5      4.031     10.555
REMARK SMILES O=C(OCCOC(=O)[C@H]1CCCCN1c1cc(-c2ccccc2)nc(-c2cccc(Cl)c2)n1)c1ccc(-c2c3nc(c(-c4cccc(S(=O)(=O)[O-])c4F)c4ccc([nH]4)c(-c4cccc(S(=O)(=O)[O-])c4F)c4nc(c(-c5cccc(S(=O)(=O)[O-])c5F)c5ccc2[nH]5)C=C4)C=C3)cc1
REMARK SMILES IDX 4 1 3 2 2 3 1 4 34 5 35 6 96 7 36 8 95 9 37 10 38 11 39 12
REMARK SMILES IDX 89 13 40 14 94 15 88 16 90 17 41 18 93 19 87 20 86 21 42 23
REMARK SMILES IDX 74 24 54 25 73 26 55 27 58 28 72 29 91 30 56 31 57 32 71 34
REMARK SMILES IDX 92 35 59 36 43 37 44 38 52 39 45 40 47 41 53 42 46 43 48 44
REMARK SMILES IDX 49 45 50 46 51 47 75 48 76 49 84 50 77 51 79 52 85 53 78 54
REMARK SMILES IDX 80 55 81 56 82 57 83 58 60 59 61 60 69 61 62 62 64 63 70 64
REMARK SMILES IDX 63 65 65 66 66 67 67 68 68 69 5 70 6 71 7 72 8 73 9 74 10 75
REMARK SMILES IDX 14 76 11 77 13 78 12 79 15 80 16 81 33 82 17 83 25 84 24 85
REMARK SMILES IDX 18 86 19 87 23 88 20 89 22 90 21 91 26 92 27 93 32 94 28 95
REMARK SMILES IDX 30 96 29 97 31 98
REMARK H PARENT 90 22 58 33
REMARK Flexibility Score: inf
ROOT
ATOM      1  C   UNL A   1      31.789  30.711  25.986  1.00  0.00     0.275 C 
ENDROOT
BRANCH   1   2
ATOM      2  O   UNL A   1      32.430  30.945  27.250  1.00  0.00    -0.458 OA
BRANCH   2   3
ATOM      3  C   UNL A   1      33.327  31.929  27.562  1.00  0.00     0.338 C 
ATOM      4  O   UNL A   1      33.034  33.089  27.534  1.00  0.00    -0.246 OA
BRANCH   3   5
ATOM      5  C   UNL A   1      34.748  31.523  27.727  1.00  0.00     0.060 A 
ATOM      6  C   UNL A   1      35.813  32.401  27.937  1.00  0.00     0.016 A 
ATOM      7  C   UNL A   1      34.967  30.154  27.778  1.00  0.00     0.016 A 
ATOM      8  C   UNL A   1      36.997  31.939  28.503  1.00  0.00     0.010 A 
ATOM      9  C   UNL A   1      36.174  29.694  28.276  1.00  0.00     0.010 A 
ATOM     10  C   UNL A   1      37.149  30.582  28.752  1.00  0.00    -0.014 A 
BRANCH  10  11
ATOM     11  C   UNL A   1      38.390  30.071  29.372  1.00  0.00     0.031 A 
ATOM     12  C   UNL A   1      38.484  30.830  31.058  1.00  0.00     0.074 A 
ATOM     13  C   UNL A   1      39.303  29.205  28.581  1.00  0.00     0.049 A 
ATOM     14  N   UNL A   1      39.566  31.258  31.721  1.00  0.00    -0.248 NA
ATOM     15  C   UNL A   1      37.317  31.236  31.862  1.00  0.00     0.031 C 
ATOM     16  C   UNL A   1      39.453  29.040  27.104  1.00  0.00     0.029 A 
ATOM     17  N   UNL A   1      40.453  28.393  28.893  1.00  0.00    -0.354 N 
ATOM     18  C   UNL A   1      39.341  31.643  33.010  1.00  0.00     0.074 A 
ATOM     19  C   UNL A   1      37.882  31.820  32.947  1.00  0.00     0.031 C 
ATOM     20  C   UNL A   1      40.672  28.478  26.775  1.00  0.00     0.029 A 
ATOM     21  C   UNL A   1      41.458  28.173  27.979  1.00  0.00     0.049 A 
ATOM     22  H   UNL A   1      40.520  27.984  29.786  1.00  0.00     0.167 HD
ATOM     23  C   UNL A   1      40.221  31.713  34.089  1.00  0.00     0.034 A 
ATOM     24  C   UNL A   1      42.771  27.780  28.224  1.00  0.00     0.034 A 
ATOM     25  C   UNL A   1      41.628  31.120  34.281  1.00  0.00     0.049 A 
ATOM     26  C   UNL A   1      43.606  27.844  29.687  1.00  0.00     0.074 A 
ATOM     27  C   UNL A   1      42.149  30.612  35.479  1.00  0.00     0.029 A 
ATOM     28  N   UNL A   1      42.747  30.948  33.400  1.00  0.00    -0.354 N 
ATOM     29  N   UNL A   1      43.624  28.756  30.644  1.00  0.00    -0.248 NA
ATOM     30  C   UNL A   1      44.643  26.836  30.003  1.00  0.00     0.031 C 
ATOM     31  C   UNL A   1      43.356  29.892  35.239  1.00  0.00     0.029 A 
ATOM     32  C   UNL A   1      43.611  29.861  33.865  1.00  0.00     0.049 A 
ATOM     33  H   UNL A   1      42.912  31.489  32.595  1.00  0.00     0.167 HD
ATOM     34  C   UNL A   1      44.393  28.345  31.762  1.00  0.00     0.074 A 
ATOM     35  C   UNL A   1      45.077  27.173  31.227  1.00  0.00     0.031 C 
ATOM     36  C   UNL A   1      44.434  28.775  33.100  1.00  0.00     0.034 A 
BRANCH  23  37
ATOM     37  C   UNL A   1      39.596  32.234  35.383  1.00  0.00     0.023 A 
ATOM     38  C   UNL A   1      38.721  31.419  36.129  1.00  0.00     0.012 A 
ATOM     39  C   UNL A   1      39.950  33.495  35.913  1.00  0.00     0.148 A 
ATOM     40  C   UNL A   1      38.107  31.887  37.292  1.00  0.00     0.002 A 
ATOM     41  C   UNL A   1      39.391  33.928  37.116  1.00  0.00     0.091 A 
ATOM     42  F   UNL A   1      40.817  34.264  35.237  1.00  0.00    -0.205 F 
ATOM     43  C   UNL A   1      38.443  33.141  37.786  1.00  0.00     0.022 A 
BRANCH  41  44
ATOM     44  S   UNL A   1      39.899  35.464  37.907  1.00  0.00     0.127 S 
ATOM     45  O   UNL A   1      38.984  35.534  39.044  1.00  0.00    -0.237 OA
ATOM     46  O   UNL A   1      41.293  35.196  38.268  1.00  0.00    -0.237 OA
ATOM     47  O   UNL A   1      39.736  36.493  36.889  1.00  0.00    -0.744 OA
ENDBRANCH  41  44
ENDBRANCH  23  37
BRANCH  24  48
ATOM     48  C   UNL A   1      43.607  27.189  27.108  1.00  0.00     0.023 A 
ATOM     49  C   UNL A   1      43.333  25.854  26.729  1.00  0.00     0.012 A 
ATOM     50  C   UNL A   1      44.707  27.828  26.506  1.00  0.00     0.148 A 
ATOM     51  C   UNL A   1      44.199  25.130  25.904  1.00  0.00     0.002 A 
ATOM     52  C   UNL A   1      45.556  27.110  25.655  1.00  0.00     0.091 A 
ATOM     53  F   UNL A   1      44.899  29.129  26.745  1.00  0.00    -0.205 F 
ATOM     54  C   UNL A   1      45.322  25.753  25.382  1.00  0.00     0.022 A 
BRANCH  52  55
ATOM     55  S   UNL A   1      46.999  27.839  24.861  1.00  0.00     0.127 S 
ATOM     56  O   UNL A   1      47.959  27.921  25.963  1.00  0.00    -0.237 OA
ATOM     57  O   UNL A   1      47.318  26.828  23.853  1.00  0.00    -0.237 OA
ATOM     58  O   UNL A   1      46.560  29.125  24.339  1.00  0.00    -0.744 OA
ENDBRANCH  52  55
ENDBRANCH  24  48
BRANCH  36  59
ATOM     59  C   UNL A   1      45.250  27.822  34.022  1.00  0.00     0.023 A 
ATOM     60  C   UNL A   1      46.587  28.148  34.312  1.00  0.00     0.012 A 
ATOM     61  C   UNL A   1      44.722  26.630  34.602  1.00  0.00     0.148 A 
ATOM     62  C   UNL A   1      47.372  27.329  35.137  1.00  0.00     0.002 A 
ATOM     63  C   UNL A   1      45.499  25.839  35.457  1.00  0.00     0.091 A 
ATOM     64  F   UNL A   1      43.473  26.259  34.308  1.00  0.00    -0.205 F 
ATOM     65  C   UNL A   1      46.828  26.185  35.718  1.00  0.00     0.022 A 
BRANCH  63  66
ATOM     66  S   UNL A   1      44.871  24.371  36.307  1.00  0.00     0.127 S 
ATOM     67  O   UNL A   1      46.105  23.657  36.632  1.00  0.00    -0.237 OA
ATOM     68  O   UNL A   1      44.186  24.952  37.463  1.00  0.00    -0.237 OA
ATOM     69  O   UNL A   1      43.996  23.694  35.360  1.00  0.00    -0.744 OA
ENDBRANCH  63  66
ENDBRANCH  36  59
ENDBRANCH  10  11
ENDBRANCH   3   5
ENDBRANCH   2   3
ENDBRANCH   1   2
BRANCH   1  70
ATOM     70  C   UNL A   1      31.819  29.285  25.385  1.00  0.00     0.274 C 
BRANCH  70  71
ATOM     71  O   UNL A   1      32.571  28.198  25.996  1.00  0.00    -0.461 OA
BRANCH  71  72
ATOM     72  C   UNL A   1      33.150  27.310  25.126  1.00  0.00     0.328 C 
ATOM     73  O   UNL A   1      33.472  27.693  24.004  1.00  0.00    -0.250 OA
BRANCH  72  74
ATOM     74  C   UNL A   1      33.159  25.779  25.602  1.00  0.00     0.193 C 
ATOM     75  C   UNL A   1      31.681  25.484  25.974  1.00  0.00     0.037 C 
ATOM     76  N   UNL A   1      33.646  24.738  24.606  1.00  0.00    -0.343 N 
ATOM     77  C   UNL A   1      30.768  25.390  24.746  1.00  0.00     0.005 C 
ATOM     78  C   UNL A   1      32.787  24.540  23.430  1.00  0.00     0.119 C 
ATOM     79  C   UNL A   1      31.303  24.361  23.764  1.00  0.00     0.022 C 
BRANCH  76  80
ATOM     80  C   UNL A   1      34.525  23.677  24.986  1.00  0.00     0.134 A 
ATOM     81  C   UNL A   1      34.058  22.376  25.316  1.00  0.00     0.076 A 
ATOM     82  N   UNL A   1      35.828  23.821  25.000  1.00  0.00    -0.211 NA
ATOM     83  C   UNL A   1      34.828  21.121  25.188  1.00  0.00     0.076 A 
ATOM     84  C   UNL A   1      36.551  22.708  25.364  1.00  0.00     0.162 A 
ATOM     85  N   UNL A   1      36.133  21.380  25.382  1.00  0.00    -0.228 NA
BRANCH  83  86
ATOM     86  C   UNL A   1      34.296  19.466  24.596  1.00  0.00     0.000 A 
ATOM     87  C   UNL A   1      33.098  19.234  24.032  1.00  0.00     0.010 A 
ATOM     88  C   UNL A   1      34.900  18.086  24.546  1.00  0.00     0.010 A 
ATOM     89  C   UNL A   1      32.568  18.043  23.422  1.00  0.00     0.001 A 
ATOM     90  C   UNL A   1      34.447  16.865  23.978  1.00  0.00     0.001 A 
ATOM     91  C   UNL A   1      33.247  16.857  23.362  1.00  0.00     0.000 A 
ENDBRANCH  83  86
BRANCH  84  92
ATOM     92  C   UNL A   1      37.855  23.041  25.981  1.00  0.00     0.021 A 
ATOM     93  C   UNL A   1      38.099  24.343  26.483  1.00  0.00     0.012 A 
ATOM     94  C   UNL A   1      38.890  22.108  26.095  1.00  0.00     0.032 A 
ATOM     95  C   UNL A   1      39.327  24.701  27.043  1.00  0.00     0.002 A 
ATOM     96  C   UNL A   1      40.131  22.474  26.618  1.00  0.00     0.041 A 
ATOM     97  C   UNL A   1      40.353  23.763  27.094  1.00  0.00     0.020 A 
ATOM     98  Cl  UNL A   1      41.400  21.310  26.683  1.00  0.00    -0.084 Cl
ENDBRANCH  84  92
ENDBRANCH  76  80
ENDBRANCH  72  74
ENDBRANCH  71  72
ENDBRANCH  70  71
ENDBRANCH   1  70
TORSDOF 17
ENDMDL
