MODEL 1
REMARK VINA RESULT:     -11.4      0.000      0.000
REMARK SMILES O=C(OCCOC(=O)c1cncc(Oc2cc(F)ccc2F)n1)c1ccc(-c2c3nc(c(-c4cccc(S(=O)(=O)[O-])c4F)c4ccc([nH]4)c(-c4cccc(S(=O)(=O)[O-])c4F)c4nc(c(-c5cccc(S(=O)(=O)[O-])c5F)c5ccc2[nH]5)C=C4)C=C3)cc1
REMARK SMILES IDX 4 1 3 2 2 3 1 4 24 5 25 6 86 7 26 8 85 9 27 10 28 11 29 12
REMARK SMILES IDX 79 13 30 14 84 15 78 16 80 17 31 18 83 19 77 20 76 21 32 23
REMARK SMILES IDX 64 24 44 25 63 26 45 27 48 28 62 29 81 30 46 31 47 32 61 34
REMARK SMILES IDX 82 35 49 36 33 37 34 38 42 39 35 40 37 41 43 42 36 43 38 44
REMARK SMILES IDX 39 45 40 46 41 47 65 48 66 49 74 50 67 51 69 52 75 53 68 54
REMARK SMILES IDX 70 55 71 56 72 57 73 58 50 59 51 60 59 61 52 62 54 63 60 64
REMARK SMILES IDX 53 65 55 66 56 67 57 68 58 69 5 70 6 71 7 72 8 73 9 74 10 75
REMARK SMILES IDX 23 76 11 77 13 78 12 79 14 80 15 81 16 82 21 83 17 84 20 85
REMARK SMILES IDX 22 86 18 87 19 88
REMARK H PARENT 80 22 48 33
REMARK Flexibility Score: inf
ROOT
ATOM      1  C   UNL A   1      34.456  32.802  28.195  1.00  0.00     0.275 C 
ENDROOT
BRANCH   1   2
ATOM      2  O   UNL A   1      33.928  31.603  27.613  1.00  0.00    -0.458 OA
BRANCH   2   3
ATOM      3  C   UNL A   1      34.437  30.347  27.632  1.00  0.00     0.338 C 
ATOM      4  O   UNL A   1      33.681  29.401  27.422  1.00  0.00    -0.246 OA
BRANCH   3   5
ATOM      5  C   UNL A   1      35.849  30.037  28.028  1.00  0.00     0.060 A 
ATOM      6  C   UNL A   1      36.976  30.103  27.208  1.00  0.00     0.016 A 
ATOM      7  C   UNL A   1      36.024  29.576  29.342  1.00  0.00     0.016 A 
ATOM      8  C   UNL A   1      38.244  29.758  27.697  1.00  0.00     0.010 A 
ATOM      9  C   UNL A   1      37.286  29.240  29.841  1.00  0.00     0.010 A 
ATOM     10  C   UNL A   1      38.406  29.312  29.011  1.00  0.00    -0.014 A 
BRANCH  10  11
ATOM     11  C   UNL A   1      39.720  28.803  29.471  1.00  0.00     0.031 A 
ATOM     12  C   UNL A   1      40.457  29.555  30.542  1.00  0.00     0.074 A 
ATOM     13  C   UNL A   1      40.251  27.689  28.935  1.00  0.00     0.049 A 
ATOM     14  N   UNL A   1      41.587  29.258  31.128  1.00  0.00    -0.248 NA
ATOM     15  C   UNL A   1      39.837  30.801  31.026  1.00  0.00     0.031 C 
ATOM     16  C   UNL A   1      39.631  26.886  27.884  1.00  0.00     0.029 A 
ATOM     17  N   UNL A   1      41.445  27.056  29.173  1.00  0.00    -0.354 N 
ATOM     18  C   UNL A   1      41.809  30.271  32.051  1.00  0.00     0.074 A 
ATOM     19  C   UNL A   1      40.725  31.218  31.916  1.00  0.00     0.031 C 
ATOM     20  C   UNL A   1      40.471  25.903  27.522  1.00  0.00     0.029 A 
ATOM     21  C   UNL A   1      41.682  25.994  28.330  1.00  0.00     0.049 A 
ATOM     22  H   UNL A   1      42.071  27.334  29.879  1.00  0.00     0.167 HD
ATOM     23  C   UNL A   1      42.805  30.379  32.960  1.00  0.00     0.034 A 
ATOM     24  C   UNL A   1      42.756  25.188  28.224  1.00  0.00     0.034 A 
ATOM     25  C   UNL A   1      43.876  29.432  33.088  1.00  0.00     0.049 A 
ATOM     26  C   UNL A   1      43.879  25.356  29.213  1.00  0.00     0.074 A 
ATOM     27  C   UNL A   1      44.907  29.414  34.008  1.00  0.00     0.029 A 
ATOM     28  N   UNL A   1      44.064  28.343  32.250  1.00  0.00    -0.354 N 
ATOM     29  N   UNL A   1      43.987  26.218  30.196  1.00  0.00    -0.248 NA
ATOM     30  C   UNL A   1      44.999  24.409  29.121  1.00  0.00     0.031 C 
ATOM     31  C   UNL A   1      45.733  28.323  33.711  1.00  0.00     0.029 A 
ATOM     32  C   UNL A   1      45.204  27.652  32.618  1.00  0.00     0.049 A 
ATOM     33  H   UNL A   1      43.473  28.097  31.502  1.00  0.00     0.167 HD
ATOM     34  C   UNL A   1      45.156  25.888  30.869  1.00  0.00     0.074 A 
ATOM     35  C   UNL A   1      45.721  24.742  30.183  1.00  0.00     0.031 C 
ATOM     36  C   UNL A   1      45.715  26.480  31.954  1.00  0.00     0.034 A 
BRANCH  23  37
ATOM     37  C   UNL A   1      42.741  31.544  33.909  1.00  0.00     0.023 A 
ATOM     38  C   UNL A   1      43.311  32.777  33.527  1.00  0.00     0.012 A 
ATOM     39  C   UNL A   1      42.122  31.429  35.168  1.00  0.00     0.148 A 
ATOM     40  C   UNL A   1      43.302  33.866  34.399  1.00  0.00     0.002 A 
ATOM     41  C   UNL A   1      42.084  32.530  36.017  1.00  0.00     0.091 A 
ATOM     42  F   UNL A   1      41.607  30.243  35.520  1.00  0.00    -0.205 F 
ATOM     43  C   UNL A   1      42.684  33.742  35.640  1.00  0.00     0.022 A 
BRANCH  41  44
ATOM     44  S   UNL A   1      41.267  32.492  37.615  1.00  0.00     0.127 S 
ATOM     45  O   UNL A   1      41.293  33.904  37.993  1.00  0.00    -0.237 OA
ATOM     46  O   UNL A   1      39.940  31.978  37.268  1.00  0.00    -0.237 OA
ATOM     47  O   UNL A   1      42.062  31.605  38.453  1.00  0.00    -0.744 OA
ENDBRANCH  41  44
ENDBRANCH  23  37
BRANCH  24  48
ATOM     48  C   UNL A   1      42.785  24.106  27.198  1.00  0.00     0.023 A 
ATOM     49  C   UNL A   1      43.478  24.312  25.990  1.00  0.00     0.012 A 
ATOM     50  C   UNL A   1      42.146  22.869  27.420  1.00  0.00     0.148 A 
ATOM     51  C   UNL A   1      43.513  23.319  25.010  1.00  0.00     0.002 A 
ATOM     52  C   UNL A   1      42.220  21.868  26.457  1.00  0.00     0.091 A 
ATOM     53  F   UNL A   1      41.480  22.697  28.571  1.00  0.00    -0.205 F 
ATOM     54  C   UNL A   1      42.891  22.096  25.247  1.00  0.00     0.022 A 
BRANCH  52  55
ATOM     55  S   UNL A   1      41.532  20.228  26.712  1.00  0.00     0.127 S 
ATOM     56  O   UNL A   1      42.377  19.713  27.786  1.00  0.00    -0.237 OA
ATOM     57  O   UNL A   1      40.155  20.535  27.104  1.00  0.00    -0.237 OA
ATOM     58  O   UNL A   1      41.655  19.545  25.431  1.00  0.00    -0.744 OA
ENDBRANCH  52  55
ENDBRANCH  24  48
BRANCH  36  59
ATOM     59  C   UNL A   1      46.985  25.884  32.496  1.00  0.00     0.023 A 
ATOM     60  C   UNL A   1      48.231  26.372  32.057  1.00  0.00     0.012 A 
ATOM     61  C   UNL A   1      46.939  24.911  33.514  1.00  0.00     0.148 A 
ATOM     62  C   UNL A   1      49.414  25.884  32.609  1.00  0.00     0.002 A 
ATOM     63  C   UNL A   1      48.120  24.466  34.094  1.00  0.00     0.091 A 
ATOM     64  F   UNL A   1      45.742  24.446  33.901  1.00  0.00    -0.205 F 
ATOM     65  C   UNL A   1      49.359  24.945  33.636  1.00  0.00     0.022 A 
BRANCH  63  66
ATOM     66  S   UNL A   1      48.138  23.337  35.490  1.00  0.00     0.127 S 
ATOM     67  O   UNL A   1      47.593  22.118  34.895  1.00  0.00    -0.237 OA
ATOM     68  O   UNL A   1      49.562  23.272  35.820  1.00  0.00    -0.237 OA
ATOM     69  O   UNL A   1      47.310  23.956  36.517  1.00  0.00    -0.744 OA
ENDBRANCH  63  66
ENDBRANCH  36  59
ENDBRANCH  10  11
ENDBRANCH   3   5
ENDBRANCH   2   3
ENDBRANCH   1   2
BRANCH   1  70
ATOM     70  C   UNL A   1      33.557  34.027  28.043  1.00  0.00     0.275 C 
BRANCH  70  71
ATOM     71  O   UNL A   1      34.030  35.177  28.756  1.00  0.00    -0.457 OA
BRANCH  71  72
ATOM     72  C   UNL A   1      33.062  35.952  29.326  1.00  0.00     0.358 C 
ATOM     73  O   UNL A   1      32.131  36.481  28.741  1.00  0.00    -0.244 OA
BRANCH  72  74
ATOM     74  C   UNL A   1      33.294  36.016  30.786  1.00  0.00     0.170 A 
ATOM     75  C   UNL A   1      33.414  37.249  31.406  1.00  0.00     0.147 A 
ATOM     76  N   UNL A   1      33.393  34.838  31.462  1.00  0.00    -0.203 NA
ATOM     77  N   UNL A   1      33.653  37.366  32.731  1.00  0.00    -0.257 NA
ATOM     78  C   UNL A   1      33.646  34.960  32.791  1.00  0.00     0.238 A 
ATOM     79  C   UNL A   1      33.777  36.199  33.411  1.00  0.00     0.179 A 
BRANCH  78  80
ATOM     80  O   UNL A   1      33.851  33.835  33.586  1.00  0.00    -0.434 OA
BRANCH  80  81
ATOM     81  C   UNL A   1      35.144  33.384  33.672  1.00  0.00     0.168 A 
ATOM     82  C   UNL A   1      35.948  33.828  34.722  1.00  0.00     0.089 A 
ATOM     83  C   UNL A   1      35.635  32.442  32.770  1.00  0.00     0.166 A 
ATOM     84  C   UNL A   1      37.266  33.391  34.796  1.00  0.00     0.127 A 
ATOM     85  C   UNL A   1      36.950  31.987  32.865  1.00  0.00     0.046 A 
ATOM     86  F   UNL A   1      34.844  31.946  31.809  1.00  0.00    -0.203 F 
ATOM     87  F   UNL A   1      38.059  33.850  35.773  1.00  0.00    -0.207 F 
ATOM     88  C   UNL A   1      37.777  32.480  33.875  1.00  0.00     0.042 A 
ENDBRANCH  80  81
ENDBRANCH  78  80
ENDBRANCH  72  74
ENDBRANCH  71  72
ENDBRANCH  70  71
ENDBRANCH   1  70
TORSDOF 16
ENDMDL
MODEL 2
REMARK VINA RESULT:     -11.0      4.022      6.530
REMARK SMILES O=C(OCCOC(=O)c1cncc(Oc2cc(F)ccc2F)n1)c1ccc(-c2c3nc(c(-c4cccc(S(=O)(=O)[O-])c4F)c4ccc([nH]4)c(-c4cccc(S(=O)(=O)[O-])c4F)c4nc(c(-c5cccc(S(=O)(=O)[O-])c5F)c5ccc2[nH]5)C=C4)C=C3)cc1
REMARK SMILES IDX 4 1 3 2 2 3 1 4 24 5 25 6 86 7 26 8 85 9 27 10 28 11 29 12
REMARK SMILES IDX 79 13 30 14 84 15 78 16 80 17 31 18 83 19 77 20 76 21 32 23
REMARK SMILES IDX 64 24 44 25 63 26 45 27 48 28 62 29 81 30 46 31 47 32 61 34
REMARK SMILES IDX 82 35 49 36 33 37 34 38 42 39 35 40 37 41 43 42 36 43 38 44
REMARK SMILES IDX 39 45 40 46 41 47 65 48 66 49 74 50 67 51 69 52 75 53 68 54
REMARK SMILES IDX 70 55 71 56 72 57 73 58 50 59 51 60 59 61 52 62 54 63 60 64
REMARK SMILES IDX 53 65 55 66 56 67 57 68 58 69 5 70 6 71 7 72 8 73 9 74 10 75
REMARK SMILES IDX 23 76 11 77 13 78 12 79 14 80 15 81 16 82 21 83 17 84 20 85
REMARK SMILES IDX 22 86 18 87 19 88
REMARK H PARENT 80 22 48 33
REMARK Flexibility Score: inf
ROOT
ATOM      1  C   UNL A   1      31.389  32.196  26.861  1.00  0.00     0.275 C 
ENDROOT
BRANCH   1   2
ATOM      2  O   UNL A   1      32.513  33.087  26.837  1.00  0.00    -0.458 OA
BRANCH   2   3
ATOM      3  C   UNL A   1      33.295  33.504  27.863  1.00  0.00     0.338 C 
ATOM      4  O   UNL A   1      33.104  34.623  28.333  1.00  0.00    -0.246 OA
BRANCH   3   5
ATOM      5  C   UNL A   1      34.470  32.726  28.370  1.00  0.00     0.060 A 
ATOM      6  C   UNL A   1      34.464  31.401  28.810  1.00  0.00     0.016 A 
ATOM      7  C   UNL A   1      35.676  33.439  28.464  1.00  0.00     0.016 A 
ATOM      8  C   UNL A   1      35.635  30.796  29.290  1.00  0.00     0.010 A 
ATOM      9  C   UNL A   1      36.850  32.840  28.930  1.00  0.00     0.010 A 
ATOM     10  C   UNL A   1      36.831  31.514  29.366  1.00  0.00    -0.014 A 
BRANCH  10  11
ATOM     11  C   UNL A   1      38.021  30.916  30.016  1.00  0.00     0.031 A 
ATOM     12  C   UNL A   1      38.405  31.376  31.394  1.00  0.00     0.074 A 
ATOM     13  C   UNL A   1      38.753  29.981  29.384  1.00  0.00     0.049 A 
ATOM     14  N   UNL A   1      39.370  30.949  32.165  1.00  0.00    -0.248 NA
ATOM     15  C   UNL A   1      37.591  32.451  31.987  1.00  0.00     0.031 C 
ATOM     16  C   UNL A   1      38.481  29.467  28.044  1.00  0.00     0.029 A 
ATOM     17  N   UNL A   1      39.893  29.319  29.765  1.00  0.00    -0.354 N 
ATOM     18  C   UNL A   1      39.274  31.694  33.333  1.00  0.00     0.074 A 
ATOM     19  C   UNL A   1      38.191  32.634  33.153  1.00  0.00     0.031 C 
ATOM     20  C   UNL A   1      39.457  28.618  27.687  1.00  0.00     0.029 A 
ATOM     21  C   UNL A   1      40.414  28.510  28.781  1.00  0.00     0.049 A 
ATOM     22  H   UNL A   1      40.297  29.413  30.657  1.00  0.00     0.167 HD
ATOM     23  C   UNL A   1      39.998  31.575  34.470  1.00  0.00     0.034 A 
ATOM     24  C   UNL A   1      41.539  27.767  28.769  1.00  0.00     0.034 A 
ATOM     25  C   UNL A   1      41.071  30.637  34.639  1.00  0.00     0.049 A 
ATOM     26  C   UNL A   1      42.359  27.687  30.029  1.00  0.00     0.074 A 
ATOM     27  C   UNL A   1      41.834  30.393  35.765  1.00  0.00     0.029 A 
ATOM     28  N   UNL A   1      41.545  29.799  33.641  1.00  0.00    -0.354 N 
ATOM     29  N   UNL A   1      42.150  28.270  31.185  1.00  0.00    -0.248 NA
ATOM     30  C   UNL A   1      43.535  26.805  30.006  1.00  0.00     0.031 C 
ATOM     31  C   UNL A   1      42.789  29.422  35.439  1.00  0.00     0.029 A 
ATOM     32  C   UNL A   1      42.605  29.048  34.116  1.00  0.00     0.049 A 
ATOM     33  H   UNL A   1      41.183  29.747  32.727  1.00  0.00     0.167 HD
ATOM     34  C   UNL A   1      43.134  27.789  32.040  1.00  0.00     0.074 A 
ATOM     35  C   UNL A   1      43.938  26.861  31.268  1.00  0.00     0.031 C 
ATOM     36  C   UNL A   1      43.354  28.089  33.344  1.00  0.00     0.034 A 
BRANCH  23  37
ATOM     37  C   UNL A   1      39.608  32.458  35.624  1.00  0.00     0.023 A 
ATOM     38  C   UNL A   1      40.159  33.754  35.717  1.00  0.00     0.012 A 
ATOM     39  C   UNL A   1      38.704  32.019  36.608  1.00  0.00     0.148 A 
ATOM     40  C   UNL A   1      39.848  34.583  36.794  1.00  0.00     0.002 A 
ATOM     41  C   UNL A   1      38.370  32.865  37.660  1.00  0.00     0.091 A 
ATOM     42  F   UNL A   1      38.210  30.776  36.513  1.00  0.00    -0.205 F 
ATOM     43  C   UNL A   1      38.950  34.141  37.761  1.00  0.00     0.022 A 
BRANCH  41  44
ATOM     44  S   UNL A   1      37.184  32.412  38.929  1.00  0.00     0.127 S 
ATOM     45  O   UNL A   1      37.594  33.271  40.038  1.00  0.00    -0.237 OA
ATOM     46  O   UNL A   1      35.912  32.785  38.306  1.00  0.00    -0.237 OA
ATOM     47  O   UNL A   1      37.356  30.983  39.148  1.00  0.00    -0.744 OA
ENDBRANCH  41  44
ENDBRANCH  23  37
BRANCH  24  48
ATOM     48  C   UNL A   1      41.907  26.984  27.554  1.00  0.00     0.023 A 
ATOM     49  C   UNL A   1      42.453  27.648  26.439  1.00  0.00     0.012 A 
ATOM     50  C   UNL A   1      41.737  25.585  27.506  1.00  0.00     0.148 A 
ATOM     51  C   UNL A   1      42.798  26.938  25.287  1.00  0.00     0.002 A 
ATOM     52  C   UNL A   1      42.123  24.880  26.371  1.00  0.00     0.091 A 
ATOM     53  F   UNL A   1      41.204  24.973  28.573  1.00  0.00    -0.205 F 
ATOM     54  C   UNL A   1      42.640  25.555  25.256  1.00  0.00     0.022 A 
BRANCH  52  55
ATOM     55  S   UNL A   1      42.046  23.087  26.273  1.00  0.00     0.127 S 
ATOM     56  O   UNL A   1      42.835  22.691  27.438  1.00  0.00    -0.237 OA
ATOM     57  O   UNL A   1      40.609  22.838  26.390  1.00  0.00    -0.237 OA
ATOM     58  O   UNL A   1      42.615  22.737  24.979  1.00  0.00    -0.744 OA
ENDBRANCH  52  55
ENDBRANCH  24  48
BRANCH  36  59
ATOM     59  C   UNL A   1      44.487  27.386  34.039  1.00  0.00     0.023 A 
ATOM     60  C   UNL A   1      45.784  27.933  33.993  1.00  0.00     0.012 A 
ATOM     61  C   UNL A   1      44.244  26.238  34.820  1.00  0.00     0.148 A 
ATOM     62  C   UNL A   1      46.828  27.335  34.698  1.00  0.00     0.002 A 
ATOM     63  C   UNL A   1      45.278  25.678  35.559  1.00  0.00     0.091 A 
ATOM     64  F   UNL A   1      43.006  25.723  34.832  1.00  0.00    -0.205 F 
ATOM     65  C   UNL A   1      46.572  26.219  35.491  1.00  0.00     0.022 A 
BRANCH  63  66
ATOM     66  S   UNL A   1      45.016  24.305  36.686  1.00  0.00     0.127 S 
ATOM     67  O   UNL A   1      44.480  23.281  35.790  1.00  0.00    -0.237 OA
ATOM     68  O   UNL A   1      46.369  24.041  37.175  1.00  0.00    -0.237 OA
ATOM     69  O   UNL A   1      44.093  24.791  37.702  1.00  0.00    -0.744 OA
ENDBRANCH  63  66
ENDBRANCH  36  59
ENDBRANCH  10  11
ENDBRANCH   3   5
ENDBRANCH   2   3
ENDBRANCH   1   2
BRANCH   1  70
ATOM     70  C   UNL A   1      31.758  30.714  26.834  1.00  0.00     0.275 C 
BRANCH  70  71
ATOM     71  O   UNL A   1      32.470  30.324  25.653  1.00  0.00    -0.457 OA
BRANCH  71  72
ATOM     72  C   UNL A   1      33.078  29.103  25.713  1.00  0.00     0.358 C 
ATOM     73  O   UNL A   1      33.727  28.671  26.652  1.00  0.00    -0.244 OA
BRANCH  72  74
ATOM     74  C   UNL A   1      32.788  28.358  24.468  1.00  0.00     0.170 A 
ATOM     75  C   UNL A   1      33.789  27.612  23.869  1.00  0.00     0.147 A 
ATOM     76  N   UNL A   1      31.531  28.454  23.953  1.00  0.00    -0.203 NA
ATOM     77  N   UNL A   1      33.588  26.934  22.717  1.00  0.00    -0.257 NA
ATOM     78  C   UNL A   1      31.337  27.783  22.788  1.00  0.00     0.238 A 
ATOM     79  C   UNL A   1      32.346  27.042  22.181  1.00  0.00     0.179 A 
BRANCH  78  80
ATOM     80  O   UNL A   1      30.122  27.862  22.112  1.00  0.00    -0.434 OA
BRANCH  80  81
ATOM     81  C   UNL A   1      29.333  28.944  22.412  1.00  0.00     0.168 A 
ATOM     82  C   UNL A   1      29.703  30.204  21.940  1.00  0.00     0.089 A 
ATOM     83  C   UNL A   1      28.141  28.788  23.117  1.00  0.00     0.166 A 
ATOM     84  C   UNL A   1      28.917  31.305  22.265  1.00  0.00     0.127 A 
ATOM     85  C   UNL A   1      27.344  29.891  23.417  1.00  0.00     0.046 A 
ATOM     86  F   UNL A   1      27.736  27.569  23.501  1.00  0.00    -0.203 F 
ATOM     87  F   UNL A   1      29.291  32.525  21.858  1.00  0.00    -0.207 F 
ATOM     88  C   UNL A   1      27.745  31.163  23.004  1.00  0.00     0.042 A 
ENDBRANCH  80  81
ENDBRANCH  78  80
ENDBRANCH  72  74
ENDBRANCH  71  72
ENDBRANCH  70  71
ENDBRANCH   1  70
TORSDOF 16
ENDMDL
MODEL 3
REMARK VINA RESULT:     -10.9      4.585     12.756
REMARK SMILES O=C(OCCOC(=O)c1cncc(Oc2cc(F)ccc2F)n1)c1ccc(-c2c3nc(c(-c4cccc(S(=O)(=O)[O-])c4F)c4ccc([nH]4)c(-c4cccc(S(=O)(=O)[O-])c4F)c4nc(c(-c5cccc(S(=O)(=O)[O-])c5F)c5ccc2[nH]5)C=C4)C=C3)cc1
REMARK SMILES IDX 4 1 3 2 2 3 1 4 24 5 25 6 86 7 26 8 85 9 27 10 28 11 29 12
REMARK SMILES IDX 79 13 30 14 84 15 78 16 80 17 31 18 83 19 77 20 76 21 32 23
REMARK SMILES IDX 64 24 44 25 63 26 45 27 48 28 62 29 81 30 46 31 47 32 61 34
REMARK SMILES IDX 82 35 49 36 33 37 34 38 42 39 35 40 37 41 43 42 36 43 38 44
REMARK SMILES IDX 39 45 40 46 41 47 65 48 66 49 74 50 67 51 69 52 75 53 68 54
REMARK SMILES IDX 70 55 71 56 72 57 73 58 50 59 51 60 59 61 52 62 54 63 60 64
REMARK SMILES IDX 53 65 55 66 56 67 57 68 58 69 5 70 6 71 7 72 8 73 9 74 10 75
REMARK SMILES IDX 23 76 11 77 13 78 12 79 14 80 15 81 16 82 21 83 17 84 20 85
REMARK SMILES IDX 22 86 18 87 19 88
REMARK H PARENT 80 22 48 33
REMARK Flexibility Score: inf
ROOT
ATOM      1  C   UNL A   1      40.666  20.882  27.356  1.00  0.00     0.275 C 
ENDROOT
BRANCH   1   2
ATOM      2  O   UNL A   1      40.347  21.840  26.336  1.00  0.00    -0.458 OA
BRANCH   2   3
ATOM      3  C   UNL A   1      39.409  22.817  26.345  1.00  0.00     0.338 C 
ATOM      4  O   UNL A   1      38.288  22.562  25.911  1.00  0.00    -0.246 OA
BRANCH   3   5
ATOM      5  C   UNL A   1      39.699  24.234  26.734  1.00  0.00     0.060 A 
ATOM      6  C   UNL A   1      40.176  25.246  25.899  1.00  0.00     0.016 A 
ATOM      7  C   UNL A   1      39.527  24.538  28.094  1.00  0.00     0.016 A 
ATOM      8  C   UNL A   1      40.434  26.530  26.398  1.00  0.00     0.010 A 
ATOM      9  C   UNL A   1      39.771  25.820  28.598  1.00  0.00     0.010 A 
ATOM     10  C   UNL A   1      40.246  26.823  27.751  1.00  0.00    -0.014 A 
BRANCH  10  11
ATOM     11  C   UNL A   1      40.667  28.135  28.297  1.00  0.00     0.031 A 
ATOM     12  C   UNL A   1      42.134  28.428  28.437  1.00  0.00     0.074 A 
ATOM     13  C   UNL A   1      39.753  29.049  28.669  1.00  0.00     0.049 A 
ATOM     14  N   UNL A   1      42.719  29.525  28.837  1.00  0.00    -0.248 NA
ATOM     15  C   UNL A   1      43.065  27.347  28.070  1.00  0.00     0.031 C 
ATOM     16  C   UNL A   1      38.306  28.870  28.589  1.00  0.00     0.029 A 
ATOM     17  N   UNL A   1      39.901  30.297  29.221  1.00  0.00    -0.354 N 
ATOM     18  C   UNL A   1      44.083  29.272  28.762  1.00  0.00     0.074 A 
ATOM     19  C   UNL A   1      44.240  27.903  28.327  1.00  0.00     0.031 C 
ATOM     20  C   UNL A   1      37.695  29.937  29.128  1.00  0.00     0.029 A 
ATOM     21  C   UNL A   1      38.708  30.886  29.574  1.00  0.00     0.049 A 
ATOM     22  H   UNL A   1      40.775  30.729  29.351  1.00  0.00     0.167 HD
ATOM     23  C   UNL A   1      45.111  30.120  28.994  1.00  0.00     0.034 A 
ATOM     24  C   UNL A   1      38.464  32.061  30.188  1.00  0.00     0.034 A 
ATOM     25  C   UNL A   1      44.945  31.479  29.424  1.00  0.00     0.049 A 
ATOM     26  C   UNL A   1      39.627  32.970  30.485  1.00  0.00     0.074 A 
ATOM     27  C   UNL A   1      45.913  32.442  29.636  1.00  0.00     0.029 A 
ATOM     28  N   UNL A   1      43.723  32.062  29.728  1.00  0.00    -0.354 N 
ATOM     29  N   UNL A   1      40.902  32.779  30.243  1.00  0.00    -0.248 NA
ATOM     30  C   UNL A   1      39.319  34.277  31.082  1.00  0.00     0.031 C 
ATOM     31  C   UNL A   1      45.277  33.602  30.093  1.00  0.00     0.029 A 
ATOM     32  C   UNL A   1      43.911  33.367  30.145  1.00  0.00     0.049 A 
ATOM     33  H   UNL A   1      42.850  31.612  29.659  1.00  0.00     0.167 HD
ATOM     34  C   UNL A   1      41.542  33.956  30.611  1.00  0.00     0.074 A 
ATOM     35  C   UNL A   1      40.512  34.858  31.087  1.00  0.00     0.031 C 
ATOM     36  C   UNL A   1      42.862  34.263  30.561  1.00  0.00     0.034 A 
BRANCH  23  37
ATOM     37  C   UNL A   1      46.499  29.598  28.738  1.00  0.00     0.023 A 
ATOM     38  C   UNL A   1      47.084  29.788  27.468  1.00  0.00     0.012 A 
ATOM     39  C   UNL A   1      47.225  28.928  29.740  1.00  0.00     0.148 A 
ATOM     40  C   UNL A   1      48.352  29.283  27.186  1.00  0.00     0.002 A 
ATOM     41  C   UNL A   1      48.504  28.458  29.463  1.00  0.00     0.091 A 
ATOM     42  F   UNL A   1      46.642  28.738  30.932  1.00  0.00    -0.205 F 
ATOM     43  C   UNL A   1      49.063  28.624  28.185  1.00  0.00     0.022 A 
BRANCH  41  44
ATOM     44  S   UNL A   1      49.525  27.644  30.695  1.00  0.00     0.127 S 
ATOM     45  O   UNL A   1      48.715  26.472  31.022  1.00  0.00    -0.237 OA
ATOM     46  O   UNL A   1      50.743  27.350  29.937  1.00  0.00    -0.237 OA
ATOM     47  O   UNL A   1      49.699  28.606  31.773  1.00  0.00    -0.744 OA
ENDBRANCH  41  44
ENDBRANCH  23  37
BRANCH  24  48
ATOM     48  C   UNL A   1      37.063  32.473  30.489  1.00  0.00     0.023 A 
ATOM     49  C   UNL A   1      36.551  32.299  31.789  1.00  0.00     0.012 A 
ATOM     50  C   UNL A   1      36.243  33.055  29.501  1.00  0.00     0.148 A 
ATOM     51  C   UNL A   1      35.240  32.670  32.094  1.00  0.00     0.002 A 
ATOM     52  C   UNL A   1      34.952  33.461  29.822  1.00  0.00     0.091 A 
ATOM     53  F   UNL A   1      36.744  33.201  28.266  1.00  0.00    -0.205 F 
ATOM     54  C   UNL A   1      34.444  33.257  31.114  1.00  0.00     0.022 A 
BRANCH  52  55
ATOM     55  S   UNL A   1      33.885  34.312  28.653  1.00  0.00     0.127 S 
ATOM     56  O   UNL A   1      33.745  33.315  27.596  1.00  0.00    -0.237 OA
ATOM     57  O   UNL A   1      32.680  34.536  29.452  1.00  0.00    -0.237 OA
ATOM     58  O   UNL A   1      34.597  35.528  28.283  1.00  0.00    -0.744 OA
ENDBRANCH  52  55
ENDBRANCH  24  48
BRANCH  36  59
ATOM     59  C   UNL A   1      43.274  35.642  30.999  1.00  0.00     0.023 A 
ATOM     60  C   UNL A   1      43.587  35.883  32.351  1.00  0.00     0.012 A 
ATOM     61  C   UNL A   1      43.446  36.671  30.051  1.00  0.00     0.148 A 
ATOM     62  C   UNL A   1      44.047  37.135  32.757  1.00  0.00     0.002 A 
ATOM     63  C   UNL A   1      43.951  37.900  30.455  1.00  0.00     0.091 A 
ATOM     64  F   UNL A   1      43.121  36.424  28.774  1.00  0.00    -0.205 F 
ATOM     65  C   UNL A   1      44.243  38.137  31.809  1.00  0.00     0.022 A 
BRANCH  63  66
ATOM     66  S   UNL A   1      44.332  39.211  29.288  1.00  0.00     0.127 S 
ATOM     67  O   UNL A   1      45.187  40.085  30.090  1.00  0.00    -0.237 OA
ATOM     68  O   UNL A   1      45.026  38.487  28.223  1.00  0.00    -0.237 OA
ATOM     69  O   UNL A   1      43.051  39.780  28.893  1.00  0.00    -0.744 OA
ENDBRANCH  63  66
ENDBRANCH  36  59
ENDBRANCH  10  11
ENDBRANCH   3   5
ENDBRANCH   2   3
ENDBRANCH   1   2
BRANCH   1  70
ATOM     70  C   UNL A   1      41.088  19.513  26.827  1.00  0.00     0.275 C 
BRANCH  70  71
ATOM     71  O   UNL A   1      42.483  19.237  27.005  1.00  0.00    -0.457 OA
BRANCH  71  72
ATOM     72  C   UNL A   1      43.026  18.360  26.111  1.00  0.00     0.358 C 
ATOM     73  O   UNL A   1      42.616  17.235  25.873  1.00  0.00    -0.244 OA
BRANCH  72  74
ATOM     74  C   UNL A   1      44.171  19.007  25.434  1.00  0.00     0.170 A 
ATOM     75  C   UNL A   1      45.436  18.453  25.550  1.00  0.00     0.147 A 
ATOM     76  N   UNL A   1      43.927  20.146  24.729  1.00  0.00    -0.203 NA
ATOM     77  N   UNL A   1      46.521  19.016  24.976  1.00  0.00    -0.257 NA
ATOM     78  C   UNL A   1      45.023  20.716  24.165  1.00  0.00     0.238 A 
ATOM     79  C   UNL A   1      46.294  20.165  24.290  1.00  0.00     0.179 A 
BRANCH  78  80
ATOM     80  O   UNL A   1      44.928  21.927  23.484  1.00  0.00    -0.434 OA
BRANCH  80  81
ATOM     81  C   UNL A   1      45.092  23.060  24.241  1.00  0.00     0.168 A 
ATOM     82  C   UNL A   1      46.367  23.610  24.370  1.00  0.00     0.089 A 
ATOM     83  C   UNL A   1      43.996  23.701  24.817  1.00  0.00     0.166 A 
ATOM     84  C   UNL A   1      46.538  24.744  25.158  1.00  0.00     0.127 A 
ATOM     85  C   UNL A   1      44.170  24.852  25.583  1.00  0.00     0.046 A 
ATOM     86  F   UNL A   1      42.757  23.227  24.628  1.00  0.00    -0.203 F 
ATOM     87  F   UNL A   1      47.766  25.250  25.327  1.00  0.00    -0.207 F 
ATOM     88  C   UNL A   1      45.454  25.367  25.770  1.00  0.00     0.042 A 
ENDBRANCH  80  81
ENDBRANCH  78  80
ENDBRANCH  72  74
ENDBRANCH  71  72
ENDBRANCH  70  71
ENDBRANCH   1  70
TORSDOF 16
ENDMDL
