MODEL 1
REMARK VINA RESULT:     -12.0      0.000      0.000
REMARK SMILES C[C@]1(C(=O)N2CCC(CC(=O)OCCOC(=O)c3ccc(-c4c5nc(c(-c6cccc(S(=O)(=O)[O-])c6F)c6ccc([nH]6)c(-c6cccc(S(=O)(=O)[O-])c6F)c6nc(c(-c7cccc(S(=O)(=O)[O-])c7F)c7ccc4[nH]7)C=C6)C=C5)cc3)CC2)CCC[NH2+]C1
REMARK SMILES IDX 14 1 13 2 12 3 10 4 11 5 9 6 8 7 3 8 4 9 5 10 6 11 82 12
REMARK SMILES IDX 7 13 81 14 2 15 1 16 83 17 87 18 84 19 86 20 85 21 15 24
REMARK SMILES IDX 16 25 17 26 18 27 19 28 80 29 20 30 79 31 21 32 22 33 23 34
REMARK SMILES IDX 73 35 24 36 78 37 72 38 74 39 25 40 77 41 71 42 70 43 26 45
REMARK SMILES IDX 58 46 38 47 57 48 39 49 42 50 56 51 75 52 40 53 41 54 55 56
REMARK SMILES IDX 76 57 43 58 27 59 28 60 36 61 29 62 31 63 37 64 30 65 32 66
REMARK SMILES IDX 33 67 34 68 35 69 59 70 60 71 68 72 61 73 63 74 69 75 62 76
REMARK SMILES IDX 64 77 65 78 66 79 67 80 44 81 45 82 53 83 46 84 48 85 54 86
REMARK SMILES IDX 47 87 49 88 50 89 51 90 52 91
REMARK H PARENT 86 22 86 23 74 44 42 55
REMARK Flexibility Score: inf
ROOT
ATOM      1  C   UNL A   1      31.680  30.276  25.843  1.00  0.00     0.275 C 
ENDROOT
BRANCH   1   2
ATOM      2  C   UNL A   1      31.458  28.943  25.129  1.00  0.00     0.274 C 
BRANCH   2   3
ATOM      3  O   UNL A   1      31.375  29.122  23.703  1.00  0.00    -0.462 OA
BRANCH   3   4
ATOM      4  C   UNL A   1      30.792  28.110  23.015  1.00  0.00     0.306 C 
ATOM      5  O   UNL A   1      30.199  28.236  21.951  1.00  0.00    -0.252 OA
BRANCH   4   6
ATOM      6  C   UNL A   1      30.869  26.790  23.742  1.00  0.00     0.126 C 
BRANCH   6   7
ATOM      7  C   UNL A   1      31.249  25.552  22.904  1.00  0.00     0.003 C 
ATOM      8  C   UNL A   1      33.509  22.129  23.813  1.00  0.00     0.234 C 
ATOM      9  O   UNL A   1      33.119  20.955  23.724  1.00  0.00    -0.274 OA
ATOM     10  N   UNL A   1      32.790  23.130  23.198  1.00  0.00    -0.342 N 
ATOM     11  C   UNL A   1      31.345  23.001  23.141  1.00  0.00     0.120 C 
ATOM     12  C   UNL A   1      33.316  24.125  22.281  1.00  0.00     0.120 C 
ATOM     13  C   UNL A   1      30.736  24.297  23.649  1.00  0.00     0.026 C 
ATOM     14  C   UNL A   1      32.769  25.515  22.602  1.00  0.00     0.026 C 
BRANCH   8  15
ATOM     15  C   UNL A   1      34.744  22.449  24.701  1.00  0.00     0.095 C 
ATOM     16  C   UNL A   1      35.927  22.647  23.729  1.00  0.00     0.028 C 
ATOM     17  C   UNL A   1      34.703  23.645  25.674  1.00  0.00     0.028 C 
ATOM     18  C   UNL A   1      35.016  21.169  25.549  1.00  0.00     0.277 C 
ATOM     19  C   UNL A   1      33.790  23.413  26.875  1.00  0.00     0.063 C 
ATOM     20  N   UNL A   1      34.087  20.996  26.676  1.00  0.00    -0.345 N 
ATOM     21  C   UNL A   1      34.137  22.122  27.600  1.00  0.00     0.260 C 
ATOM     22  H   UNL A   1      33.139  20.912  26.311  1.00  0.00     0.346 HD
ATOM     23  H   UNL A   1      34.362  20.157  27.187  1.00  0.00     0.346 HD
ENDBRANCH   8  15
ENDBRANCH   6   7
ENDBRANCH   4   6
ENDBRANCH   3   4
ENDBRANCH   2   3
ENDBRANCH   1   2
BRANCH   1  24
ATOM     24  O   UNL A   1      33.064  30.463  26.183  1.00  0.00    -0.458 OA
BRANCH  24  25
ATOM     25  C   UNL A   1      33.326  31.480  27.037  1.00  0.00     0.338 C 
ATOM     26  O   UNL A   1      32.638  32.461  27.255  1.00  0.00    -0.246 OA
BRANCH  25  27
ATOM     27  C   UNL A   1      34.573  31.188  27.758  1.00  0.00     0.060 A 
ATOM     28  C   UNL A   1      35.512  32.207  27.940  1.00  0.00     0.016 A 
ATOM     29  C   UNL A   1      34.832  29.891  28.203  1.00  0.00     0.016 A 
ATOM     30  C   UNL A   1      36.722  31.932  28.575  1.00  0.00     0.010 A 
ATOM     31  C   UNL A   1      36.040  29.622  28.851  1.00  0.00     0.010 A 
ATOM     32  C   UNL A   1      36.995  30.638  29.036  1.00  0.00    -0.014 A 
BRANCH  32  33
ATOM     33  C   UNL A   1      38.276  30.328  29.720  1.00  0.00     0.031 A 
ATOM     34  C   UNL A   1      39.239  29.354  29.105  1.00  0.00     0.074 A 
ATOM     35  C   UNL A   1      38.536  30.874  30.923  1.00  0.00     0.049 A 
ATOM     36  N   UNL A   1      40.336  28.850  29.607  1.00  0.00    -0.248 NA
ATOM     37  C   UNL A   1      38.924  28.878  27.749  1.00  0.00     0.031 C 
ATOM     38  C   UNL A   1      37.675  31.830  31.619  1.00  0.00     0.029 A 
ATOM     39  N   UNL A   1      39.582  30.672  31.789  1.00  0.00    -0.354 N 
ATOM     40  C   UNL A   1      40.822  27.968  28.651  1.00  0.00     0.074 A 
ATOM     41  C   UNL A   1      39.900  28.005  27.535  1.00  0.00     0.031 C 
ATOM     42  C   UNL A   1      38.211  32.110  32.818  1.00  0.00     0.029 A 
ATOM     43  C   UNL A   1      39.428  31.323  32.991  1.00  0.00     0.049 A 
ATOM     44  H   UNL A   1      40.364  30.116  31.571  1.00  0.00     0.167 HD
ATOM     45  C   UNL A   1      41.942  27.208  28.694  1.00  0.00     0.034 A 
ATOM     46  C   UNL A   1      40.164  31.262  34.120  1.00  0.00     0.034 A 
ATOM     47  C   UNL A   1      42.872  27.201  29.791  1.00  0.00     0.049 A 
ATOM     48  C   UNL A   1      41.385  30.384  34.151  1.00  0.00     0.074 A 
ATOM     49  C   UNL A   1      44.067  26.511  29.902  1.00  0.00     0.029 A 
ATOM     50  N   UNL A   1      42.708  27.908  30.972  1.00  0.00    -0.354 N 
ATOM     51  N   UNL A   1      41.894  29.645  33.196  1.00  0.00    -0.248 NA
ATOM     52  C   UNL A   1      42.145  30.345  35.409  1.00  0.00     0.031 C 
ATOM     53  C   UNL A   1      44.614  26.784  31.160  1.00  0.00     0.029 A 
ATOM     54  C   UNL A   1      43.770  27.658  31.825  1.00  0.00     0.049 A 
ATOM     55  H   UNL A   1      41.949  28.501  31.174  1.00  0.00     0.167 HD
ATOM     56  C   UNL A   1      43.045  29.074  33.727  1.00  0.00     0.074 A 
ATOM     57  C   UNL A   1      43.171  29.571  35.082  1.00  0.00     0.031 C 
ATOM     58  C   UNL A   1      43.908  28.200  33.153  1.00  0.00     0.034 A 
BRANCH  45  59
ATOM     59  C   UNL A   1      42.248  26.340  27.503  1.00  0.00     0.023 A 
ATOM     60  C   UNL A   1      42.959  26.881  26.412  1.00  0.00     0.012 A 
ATOM     61  C   UNL A   1      41.894  24.976  27.489  1.00  0.00     0.148 A 
ATOM     62  C   UNL A   1      43.292  26.085  25.317  1.00  0.00     0.002 A 
ATOM     63  C   UNL A   1      42.263  24.180  26.410  1.00  0.00     0.091 A 
ATOM     64  F   UNL A   1      41.199  24.486  28.525  1.00  0.00    -0.205 F 
ATOM     65  C   UNL A   1      42.953  24.735  25.321  1.00  0.00     0.022 A 
BRANCH  63  66
ATOM     66  S   UNL A   1      41.933  22.415  26.353  1.00  0.00     0.127 S 
ATOM     67  O   UNL A   1      40.473  22.390  26.281  1.00  0.00    -0.237 OA
ATOM     68  O   UNL A   1      42.612  22.014  25.119  1.00  0.00    -0.237 OA
ATOM     69  O   UNL A   1      42.509  21.859  27.569  1.00  0.00    -0.744 OA
ENDBRANCH  63  66
ENDBRANCH  45  59
BRANCH  46  70
ATOM     70  C   UNL A   1      39.772  32.074  35.307  1.00  0.00     0.023 A 
ATOM     71  C   UNL A   1      40.231  33.400  35.417  1.00  0.00     0.012 A 
ATOM     72  C   UNL A   1      38.926  31.554  36.306  1.00  0.00     0.148 A 
ATOM     73  C   UNL A   1      39.875  34.186  36.512  1.00  0.00     0.002 A 
ATOM     74  C   UNL A   1      38.531  32.360  37.367  1.00  0.00     0.091 A 
ATOM     75  F   UNL A   1      38.518  30.281  36.196  1.00  0.00    -0.205 F 
ATOM     76  C   UNL A   1      39.016  33.672  37.481  1.00  0.00     0.022 A 
BRANCH  74  77
ATOM     77  S   UNL A   1      37.327  31.819  38.587  1.00  0.00     0.127 S 
ATOM     78  O   UNL A   1      38.072  31.978  39.834  1.00  0.00    -0.237 OA
ATOM     79  O   UNL A   1      36.242  32.781  38.391  1.00  0.00    -0.237 OA
ATOM     80  O   UNL A   1      36.987  30.451  38.220  1.00  0.00    -0.744 OA
ENDBRANCH  74  77
ENDBRANCH  46  70
BRANCH  58  81
ATOM     81  C   UNL A   1      45.081  27.732  33.974  1.00  0.00     0.023 A 
ATOM     82  C   UNL A   1      46.253  28.512  34.017  1.00  0.00     0.012 A 
ATOM     83  C   UNL A   1      44.990  26.573  34.769  1.00  0.00     0.148 A 
ATOM     84  C   UNL A   1      47.327  28.135  34.823  1.00  0.00     0.002 A 
ATOM     85  C   UNL A   1      46.047  26.227  35.603  1.00  0.00     0.091 A 
ATOM     86  F   UNL A   1      43.872  25.836  34.701  1.00  0.00    -0.205 F 
ATOM     87  C   UNL A   1      47.219  27.000  35.624  1.00  0.00     0.022 A 
BRANCH  85  88
ATOM     88  S   UNL A   1      45.967  24.836  36.738  1.00  0.00     0.127 S 
ATOM     89  O   UNL A   1      47.237  24.961  37.452  1.00  0.00    -0.237 OA
ATOM     90  O   UNL A   1      44.784  25.156  37.538  1.00  0.00    -0.237 OA
ATOM     91  O   UNL A   1      45.834  23.646  35.908  1.00  0.00    -0.744 OA
ENDBRANCH  85  88
ENDBRANCH  58  81
ENDBRANCH  32  33
ENDBRANCH  25  27
ENDBRANCH  24  25
ENDBRANCH   1  24
TORSDOF 16
ENDMDL
MODEL 2
REMARK VINA RESULT:     -12.0      1.566      2.091
REMARK SMILES C[C@]1(C(=O)N2CCC(CC(=O)OCCOC(=O)c3ccc(-c4c5nc(c(-c6cccc(S(=O)(=O)[O-])c6F)c6ccc([nH]6)c(-c6cccc(S(=O)(=O)[O-])c6F)c6nc(c(-c7cccc(S(=O)(=O)[O-])c7F)c7ccc4[nH]7)C=C6)C=C5)cc3)CC2)CCC[NH2+]C1
REMARK SMILES IDX 14 1 13 2 12 3 10 4 11 5 9 6 8 7 3 8 4 9 5 10 6 11 82 12
REMARK SMILES IDX 7 13 81 14 2 15 1 16 83 17 87 18 84 19 86 20 85 21 15 24
REMARK SMILES IDX 16 25 17 26 18 27 19 28 80 29 20 30 79 31 21 32 22 33 23 34
REMARK SMILES IDX 73 35 24 36 78 37 72 38 74 39 25 40 77 41 71 42 70 43 26 45
REMARK SMILES IDX 58 46 38 47 57 48 39 49 42 50 56 51 75 52 40 53 41 54 55 56
REMARK SMILES IDX 76 57 43 58 27 59 28 60 36 61 29 62 31 63 37 64 30 65 32 66
REMARK SMILES IDX 33 67 34 68 35 69 59 70 60 71 68 72 61 73 63 74 69 75 62 76
REMARK SMILES IDX 64 77 65 78 66 79 67 80 44 81 45 82 53 83 46 84 48 85 54 86
REMARK SMILES IDX 47 87 49 88 50 89 51 90 52 91
REMARK H PARENT 86 22 86 23 74 44 42 55
REMARK Flexibility Score: inf
ROOT
ATOM      1  C   UNL A   1      31.583  30.084  25.444  1.00  0.00     0.275 C 
ENDROOT
BRANCH   1   2
ATOM      2  C   UNL A   1      31.354  28.719  24.795  1.00  0.00     0.274 C 
BRANCH   2   3
ATOM      3  O   UNL A   1      32.599  28.034  24.566  1.00  0.00    -0.462 OA
BRANCH   3   4
ATOM      4  C   UNL A   1      32.505  26.835  23.940  1.00  0.00     0.306 C 
ATOM      5  O   UNL A   1      33.413  26.293  23.323  1.00  0.00    -0.252 OA
BRANCH   4   6
ATOM      6  C   UNL A   1      31.114  26.251  24.002  1.00  0.00     0.126 C 
BRANCH   6   7
ATOM      7  C   UNL A   1      30.909  25.030  24.922  1.00  0.00     0.003 C 
ATOM      8  C   UNL A   1      33.534  22.023  26.230  1.00  0.00     0.234 C 
ATOM      9  O   UNL A   1      33.785  21.740  27.411  1.00  0.00    -0.274 OA
ATOM     10  N   UNL A   1      32.439  22.805  25.940  1.00  0.00    -0.342 N 
ATOM     11  C   UNL A   1      32.075  23.853  26.877  1.00  0.00     0.120 C 
ATOM     12  C   UNL A   1      31.383  22.488  24.995  1.00  0.00     0.120 C 
ATOM     13  C   UNL A   1      31.908  25.146  26.097  1.00  0.00     0.026 C 
ATOM     14  C   UNL A   1      31.029  23.700  24.135  1.00  0.00     0.026 C 
BRANCH   8  15
ATOM     15  C   UNL A   1      34.520  21.569  25.119  1.00  0.00     0.095 C 
ATOM     16  C   UNL A   1      34.003  20.201  24.624  1.00  0.00     0.028 C 
ATOM     17  C   UNL A   1      34.769  22.471  23.893  1.00  0.00     0.028 C 
ATOM     18  C   UNL A   1      35.897  21.348  25.819  1.00  0.00     0.277 C 
ATOM     19  C   UNL A   1      35.578  23.723  24.222  1.00  0.00     0.063 C 
ATOM     20  N   UNL A   1      36.613  22.595  26.126  1.00  0.00    -0.345 N 
ATOM     21  C   UNL A   1      36.880  23.377  24.927  1.00  0.00     0.260 C 
ATOM     22  H   UNL A   1      36.044  23.153  26.763  1.00  0.00     0.346 HD
ATOM     23  H   UNL A   1      37.508  22.350  26.550  1.00  0.00     0.346 HD
ENDBRANCH   8  15
ENDBRANCH   6   7
ENDBRANCH   4   6
ENDBRANCH   3   4
ENDBRANCH   2   3
ENDBRANCH   1   2
BRANCH   1  24
ATOM     24  O   UNL A   1      32.940  30.225  25.897  1.00  0.00    -0.458 OA
BRANCH  24  25
ATOM     25  C   UNL A   1      33.151  31.186  26.827  1.00  0.00     0.338 C 
ATOM     26  O   UNL A   1      32.413  32.109  27.118  1.00  0.00    -0.246 OA
BRANCH  25  27
ATOM     27  C   UNL A   1      34.414  30.905  27.525  1.00  0.00     0.060 A 
ATOM     28  C   UNL A   1      34.685  29.600  27.947  1.00  0.00     0.016 A 
ATOM     29  C   UNL A   1      35.300  31.944  27.806  1.00  0.00     0.016 A 
ATOM     30  C   UNL A   1      35.854  29.328  28.657  1.00  0.00     0.010 A 
ATOM     31  C   UNL A   1      36.477  31.666  28.506  1.00  0.00     0.010 A 
ATOM     32  C   UNL A   1      36.759  30.359  28.941  1.00  0.00    -0.014 A 
BRANCH  32  33
ATOM     33  C   UNL A   1      38.011  30.087  29.690  1.00  0.00     0.031 A 
ATOM     34  C   UNL A   1      39.022  29.123  29.140  1.00  0.00     0.074 A 
ATOM     35  C   UNL A   1      38.202  30.659  30.895  1.00  0.00     0.049 A 
ATOM     36  N   UNL A   1      40.104  28.651  29.703  1.00  0.00    -0.248 NA
ATOM     37  C   UNL A   1      38.782  28.618  27.779  1.00  0.00     0.031 C 
ATOM     38  C   UNL A   1      37.289  31.608  31.532  1.00  0.00     0.029 A 
ATOM     39  N   UNL A   1      39.209  30.493  31.813  1.00  0.00    -0.354 N 
ATOM     40  C   UNL A   1      40.653  27.764  28.787  1.00  0.00     0.074 A 
ATOM     41  C   UNL A   1      39.785  27.763  27.628  1.00  0.00     0.031 C 
ATOM     42  C   UNL A   1      37.762  31.920  32.749  1.00  0.00     0.029 A 
ATOM     43  C   UNL A   1      38.985  31.162  32.995  1.00  0.00     0.049 A 
ATOM     44  H   UNL A   1      40.012  29.951  31.643  1.00  0.00     0.167 HD
ATOM     45  C   UNL A   1      41.785  27.028  28.896  1.00  0.00     0.034 A 
ATOM     46  C   UNL A   1      39.666  31.135  34.158  1.00  0.00     0.034 A 
ATOM     47  C   UNL A   1      42.660  27.059  30.037  1.00  0.00     0.049 A 
ATOM     48  C   UNL A   1      40.902  30.283  34.264  1.00  0.00     0.074 A 
ATOM     49  C   UNL A   1      43.862  26.396  30.217  1.00  0.00     0.029 A 
ATOM     50  N   UNL A   1      42.426  27.783  31.196  1.00  0.00    -0.354 N 
ATOM     51  N   UNL A   1      41.471  29.539  33.347  1.00  0.00    -0.248 NA
ATOM     52  C   UNL A   1      41.601  30.282  35.557  1.00  0.00     0.031 C 
ATOM     53  C   UNL A   1      44.343  26.702  31.494  1.00  0.00     0.029 A 
ATOM     54  C   UNL A   1      43.450  27.569  32.103  1.00  0.00     0.049 A 
ATOM     55  H   UNL A   1      41.646  28.363  31.351  1.00  0.00     0.167 HD
ATOM     56  C   UNL A   1      42.606  29.001  33.943  1.00  0.00     0.074 A 
ATOM     57  C   UNL A   1      42.658  29.524  35.293  1.00  0.00     0.031 C 
ATOM     58  C   UNL A   1      43.514  28.136  33.426  1.00  0.00     0.034 A 
BRANCH  45  59
ATOM     59  C   UNL A   1      42.165  26.146  27.737  1.00  0.00     0.023 A 
ATOM     60  C   UNL A   1      43.019  26.648  26.734  1.00  0.00     0.012 A 
ATOM     61  C   UNL A   1      41.735  24.806  27.674  1.00  0.00     0.148 A 
ATOM     62  C   UNL A   1      43.421  25.836  25.673  1.00  0.00     0.002 A 
ATOM     63  C   UNL A   1      42.170  23.993  26.633  1.00  0.00     0.091 A 
ATOM     64  F   UNL A   1      40.906  24.355  28.625  1.00  0.00    -0.205 F 
ATOM     65  C   UNL A   1      43.005  24.508  25.629  1.00  0.00     0.022 A 
BRANCH  63  66
ATOM     66  S   UNL A   1      41.745  22.250  26.525  1.00  0.00     0.127 S 
ATOM     67  O   UNL A   1      42.481  21.841  25.330  1.00  0.00    -0.237 OA
ATOM     68  O   UNL A   1      42.282  21.724  27.781  1.00  0.00    -0.237 OA
ATOM     69  O   UNL A   1      40.294  22.197  26.416  1.00  0.00    -0.744 OA
ENDBRANCH  63  66
ENDBRANCH  45  59
BRANCH  46  70
ATOM     70  C   UNL A   1      39.201  31.958  35.310  1.00  0.00     0.023 A 
ATOM     71  C   UNL A   1      38.287  31.407  36.227  1.00  0.00     0.012 A 
ATOM     72  C   UNL A   1      39.680  33.267  35.520  1.00  0.00     0.148 A 
ATOM     73  C   UNL A   1      37.839  32.150  37.319  1.00  0.00     0.002 A 
ATOM     74  C   UNL A   1      39.272  33.982  36.639  1.00  0.00     0.091 A 
ATOM     75  F   UNL A   1      40.532  33.784  34.622  1.00  0.00    -0.205 F 
ATOM     76  C   UNL A   1      38.340  33.432  37.532  1.00  0.00     0.022 A 
BRANCH  74  77
ATOM     77  S   UNL A   1      39.965  35.587  37.057  1.00  0.00     0.127 S 
ATOM     78  O   UNL A   1      39.274  35.895  38.307  1.00  0.00    -0.237 OA
ATOM     79  O   UNL A   1      41.388  35.277  37.200  1.00  0.00    -0.237 OA
ATOM     80  O   UNL A   1      39.653  36.453  35.928  1.00  0.00    -0.744 OA
ENDBRANCH  74  77
ENDBRANCH  46  70
BRANCH  58  81
ATOM     81  C   UNL A   1      44.655  27.707  34.310  1.00  0.00     0.023 A 
ATOM     82  C   UNL A   1      45.811  28.508  34.389  1.00  0.00     0.012 A 
ATOM     83  C   UNL A   1      44.546  26.565  35.127  1.00  0.00     0.148 A 
ATOM     84  C   UNL A   1      46.853  28.167  35.251  1.00  0.00     0.002 A 
ATOM     85  C   UNL A   1      45.569  26.256  36.017  1.00  0.00     0.091 A 
ATOM     86  F   UNL A   1      43.445  25.808  35.025  1.00  0.00    -0.205 F 
ATOM     87  C   UNL A   1      46.726  27.049  36.073  1.00  0.00     0.022 A 
BRANCH  85  88
ATOM     88  S   UNL A   1      45.460  24.889  37.178  1.00  0.00     0.127 S 
ATOM     89  O   UNL A   1      46.747  24.978  37.865  1.00  0.00    -0.237 OA
ATOM     90  O   UNL A   1      44.306  25.268  37.994  1.00  0.00    -0.237 OA
ATOM     91  O   UNL A   1      45.265  23.690  36.373  1.00  0.00    -0.744 OA
ENDBRANCH  85  88
ENDBRANCH  58  81
ENDBRANCH  32  33
ENDBRANCH  25  27
ENDBRANCH  24  25
ENDBRANCH   1  24
TORSDOF 16
ENDMDL
MODEL 3
REMARK VINA RESULT:     -12.0      5.259     10.243
REMARK SMILES C[C@]1(C(=O)N2CCC(CC(=O)OCCOC(=O)c3ccc(-c4c5nc(c(-c6cccc(S(=O)(=O)[O-])c6F)c6ccc([nH]6)c(-c6cccc(S(=O)(=O)[O-])c6F)c6nc(c(-c7cccc(S(=O)(=O)[O-])c7F)c7ccc4[nH]7)C=C6)C=C5)cc3)CC2)CCC[NH2+]C1
REMARK SMILES IDX 14 1 13 2 12 3 10 4 11 5 9 6 8 7 3 8 4 9 5 10 6 11 82 12
REMARK SMILES IDX 7 13 81 14 2 15 1 16 83 17 87 18 84 19 86 20 85 21 15 24
REMARK SMILES IDX 16 25 17 26 18 27 19 28 80 29 20 30 79 31 21 32 22 33 23 34
REMARK SMILES IDX 73 35 24 36 78 37 72 38 74 39 25 40 77 41 71 42 70 43 26 45
REMARK SMILES IDX 58 46 38 47 57 48 39 49 42 50 56 51 75 52 40 53 41 54 55 56
REMARK SMILES IDX 76 57 43 58 27 59 28 60 36 61 29 62 31 63 37 64 30 65 32 66
REMARK SMILES IDX 33 67 34 68 35 69 59 70 60 71 68 72 61 73 63 74 69 75 62 76
REMARK SMILES IDX 64 77 65 78 66 79 67 80 44 81 45 82 53 83 46 84 48 85 54 86
REMARK SMILES IDX 47 87 49 88 50 89 51 90 52 91
REMARK H PARENT 86 22 86 23 74 44 42 55
REMARK Flexibility Score: inf
ROOT
ATOM      1  C   UNL A   1      36.604  20.281  25.133  1.00  0.00     0.275 C 
ENDROOT
BRANCH   1   2
ATOM      2  C   UNL A   1      35.167  20.722  24.853  1.00  0.00     0.274 C 
BRANCH   2   3
ATOM      3  O   UNL A   1      34.971  22.107  25.194  1.00  0.00    -0.462 OA
BRANCH   3   4
ATOM      4  C   UNL A   1      34.355  22.864  24.252  1.00  0.00     0.306 C 
ATOM      5  O   UNL A   1      34.728  23.972  23.889  1.00  0.00    -0.252 OA
BRANCH   4   6
ATOM      6  C   UNL A   1      33.083  22.235  23.738  1.00  0.00     0.126 C 
BRANCH   6   7
ATOM      7  C   UNL A   1      31.755  22.890  24.168  1.00  0.00     0.003 C 
ATOM      8  C   UNL A   1      30.668  26.902  24.780  1.00  0.00     0.234 C 
ATOM      9  O   UNL A   1      29.741  27.499  24.214  1.00  0.00    -0.274 OA
ATOM     10  N   UNL A   1      30.723  25.527  24.725  1.00  0.00    -0.342 N 
ATOM     11  C   UNL A   1      30.264  24.870  23.514  1.00  0.00     0.120 C 
ATOM     12  C   UNL A   1      30.845  24.627  25.857  1.00  0.00     0.120 C 
ATOM     13  C   UNL A   1      31.342  23.896  23.068  1.00  0.00     0.026 C 
ATOM     14  C   UNL A   1      31.865  23.524  25.578  1.00  0.00     0.026 C 
BRANCH   8  15
ATOM     15  C   UNL A   1      31.799  27.729  25.452  1.00  0.00     0.095 C 
ATOM     16  C   UNL A   1      31.460  27.771  26.957  1.00  0.00     0.028 C 
ATOM     17  C   UNL A   1      33.271  27.293  25.294  1.00  0.00     0.028 C 
ATOM     18  C   UNL A   1      31.680  29.177  24.883  1.00  0.00     0.277 C 
ATOM     19  C   UNL A   1      33.818  27.523  23.887  1.00  0.00     0.063 C 
ATOM     20  N   UNL A   1      32.207  29.322  23.517  1.00  0.00    -0.345 N 
ATOM     21  C   UNL A   1      33.616  28.962  23.437  1.00  0.00     0.260 C 
ATOM     22  H   UNL A   1      31.676  28.715  22.893  1.00  0.00     0.346 HD
ATOM     23  H   UNL A   1      32.115  30.301  23.245  1.00  0.00     0.346 HD
ENDBRANCH   8  15
ENDBRANCH   6   7
ENDBRANCH   4   6
ENDBRANCH   3   4
ENDBRANCH   2   3
ENDBRANCH   1   2
BRANCH   1  24
ATOM     24  O   UNL A   1      37.406  21.379  25.597  1.00  0.00    -0.458 OA
BRANCH  24  25
ATOM     25  C   UNL A   1      38.692  21.080  25.896  1.00  0.00     0.338 C 
ATOM     26  O   UNL A   1      39.258  20.012  25.751  1.00  0.00    -0.246 OA
BRANCH  25  27
ATOM     27  C   UNL A   1      39.367  22.298  26.368  1.00  0.00     0.060 A 
ATOM     28  C   UNL A   1      38.893  23.546  25.954  1.00  0.00     0.016 A 
ATOM     29  C   UNL A   1      40.500  22.197  27.176  1.00  0.00     0.016 A 
ATOM     30  C   UNL A   1      39.555  24.707  26.350  1.00  0.00     0.010 A 
ATOM     31  C   UNL A   1      41.153  23.363  27.582  1.00  0.00     0.010 A 
ATOM     32  C   UNL A   1      40.689  24.625  27.168  1.00  0.00    -0.014 A 
BRANCH  32  33
ATOM     33  C   UNL A   1      41.403  25.850  27.605  1.00  0.00     0.031 A 
ATOM     34  C   UNL A   1      40.675  26.908  28.384  1.00  0.00     0.074 A 
ATOM     35  C   UNL A   1      42.686  26.038  27.241  1.00  0.00     0.049 A 
ATOM     36  N   UNL A   1      41.080  28.100  28.735  1.00  0.00    -0.248 NA
ATOM     37  C   UNL A   1      39.308  26.582  28.821  1.00  0.00     0.031 C 
ATOM     38  C   UNL A   1      43.495  25.083  26.482  1.00  0.00     0.029 A 
ATOM     39  N   UNL A   1      43.521  27.111  27.428  1.00  0.00    -0.354 N 
ATOM     40  C   UNL A   1      40.009  28.686  29.397  1.00  0.00     0.074 A 
ATOM     41  C   UNL A   1      38.933  27.716  29.401  1.00  0.00     0.031 C 
ATOM     42  C   UNL A   1      44.701  25.624  26.243  1.00  0.00     0.029 A 
ATOM     43  C   UNL A   1      44.734  26.976  26.792  1.00  0.00     0.049 A 
ATOM     44  H   UNL A   1      43.277  27.899  27.964  1.00  0.00     0.167 HD
ATOM     45  C   UNL A   1      39.934  29.914  29.962  1.00  0.00     0.034 A 
ATOM     46  C   UNL A   1      45.743  27.857  26.637  1.00  0.00     0.034 A 
ATOM     47  C   UNL A   1      41.017  30.860  29.985  1.00  0.00     0.049 A 
ATOM     48  C   UNL A   1      45.620  29.227  27.247  1.00  0.00     0.074 A 
ATOM     49  C   UNL A   1      41.058  32.106  30.586  1.00  0.00     0.029 A 
ATOM     50  N   UNL A   1      42.246  30.671  29.372  1.00  0.00    -0.354 N 
ATOM     51  N   UNL A   1      44.646  29.723  27.969  1.00  0.00    -0.248 NA
ATOM     52  C   UNL A   1      46.744  30.152  27.038  1.00  0.00     0.031 C 
ATOM     53  C   UNL A   1      42.305  32.680  30.317  1.00  0.00     0.029 A 
ATOM     54  C   UNL A   1      43.047  31.784  29.564  1.00  0.00     0.049 A 
ATOM     55  H   UNL A   1      42.510  29.864  28.873  1.00  0.00     0.167 HD
ATOM     56  C   UNL A   1      45.047  31.007  28.321  1.00  0.00     0.074 A 
ATOM     57  C   UNL A   1      46.365  31.203  27.753  1.00  0.00     0.031 C 
ATOM     58  C   UNL A   1      44.377  31.946  29.034  1.00  0.00     0.034 A 
BRANCH  45  59
ATOM     59  C   UNL A   1      38.644  30.300  30.637  1.00  0.00     0.023 A 
ATOM     60  C   UNL A   1      38.447  29.978  31.995  1.00  0.00     0.012 A 
ATOM     61  C   UNL A   1      37.659  31.037  29.951  1.00  0.00     0.148 A 
ATOM     62  C   UNL A   1      37.280  30.363  32.653  1.00  0.00     0.002 A 
ATOM     63  C   UNL A   1      36.515  31.450  30.624  1.00  0.00     0.091 A 
ATOM     64  F   UNL A   1      37.856  31.314  28.654  1.00  0.00    -0.205 F 
ATOM     65  C   UNL A   1      36.320  31.106  31.971  1.00  0.00     0.022 A 
BRANCH  63  66
ATOM     66  S   UNL A   1      35.253  32.470  29.852  1.00  0.00     0.127 S 
ATOM     67  O   UNL A   1      34.743  31.574  28.816  1.00  0.00    -0.237 OA
ATOM     68  O   UNL A   1      34.327  32.707  30.962  1.00  0.00    -0.237 OA
ATOM     69  O   UNL A   1      35.938  33.660  29.370  1.00  0.00    -0.744 OA
ENDBRANCH  63  66
ENDBRANCH  45  59
BRANCH  46  70
ATOM     70  C   UNL A   1      46.966  27.459  25.884  1.00  0.00     0.023 A 
ATOM     71  C   UNL A   1      47.965  26.711  26.536  1.00  0.00     0.012 A 
ATOM     72  C   UNL A   1      47.133  27.789  24.524  1.00  0.00     0.148 A 
ATOM     73  C   UNL A   1      49.117  26.319  25.856  1.00  0.00     0.002 A 
ATOM     74  C   UNL A   1      48.258  27.349  23.838  1.00  0.00     0.091 A 
ATOM     75  F   UNL A   1      46.183  28.523  23.926  1.00  0.00    -0.205 F 
ATOM     76  C   UNL A   1      49.259  26.626  24.504  1.00  0.00     0.022 A 
BRANCH  74  77
ATOM     77  S   UNL A   1      48.458  27.589  22.068  1.00  0.00     0.127 S 
ATOM     78  O   UNL A   1      49.646  28.437  22.013  1.00  0.00    -0.237 OA
ATOM     79  O   UNL A   1      48.656  26.219  21.594  1.00  0.00    -0.237 OA
ATOM     80  O   UNL A   1      47.217  28.204  21.615  1.00  0.00    -0.744 OA
ENDBRANCH  74  77
ENDBRANCH  46  70
BRANCH  58  81
ATOM     81  C   UNL A   1      45.057  33.270  29.260  1.00  0.00     0.023 A 
ATOM     82  C   UNL A   1      45.877  33.446  30.393  1.00  0.00     0.012 A 
ATOM     83  C   UNL A   1      44.956  34.306  28.310  1.00  0.00     0.148 A 
ATOM     84  C   UNL A   1      46.570  34.640  30.588  1.00  0.00     0.002 A 
ATOM     85  C   UNL A   1      45.685  35.477  28.489  1.00  0.00     0.091 A 
ATOM     86  F   UNL A   1      44.158  34.125  27.248  1.00  0.00    -0.205 F 
ATOM     87  C   UNL A   1      46.484  35.649  29.631  1.00  0.00     0.022 A 
BRANCH  85  88
ATOM     88  S   UNL A   1      45.710  36.796  27.269  1.00  0.00     0.127 S 
ATOM     89  O   UNL A   1      46.197  36.095  26.082  1.00  0.00    -0.237 OA
ATOM     90  O   UNL A   1      44.302  37.189  27.210  1.00  0.00    -0.237 OA
ATOM     91  O   UNL A   1      46.603  37.818  27.799  1.00  0.00    -0.744 OA
ENDBRANCH  85  88
ENDBRANCH  58  81
ENDBRANCH  32  33
ENDBRANCH  25  27
ENDBRANCH  24  25
ENDBRANCH   1  24
TORSDOF 16
ENDMDL
