MODEL 1
REMARK VINA RESULT:     -11.6      0.000      0.000
REMARK SMILES Cc1ccccc1OCC[NH+]1CCC(CC(=O)OCCOC(=O)c2ccc(-c3c4nc(c(-c5cccc(S(=O)(=O)[O-])c5F)c5ccc([nH]5)c(-c5cccc(S(=O)(=O)[O-])c5F)c5nc(c(-c6cccc(S(=O)(=O)[O-])c6F)c6ccc3[nH]6)C=C5)C=C4)cc2)CC1
REMARK SMILES IDX 19 1 18 2 16 3 17 4 15 5 14 6 11 7 12 8 88 9 13 11 87 12
REMARK SMILES IDX 10 13 9 14 8 15 7 16 1 17 2 18 3 19 4 20 6 21 5 22 20 23
REMARK SMILES IDX 21 24 22 25 23 26 24 27 25 28 86 29 26 30 85 31 27 32 28 33
REMARK SMILES IDX 29 34 79 35 30 36 84 37 78 38 80 39 31 40 83 41 77 42 76 43
REMARK SMILES IDX 32 45 64 46 44 47 63 48 45 49 48 50 62 51 81 52 46 53 47 54
REMARK SMILES IDX 61 56 82 57 49 58 33 59 34 60 42 61 35 62 37 63 43 64 36 65
REMARK SMILES IDX 38 66 39 67 40 68 41 69 65 70 66 71 74 72 67 73 69 74 75 75
REMARK SMILES IDX 68 76 70 77 71 78 72 79 73 80 50 81 51 82 59 83 52 84 54 85
REMARK SMILES IDX 60 86 53 87 55 88 56 89 57 90 58 91
REMARK H PARENT 11 10 80 44 48 55
REMARK Flexibility Score: inf
ROOT
ATOM      1  C   UNL A   1      31.921  30.033  25.792  1.00  0.00     0.274 C 
ENDROOT
BRANCH   1   2
ATOM      2  O   UNL A   1      32.999  29.645  24.955  1.00  0.00    -0.462 OA
BRANCH   2   3
ATOM      3  C   UNL A   1      32.816  28.471  24.287  1.00  0.00     0.306 C 
ATOM      4  O   UNL A   1      31.965  28.282  23.447  1.00  0.00    -0.252 OA
BRANCH   3   5
ATOM      5  C   UNL A   1      33.809  27.442  24.773  1.00  0.00     0.126 C 
BRANCH   5   6
ATOM      6  C   UNL A   1      33.324  25.974  24.629  1.00  0.00     0.011 C 
ATOM      7  N   UNL A   1      34.908  23.753  25.316  1.00  0.00    -0.332 N 
ATOM      8  C   UNL A   1      34.382  23.722  23.962  1.00  0.00     0.262 C 
ATOM      9  C   UNL A   1      33.800  23.945  26.240  1.00  0.00     0.262 C 
ATOM     10  H   UNL A   1      35.529  24.553  25.430  1.00  0.00     0.348 HD
ATOM     11  C   UNL A   1      34.176  25.170  23.619  1.00  0.00     0.066 C 
ATOM     12  C   UNL A   1      33.163  25.330  26.032  1.00  0.00     0.066 C 
BRANCH   7  13
ATOM     13  C   UNL A   1      35.824  22.658  25.617  1.00  0.00     0.304 C 
BRANCH  13  14
ATOM     14  C   UNL A   1      35.484  21.380  24.804  1.00  0.00     0.290 C 
BRANCH  14  15
ATOM     15  O   UNL A   1      34.566  20.543  25.523  1.00  0.00    -0.487 OA
BRANCH  15  16
ATOM     16  C   UNL A   1      34.049  19.527  24.759  1.00  0.00     0.122 A 
ATOM     17  C   UNL A   1      32.041  20.986  24.202  1.00  0.00     0.048 C 
ATOM     18  C   UNL A   1      32.846  19.729  24.075  1.00  0.00    -0.009 A 
ATOM     19  C   UNL A   1      32.364  18.711  23.241  1.00  0.00     0.007 A 
ATOM     20  C   UNL A   1      33.084  17.533  23.054  1.00  0.00     0.001 A 
ATOM     21  C   UNL A   1      34.788  18.356  24.553  1.00  0.00     0.047 A 
ATOM     22  C   UNL A   1      34.304  17.360  23.701  1.00  0.00     0.004 A 
ENDBRANCH  15  16
ENDBRANCH  14  15
ENDBRANCH  13  14
ENDBRANCH   7  13
ENDBRANCH   5   6
ENDBRANCH   3   5
ENDBRANCH   2   3
ENDBRANCH   1   2
BRANCH   1  23
ATOM     23  C   UNL A   1      32.430  30.166  27.227  1.00  0.00     0.275 C 
BRANCH  23  24
ATOM     24  O   UNL A   1      33.856  29.950  27.489  1.00  0.00    -0.458 OA
BRANCH  24  25
ATOM     25  C   UNL A   1      34.838  30.826  27.853  1.00  0.00     0.338 C 
ATOM     26  O   UNL A   1      34.638  32.033  27.860  1.00  0.00    -0.246 OA
BRANCH  25  27
ATOM     27  C   UNL A   1      36.153  30.267  28.224  1.00  0.00     0.060 A 
ATOM     28  C   UNL A   1      36.369  29.665  29.478  1.00  0.00     0.016 A 
ATOM     29  C   UNL A   1      37.141  30.238  27.253  1.00  0.00     0.016 A 
ATOM     30  C   UNL A   1      37.517  28.886  29.696  1.00  0.00     0.010 A 
ATOM     31  C   UNL A   1      38.200  29.374  27.421  1.00  0.00     0.010 A 
ATOM     32  C   UNL A   1      38.412  28.696  28.642  1.00  0.00    -0.014 A 
BRANCH  32  33
ATOM     33  C   UNL A   1      39.754  28.115  28.743  1.00  0.00     0.031 A 
ATOM     34  C   UNL A   1      40.139  26.702  28.515  1.00  0.00     0.074 A 
ATOM     35  C   UNL A   1      40.691  29.072  28.946  1.00  0.00     0.049 A 
ATOM     36  N   UNL A   1      41.348  26.274  28.673  1.00  0.00    -0.248 NA
ATOM     37  C   UNL A   1      39.232  25.634  28.119  1.00  0.00     0.031 C 
ATOM     38  C   UNL A   1      42.131  29.045  28.776  1.00  0.00     0.029 A 
ATOM     39  N   UNL A   1      40.447  30.307  29.569  1.00  0.00    -0.354 N 
ATOM     40  C   UNL A   1      41.432  24.967  28.230  1.00  0.00     0.074 A 
ATOM     41  C   UNL A   1      40.073  24.607  27.917  1.00  0.00     0.031 C 
ATOM     42  C   UNL A   1      42.658  30.021  29.538  1.00  0.00     0.029 A 
ATOM     43  C   UNL A   1      41.570  30.563  30.346  1.00  0.00     0.049 A 
ATOM     44  H   UNL A   1      39.648  30.873  29.475  1.00  0.00     0.167 HD
ATOM     45  C   UNL A   1      42.671  24.404  28.118  1.00  0.00     0.034 A 
ATOM     46  C   UNL A   1      41.497  30.581  31.710  1.00  0.00     0.034 A 
ATOM     47  C   UNL A   1      43.659  25.252  28.796  1.00  0.00     0.049 A 
ATOM     48  C   UNL A   1      42.468  29.591  32.303  1.00  0.00     0.074 A 
ATOM     49  C   UNL A   1      44.525  26.236  28.351  1.00  0.00     0.029 A 
ATOM     50  N   UNL A   1      43.643  25.325  30.182  1.00  0.00    -0.354 N 
ATOM     51  N   UNL A   1      42.889  28.527  31.677  1.00  0.00    -0.248 NA
ATOM     52  C   UNL A   1      43.084  29.756  33.612  1.00  0.00     0.031 C 
ATOM     53  C   UNL A   1      44.934  26.988  29.484  1.00  0.00     0.029 A 
ATOM     54  C   UNL A   1      44.352  26.430  30.613  1.00  0.00     0.049 A 
ATOM     55  H   UNL A   1      43.191  24.681  30.775  1.00  0.00     0.167 HD
ATOM     56  C   UNL A   1      43.822  27.887  32.441  1.00  0.00     0.074 A 
ATOM     57  C   UNL A   1      43.912  28.696  33.646  1.00  0.00     0.031 C 
ATOM     58  C   UNL A   1      44.445  26.744  32.031  1.00  0.00     0.034 A 
BRANCH  45  59
ATOM     59  C   UNL A   1      43.107  23.212  27.268  1.00  0.00     0.023 A 
ATOM     60  C   UNL A   1      44.111  23.470  26.295  1.00  0.00     0.012 A 
ATOM     61  C   UNL A   1      42.575  21.904  27.259  1.00  0.00     0.148 A 
ATOM     62  C   UNL A   1      44.508  22.536  25.333  1.00  0.00     0.002 A 
ATOM     63  C   UNL A   1      42.974  20.961  26.295  1.00  0.00     0.091 A 
ATOM     64  F   UNL A   1      41.676  21.547  28.177  1.00  0.00    -0.205 F 
ATOM     65  C   UNL A   1      43.929  21.282  25.323  1.00  0.00     0.022 A 
BRANCH  63  66
ATOM     66  S   UNL A   1      42.292  19.294  26.197  1.00  0.00     0.127 S 
ATOM     67  O   UNL A   1      42.495  18.802  27.561  1.00  0.00    -0.237 OA
ATOM     68  O   UNL A   1      40.893  19.545  25.850  1.00  0.00    -0.237 OA
ATOM     69  O   UNL A   1      43.057  18.599  25.172  1.00  0.00    -0.744 OA
ENDBRANCH  63  66
ENDBRANCH  45  59
BRANCH  46  70
ATOM     70  C   UNL A   1      40.150  30.936  32.278  1.00  0.00     0.023 A 
ATOM     71  C   UNL A   1      39.437  29.904  32.945  1.00  0.00     0.012 A 
ATOM     72  C   UNL A   1      39.715  32.262  32.463  1.00  0.00     0.148 A 
ATOM     73  C   UNL A   1      38.409  30.186  33.847  1.00  0.00     0.002 A 
ATOM     74  C   UNL A   1      38.673  32.537  33.359  1.00  0.00     0.091 A 
ATOM     75  F   UNL A   1      40.346  33.246  31.810  1.00  0.00    -0.205 F 
ATOM     76  C   UNL A   1      38.040  31.506  34.069  1.00  0.00     0.022 A 
BRANCH  74  77
ATOM     77  S   UNL A   1      38.178  34.227  33.737  1.00  0.00     0.127 S 
ATOM     78  O   UNL A   1      39.435  34.804  34.207  1.00  0.00    -0.237 OA
ATOM     79  O   UNL A   1      37.720  34.730  32.441  1.00  0.00    -0.237 OA
ATOM     80  O   UNL A   1      37.113  34.085  34.720  1.00  0.00    -0.744 OA
ENDBRANCH  74  77
ENDBRANCH  46  70
BRANCH  58  81
ATOM     81  C   UNL A   1      45.218  25.823  32.941  1.00  0.00     0.023 A 
ATOM     82  C   UNL A   1      44.606  24.706  33.542  1.00  0.00     0.012 A 
ATOM     83  C   UNL A   1      46.625  25.931  33.062  1.00  0.00     0.148 A 
ATOM     84  C   UNL A   1      45.339  23.769  34.273  1.00  0.00     0.002 A 
ATOM     85  C   UNL A   1      47.363  24.938  33.700  1.00  0.00     0.091 A 
ATOM     86  F   UNL A   1      47.262  27.002  32.565  1.00  0.00    -0.205 F 
ATOM     87  C   UNL A   1      46.722  23.871  34.332  1.00  0.00     0.022 A 
BRANCH  85  88
ATOM     88  S   UNL A   1      49.156  24.924  33.574  1.00  0.00     0.127 S 
ATOM     89  O   UNL A   1      49.499  23.645  34.189  1.00  0.00    -0.237 OA
ATOM     90  O   UNL A   1      49.377  24.982  32.128  1.00  0.00    -0.237 OA
ATOM     91  O   UNL A   1      49.582  26.121  34.287  1.00  0.00    -0.744 OA
ENDBRANCH  85  88
ENDBRANCH  58  81
ENDBRANCH  32  33
ENDBRANCH  25  27
ENDBRANCH  24  25
ENDBRANCH  23  24
ENDBRANCH   1  23
TORSDOF 19
ENDMDL
MODEL 2
REMARK VINA RESULT:     -11.5      1.789      2.373
REMARK SMILES Cc1ccccc1OCC[NH+]1CCC(CC(=O)OCCOC(=O)c2ccc(-c3c4nc(c(-c5cccc(S(=O)(=O)[O-])c5F)c5ccc([nH]5)c(-c5cccc(S(=O)(=O)[O-])c5F)c5nc(c(-c6cccc(S(=O)(=O)[O-])c6F)c6ccc3[nH]6)C=C5)C=C4)cc2)CC1
REMARK SMILES IDX 19 1 18 2 16 3 17 4 15 5 14 6 11 7 12 8 88 9 13 11 87 12
REMARK SMILES IDX 10 13 9 14 8 15 7 16 1 17 2 18 3 19 4 20 6 21 5 22 20 23
REMARK SMILES IDX 21 24 22 25 23 26 24 27 25 28 86 29 26 30 85 31 27 32 28 33
REMARK SMILES IDX 29 34 79 35 30 36 84 37 78 38 80 39 31 40 83 41 77 42 76 43
REMARK SMILES IDX 32 45 64 46 44 47 63 48 45 49 48 50 62 51 81 52 46 53 47 54
REMARK SMILES IDX 61 56 82 57 49 58 33 59 34 60 42 61 35 62 37 63 43 64 36 65
REMARK SMILES IDX 38 66 39 67 40 68 41 69 65 70 66 71 74 72 67 73 69 74 75 75
REMARK SMILES IDX 68 76 70 77 71 78 72 79 73 80 50 81 51 82 59 83 52 84 54 85
REMARK SMILES IDX 60 86 53 87 55 88 56 89 57 90 58 91
REMARK H PARENT 11 10 80 44 48 55
REMARK Flexibility Score: inf
ROOT
ATOM      1  C   UNL A   1      31.859  29.223  26.734  1.00  0.00     0.274 C 
ENDROOT
BRANCH   1   2
ATOM      2  O   UNL A   1      32.498  27.987  26.458  1.00  0.00    -0.462 OA
BRANCH   2   3
ATOM      3  C   UNL A   1      32.417  27.574  25.161  1.00  0.00     0.306 C 
ATOM      4  O   UNL A   1      33.356  27.186  24.503  1.00  0.00    -0.252 OA
BRANCH   3   5
ATOM      5  C   UNL A   1      30.996  27.702  24.666  1.00  0.00     0.126 C 
BRANCH   5   6
ATOM      6  C   UNL A   1      30.215  26.361  24.621  1.00  0.00     0.011 C 
ATOM      7  N   UNL A   1      31.398  23.869  25.173  1.00  0.00    -0.332 N 
ATOM      8  C   UNL A   1      30.715  23.941  23.894  1.00  0.00     0.262 C 
ATOM      9  C   UNL A   1      30.473  24.282  26.218  1.00  0.00     0.262 C 
ATOM     10  H   UNL A   1      32.175  24.530  25.190  1.00  0.00     0.348 HD
ATOM     11  C   UNL A   1      30.760  25.400  23.538  1.00  0.00     0.066 C 
ATOM     12  C   UNL A   1      30.103  25.766  26.051  1.00  0.00     0.066 C 
BRANCH   7  13
ATOM     13  C   UNL A   1      32.109  22.614  25.392  1.00  0.00     0.304 C 
BRANCH  13  14
ATOM     14  C   UNL A   1      33.310  22.454  24.421  1.00  0.00     0.290 C 
BRANCH  14  15
ATOM     15  O   UNL A   1      34.523  22.931  25.021  1.00  0.00    -0.487 OA
BRANCH  15  16
ATOM     16  C   UNL A   1      35.552  22.026  24.956  1.00  0.00     0.122 A 
ATOM     17  C   UNL A   1      37.207  23.893  25.450  1.00  0.00     0.048 C 
ATOM     18  C   UNL A   1      36.860  22.458  25.200  1.00  0.00    -0.009 A 
ATOM     19  C   UNL A   1      37.894  21.511  25.200  1.00  0.00     0.007 A 
ATOM     20  C   UNL A   1      37.630  20.157  25.009  1.00  0.00     0.001 A 
ATOM     21  C   UNL A   1      35.279  20.663  24.790  1.00  0.00     0.047 A 
ATOM     22  C   UNL A   1      36.320  19.730  24.816  1.00  0.00     0.004 A 
ENDBRANCH  15  16
ENDBRANCH  14  15
ENDBRANCH  13  14
ENDBRANCH   7  13
ENDBRANCH   5   6
ENDBRANCH   3   5
ENDBRANCH   2   3
ENDBRANCH   1   2
BRANCH   1  23
ATOM     23  C   UNL A   1      32.919  30.322  26.809  1.00  0.00     0.275 C 
BRANCH  23  24
ATOM     24  O   UNL A   1      34.235  29.993  27.365  1.00  0.00    -0.458 OA
BRANCH  24  25
ATOM     25  C   UNL A   1      35.100  30.742  28.110  1.00  0.00     0.338 C 
ATOM     26  O   UNL A   1      34.795  31.861  28.499  1.00  0.00    -0.246 OA
BRANCH  25  27
ATOM     27  C   UNL A   1      36.421  30.159  28.419  1.00  0.00     0.060 A 
ATOM     28  C   UNL A   1      36.680  29.538  29.655  1.00  0.00     0.016 A 
ATOM     29  C   UNL A   1      37.367  30.128  27.407  1.00  0.00     0.016 A 
ATOM     30  C   UNL A   1      37.824  28.740  29.815  1.00  0.00     0.010 A 
ATOM     31  C   UNL A   1      38.418  29.248  27.519  1.00  0.00     0.010 A 
ATOM     32  C   UNL A   1      38.671  28.551  28.722  1.00  0.00    -0.014 A 
BRANCH  32  33
ATOM     33  C   UNL A   1      40.008  27.949  28.760  1.00  0.00     0.031 A 
ATOM     34  C   UNL A   1      40.361  26.532  28.503  1.00  0.00     0.074 A 
ATOM     35  C   UNL A   1      40.967  28.890  28.929  1.00  0.00     0.049 A 
ATOM     36  N   UNL A   1      41.569  26.086  28.604  1.00  0.00    -0.248 NA
ATOM     37  C   UNL A   1      39.421  25.482  28.138  1.00  0.00     0.031 C 
ATOM     38  C   UNL A   1      42.397  28.844  28.696  1.00  0.00     0.029 A 
ATOM     39  N   UNL A   1      40.769  30.123  29.572  1.00  0.00    -0.354 N 
ATOM     40  C   UNL A   1      41.615  24.782  28.148  1.00  0.00     0.074 A 
ATOM     41  C   UNL A   1      40.237  24.444  27.891  1.00  0.00     0.031 C 
ATOM     42  C   UNL A   1      42.972  29.805  29.442  1.00  0.00     0.029 A 
ATOM     43  C   UNL A   1      41.929  30.356  30.301  1.00  0.00     0.049 A 
ATOM     44  H   UNL A   1      39.975  30.701  29.518  1.00  0.00     0.167 HD
ATOM     45  C   UNL A   1      42.839  24.202  27.977  1.00  0.00     0.034 A 
ATOM     46  C   UNL A   1      41.915  30.362  31.668  1.00  0.00     0.034 A 
ATOM     47  C   UNL A   1      43.868  25.029  28.618  1.00  0.00     0.049 A 
ATOM     48  C   UNL A   1      42.896  29.354  32.209  1.00  0.00     0.074 A 
ATOM     49  C   UNL A   1      44.728  26.004  28.144  1.00  0.00     0.029 A 
ATOM     50  N   UNL A   1      43.913  25.089  30.004  1.00  0.00    -0.354 N 
ATOM     51  N   UNL A   1      43.274  28.289  31.557  1.00  0.00    -0.248 NA
ATOM     52  C   UNL A   1      43.571  29.497  33.492  1.00  0.00     0.031 C 
ATOM     53  C   UNL A   1      45.198  26.740  29.264  1.00  0.00     0.029 A 
ATOM     54  C   UNL A   1      44.657  26.180  30.413  1.00  0.00     0.049 A 
ATOM     55  H   UNL A   1      43.478  24.447  30.611  1.00  0.00     0.167 HD
ATOM     56  C   UNL A   1      44.229  27.628  32.274  1.00  0.00     0.074 A 
ATOM     57  C   UNL A   1      44.383  28.426  33.481  1.00  0.00     0.031 C 
ATOM     58  C   UNL A   1      44.817  26.481  31.828  1.00  0.00     0.034 A 
BRANCH  45  59
ATOM     59  C   UNL A   1      43.219  23.011  27.099  1.00  0.00     0.023 A 
ATOM     60  C   UNL A   1      44.095  23.287  26.014  1.00  0.00     0.012 A 
ATOM     61  C   UNL A   1      42.738  21.685  27.169  1.00  0.00     0.148 A 
ATOM     62  C   UNL A   1      44.415  22.351  25.026  1.00  0.00     0.002 A 
ATOM     63  C   UNL A   1      43.061  20.740  26.178  1.00  0.00     0.091 A 
ATOM     64  F   UNL A   1      41.964  21.313  28.189  1.00  0.00    -0.205 F 
ATOM     65  C   UNL A   1      43.885  21.077  25.099  1.00  0.00     0.022 A 
BRANCH  63  66
ATOM     66  S   UNL A   1      42.434  19.048  26.182  1.00  0.00     0.127 S 
ATOM     67  O   UNL A   1      41.044  19.237  25.763  1.00  0.00    -0.237 OA
ATOM     68  O   UNL A   1      43.281  18.395  25.182  1.00  0.00    -0.237 OA
ATOM     69  O   UNL A   1      42.605  18.552  27.540  1.00  0.00    -0.744 OA
ENDBRANCH  63  66
ENDBRANCH  45  59
BRANCH  46  70
ATOM     70  C   UNL A   1      40.599  30.732  32.297  1.00  0.00     0.023 A 
ATOM     71  C   UNL A   1      39.899  29.704  32.982  1.00  0.00     0.012 A 
ATOM     72  C   UNL A   1      40.195  32.063  32.515  1.00  0.00     0.148 A 
ATOM     73  C   UNL A   1      38.915  29.992  33.931  1.00  0.00     0.002 A 
ATOM     74  C   UNL A   1      39.196  32.344  33.458  1.00  0.00     0.091 A 
ATOM     75  F   UNL A   1      40.813  33.044  31.846  1.00  0.00    -0.205 F 
ATOM     76  C   UNL A   1      38.578  31.315  34.183  1.00  0.00     0.022 A 
BRANCH  74  77
ATOM     77  S   UNL A   1      38.746  34.037  33.875  1.00  0.00     0.127 S 
ATOM     78  O   UNL A   1      40.055  34.639  34.118  1.00  0.00    -0.237 OA
ATOM     79  O   UNL A   1      38.072  34.504  32.662  1.00  0.00    -0.237 OA
ATOM     80  O   UNL A   1      37.860  33.907  35.023  1.00  0.00    -0.744 OA
ENDBRANCH  74  77
ENDBRANCH  46  70
BRANCH  58  81
ATOM     81  C   UNL A   1      45.614  25.540  32.696  1.00  0.00     0.023 A 
ATOM     82  C   UNL A   1      46.958  25.807  33.023  1.00  0.00     0.012 A 
ATOM     83  C   UNL A   1      44.987  24.466  33.373  1.00  0.00     0.148 A 
ATOM     84  C   UNL A   1      47.664  25.020  33.935  1.00  0.00     0.002 A 
ATOM     85  C   UNL A   1      45.663  23.753  34.358  1.00  0.00     0.091 A 
ATOM     86  F   UNL A   1      43.728  24.120  33.063  1.00  0.00    -0.205 F 
ATOM     87  C   UNL A   1      47.010  24.007  34.622  1.00  0.00     0.022 A 
BRANCH  85  88
ATOM     88  S   UNL A   1      44.769  22.612  35.422  1.00  0.00     0.127 S 
ATOM     89  O   UNL A   1      45.465  22.769  36.696  1.00  0.00    -0.237 OA
ATOM     90  O   UNL A   1      43.409  23.153  35.401  1.00  0.00    -0.237 OA
ATOM     91  O   UNL A   1      44.903  21.318  34.765  1.00  0.00    -0.744 OA
ENDBRANCH  85  88
ENDBRANCH  58  81
ENDBRANCH  32  33
ENDBRANCH  25  27
ENDBRANCH  24  25
ENDBRANCH  23  24
ENDBRANCH   1  23
TORSDOF 19
ENDMDL
MODEL 3
REMARK VINA RESULT:     -11.5      3.618     10.109
REMARK SMILES Cc1ccccc1OCC[NH+]1CCC(CC(=O)OCCOC(=O)c2ccc(-c3c4nc(c(-c5cccc(S(=O)(=O)[O-])c5F)c5ccc([nH]5)c(-c5cccc(S(=O)(=O)[O-])c5F)c5nc(c(-c6cccc(S(=O)(=O)[O-])c6F)c6ccc3[nH]6)C=C5)C=C4)cc2)CC1
REMARK SMILES IDX 19 1 18 2 16 3 17 4 15 5 14 6 11 7 12 8 88 9 13 11 87 12
REMARK SMILES IDX 10 13 9 14 8 15 7 16 1 17 2 18 3 19 4 20 6 21 5 22 20 23
REMARK SMILES IDX 21 24 22 25 23 26 24 27 25 28 86 29 26 30 85 31 27 32 28 33
REMARK SMILES IDX 29 34 79 35 30 36 84 37 78 38 80 39 31 40 83 41 77 42 76 43
REMARK SMILES IDX 32 45 64 46 44 47 63 48 45 49 48 50 62 51 81 52 46 53 47 54
REMARK SMILES IDX 61 56 82 57 49 58 33 59 34 60 42 61 35 62 37 63 43 64 36 65
REMARK SMILES IDX 38 66 39 67 40 68 41 69 65 70 66 71 74 72 67 73 69 74 75 75
REMARK SMILES IDX 68 76 70 77 71 78 72 79 73 80 50 81 51 82 59 83 52 84 54 85
REMARK SMILES IDX 60 86 53 87 55 88 56 89 57 90 58 91
REMARK H PARENT 11 10 80 44 48 55
REMARK Flexibility Score: inf
ROOT
ATOM      1  C   UNL A   1      36.793  21.814  24.392  1.00  0.00     0.274 C 
ENDROOT
BRANCH   1   2
ATOM      2  O   UNL A   1      36.335  20.903  25.379  1.00  0.00    -0.462 OA
BRANCH   2   3
ATOM      3  C   UNL A   1      35.032  21.061  25.748  1.00  0.00     0.306 C 
ATOM      4  O   UNL A   1      34.665  21.641  26.745  1.00  0.00    -0.252 OA
BRANCH   3   5
ATOM      5  C   UNL A   1      34.127  20.380  24.749  1.00  0.00     0.126 C 
BRANCH   5   6
ATOM      6  C   UNL A   1      32.905  21.234  24.314  1.00  0.00     0.011 C 
ATOM      7  N   UNL A   1      32.191  23.652  25.562  1.00  0.00    -0.332 N 
ATOM      8  C   UNL A   1      31.124  22.670  25.496  1.00  0.00     0.262 C 
ATOM      9  C   UNL A   1      32.715  23.860  24.220  1.00  0.00     0.262 C 
ATOM     10  H   UNL A   1      32.961  23.292  26.126  1.00  0.00     0.348 HD
ATOM     11  C   UNL A   1      31.843  21.353  25.432  1.00  0.00     0.066 C 
ATOM     12  C   UNL A   1      33.389  22.577  23.704  1.00  0.00     0.066 C 
BRANCH   7  13
ATOM     13  C   UNL A   1      31.844  24.851  26.318  1.00  0.00     0.304 C 
BRANCH  13  14
ATOM     14  C   UNL A   1      30.650  25.611  25.679  1.00  0.00     0.290 C 
BRANCH  14  15
ATOM     15  O   UNL A   1      31.104  26.756  24.943  1.00  0.00    -0.487 OA
BRANCH  15  16
ATOM     16  C   UNL A   1      31.987  27.535  25.646  1.00  0.00     0.122 A 
ATOM     17  C   UNL A   1      33.693  27.263  23.779  1.00  0.00     0.048 C 
ATOM     18  C   UNL A   1      33.235  27.831  25.087  1.00  0.00    -0.009 A 
ATOM     19  C   UNL A   1      34.100  28.687  25.783  1.00  0.00     0.007 A 
ATOM     20  C   UNL A   1      33.717  29.274  26.987  1.00  0.00     0.001 A 
ATOM     21  C   UNL A   1      31.589  28.145  26.842  1.00  0.00     0.047 A 
ATOM     22  C   UNL A   1      32.455  29.013  27.512  1.00  0.00     0.004 A 
ENDBRANCH  15  16
ENDBRANCH  14  15
ENDBRANCH  13  14
ENDBRANCH   7  13
ENDBRANCH   5   6
ENDBRANCH   3   5
ENDBRANCH   2   3
ENDBRANCH   1   2
BRANCH   1  23
ATOM     23  C   UNL A   1      37.373  23.046  25.086  1.00  0.00     0.275 C 
BRANCH  23  24
ATOM     24  O   UNL A   1      38.262  22.852  26.236  1.00  0.00    -0.458 OA
BRANCH  24  25
ATOM     25  C   UNL A   1      39.562  23.223  26.429  1.00  0.00     0.338 C 
ATOM     26  O   UNL A   1      40.485  22.493  26.096  1.00  0.00    -0.246 OA
BRANCH  25  27
ATOM     27  C   UNL A   1      39.814  24.530  27.068  1.00  0.00     0.060 A 
ATOM     28  C   UNL A   1      40.395  25.596  26.356  1.00  0.00     0.016 A 
ATOM     29  C   UNL A   1      39.346  24.721  28.358  1.00  0.00     0.016 A 
ATOM     30  C   UNL A   1      40.353  26.899  26.881  1.00  0.00     0.010 A 
ATOM     31  C   UNL A   1      39.190  26.010  28.815  1.00  0.00     0.010 A 
ATOM     32  C   UNL A   1      39.698  27.114  28.094  1.00  0.00    -0.014 A 
BRANCH  32  33
ATOM     33  C   UNL A   1      39.748  28.342  28.896  1.00  0.00     0.031 A 
ATOM     34  C   UNL A   1      38.832  29.504  28.812  1.00  0.00     0.074 A 
ATOM     35  C   UNL A   1      40.682  28.255  29.872  1.00  0.00     0.049 A 
ATOM     36  N   UNL A   1      38.984  30.564  29.534  1.00  0.00    -0.248 NA
ATOM     37  C   UNL A   1      37.689  29.615  27.917  1.00  0.00     0.031 C 
ATOM     38  C   UNL A   1      40.868  29.030  31.083  1.00  0.00     0.029 A 
ATOM     39  N   UNL A   1      41.832  27.451  29.805  1.00  0.00    -0.354 N 
ATOM     40  C   UNL A   1      37.895  31.397  29.359  1.00  0.00     0.074 A 
ATOM     41  C   UNL A   1      37.125  30.766  28.317  1.00  0.00     0.031 C 
ATOM     42  C   UNL A   1      42.153  28.908  31.463  1.00  0.00     0.029 A 
ATOM     43  C   UNL A   1      42.846  28.199  30.391  1.00  0.00     0.049 A 
ATOM     44  H   UNL A   1      41.906  26.548  29.422  1.00  0.00     0.167 HD
ATOM     45  C   UNL A   1      37.765  32.471  30.193  1.00  0.00     0.034 A 
ATOM     46  C   UNL A   1      43.900  28.662  29.654  1.00  0.00     0.034 A 
ATOM     47  C   UNL A   1      39.017  32.674  30.932  1.00  0.00     0.049 A 
ATOM     48  C   UNL A   1      44.006  30.162  29.771  1.00  0.00     0.074 A 
ATOM     49  C   UNL A   1      39.448  32.280  32.187  1.00  0.00     0.029 A 
ATOM     50  N   UNL A   1      40.133  33.137  30.248  1.00  0.00    -0.354 N 
ATOM     51  N   UNL A   1      42.994  30.940  30.040  1.00  0.00    -0.248 NA
ATOM     52  C   UNL A   1      45.262  30.890  29.657  1.00  0.00     0.031 C 
ATOM     53  C   UNL A   1      40.863  32.395  32.207  1.00  0.00     0.029 A 
ATOM     54  C   UNL A   1      41.279  32.899  30.983  1.00  0.00     0.049 A 
ATOM     55  H   UNL A   1      40.112  33.574  29.366  1.00  0.00     0.167 HD
ATOM     56  C   UNL A   1      43.429  32.228  30.164  1.00  0.00     0.074 A 
ATOM     57  C   UNL A   1      44.860  32.146  29.916  1.00  0.00     0.031 C 
ATOM     58  C   UNL A   1      42.586  33.261  30.456  1.00  0.00     0.034 A 
BRANCH  45  59
ATOM     59  C   UNL A   1      36.508  33.266  30.540  1.00  0.00     0.023 A 
ATOM     60  C   UNL A   1      36.093  33.218  31.899  1.00  0.00     0.012 A 
ATOM     61  C   UNL A   1      35.648  33.968  29.667  1.00  0.00     0.148 A 
ATOM     62  C   UNL A   1      34.883  33.755  32.353  1.00  0.00     0.002 A 
ATOM     63  C   UNL A   1      34.433  34.512  30.121  1.00  0.00     0.091 A 
ATOM     64  F   UNL A   1      35.987  34.124  28.386  1.00  0.00    -0.205 F 
ATOM     65  C   UNL A   1      34.043  34.391  31.459  1.00  0.00     0.022 A 
BRANCH  63  66
ATOM     66  S   UNL A   1      33.268  35.371  29.044  1.00  0.00     0.127 S 
ATOM     67  O   UNL A   1      34.152  36.262  28.290  1.00  0.00    -0.237 OA
ATOM     68  O   UNL A   1      32.701  34.276  28.255  1.00  0.00    -0.237 OA
ATOM     69  O   UNL A   1      32.321  36.043  29.921  1.00  0.00    -0.744 OA
ENDBRANCH  63  66
ENDBRANCH  45  59
BRANCH  46  70
ATOM     70  C   UNL A   1      44.237  27.851  28.433  1.00  0.00     0.023 A 
ATOM     71  C   UNL A   1      43.737  28.319  27.188  1.00  0.00     0.012 A 
ATOM     72  C   UNL A   1      45.250  26.874  28.410  1.00  0.00     0.148 A 
ATOM     73  C   UNL A   1      44.299  27.918  25.974  1.00  0.00     0.002 A 
ATOM     74  C   UNL A   1      45.799  26.466  27.187  1.00  0.00     0.091 A 
ATOM     75  F   UNL A   1      45.705  26.388  29.572  1.00  0.00    -0.205 F 
ATOM     76  C   UNL A   1      45.345  27.005  25.975  1.00  0.00     0.022 A 
BRANCH  74  77
ATOM     77  S   UNL A   1      47.193  25.326  27.116  1.00  0.00     0.127 S 
ATOM     78  O   UNL A   1      47.372  25.169  25.675  1.00  0.00    -0.237 OA
ATOM     79  O   UNL A   1      48.258  26.071  27.789  1.00  0.00    -0.237 OA
ATOM     80  O   UNL A   1      46.742  24.153  27.852  1.00  0.00    -0.744 OA
ENDBRANCH  74  77
ENDBRANCH  46  70
BRANCH  58  81
ATOM     81  C   UNL A   1      42.933  34.718  30.281  1.00  0.00     0.023 A 
ATOM     82  C   UNL A   1      43.389  35.497  31.362  1.00  0.00     0.012 A 
ATOM     83  C   UNL A   1      43.004  35.299  28.991  1.00  0.00     0.148 A 
ATOM     84  C   UNL A   1      43.844  36.805  31.186  1.00  0.00     0.002 A 
ATOM     85  C   UNL A   1      43.558  36.563  28.810  1.00  0.00     0.091 A 
ATOM     86  F   UNL A   1      42.528  34.634  27.927  1.00  0.00    -0.205 F 
ATOM     87  C   UNL A   1      43.952  37.331  29.906  1.00  0.00     0.022 A 
BRANCH  85  88
ATOM     88  S   UNL A   1      43.930  37.156  27.154  1.00  0.00     0.127 S 
ATOM     89  O   UNL A   1      44.915  36.183  26.692  1.00  0.00    -0.237 OA
ATOM     90  O   UNL A   1      42.631  37.072  26.483  1.00  0.00    -0.237 OA
ATOM     91  O   UNL A   1      44.408  38.518  27.352  1.00  0.00    -0.744 OA
ENDBRANCH  85  88
ENDBRANCH  58  81
ENDBRANCH  32  33
ENDBRANCH  25  27
ENDBRANCH  24  25
ENDBRANCH  23  24
ENDBRANCH   1  23
TORSDOF 19
ENDMDL
