MODEL 1
REMARK VINA RESULT:     -11.8      0.000      0.000
REMARK SMILES O=C(CC1(NC(=O)c2ccccc2[N+](=O)[O-])CCC1)OCCOC(=O)c1ccc(-c2c3nc(c(-c4cccc(S(=O)(=O)[O-])c4F)c4ccc([nH]4)c(-c4cccc(S(=O)(=O)[O-])c4F)c4nc(c(-c5cccc(S(=O)(=O)[O-])c5F)c5ccc2[nH]5)C=C4)C=C3)cc1
REMARK SMILES IDX 21 1 20 2 2 3 1 4 3 5 4 6 17 7 19 8 18 9 5 10 6 11 7 13 8 14
REMARK SMILES IDX 9 15 13 16 10 17 12 18 11 19 14 20 15 21 16 22 22 23 23 24
REMARK SMILES IDX 24 25 25 26 26 27 27 28 88 29 28 30 87 31 29 32 30 33 31 34
REMARK SMILES IDX 81 35 32 36 86 37 80 38 82 39 33 40 85 41 79 42 78 43 34 45
REMARK SMILES IDX 66 46 46 47 65 48 47 49 50 50 64 51 83 52 48 53 49 54 63 56
REMARK SMILES IDX 84 57 51 58 35 59 36 60 44 61 37 62 39 63 45 64 38 65 40 66
REMARK SMILES IDX 41 67 42 68 43 69 67 70 68 71 76 72 69 73 71 74 77 75 70 76
REMARK SMILES IDX 72 77 73 78 74 79 75 80 52 81 53 82 61 83 54 84 56 85 62 86
REMARK SMILES IDX 55 87 57 88 58 89 59 90 60 91
REMARK H PARENT 5 12 82 44 50 55
REMARK Flexibility Score: inf
ROOT
ATOM      1  C   UNL A   1      31.825  29.824  24.684  1.00  0.00     0.274 C 
ENDROOT
BRANCH   1   2
ATOM      2  O   UNL A   1      30.549  29.380  24.215  1.00  0.00    -0.462 OA
BRANCH   2   3
ATOM      3  C   UNL A   1      30.429  28.971  22.935  1.00  0.00     0.308 C 
ATOM      4  O   UNL A   1      30.403  29.806  22.035  1.00  0.00    -0.252 OA
BRANCH   3   5
ATOM      5  C   UNL A   1      30.356  27.483  22.643  1.00  0.00     0.151 C 
BRANCH   5   6
ATOM      6  C   UNL A   1      31.255  26.502  23.384  1.00  0.00     0.051 C 
ATOM      7  C   UNL A   1      30.993  25.040  22.888  1.00  0.00     0.029 C 
ATOM      8  C   UNL A   1      32.692  26.387  22.765  1.00  0.00     0.029 C 
ATOM      9  C   UNL A   1      32.392  24.973  22.276  1.00  0.00     0.005 C 
BRANCH   6  10
ATOM     10  N   UNL A   1      31.363  26.512  24.889  1.00  0.00    -0.346 N 
ATOM     11  C   UNL A   1      32.038  26.007  25.976  1.00  0.00     0.258 C 
ATOM     12  H   UNL A   1      30.674  27.127  25.230  1.00  0.00     0.164 HD
ATOM     13  O   UNL A   1      31.703  26.453  27.079  1.00  0.00    -0.269 OA
BRANCH  11  14
ATOM     14  C   UNL A   1      33.039  24.935  26.046  1.00  0.00     0.117 A 
ATOM     15  C   UNL A   1      34.339  25.244  25.594  1.00  0.00     0.021 A 
ATOM     16  C   UNL A   1      32.724  23.584  26.149  1.00  0.00     0.282 A 
ATOM     17  C   UNL A   1      35.334  24.259  25.487  1.00  0.00     0.001 A 
ATOM     18  C   UNL A   1      33.704  22.574  26.006  1.00  0.00     0.086 A 
ATOM     19  C   UNL A   1      35.026  22.926  25.739  1.00  0.00     0.007 A 
BRANCH  16  20
ATOM     20  N   UNL A   1      31.369  23.172  26.425  1.00  0.00     0.063 N 
ATOM     21  O   UNL A   1      30.735  22.681  25.486  1.00  0.00    -0.258 OA
ATOM     22  O   UNL A   1      30.938  23.399  27.560  1.00  0.00    -0.258 OA
ENDBRANCH  16  20
ENDBRANCH  11  14
ENDBRANCH   6  10
ENDBRANCH   5   6
ENDBRANCH   3   5
ENDBRANCH   2   3
ENDBRANCH   1   2
BRANCH   1  23
ATOM     23  C   UNL A   1      31.759  30.505  26.060  1.00  0.00     0.275 C 
BRANCH  23  24
ATOM     24  O   UNL A   1      32.939  30.225  26.848  1.00  0.00    -0.458 OA
BRANCH  24  25
ATOM     25  C   UNL A   1      33.576  31.293  27.415  1.00  0.00     0.338 C 
ATOM     26  O   UNL A   1      33.083  32.390  27.588  1.00  0.00    -0.246 OA
BRANCH  25  27
ATOM     27  C   UNL A   1      34.962  30.936  27.858  1.00  0.00     0.060 A 
ATOM     28  C   UNL A   1      35.280  29.622  28.191  1.00  0.00     0.016 A 
ATOM     29  C   UNL A   1      35.958  31.900  27.981  1.00  0.00     0.016 A 
ATOM     30  C   UNL A   1      36.550  29.312  28.712  1.00  0.00     0.010 A 
ATOM     31  C   UNL A   1      37.238  31.600  28.458  1.00  0.00     0.010 A 
ATOM     32  C   UNL A   1      37.526  30.308  28.893  1.00  0.00    -0.014 A 
BRANCH  32  33
ATOM     33  C   UNL A   1      38.833  30.005  29.536  1.00  0.00     0.031 A 
ATOM     34  C   UNL A   1      39.184  30.572  30.892  1.00  0.00     0.074 A 
ATOM     35  C   UNL A   1      39.747  29.274  28.873  1.00  0.00     0.049 A 
ATOM     36  N   UNL A   1      40.128  30.211  31.722  1.00  0.00    -0.248 NA
ATOM     37  C   UNL A   1      38.394  31.723  31.361  1.00  0.00     0.031 C 
ATOM     38  C   UNL A   1      39.641  28.868  27.471  1.00  0.00     0.029 A 
ATOM     39  N   UNL A   1      40.954  28.765  29.279  1.00  0.00    -0.354 N 
ATOM     40  C   UNL A   1      40.030  31.066  32.818  1.00  0.00     0.074 A 
ATOM     41  C   UNL A   1      38.983  32.014  32.513  1.00  0.00     0.031 C 
ATOM     42  C   UNL A   1      40.732  28.159  27.137  1.00  0.00     0.029 A 
ATOM     43  C   UNL A   1      41.589  28.022  28.311  1.00  0.00     0.049 A 
ATOM     44  H   UNL A   1      41.329  28.915  30.176  1.00  0.00     0.167 HD
ATOM     45  C   UNL A   1      40.722  31.031  33.986  1.00  0.00     0.034 A 
ATOM     46  C   UNL A   1      42.705  27.269  28.386  1.00  0.00     0.034 A 
ATOM     47  C   UNL A   1      41.780  30.087  34.241  1.00  0.00     0.049 A 
ATOM     48  C   UNL A   1      43.361  27.106  29.732  1.00  0.00     0.074 A 
ATOM     49  C   UNL A   1      42.481  29.855  35.411  1.00  0.00     0.029 A 
ATOM     50  N   UNL A   1      42.305  29.228  33.287  1.00  0.00    -0.354 N 
ATOM     51  N   UNL A   1      43.080  27.706  30.865  1.00  0.00    -0.248 NA
ATOM     52  C   UNL A   1      44.431  26.105  29.833  1.00  0.00     0.031 C 
ATOM     53  C   UNL A   1      43.445  28.870  35.155  1.00  0.00     0.029 A 
ATOM     54  C   UNL A   1      43.318  28.463  33.836  1.00  0.00     0.049 A 
ATOM     55  H   UNL A   1      41.999  29.169  32.352  1.00  0.00     0.167 HD
ATOM     56  C   UNL A   1      43.918  27.141  31.818  1.00  0.00     0.074 A 
ATOM     57  C   UNL A   1      44.687  26.118  31.133  1.00  0.00     0.031 C 
ATOM     58  C   UNL A   1      44.057  27.444  33.134  1.00  0.00     0.034 A 
BRANCH  45  59
ATOM     59  C   UNL A   1      40.294  31.964  35.102  1.00  0.00     0.023 A 
ATOM     60  C   UNL A   1      40.880  33.248  35.178  1.00  0.00     0.012 A 
ATOM     61  C   UNL A   1      39.270  31.632  36.013  1.00  0.00     0.148 A 
ATOM     62  C   UNL A   1      40.492  34.162  36.158  1.00  0.00     0.002 A 
ATOM     63  C   UNL A   1      38.856  32.567  36.962  1.00  0.00     0.091 A 
ATOM     64  F   UNL A   1      38.717  30.414  35.939  1.00  0.00    -0.205 F 
ATOM     65  C   UNL A   1      39.476  33.825  37.043  1.00  0.00     0.022 A 
BRANCH  63  66
ATOM     66  S   UNL A   1      37.504  32.274  38.112  1.00  0.00     0.127 S 
ATOM     67  O   UNL A   1      38.071  32.772  39.366  1.00  0.00    -0.237 OA
ATOM     68  O   UNL A   1      36.441  33.107  37.552  1.00  0.00    -0.237 OA
ATOM     69  O   UNL A   1      37.246  30.842  38.076  1.00  0.00    -0.744 OA
ENDBRANCH  63  66
ENDBRANCH  45  59
BRANCH  46  70
ATOM     70  C   UNL A   1      43.159  26.499  27.193  1.00  0.00     0.023 A 
ATOM     71  C   UNL A   1      44.093  27.069  26.305  1.00  0.00     0.012 A 
ATOM     72  C   UNL A   1      42.718  25.181  26.967  1.00  0.00     0.148 A 
ATOM     73  C   UNL A   1      44.555  26.355  25.198  1.00  0.00     0.002 A 
ATOM     74  C   UNL A   1      43.225  24.455  25.893  1.00  0.00     0.091 A 
ATOM     75  F   UNL A   1      41.826  24.655  27.817  1.00  0.00    -0.205 F 
ATOM     76  C   UNL A   1      44.129  25.046  24.998  1.00  0.00     0.022 A 
BRANCH  74  77
ATOM     77  S   UNL A   1      42.841  22.717  25.643  1.00  0.00     0.127 S 
ATOM     78  O   UNL A   1      43.367  22.485  24.301  1.00  0.00    -0.237 OA
ATOM     79  O   UNL A   1      43.598  22.080  26.721  1.00  0.00    -0.237 OA
ATOM     80  O   UNL A   1      41.395  22.612  25.787  1.00  0.00    -0.744 OA
ENDBRANCH  74  77
ENDBRANCH  46  70
BRANCH  58  81
ATOM     81  C   UNL A   1      45.078  26.655  33.911  1.00  0.00     0.023 A 
ATOM     82  C   UNL A   1      46.418  27.092  33.954  1.00  0.00     0.012 A 
ATOM     83  C   UNL A   1      44.705  25.498  34.621  1.00  0.00     0.148 A 
ATOM     84  C   UNL A   1      47.381  26.357  34.642  1.00  0.00     0.002 A 
ATOM     85  C   UNL A   1      45.659  24.802  35.352  1.00  0.00     0.091 A 
ATOM     86  F   UNL A   1      43.429  25.089  34.555  1.00  0.00    -0.205 F 
ATOM     87  C   UNL A   1      47.001  25.218  35.348  1.00  0.00     0.022 A 
BRANCH  85  88
ATOM     88  S   UNL A   1      45.241  23.384  36.371  1.00  0.00     0.127 S 
ATOM     89  O   UNL A   1      44.151  22.781  35.608  1.00  0.00    -0.237 OA
ATOM     90  O   UNL A   1      46.488  22.620  36.364  1.00  0.00    -0.237 OA
ATOM     91  O   UNL A   1      44.873  23.923  37.673  1.00  0.00    -0.744 OA
ENDBRANCH  85  88
ENDBRANCH  58  81
ENDBRANCH  32  33
ENDBRANCH  25  27
ENDBRANCH  24  25
ENDBRANCH  23  24
ENDBRANCH   1  23
TORSDOF 18
ENDMDL
MODEL 2
REMARK VINA RESULT:     -11.4      1.934      2.601
REMARK SMILES O=C(CC1(NC(=O)c2ccccc2[N+](=O)[O-])CCC1)OCCOC(=O)c1ccc(-c2c3nc(c(-c4cccc(S(=O)(=O)[O-])c4F)c4ccc([nH]4)c(-c4cccc(S(=O)(=O)[O-])c4F)c4nc(c(-c5cccc(S(=O)(=O)[O-])c5F)c5ccc2[nH]5)C=C4)C=C3)cc1
REMARK SMILES IDX 21 1 20 2 2 3 1 4 3 5 4 6 17 7 19 8 18 9 5 10 6 11 7 13 8 14
REMARK SMILES IDX 9 15 13 16 10 17 12 18 11 19 14 20 15 21 16 22 22 23 23 24
REMARK SMILES IDX 24 25 25 26 26 27 27 28 88 29 28 30 87 31 29 32 30 33 31 34
REMARK SMILES IDX 81 35 32 36 86 37 80 38 82 39 33 40 85 41 79 42 78 43 34 45
REMARK SMILES IDX 66 46 46 47 65 48 47 49 50 50 64 51 83 52 48 53 49 54 63 56
REMARK SMILES IDX 84 57 51 58 35 59 36 60 44 61 37 62 39 63 45 64 38 65 40 66
REMARK SMILES IDX 41 67 42 68 43 69 67 70 68 71 76 72 69 73 71 74 77 75 70 76
REMARK SMILES IDX 72 77 73 78 74 79 75 80 52 81 53 82 61 83 54 84 56 85 62 86
REMARK SMILES IDX 55 87 57 88 58 89 59 90 60 91
REMARK H PARENT 5 12 82 44 50 55
REMARK Flexibility Score: inf
ROOT
ATOM      1  C   UNL A   1      31.848  29.335  25.771  1.00  0.00     0.274 C 
ENDROOT
BRANCH   1   2
ATOM      2  O   UNL A   1      32.483  29.261  24.493  1.00  0.00    -0.462 OA
BRANCH   2   3
ATOM      3  C   UNL A   1      33.303  28.224  24.228  1.00  0.00     0.308 C 
ATOM      4  O   UNL A   1      33.929  28.204  23.171  1.00  0.00    -0.252 OA
BRANCH   3   5
ATOM      5  C   UNL A   1      33.450  27.120  25.260  1.00  0.00     0.151 C 
BRANCH   5   6
ATOM      6  C   UNL A   1      32.971  25.706  24.956  1.00  0.00     0.051 C 
ATOM      7  C   UNL A   1      33.399  24.728  26.101  1.00  0.00     0.029 C 
ATOM      8  C   UNL A   1      31.482  25.450  25.380  1.00  0.00     0.029 C 
ATOM      9  C   UNL A   1      31.939  24.521  26.501  1.00  0.00     0.005 C 
BRANCH   6  10
ATOM     10  N   UNL A   1      33.224  25.057  23.617  1.00  0.00    -0.346 N 
ATOM     11  C   UNL A   1      33.464  23.870  22.966  1.00  0.00     0.258 C 
ATOM     12  H   UNL A   1      33.213  25.770  22.937  1.00  0.00     0.164 HD
ATOM     13  O   UNL A   1      33.544  23.933  21.733  1.00  0.00    -0.269 OA
BRANCH  11  14
ATOM     14  C   UNL A   1      33.740  22.536  23.514  1.00  0.00     0.117 A 
ATOM     15  C   UNL A   1      32.627  21.752  23.881  1.00  0.00     0.021 A 
ATOM     16  C   UNL A   1      34.969  22.155  24.044  1.00  0.00     0.282 A 
ATOM     17  C   UNL A   1      32.780  20.522  24.540  1.00  0.00     0.001 A 
ATOM     18  C   UNL A   1      35.135  20.938  24.746  1.00  0.00     0.086 A 
ATOM     19  C   UNL A   1      34.043  20.092  24.933  1.00  0.00     0.007 A 
BRANCH  16  20
ATOM     20  N   UNL A   1      36.128  22.998  23.874  1.00  0.00     0.063 N 
ATOM     21  O   UNL A   1      36.463  23.684  24.844  1.00  0.00    -0.258 OA
ATOM     22  O   UNL A   1      36.652  23.006  22.756  1.00  0.00    -0.258 OA
ENDBRANCH  16  20
ENDBRANCH  11  14
ENDBRANCH   6  10
ENDBRANCH   5   6
ENDBRANCH   3   5
ENDBRANCH   2   3
ENDBRANCH   1   2
BRANCH   1  23
ATOM     23  C   UNL A   1      32.318  30.532  26.613  1.00  0.00     0.275 C 
BRANCH  23  24
ATOM     24  O   UNL A   1      33.671  30.347  27.090  1.00  0.00    -0.458 OA
BRANCH  24  25
ATOM     25  C   UNL A   1      34.235  31.387  27.775  1.00  0.00     0.338 C 
ATOM     26  O   UNL A   1      33.744  32.491  27.900  1.00  0.00    -0.246 OA
BRANCH  25  27
ATOM     27  C   UNL A   1      35.529  30.986  28.414  1.00  0.00     0.060 A 
ATOM     28  C   UNL A   1      36.611  31.862  28.426  1.00  0.00     0.016 A 
ATOM     29  C   UNL A   1      35.701  29.728  28.985  1.00  0.00     0.016 A 
ATOM     30  C   UNL A   1      37.857  31.441  28.928  1.00  0.00     0.010 A 
ATOM     31  C   UNL A   1      36.921  29.310  29.526  1.00  0.00     0.010 A 
ATOM     32  C   UNL A   1      38.034  30.143  29.442  1.00  0.00    -0.014 A 
BRANCH  32  33
ATOM     33  C   UNL A   1      39.371  29.660  29.881  1.00  0.00     0.031 A 
ATOM     34  C   UNL A   1      40.088  30.302  31.045  1.00  0.00     0.074 A 
ATOM     35  C   UNL A   1      39.986  28.685  29.187  1.00  0.00     0.049 A 
ATOM     36  N   UNL A   1      41.105  29.859  31.738  1.00  0.00    -0.248 NA
ATOM     37  C   UNL A   1      39.627  31.637  31.461  1.00  0.00     0.031 C 
ATOM     38  C   UNL A   1      39.523  28.144  27.908  1.00  0.00     0.029 A 
ATOM     39  N   UNL A   1      41.142  27.993  29.445  1.00  0.00    -0.354 N 
ATOM     40  C   UNL A   1      41.387  30.841  32.686  1.00  0.00     0.074 A 
ATOM     41  C   UNL A   1      40.483  31.938  32.429  1.00  0.00     0.031 C 
ATOM     42  C   UNL A   1      40.380  27.193  27.500  1.00  0.00     0.029 A 
ATOM     43  C   UNL A   1      41.423  27.026  28.508  1.00  0.00     0.049 A 
ATOM     44  H   UNL A   1      41.714  28.171  30.226  1.00  0.00     0.167 HD
ATOM     45  C   UNL A   1      42.288  30.807  33.702  1.00  0.00     0.034 A 
ATOM     46  C   UNL A   1      42.380  26.077  28.499  1.00  0.00     0.034 A 
ATOM     47  C   UNL A   1      43.192  29.705  33.908  1.00  0.00     0.049 A 
ATOM     48  C   UNL A   1      43.260  25.947  29.714  1.00  0.00     0.074 A 
ATOM     49  C   UNL A   1      44.068  29.477  34.955  1.00  0.00     0.029 A 
ATOM     50  N   UNL A   1      43.350  28.648  33.022  1.00  0.00    -0.354 N 
ATOM     51  N   UNL A   1      43.329  26.723  30.770  1.00  0.00    -0.248 NA
ATOM     52  C   UNL A   1      44.135  24.769  29.777  1.00  0.00     0.031 C 
ATOM     53  C   UNL A   1      44.769  28.294  34.688  1.00  0.00     0.029 A 
ATOM     54  C   UNL A   1      44.304  27.765  33.494  1.00  0.00     0.049 A 
ATOM     55  H   UNL A   1      42.852  28.542  32.179  1.00  0.00     0.167 HD
ATOM     56  C   UNL A   1      44.233  26.117  31.634  1.00  0.00     0.074 A 
ATOM     57  C   UNL A   1      44.653  24.885  30.992  1.00  0.00     0.031 C 
ATOM     58  C   UNL A   1      44.691  26.541  32.839  1.00  0.00     0.034 A 
BRANCH  45  59
ATOM     59  C   UNL A   1      42.270  31.934  34.716  1.00  0.00     0.023 A 
ATOM     60  C   UNL A   1      43.019  33.102  34.448  1.00  0.00     0.012 A 
ATOM     61  C   UNL A   1      41.463  31.897  35.872  1.00  0.00     0.148 A 
ATOM     62  C   UNL A   1      43.004  34.186  35.326  1.00  0.00     0.002 A 
ATOM     63  C   UNL A   1      41.419  33.001  36.723  1.00  0.00     0.091 A 
ATOM     64  F   UNL A   1      40.755  30.788  36.123  1.00  0.00    -0.205 F 
ATOM     65  C   UNL A   1      42.199  34.139  36.457  1.00  0.00     0.022 A 
BRANCH  63  66
ATOM     66  S   UNL A   1      40.361  33.088  38.175  1.00  0.00     0.127 S 
ATOM     67  O   UNL A   1      40.237  34.533  38.363  1.00  0.00    -0.237 OA
ATOM     68  O   UNL A   1      39.143  32.430  37.704  1.00  0.00    -0.237 OA
ATOM     69  O   UNL A   1      41.070  32.384  39.234  1.00  0.00    -0.744 OA
ENDBRANCH  63  66
ENDBRANCH  45  59
BRANCH  46  70
ATOM     70  C   UNL A   1      42.435  25.094  27.379  1.00  0.00     0.023 A 
ATOM     71  C   UNL A   1      43.383  25.258  26.349  1.00  0.00     0.012 A 
ATOM     72  C   UNL A   1      41.598  23.962  27.363  1.00  0.00     0.148 A 
ATOM     73  C   UNL A   1      43.472  24.334  25.307  1.00  0.00     0.002 A 
ATOM     74  C   UNL A   1      41.731  23.015  26.352  1.00  0.00     0.091 A 
ATOM     75  F   UNL A   1      40.699  23.823  28.348  1.00  0.00    -0.205 F 
ATOM     76  C   UNL A   1      42.655  23.209  25.314  1.00  0.00     0.022 A 
BRANCH  74  77
ATOM     77  S   UNL A   1      40.819  21.467  26.361  1.00  0.00     0.127 S 
ATOM     78  O   UNL A   1      41.564  20.675  25.387  1.00  0.00    -0.237 OA
ATOM     79  O   UNL A   1      40.968  21.034  27.751  1.00  0.00    -0.237 OA
ATOM     80  O   UNL A   1      39.454  21.815  25.988  1.00  0.00    -0.744 OA
ENDBRANCH  74  77
ENDBRANCH  46  70
BRANCH  58  81
ATOM     81  C   UNL A   1      45.696  25.660  33.535  1.00  0.00     0.023 A 
ATOM     82  C   UNL A   1      47.074  25.850  33.306  1.00  0.00     0.012 A 
ATOM     83  C   UNL A   1      45.276  24.663  34.437  1.00  0.00     0.148 A 
ATOM     84  C   UNL A   1      48.015  25.023  33.916  1.00  0.00     0.002 A 
ATOM     85  C   UNL A   1      46.223  23.881  35.087  1.00  0.00     0.091 A 
ATOM     86  F   UNL A   1      43.961  24.487  34.631  1.00  0.00    -0.205 F 
ATOM     87  C   UNL A   1      47.590  24.046  34.813  1.00  0.00     0.022 A 
BRANCH  85  88
ATOM     88  S   UNL A   1      45.773  22.668  36.332  1.00  0.00     0.127 S 
ATOM     89  O   UNL A   1      47.075  22.097  36.674  1.00  0.00    -0.237 OA
ATOM     90  O   UNL A   1      45.178  23.502  37.375  1.00  0.00    -0.237 OA
ATOM     91  O   UNL A   1      44.840  21.757  35.683  1.00  0.00    -0.744 OA
ENDBRANCH  85  88
ENDBRANCH  58  81
ENDBRANCH  32  33
ENDBRANCH  25  27
ENDBRANCH  24  25
ENDBRANCH  23  24
ENDBRANCH   1  23
TORSDOF 18
ENDMDL
MODEL 3
REMARK VINA RESULT:     -11.4      1.888      2.378
REMARK SMILES O=C(CC1(NC(=O)c2ccccc2[N+](=O)[O-])CCC1)OCCOC(=O)c1ccc(-c2c3nc(c(-c4cccc(S(=O)(=O)[O-])c4F)c4ccc([nH]4)c(-c4cccc(S(=O)(=O)[O-])c4F)c4nc(c(-c5cccc(S(=O)(=O)[O-])c5F)c5ccc2[nH]5)C=C4)C=C3)cc1
REMARK SMILES IDX 21 1 20 2 2 3 1 4 3 5 4 6 17 7 19 8 18 9 5 10 6 11 7 13 8 14
REMARK SMILES IDX 9 15 13 16 10 17 12 18 11 19 14 20 15 21 16 22 22 23 23 24
REMARK SMILES IDX 24 25 25 26 26 27 27 28 88 29 28 30 87 31 29 32 30 33 31 34
REMARK SMILES IDX 81 35 32 36 86 37 80 38 82 39 33 40 85 41 79 42 78 43 34 45
REMARK SMILES IDX 66 46 46 47 65 48 47 49 50 50 64 51 83 52 48 53 49 54 63 56
REMARK SMILES IDX 84 57 51 58 35 59 36 60 44 61 37 62 39 63 45 64 38 65 40 66
REMARK SMILES IDX 41 67 42 68 43 69 67 70 68 71 76 72 69 73 71 74 77 75 70 76
REMARK SMILES IDX 72 77 73 78 74 79 75 80 52 81 53 82 61 83 54 84 56 85 62 86
REMARK SMILES IDX 55 87 57 88 58 89 59 90 60 91
REMARK H PARENT 5 12 82 44 50 55
REMARK Flexibility Score: inf
ROOT
ATOM      1  C   UNL A   1      32.835  29.786  25.230  1.00  0.00     0.274 C 
ENDROOT
BRANCH   1   2
ATOM      2  O   UNL A   1      32.801  28.358  25.158  1.00  0.00    -0.462 OA
BRANCH   2   3
ATOM      3  C   UNL A   1      32.025  27.768  24.226  1.00  0.00     0.308 C 
ATOM      4  O   UNL A   1      32.030  28.201  23.076  1.00  0.00    -0.252 OA
BRANCH   3   5
ATOM      5  C   UNL A   1      31.186  26.566  24.620  1.00  0.00     0.151 C 
BRANCH   5   6
ATOM      6  C   UNL A   1      31.770  25.161  24.561  1.00  0.00     0.051 C 
ATOM      7  C   UNL A   1      32.694  24.902  25.799  1.00  0.00     0.029 C 
ATOM      8  C   UNL A   1      30.806  24.063  25.132  1.00  0.00     0.029 C 
ATOM      9  C   UNL A   1      31.718  23.855  26.336  1.00  0.00     0.005 C 
BRANCH   6  10
ATOM     10  N   UNL A   1      32.438  24.635  23.314  1.00  0.00    -0.346 N 
ATOM     11  C   UNL A   1      33.081  23.560  22.746  1.00  0.00     0.258 C 
ATOM     12  H   UNL A   1      32.397  25.347  22.635  1.00  0.00     0.164 HD
ATOM     13  O   UNL A   1      33.395  23.681  21.556  1.00  0.00    -0.269 OA
BRANCH  11  14
ATOM     14  C   UNL A   1      33.549  22.312  23.362  1.00  0.00     0.117 A 
ATOM     15  C   UNL A   1      32.569  21.354  23.690  1.00  0.00     0.021 A 
ATOM     16  C   UNL A   1      34.788  22.168  23.980  1.00  0.00     0.282 A 
ATOM     17  C   UNL A   1      32.890  20.188  24.406  1.00  0.00     0.001 A 
ATOM     18  C   UNL A   1      35.117  21.020  24.738  1.00  0.00     0.086 A 
ATOM     19  C   UNL A   1      34.179  20.000  24.891  1.00  0.00     0.007 A 
BRANCH  16  20
ATOM     20  N   UNL A   1      35.790  23.198  23.849  1.00  0.00     0.063 N 
ATOM     21  O   UNL A   1      36.504  23.153  22.843  1.00  0.00    -0.258 OA
ATOM     22  O   UNL A   1      35.888  24.003  24.781  1.00  0.00    -0.258 OA
ENDBRANCH  16  20
ENDBRANCH  11  14
ENDBRANCH   6  10
ENDBRANCH   5   6
ENDBRANCH   3   5
ENDBRANCH   2   3
ENDBRANCH   1   2
BRANCH   1  23
ATOM     23  C   UNL A   1      32.015  30.353  26.399  1.00  0.00     0.275 C 
BRANCH  23  24
ATOM     24  O   UNL A   1      32.819  30.492  27.593  1.00  0.00    -0.458 OA
BRANCH  24  25
ATOM     25  C   UNL A   1      33.684  31.548  27.640  1.00  0.00     0.338 C 
ATOM     26  O   UNL A   1      33.391  32.704  27.409  1.00  0.00    -0.246 OA
BRANCH  25  27
ATOM     27  C   UNL A   1      35.054  31.119  28.072  1.00  0.00     0.060 A 
ATOM     28  C   UNL A   1      35.312  29.785  28.375  1.00  0.00     0.016 A 
ATOM     29  C   UNL A   1      36.093  32.034  28.213  1.00  0.00     0.016 A 
ATOM     30  C   UNL A   1      36.567  29.406  28.886  1.00  0.00     0.010 A 
ATOM     31  C   UNL A   1      37.358  31.665  28.680  1.00  0.00     0.010 A 
ATOM     32  C   UNL A   1      37.589  30.353  29.085  1.00  0.00    -0.014 A 
BRANCH  32  33
ATOM     33  C   UNL A   1      38.881  29.976  29.719  1.00  0.00     0.031 A 
ATOM     34  C   UNL A   1      39.265  30.506  31.080  1.00  0.00     0.074 A 
ATOM     35  C   UNL A   1      39.756  29.211  29.041  1.00  0.00     0.049 A 
ATOM     36  N   UNL A   1      40.194  30.087  31.901  1.00  0.00    -0.248 NA
ATOM     37  C   UNL A   1      38.535  31.688  31.569  1.00  0.00     0.031 C 
ATOM     38  C   UNL A   1      39.624  28.831  27.633  1.00  0.00     0.029 A 
ATOM     39  N   UNL A   1      40.938  28.637  29.434  1.00  0.00    -0.354 N 
ATOM     40  C   UNL A   1      40.143  30.931  33.009  1.00  0.00     0.074 A 
ATOM     41  C   UNL A   1      39.142  31.933  32.722  1.00  0.00     0.031 C 
ATOM     42  C   UNL A   1      40.678  28.073  27.285  1.00  0.00     0.029 A 
ATOM     43  C   UNL A   1      41.532  27.878  28.453  1.00  0.00     0.049 A 
ATOM     44  H   UNL A   1      41.323  28.757  30.332  1.00  0.00     0.167 HD
ATOM     45  C   UNL A   1      40.837  30.846  34.174  1.00  0.00     0.034 A 
ATOM     46  C   UNL A   1      42.609  27.070  28.512  1.00  0.00     0.034 A 
ATOM     47  C   UNL A   1      41.847  29.847  34.410  1.00  0.00     0.049 A 
ATOM     48  C   UNL A   1      43.262  26.856  29.853  1.00  0.00     0.074 A 
ATOM     49  C   UNL A   1      42.541  29.565  35.574  1.00  0.00     0.029 A 
ATOM     50  N   UNL A   1      42.326  28.976  33.441  1.00  0.00    -0.354 N 
ATOM     51  N   UNL A   1      43.015  27.453  30.995  1.00  0.00    -0.248 NA
ATOM     52  C   UNL A   1      44.282  25.802  29.935  1.00  0.00     0.031 C 
ATOM     53  C   UNL A   1      43.454  28.537  35.299  1.00  0.00     0.029 A 
ATOM     54  C   UNL A   1      43.302  28.155  33.975  1.00  0.00     0.049 A 
ATOM     55  H   UNL A   1      42.013  28.946  32.508  1.00  0.00     0.167 HD
ATOM     56  C   UNL A   1      43.829  26.834  31.936  1.00  0.00     0.074 A 
ATOM     57  C   UNL A   1      44.544  25.785  31.234  1.00  0.00     0.031 C 
ATOM     58  C   UNL A   1      43.987  27.111  33.255  1.00  0.00     0.034 A 
BRANCH  45  59
ATOM     59  C   UNL A   1      40.459  31.783  35.304  1.00  0.00     0.023 A 
ATOM     60  C   UNL A   1      41.188  32.983  35.465  1.00  0.00     0.012 A 
ATOM     61  C   UNL A   1      39.353  31.544  36.146  1.00  0.00     0.148 A 
ATOM     62  C   UNL A   1      40.855  33.901  36.461  1.00  0.00     0.002 A 
ATOM     63  C   UNL A   1      39.000  32.486  37.111  1.00  0.00     0.091 A 
ATOM     64  F   UNL A   1      38.666  30.404  35.992  1.00  0.00    -0.205 F 
ATOM     65  C   UNL A   1      39.758  33.657  37.278  1.00  0.00     0.022 A 
BRANCH  63  66
ATOM     66  S   UNL A   1      37.560  32.317  38.176  1.00  0.00     0.127 S 
ATOM     67  O   UNL A   1      38.060  32.866  39.437  1.00  0.00    -0.237 OA
ATOM     68  O   UNL A   1      36.576  33.158  37.495  1.00  0.00    -0.237 OA
ATOM     69  O   UNL A   1      37.242  30.897  38.203  1.00  0.00    -0.744 OA
ENDBRANCH  63  66
ENDBRANCH  45  59
BRANCH  46  70
ATOM     70  C   UNL A   1      43.020  26.296  27.306  1.00  0.00     0.023 A 
ATOM     71  C   UNL A   1      43.928  26.859  26.388  1.00  0.00     0.012 A 
ATOM     72  C   UNL A   1      42.565  24.980  27.097  1.00  0.00     0.148 A 
ATOM     73  C   UNL A   1      44.349  26.141  25.267  1.00  0.00     0.002 A 
ATOM     74  C   UNL A   1      43.032  24.249  26.008  1.00  0.00     0.091 A 
ATOM     75  F   UNL A   1      41.697  24.461  27.977  1.00  0.00    -0.205 F 
ATOM     76  C   UNL A   1      43.910  24.834  25.083  1.00  0.00     0.022 A 
BRANCH  74  77
ATOM     77  S   UNL A   1      42.631  22.514  25.774  1.00  0.00     0.127 S 
ATOM     78  O   UNL A   1      43.260  22.232  24.487  1.00  0.00    -0.237 OA
ATOM     79  O   UNL A   1      43.282  21.892  26.928  1.00  0.00    -0.237 OA
ATOM     80  O   UNL A   1      41.176  22.442  25.800  1.00  0.00    -0.744 OA
ENDBRANCH  74  77
ENDBRANCH  46  70
BRANCH  58  81
ATOM     81  C   UNL A   1      44.972  26.262  34.017  1.00  0.00     0.023 A 
ATOM     82  C   UNL A   1      44.530  25.098  34.678  1.00  0.00     0.012 A 
ATOM     83  C   UNL A   1      46.337  26.602  34.053  1.00  0.00     0.148 A 
ATOM     84  C   UNL A   1      45.421  24.319  35.413  1.00  0.00     0.002 A 
ATOM     85  C   UNL A   1      47.230  25.789  34.740  1.00  0.00     0.091 A 
ATOM     86  F   UNL A   1      46.736  27.721  33.431  1.00  0.00    -0.205 F 
ATOM     87  C   UNL A   1      46.771  24.659  35.437  1.00  0.00     0.022 A 
BRANCH  85  88
ATOM     88  S   UNL A   1      49.000  26.093  34.740  1.00  0.00     0.127 S 
ATOM     89  O   UNL A   1      49.492  24.984  35.555  1.00  0.00    -0.237 OA
ATOM     90  O   UNL A   1      49.329  25.999  33.318  1.00  0.00    -0.237 OA
ATOM     91  O   UNL A   1      49.177  27.420  35.312  1.00  0.00    -0.744 OA
ENDBRANCH  85  88
ENDBRANCH  58  81
ENDBRANCH  32  33
ENDBRANCH  25  27
ENDBRANCH  24  25
ENDBRANCH  23  24
ENDBRANCH   1  23
TORSDOF 18
ENDMDL
