MODEL 1
REMARK VINA RESULT:     -11.0      0.000      0.000
REMARK SMILES CCc1cc(C(=O)N2CCO[C@@H](CC(=O)OCCOC(=O)c3ccc(-c4c5nc(c(-c6cccc(S(=O)(=O)[O-])c6F)c6ccc([nH]6)c(-c6cccc(S(=O)(=O)[O-])c6F)c6nc(c(-c7cccc(S(=O)(=O)[O-])c7F)c7ccc4[nH]7)C=C6)C=C5)cc3)C2)sc1C
REMARK SMILES IDX 17 1 16 2 14 3 15 4 13 5 12 6 8 7 9 8 85 9 10 10 11 11 6 12
REMARK SMILES IDX 7 13 5 14 3 15 4 16 87 17 86 18 88 19 2 20 1 21 18 22 19 23
REMARK SMILES IDX 20 24 21 25 22 26 23 27 84 28 24 29 83 30 25 31 26 32 27 33
REMARK SMILES IDX 77 34 28 35 82 36 76 37 78 38 29 39 81 40 75 41 74 42 30 44
REMARK SMILES IDX 62 45 42 46 61 47 43 48 46 49 60 50 79 51 44 52 45 53 59 55
REMARK SMILES IDX 80 56 47 57 31 58 32 59 40 60 33 61 35 62 41 63 34 64 36 65
REMARK SMILES IDX 37 66 38 67 39 68 63 69 64 70 72 71 65 72 67 73 73 74 66 75
REMARK SMILES IDX 68 76 69 77 70 78 71 79 48 80 49 81 57 82 50 83 52 84 58 85
REMARK SMILES IDX 51 86 53 87 54 88 55 89 56 90
REMARK H PARENT 78 43 46 54
REMARK Flexibility Score: inf
ROOT
ATOM      1  C   UNL A   1      33.105  31.559  27.616  1.00  0.00     0.274 C 
ENDROOT
BRANCH   1   2
ATOM      2  O   UNL A   1      32.044  30.780  27.028  1.00  0.00    -0.462 OA
BRANCH   2   3
ATOM      3  C   UNL A   1      32.264  29.454  26.858  1.00  0.00     0.308 C 
ATOM      4  O   UNL A   1      31.710  28.568  27.495  1.00  0.00    -0.252 OA
BRANCH   3   5
ATOM      5  C   UNL A   1      33.343  29.180  25.838  1.00  0.00     0.156 C 
BRANCH   5   6
ATOM      6  C   UNL A   1      32.832  28.633  24.508  1.00  0.00     0.148 C 
ATOM      7  N   UNL A   1      32.440  26.673  23.096  1.00  0.00    -0.333 N 
ATOM      8  C   UNL A   1      31.062  27.098  22.856  1.00  0.00     0.148 C 
ATOM      9  C   UNL A   1      32.991  27.106  24.376  1.00  0.00     0.152 C 
ATOM     10  C   UNL A   1      30.902  28.601  23.112  1.00  0.00     0.182 C 
ATOM     11  O   UNL A   1      31.422  28.969  24.404  1.00  0.00    -0.374 OA
BRANCH   7  12
ATOM     12  C   UNL A   1      33.172  25.785  22.315  1.00  0.00     0.264 C 
ATOM     13  O   UNL A   1      33.512  26.118  21.177  1.00  0.00    -0.268 OA
BRANCH  12  14
ATOM     14  C   UNL A   1      33.406  24.447  22.850  1.00  0.00     0.093 A 
ATOM     15  C   UNL A   1      34.382  22.576  23.946  1.00  0.00    -0.034 A 
ATOM     16  C   UNL A   1      34.561  23.875  23.337  1.00  0.00     0.029 A 
ATOM     17  C   UNL A   1      33.038  22.225  23.917  1.00  0.00     0.005 A 
ATOM     18  S   UNL A   1      32.084  23.398  23.091  1.00  0.00    -0.135 S 
ATOM     19  C   UNL A   1      32.291  21.070  24.501  1.00  0.00     0.056 C 
BRANCH  15  20
ATOM     20  C   UNL A   1      35.587  21.881  24.535  1.00  0.00     0.033 C 
ATOM     21  C   UNL A   1      36.958  22.191  23.974  1.00  0.00     0.009 C 
ENDBRANCH  15  20
ENDBRANCH  12  14
ENDBRANCH   7  12
ENDBRANCH   5   6
ENDBRANCH   3   5
ENDBRANCH   2   3
ENDBRANCH   1   2
BRANCH   1  22
ATOM     22  C   UNL A   1      32.948  33.049  27.303  1.00  0.00     0.275 C 
BRANCH  22  23
ATOM     23  O   UNL A   1      32.373  33.757  28.416  1.00  0.00    -0.458 OA
BRANCH  23  24
ATOM     24  C   UNL A   1      33.122  34.769  28.911  1.00  0.00     0.338 C 
ATOM     25  O   UNL A   1      32.859  35.959  28.897  1.00  0.00    -0.246 OA
BRANCH  24  26
ATOM     26  C   UNL A   1      34.281  34.209  29.620  1.00  0.00     0.060 A 
ATOM     27  C   UNL A   1      35.559  34.476  29.119  1.00  0.00     0.016 A 
ATOM     28  C   UNL A   1      34.111  33.395  30.741  1.00  0.00     0.016 A 
ATOM     29  C   UNL A   1      36.678  33.930  29.743  1.00  0.00     0.010 A 
ATOM     30  C   UNL A   1      35.236  32.853  31.368  1.00  0.00     0.010 A 
ATOM     31  C   UNL A   1      36.526  33.112  30.872  1.00  0.00    -0.014 A 
BRANCH  31  32
ATOM     32  C   UNL A   1      37.715  32.530  31.538  1.00  0.00     0.031 A 
ATOM     33  C   UNL A   1      38.456  31.391  30.900  1.00  0.00     0.074 A 
ATOM     34  C   UNL A   1      38.102  33.005  32.737  1.00  0.00     0.049 A 
ATOM     35  N   UNL A   1      39.470  30.706  31.362  1.00  0.00    -0.248 NA
ATOM     36  C   UNL A   1      37.993  30.961  29.571  1.00  0.00     0.031 C 
ATOM     37  C   UNL A   1      37.452  34.101  33.458  1.00  0.00     0.029 A 
ATOM     38  N   UNL A   1      39.114  32.607  33.574  1.00  0.00    -0.354 N 
ATOM     39  C   UNL A   1      39.747  29.742  30.401  1.00  0.00     0.074 A 
ATOM     40  C   UNL A   1      38.791  29.929  29.329  1.00  0.00     0.031 C 
ATOM     41  C   UNL A   1      38.067  34.272  34.640  1.00  0.00     0.029 A 
ATOM     42  C   UNL A   1      39.128  33.278  34.773  1.00  0.00     0.049 A 
ATOM     43  H   UNL A   1      39.768  31.909  33.337  1.00  0.00     0.167 HD
ATOM     44  C   UNL A   1      40.716  28.796  30.407  1.00  0.00     0.034 A 
ATOM     45  C   UNL A   1      39.891  33.095  35.869  1.00  0.00     0.034 A 
ATOM     46  C   UNL A   1      41.681  28.635  31.461  1.00  0.00     0.049 A 
ATOM     47  C   UNL A   1      40.954  32.028  35.852  1.00  0.00     0.074 A 
ATOM     48  C   UNL A   1      42.742  27.747  31.527  1.00  0.00     0.029 A 
ATOM     49  N   UNL A   1      41.698  29.364  32.640  1.00  0.00    -0.354 N 
ATOM     50  N   UNL A   1      41.284  31.210  34.883  1.00  0.00    -0.248 NA
ATOM     51  C   UNL A   1      41.763  31.876  37.070  1.00  0.00     0.031 C 
ATOM     52  C   UNL A   1      43.386  27.926  32.756  1.00  0.00     0.029 A 
ATOM     53  C   UNL A   1      42.740  28.938  33.447  1.00  0.00     0.049 A 
ATOM     54  H   UNL A   1      41.063  30.082  32.869  1.00  0.00     0.167 HD
ATOM     55  C   UNL A   1      42.357  30.464  35.362  1.00  0.00     0.074 A 
ATOM     56  C   UNL A   1      42.635  30.947  36.700  1.00  0.00     0.031 C 
ATOM     57  C   UNL A   1      43.037  29.460  34.757  1.00  0.00     0.034 A 
BRANCH  44  58
ATOM     58  C   UNL A   1      40.805  27.878  29.218  1.00  0.00     0.023 A 
ATOM     59  C   UNL A   1      39.976  26.739  29.155  1.00  0.00     0.012 A 
ATOM     60  C   UNL A   1      41.658  28.173  28.136  1.00  0.00     0.148 A 
ATOM     61  C   UNL A   1      40.012  25.895  28.046  1.00  0.00     0.002 A 
ATOM     62  C   UNL A   1      41.661  27.347  27.018  1.00  0.00     0.091 A 
ATOM     63  F   UNL A   1      42.455  29.247  28.225  1.00  0.00    -0.205 F 
ATOM     64  C   UNL A   1      40.846  26.205  26.974  1.00  0.00     0.022 A 
BRANCH  62  65
ATOM     65  S   UNL A   1      42.649  27.699  25.559  1.00  0.00     0.127 S 
ATOM     66  O   UNL A   1      42.016  28.920  25.062  1.00  0.00    -0.237 OA
ATOM     67  O   UNL A   1      43.983  27.892  26.127  1.00  0.00    -0.237 OA
ATOM     68  O   UNL A   1      42.520  26.531  24.698  1.00  0.00    -0.744 OA
ENDBRANCH  62  65
ENDBRANCH  44  58
BRANCH  45  69
ATOM     69  C   UNL A   1      39.694  33.963  37.063  1.00  0.00     0.023 A 
ATOM     70  C   UNL A   1      40.139  35.299  37.029  1.00  0.00     0.012 A 
ATOM     71  C   UNL A   1      39.041  33.485  38.216  1.00  0.00     0.148 A 
ATOM     72  C   UNL A   1      39.958  36.137  38.130  1.00  0.00     0.002 A 
ATOM     73  C   UNL A   1      38.815  34.340  39.287  1.00  0.00     0.091 A 
ATOM     74  F   UNL A   1      38.646  32.205  38.237  1.00  0.00    -0.205 F 
ATOM     75  C   UNL A   1      39.285  35.661  39.254  1.00  0.00     0.022 A 
BRANCH  73  76
ATOM     76  S   UNL A   1      37.845  33.849  40.718  1.00  0.00     0.127 S 
ATOM     77  O   UNL A   1      36.675  33.238  40.092  1.00  0.00    -0.237 OA
ATOM     78  O   UNL A   1      38.745  32.911  41.390  1.00  0.00    -0.237 OA
ATOM     79  O   UNL A   1      37.598  35.077  41.463  1.00  0.00    -0.744 OA
ENDBRANCH  73  76
ENDBRANCH  45  69
BRANCH  57  80
ATOM     80  C   UNL A   1      44.165  28.819  35.523  1.00  0.00     0.023 A 
ATOM     81  C   UNL A   1      45.469  29.336  35.403  1.00  0.00     0.012 A 
ATOM     82  C   UNL A   1      43.919  27.759  36.418  1.00  0.00     0.148 A 
ATOM     83  C   UNL A   1      46.519  28.790  36.141  1.00  0.00     0.002 A 
ATOM     84  C   UNL A   1      44.962  27.250  37.185  1.00  0.00     0.091 A 
ATOM     85  F   UNL A   1      42.674  27.268  36.504  1.00  0.00    -0.205 F 
ATOM     86  C   UNL A   1      46.263  27.757  37.039  1.00  0.00     0.022 A 
BRANCH  84  87
ATOM     87  S   UNL A   1      44.708  25.983  38.433  1.00  0.00     0.127 S 
ATOM     88  O   UNL A   1      43.828  26.669  39.379  1.00  0.00    -0.237 OA
ATOM     89  O   UNL A   1      44.063  24.915  37.666  1.00  0.00    -0.237 OA
ATOM     90  O   UNL A   1      46.031  25.648  38.939  1.00  0.00    -0.744 OA
ENDBRANCH  84  87
ENDBRANCH  57  80
ENDBRANCH  31  32
ENDBRANCH  24  26
ENDBRANCH  23  24
ENDBRANCH  22  23
ENDBRANCH   1  22
TORSDOF 18
ENDMDL
MODEL 2
REMARK VINA RESULT:     -11.0      1.883      2.564
REMARK SMILES CCc1cc(C(=O)N2CCO[C@@H](CC(=O)OCCOC(=O)c3ccc(-c4c5nc(c(-c6cccc(S(=O)(=O)[O-])c6F)c6ccc([nH]6)c(-c6cccc(S(=O)(=O)[O-])c6F)c6nc(c(-c7cccc(S(=O)(=O)[O-])c7F)c7ccc4[nH]7)C=C6)C=C5)cc3)C2)sc1C
REMARK SMILES IDX 17 1 16 2 14 3 15 4 13 5 12 6 8 7 9 8 85 9 10 10 11 11 6 12
REMARK SMILES IDX 7 13 5 14 3 15 4 16 87 17 86 18 88 19 2 20 1 21 18 22 19 23
REMARK SMILES IDX 20 24 21 25 22 26 23 27 84 28 24 29 83 30 25 31 26 32 27 33
REMARK SMILES IDX 77 34 28 35 82 36 76 37 78 38 29 39 81 40 75 41 74 42 30 44
REMARK SMILES IDX 62 45 42 46 61 47 43 48 46 49 60 50 79 51 44 52 45 53 59 55
REMARK SMILES IDX 80 56 47 57 31 58 32 59 40 60 33 61 35 62 41 63 34 64 36 65
REMARK SMILES IDX 37 66 38 67 39 68 63 69 64 70 72 71 65 72 67 73 73 74 66 75
REMARK SMILES IDX 68 76 69 77 70 78 71 79 48 80 49 81 57 82 50 83 52 84 58 85
REMARK SMILES IDX 51 86 53 87 54 88 55 89 56 90
REMARK H PARENT 78 43 46 54
REMARK Flexibility Score: inf
ROOT
ATOM      1  C   UNL A   1      32.458  31.035  26.847  1.00  0.00     0.274 C 
ENDROOT
BRANCH   1   2
ATOM      2  O   UNL A   1      31.764  30.330  25.798  1.00  0.00    -0.462 OA
BRANCH   2   3
ATOM      3  C   UNL A   1      31.835  28.977  25.803  1.00  0.00     0.308 C 
ATOM      4  O   UNL A   1      32.521  28.317  26.571  1.00  0.00    -0.252 OA
BRANCH   3   5
ATOM      5  C   UNL A   1      31.027  28.359  24.686  1.00  0.00     0.156 C 
BRANCH   5   6
ATOM      6  C   UNL A   1      31.334  26.888  24.422  1.00  0.00     0.148 C 
ATOM      7  N   UNL A   1      30.854  24.550  24.961  1.00  0.00    -0.333 N 
ATOM      8  C   UNL A   1      30.700  24.235  23.542  1.00  0.00     0.148 C 
ATOM      9  C   UNL A   1      30.524  25.927  25.313  1.00  0.00     0.152 C 
ATOM     10  C   UNL A   1      31.413  25.275  22.672  1.00  0.00     0.182 C 
ATOM     11  O   UNL A   1      31.022  26.614  23.029  1.00  0.00    -0.374 OA
BRANCH   7  12
ATOM     12  C   UNL A   1      31.112  23.639  25.980  1.00  0.00     0.264 C 
ATOM     13  O   UNL A   1      30.571  23.790  27.079  1.00  0.00    -0.268 OA
BRANCH  12  14
ATOM     14  C   UNL A   1      32.109  22.603  25.726  1.00  0.00     0.093 A 
ATOM     15  C   UNL A   1      33.171  20.594  25.027  1.00  0.00    -0.034 A 
ATOM     16  C   UNL A   1      31.946  21.285  25.360  1.00  0.00     0.029 A 
ATOM     17  C   UNL A   1      34.247  21.468  25.132  1.00  0.00     0.005 A 
ATOM     18  S   UNL A   1      33.762  23.019  25.707  1.00  0.00    -0.135 S 
ATOM     19  C   UNL A   1      35.696  21.320  24.796  1.00  0.00     0.056 C 
BRANCH  15  20
ATOM     20  C   UNL A   1      33.092  19.151  24.586  1.00  0.00     0.033 C 
ATOM     21  C   UNL A   1      32.386  18.820  23.289  1.00  0.00     0.009 C 
ENDBRANCH  15  20
ENDBRANCH  12  14
ENDBRANCH   7  12
ENDBRANCH   5   6
ENDBRANCH   3   5
ENDBRANCH   2   3
ENDBRANCH   1   2
BRANCH   1  22
ATOM     22  C   UNL A   1      31.933  32.464  27.005  1.00  0.00     0.275 C 
BRANCH  22  23
ATOM     23  O   UNL A   1      33.007  33.420  26.971  1.00  0.00    -0.458 OA
BRANCH  23  24
ATOM     24  C   UNL A   1      33.273  34.040  28.143  1.00  0.00     0.338 C 
ATOM     25  O   UNL A   1      32.590  34.878  28.708  1.00  0.00    -0.246 OA
BRANCH  24  26
ATOM     26  C   UNL A   1      34.477  33.446  28.741  1.00  0.00     0.060 A 
ATOM     27  C   UNL A   1      34.318  32.406  29.662  1.00  0.00     0.016 A 
ATOM     28  C   UNL A   1      35.747  33.935  28.430  1.00  0.00     0.016 A 
ATOM     29  C   UNL A   1      35.435  31.846  30.277  1.00  0.00     0.010 A 
ATOM     30  C   UNL A   1      36.867  33.367  29.045  1.00  0.00     0.010 A 
ATOM     31  C   UNL A   1      36.719  32.323  29.975  1.00  0.00    -0.014 A 
BRANCH  31  32
ATOM     32  C   UNL A   1      37.909  31.729  30.628  1.00  0.00     0.031 A 
ATOM     33  C   UNL A   1      38.704  30.667  29.926  1.00  0.00     0.074 A 
ATOM     34  C   UNL A   1      38.248  32.120  31.871  1.00  0.00     0.049 A 
ATOM     35  N   UNL A   1      39.728  29.981  30.362  1.00  0.00    -0.248 NA
ATOM     36  C   UNL A   1      38.292  30.328  28.555  1.00  0.00     0.031 C 
ATOM     37  C   UNL A   1      37.542  33.135  32.656  1.00  0.00     0.029 A 
ATOM     38  N   UNL A   1      39.250  31.690  32.703  1.00  0.00    -0.354 N 
ATOM     39  C   UNL A   1      40.063  29.104  29.338  1.00  0.00     0.074 A 
ATOM     40  C   UNL A   1      39.130  29.344  28.257  1.00  0.00     0.031 C 
ATOM     41  C   UNL A   1      38.120  33.232  33.864  1.00  0.00     0.029 A 
ATOM     42  C   UNL A   1      39.211  32.265  33.951  1.00  0.00     0.049 A 
ATOM     43  H   UNL A   1      39.933  31.034  32.432  1.00  0.00     0.167 HD
ATOM     44  C   UNL A   1      41.063  28.192  29.298  1.00  0.00     0.034 A 
ATOM     45  C   UNL A   1      39.950  32.020  35.051  1.00  0.00     0.034 A 
ATOM     46  C   UNL A   1      42.005  27.978  30.364  1.00  0.00     0.049 A 
ATOM     47  C   UNL A   1      41.048  30.992  34.982  1.00  0.00     0.074 A 
ATOM     48  C   UNL A   1      43.092  27.122  30.392  1.00  0.00     0.029 A 
ATOM     49  N   UNL A   1      41.966  28.614  31.596  1.00  0.00    -0.354 N 
ATOM     50  N   UNL A   1      41.431  30.264  33.962  1.00  0.00    -0.248 NA
ATOM     51  C   UNL A   1      41.830  30.771  36.207  1.00  0.00     0.031 C 
ATOM     52  C   UNL A   1      43.697  27.225  31.650  1.00  0.00     0.029 A 
ATOM     53  C   UNL A   1      43.000  28.158  32.398  1.00  0.00     0.049 A 
ATOM     54  H   UNL A   1      41.301  29.291  31.861  1.00  0.00     0.167 HD
ATOM     55  C   UNL A   1      42.515  29.517  34.413  1.00  0.00     0.074 A 
ATOM     56  C   UNL A   1      42.742  29.902  35.792  1.00  0.00     0.031 C 
ATOM     57  C   UNL A   1      43.244  28.585  33.752  1.00  0.00     0.034 A 
BRANCH  44  58
ATOM     58  C   UNL A   1      41.214  27.372  28.045  1.00  0.00     0.023 A 
ATOM     59  C   UNL A   1      41.769  27.963  26.891  1.00  0.00     0.012 A 
ATOM     60  C   UNL A   1      40.872  26.006  28.027  1.00  0.00     0.148 A 
ATOM     61  C   UNL A   1      41.956  27.213  25.730  1.00  0.00     0.002 A 
ATOM     62  C   UNL A   1      41.096  25.256  26.878  1.00  0.00     0.091 A 
ATOM     63  F   UNL A   1      40.324  25.470  29.127  1.00  0.00    -0.205 F 
ATOM     64  C   UNL A   1      41.629  25.858  25.727  1.00  0.00     0.022 A 
BRANCH  62  65
ATOM     65  S   UNL A   1      40.772  23.491  26.797  1.00  0.00     0.127 S 
ATOM     66  O   UNL A   1      41.303  23.035  28.081  1.00  0.00    -0.237 OA
ATOM     67  O   UNL A   1      39.314  23.447  26.690  1.00  0.00    -0.237 OA
ATOM     68  O   UNL A   1      41.480  23.009  25.619  1.00  0.00    -0.744 OA
ENDBRANCH  62  65
ENDBRANCH  44  58
BRANCH  45  69
ATOM     69  C   UNL A   1      39.692  32.786  36.302  1.00  0.00     0.023 A 
ATOM     70  C   UNL A   1      40.341  34.019  36.507  1.00  0.00     0.012 A 
ATOM     71  C   UNL A   1      38.786  32.318  37.274  1.00  0.00     0.148 A 
ATOM     72  C   UNL A   1      40.110  34.761  37.665  1.00  0.00     0.002 A 
ATOM     73  C   UNL A   1      38.518  33.087  38.399  1.00  0.00     0.091 A 
ATOM     74  F   UNL A   1      38.196  31.131  37.072  1.00  0.00    -0.205 F 
ATOM     75  C   UNL A   1      39.190  34.301  38.606  1.00  0.00     0.022 A 
BRANCH  73  76
ATOM     76  S   UNL A   1      37.255  32.634  39.593  1.00  0.00     0.127 S 
ATOM     77  O   UNL A   1      36.044  32.669  38.776  1.00  0.00    -0.237 OA
ATOM     78  O   UNL A   1      37.685  31.295  39.999  1.00  0.00    -0.237 OA
ATOM     79  O   UNL A   1      37.338  33.634  40.649  1.00  0.00    -0.744 OA
ENDBRANCH  73  76
ENDBRANCH  45  69
BRANCH  57  80
ATOM     80  C   UNL A   1      44.372  27.922  34.499  1.00  0.00     0.023 A 
ATOM     81  C   UNL A   1      45.641  28.534  34.529  1.00  0.00     0.012 A 
ATOM     82  C   UNL A   1      44.157  26.738  35.231  1.00  0.00     0.148 A 
ATOM     83  C   UNL A   1      46.686  27.963  35.255  1.00  0.00     0.002 A 
ATOM     84  C   UNL A   1      45.190  26.200  35.991  1.00  0.00     0.091 A 
ATOM     85  F   UNL A   1      42.948  26.161  35.174  1.00  0.00    -0.205 F 
ATOM     86  C   UNL A   1      46.457  26.805  35.994  1.00  0.00     0.022 A 
BRANCH  84  87
ATOM     87  S   UNL A   1      44.961  24.764  37.046  1.00  0.00     0.127 S 
ATOM     88  O   UNL A   1      46.288  24.620  37.644  1.00  0.00    -0.237 OA
ATOM     89  O   UNL A   1      43.922  25.219  37.971  1.00  0.00    -0.237 OA
ATOM     90  O   UNL A   1      44.551  23.680  36.164  1.00  0.00    -0.744 OA
ENDBRANCH  84  87
ENDBRANCH  57  80
ENDBRANCH  31  32
ENDBRANCH  24  26
ENDBRANCH  23  24
ENDBRANCH  22  23
ENDBRANCH   1  22
TORSDOF 18
ENDMDL
MODEL 3
REMARK VINA RESULT:     -10.9      1.597      7.832
REMARK SMILES CCc1cc(C(=O)N2CCO[C@@H](CC(=O)OCCOC(=O)c3ccc(-c4c5nc(c(-c6cccc(S(=O)(=O)[O-])c6F)c6ccc([nH]6)c(-c6cccc(S(=O)(=O)[O-])c6F)c6nc(c(-c7cccc(S(=O)(=O)[O-])c7F)c7ccc4[nH]7)C=C6)C=C5)cc3)C2)sc1C
REMARK SMILES IDX 17 1 16 2 14 3 15 4 13 5 12 6 8 7 9 8 85 9 10 10 11 11 6 12
REMARK SMILES IDX 7 13 5 14 3 15 4 16 87 17 86 18 88 19 2 20 1 21 18 22 19 23
REMARK SMILES IDX 20 24 21 25 22 26 23 27 84 28 24 29 83 30 25 31 26 32 27 33
REMARK SMILES IDX 77 34 28 35 82 36 76 37 78 38 29 39 81 40 75 41 74 42 30 44
REMARK SMILES IDX 62 45 42 46 61 47 43 48 46 49 60 50 79 51 44 52 45 53 59 55
REMARK SMILES IDX 80 56 47 57 31 58 32 59 40 60 33 61 35 62 41 63 34 64 36 65
REMARK SMILES IDX 37 66 38 67 39 68 63 69 64 70 72 71 65 72 67 73 73 74 66 75
REMARK SMILES IDX 68 76 69 77 70 78 71 79 48 80 49 81 57 82 50 83 52 84 58 85
REMARK SMILES IDX 51 86 53 87 54 88 55 89 56 90
REMARK H PARENT 78 43 46 54
REMARK Flexibility Score: inf
ROOT
ATOM      1  C   UNL A   1      32.741  31.521  27.057  1.00  0.00     0.274 C 
ENDROOT
BRANCH   1   2
ATOM      2  O   UNL A   1      31.695  30.538  26.918  1.00  0.00    -0.462 OA
BRANCH   2   3
ATOM      3  C   UNL A   1      32.063  29.234  26.888  1.00  0.00     0.308 C 
ATOM      4  O   UNL A   1      31.610  28.364  27.618  1.00  0.00    -0.252 OA
BRANCH   3   5
ATOM      5  C   UNL A   1      33.172  28.977  25.894  1.00  0.00     0.156 C 
BRANCH   5   6
ATOM      6  C   UNL A   1      32.702  28.423  24.553  1.00  0.00     0.148 C 
ATOM      7  N   UNL A   1      32.397  26.460  23.123  1.00  0.00    -0.333 N 
ATOM      8  C   UNL A   1      31.012  26.843  22.860  1.00  0.00     0.148 C 
ATOM      9  C   UNL A   1      32.911  26.902  24.415  1.00  0.00     0.152 C 
ATOM     10  C   UNL A   1      30.800  28.338  23.121  1.00  0.00     0.182 C 
ATOM     11  O   UNL A   1      31.284  28.715  24.424  1.00  0.00    -0.374 OA
BRANCH   7  12
ATOM     12  C   UNL A   1      33.172  25.601  22.350  1.00  0.00     0.264 C 
ATOM     13  O   UNL A   1      33.523  25.952  21.220  1.00  0.00    -0.268 OA
BRANCH  12  14
ATOM     14  C   UNL A   1      33.436  24.267  22.880  1.00  0.00     0.093 A 
ATOM     15  C   UNL A   1      34.462  22.411  23.956  1.00  0.00    -0.034 A 
ATOM     16  C   UNL A   1      34.609  23.712  23.343  1.00  0.00     0.029 A 
ATOM     17  C   UNL A   1      33.123  22.040  23.955  1.00  0.00     0.005 A 
ATOM     18  S   UNL A   1      32.135  23.199  23.149  1.00  0.00    -0.135 S 
ATOM     19  C   UNL A   1      32.405  20.874  24.555  1.00  0.00     0.056 C 
BRANCH  15  20
ATOM     20  C   UNL A   1      35.689  21.734  24.521  1.00  0.00     0.033 C 
ATOM     21  C   UNL A   1      37.051  22.327  24.231  1.00  0.00     0.009 C 
ENDBRANCH  15  20
ENDBRANCH  12  14
ENDBRANCH   7  12
ENDBRANCH   5   6
ENDBRANCH   3   5
ENDBRANCH   2   3
ENDBRANCH   1   2
BRANCH   1  22
ATOM     22  C   UNL A   1      32.168  32.931  27.216  1.00  0.00     0.275 C 
BRANCH  22  23
ATOM     23  O   UNL A   1      33.217  33.909  27.335  1.00  0.00    -0.458 OA
BRANCH  23  24
ATOM     24  C   UNL A   1      33.467  34.344  28.590  1.00  0.00     0.338 C 
ATOM     25  O   UNL A   1      32.818  35.147  29.238  1.00  0.00    -0.246 OA
BRANCH  24  26
ATOM     26  C   UNL A   1      34.598  33.587  29.147  1.00  0.00     0.060 A 
ATOM     27  C   UNL A   1      34.337  32.633  30.135  1.00  0.00     0.016 A 
ATOM     28  C   UNL A   1      35.906  33.843  28.730  1.00  0.00     0.016 A 
ATOM     29  C   UNL A   1      35.388  31.926  30.712  1.00  0.00     0.010 A 
ATOM     30  C   UNL A   1      36.958  33.126  29.308  1.00  0.00     0.010 A 
ATOM     31  C   UNL A   1      36.708  32.167  30.304  1.00  0.00    -0.014 A 
BRANCH  31  32
ATOM     32  C   UNL A   1      37.828  31.415  30.917  1.00  0.00     0.031 A 
ATOM     33  C   UNL A   1      38.267  31.722  32.319  1.00  0.00     0.074 A 
ATOM     34  C   UNL A   1      38.474  30.481  30.192  1.00  0.00     0.049 A 
ATOM     35  N   UNL A   1      39.268  31.222  32.996  1.00  0.00    -0.248 NA
ATOM     36  C   UNL A   1      37.481  32.725  33.054  1.00  0.00     0.031 C 
ATOM     37  C   UNL A   1      38.143  30.106  28.816  1.00  0.00     0.029 A 
ATOM     38  N   UNL A   1      39.560  29.701  30.500  1.00  0.00    -0.354 N 
ATOM     39  C   UNL A   1      39.257  31.873  34.224  1.00  0.00     0.074 A 
ATOM     40  C   UNL A   1      38.150  32.806  34.197  1.00  0.00     0.031 C 
ATOM     41  C   UNL A   1      39.024  29.185  28.391  1.00  0.00     0.029 A 
ATOM     42  C   UNL A   1      39.998  28.932  29.449  1.00  0.00     0.049 A 
ATOM     43  H   UNL A   1      39.984  29.693  31.390  1.00  0.00     0.167 HD
ATOM     44  C   UNL A   1      40.087  31.699  35.280  1.00  0.00     0.034 A 
ATOM     45  C   UNL A   1      41.079  28.135  29.338  1.00  0.00     0.034 A 
ATOM     46  C   UNL A   1      41.168  30.750  35.312  1.00  0.00     0.049 A 
ATOM     47  C   UNL A   1      41.991  27.970  30.525  1.00  0.00     0.074 A 
ATOM     48  C   UNL A   1      42.023  30.456  36.360  1.00  0.00     0.029 A 
ATOM     49  N   UNL A   1      41.552  29.951  34.246  1.00  0.00    -0.354 N 
ATOM     50  N   UNL A   1      41.891  28.496  31.721  1.00  0.00    -0.248 NA
ATOM     51  C   UNL A   1      43.150  27.081  30.354  1.00  0.00     0.031 C 
ATOM     52  C   UNL A   1      42.939  29.494  35.919  1.00  0.00     0.029 A 
ATOM     53  C   UNL A   1      42.642  29.174  34.605  1.00  0.00     0.049 A 
ATOM     54  H   UNL A   1      41.114  29.936  33.364  1.00  0.00     0.167 HD
ATOM     55  C   UNL A   1      42.957  27.984  32.453  1.00  0.00     0.074 A 
ATOM     56  C   UNL A   1      43.675  27.086  31.572  1.00  0.00     0.031 C 
ATOM     57  C   UNL A   1      43.319  28.247  33.733  1.00  0.00     0.034 A 
BRANCH  44  58
ATOM     58  C   UNL A   1      39.841  32.533  36.509  1.00  0.00     0.023 A 
ATOM     59  C   UNL A   1      40.571  33.725  36.698  1.00  0.00     0.012 A 
ATOM     60  C   UNL A   1      38.846  32.175  37.440  1.00  0.00     0.148 A 
ATOM     61  C   UNL A   1      40.332  34.534  37.808  1.00  0.00     0.002 A 
ATOM     62  C   UNL A   1      38.589  33.006  38.524  1.00  0.00     0.091 A 
ATOM     63  F   UNL A   1      38.180  31.027  37.254  1.00  0.00    -0.205 F 
ATOM     64  C   UNL A   1      39.335  34.180  38.715  1.00  0.00     0.022 A 
BRANCH  62  65
ATOM     65  S   UNL A   1      37.279  32.673  39.708  1.00  0.00     0.127 S 
ATOM     66  O   UNL A   1      37.395  33.821  40.607  1.00  0.00    -0.237 OA
ATOM     67  O   UNL A   1      36.086  32.680  38.861  1.00  0.00    -0.237 OA
ATOM     68  O   UNL A   1      37.595  31.380  40.300  1.00  0.00    -0.744 OA
ENDBRANCH  62  65
ENDBRANCH  44  58
BRANCH  45  69
ATOM     69  C   UNL A   1      41.338  27.410  28.063  1.00  0.00     0.023 A 
ATOM     70  C   UNL A   1      41.850  28.115  26.957  1.00  0.00     0.012 A 
ATOM     71  C   UNL A   1      41.112  26.024  27.950  1.00  0.00     0.148 A 
ATOM     72  C   UNL A   1      42.111  27.458  25.754  1.00  0.00     0.002 A 
ATOM     73  C   UNL A   1      41.426  25.366  26.767  1.00  0.00     0.091 A 
ATOM     74  F   UNL A   1      40.602  25.376  29.006  1.00  0.00    -0.205 F 
ATOM     75  C   UNL A   1      41.911  26.083  25.663  1.00  0.00     0.022 A 
BRANCH  73  76
ATOM     76  S   UNL A   1      41.321  23.580  26.607  1.00  0.00     0.127 S 
ATOM     77  O   UNL A   1      39.889  23.381  26.399  1.00  0.00    -0.237 OA
ATOM     78  O   UNL A   1      42.156  23.330  25.431  1.00  0.00    -0.237 OA
ATOM     79  O   UNL A   1      41.864  23.043  27.848  1.00  0.00    -0.744 OA
ENDBRANCH  73  76
ENDBRANCH  45  69
BRANCH  57  80
ATOM     80  C   UNL A   1      44.537  27.545  34.273  1.00  0.00     0.023 A 
ATOM     81  C   UNL A   1      45.802  28.152  34.152  1.00  0.00     0.012 A 
ATOM     82  C   UNL A   1      44.419  26.324  34.967  1.00  0.00     0.148 A 
ATOM     83  C   UNL A   1      46.935  27.543  34.689  1.00  0.00     0.002 A 
ATOM     84  C   UNL A   1      45.546  25.745  35.540  1.00  0.00     0.091 A 
ATOM     85  F   UNL A   1      43.209  25.752  35.055  1.00  0.00    -0.205 F 
ATOM     86  C   UNL A   1      46.805  26.348  35.392  1.00  0.00     0.022 A 
BRANCH  84  87
ATOM     87  S   UNL A   1      45.459  24.256  36.541  1.00  0.00     0.127 S 
ATOM     88  O   UNL A   1      44.502  24.648  37.575  1.00  0.00    -0.237 OA
ATOM     89  O   UNL A   1      44.955  23.268  35.587  1.00  0.00    -0.237 OA
ATOM     90  O   UNL A   1      46.816  24.007  37.007  1.00  0.00    -0.744 OA
ENDBRANCH  84  87
ENDBRANCH  57  80
ENDBRANCH  31  32
ENDBRANCH  24  26
ENDBRANCH  23  24
ENDBRANCH  22  23
ENDBRANCH   1  22
TORSDOF 18
ENDMDL
