MODEL 1
REMARK VINA RESULT:     -11.7      0.000      0.000
REMARK SMILES Cc1cccc(C)c1Nc1ccccc1CC(=O)OCCOC(=O)c1ccc(-c2c3nc(c(-c4cccc(S(=O)(=O)[O-])c4F)c4ccc([nH]4)c(-c4cccc(S(=O)(=O)[O-])c4F)c4nc(c(-c5cccc(S(=O)(=O)[O-])c5F)c5ccc2[nH]5)C=C4)C=C3)cc1
REMARK SMILES IDX 20 1 19 2 17 3 18 4 16 5 15 6 10 7 11 8 12 9 14 10 13 11
REMARK SMILES IDX 9 12 8 14 1 15 2 16 3 17 4 18 6 19 5 20 7 21 21 22 22 23
REMARK SMILES IDX 23 24 24 25 25 26 26 27 87 28 27 29 86 30 28 31 29 32 30 33
REMARK SMILES IDX 80 34 31 35 85 36 79 37 81 38 32 39 84 40 78 41 77 42 33 44
REMARK SMILES IDX 65 45 45 46 64 47 46 48 49 49 63 50 82 51 47 52 48 53 62 55
REMARK SMILES IDX 83 56 50 57 34 58 35 59 43 60 36 61 38 62 44 63 37 64 39 65
REMARK SMILES IDX 40 66 41 67 42 68 66 69 67 70 75 71 68 72 70 73 76 74 69 75
REMARK SMILES IDX 71 76 72 77 73 78 74 79 51 80 52 81 60 82 53 83 55 84 61 85
REMARK SMILES IDX 54 86 56 87 57 88 58 89 59 90
REMARK H PARENT 9 13 81 43 49 54
REMARK Flexibility Score: inf
ROOT
ATOM      1  C   UNL A   1      36.711  22.341  23.716  1.00  0.00     0.274 C 
ENDROOT
BRANCH   1   2
ATOM      2  O   UNL A   1      35.346  22.790  23.642  1.00  0.00    -0.462 OA
BRANCH   2   3
ATOM      3  C   UNL A   1      35.074  23.919  24.349  1.00  0.00     0.310 C 
ATOM      4  O   UNL A   1      35.554  24.177  25.449  1.00  0.00    -0.252 OA
BRANCH   3   5
ATOM      5  C   UNL A   1      34.037  24.806  23.714  1.00  0.00     0.160 C 
BRANCH   5   6
ATOM      6  C   UNL A   1      32.983  25.457  24.588  1.00  0.00    -0.013 A 
ATOM      7  C   UNL A   1      31.740  24.827  24.822  1.00  0.00     0.042 A 
ATOM      8  C   UNL A   1      30.771  25.490  25.596  1.00  0.00     0.026 A 
ATOM      9  C   UNL A   1      31.042  26.718  26.199  1.00  0.00     0.002 A 
ATOM     10  C   UNL A   1      33.251  26.676  25.238  1.00  0.00     0.006 A 
ATOM     11  C   UNL A   1      32.292  27.299  26.037  1.00  0.00     0.000 A 
BRANCH   7  12
ATOM     12  N   UNL A   1      31.453  23.506  24.422  1.00  0.00    -0.355 N 
ATOM     13  H   UNL A   1      30.705  23.422  23.788  1.00  0.00     0.167 HD
BRANCH  12  14
ATOM     14  C   UNL A   1      32.063  22.280  24.779  1.00  0.00     0.044 A 
ATOM     15  C   UNL A   1      31.790  21.537  22.354  1.00  0.00     0.046 C 
ATOM     16  C   UNL A   1      32.250  21.302  23.768  1.00  0.00    -0.027 A 
ATOM     17  C   UNL A   1      32.954  20.122  24.055  1.00  0.00     0.005 A 
ATOM     18  C   UNL A   1      33.473  19.896  25.324  1.00  0.00     0.001 A 
ATOM     19  C   UNL A   1      32.560  22.022  26.080  1.00  0.00    -0.027 A 
ATOM     20  C   UNL A   1      33.277  20.839  26.327  1.00  0.00     0.005 A 
ATOM     21  C   UNL A   1      32.374  22.964  27.242  1.00  0.00     0.046 C 
ENDBRANCH  12  14
ENDBRANCH   7  12
ENDBRANCH   5   6
ENDBRANCH   3   5
ENDBRANCH   2   3
ENDBRANCH   1   2
BRANCH   1  22
ATOM     22  C   UNL A   1      36.824  21.055  24.532  1.00  0.00     0.275 C 
BRANCH  22  23
ATOM     23  O   UNL A   1      37.346  21.337  25.841  1.00  0.00    -0.458 OA
BRANCH  23  24
ATOM     24  C   UNL A   1      38.681  21.178  25.989  1.00  0.00     0.338 C 
ATOM     25  O   UNL A   1      39.339  20.183  25.741  1.00  0.00    -0.246 OA
BRANCH  24  26
ATOM     26  C   UNL A   1      39.277  22.416  26.517  1.00  0.00     0.060 A 
ATOM     27  C   UNL A   1      38.803  23.668  26.115  1.00  0.00     0.016 A 
ATOM     28  C   UNL A   1      40.401  22.315  27.337  1.00  0.00     0.016 A 
ATOM     29  C   UNL A   1      39.478  24.827  26.508  1.00  0.00     0.010 A 
ATOM     30  C   UNL A   1      41.042  23.476  27.769  1.00  0.00     0.010 A 
ATOM     31  C   UNL A   1      40.604  24.741  27.339  1.00  0.00    -0.014 A 
BRANCH  31  32
ATOM     32  C   UNL A   1      41.357  25.953  27.756  1.00  0.00     0.031 A 
ATOM     33  C   UNL A   1      40.659  27.035  28.535  1.00  0.00     0.074 A 
ATOM     34  C   UNL A   1      42.638  26.117  27.377  1.00  0.00     0.049 A 
ATOM     35  N   UNL A   1      41.069  28.244  28.823  1.00  0.00    -0.248 NA
ATOM     36  C   UNL A   1      39.315  26.720  29.049  1.00  0.00     0.031 C 
ATOM     37  C   UNL A   1      43.431  25.143  26.626  1.00  0.00     0.029 A 
ATOM     38  N   UNL A   1      43.489  27.182  27.542  1.00  0.00    -0.354 N 
ATOM     39  C   UNL A   1      40.020  28.849  29.505  1.00  0.00     0.074 A 
ATOM     40  C   UNL A   1      38.954  27.875  29.591  1.00  0.00     0.031 C 
ATOM     41  C   UNL A   1      44.646  25.659  26.382  1.00  0.00     0.029 A 
ATOM     42  C   UNL A   1      44.701  27.018  26.913  1.00  0.00     0.049 A 
ATOM     43  H   UNL A   1      43.254  27.985  28.060  1.00  0.00     0.167 HD
ATOM     44  C   UNL A   1      39.958  30.097  30.028  1.00  0.00     0.034 A 
ATOM     45  C   UNL A   1      45.727  27.876  26.751  1.00  0.00     0.034 A 
ATOM     46  C   UNL A   1      41.037  31.049  29.985  1.00  0.00     0.049 A 
ATOM     47  C   UNL A   1      45.626  29.262  27.331  1.00  0.00     0.074 A 
ATOM     48  C   UNL A   1      41.076  32.331  30.506  1.00  0.00     0.029 A 
ATOM     49  N   UNL A   1      42.270  30.819  29.395  1.00  0.00    -0.354 N 
ATOM     50  N   UNL A   1      44.654  29.794  28.031  1.00  0.00    -0.248 NA
ATOM     51  C   UNL A   1      46.771  30.158  27.113  1.00  0.00     0.031 C 
ATOM     52  C   UNL A   1      42.335  32.876  30.233  1.00  0.00     0.029 A 
ATOM     53  C   UNL A   1      43.081  31.932  29.546  1.00  0.00     0.049 A 
ATOM     54  H   UNL A   1      42.530  29.988  28.938  1.00  0.00     0.167 HD
ATOM     55  C   UNL A   1      45.081  31.075  28.363  1.00  0.00     0.074 A 
ATOM     56  C   UNL A   1      46.410  31.229  27.806  1.00  0.00     0.031 C 
ATOM     57  C   UNL A   1      44.426  32.044  29.046  1.00  0.00     0.034 A 
BRANCH  44  58
ATOM     58  C   UNL A   1      38.692  30.497  30.741  1.00  0.00     0.023 A 
ATOM     59  C   UNL A   1      38.561  30.220  32.116  1.00  0.00     0.012 A 
ATOM     60  C   UNL A   1      37.671  31.203  30.075  1.00  0.00     0.148 A 
ATOM     61  C   UNL A   1      37.424  30.621  32.815  1.00  0.00     0.002 A 
ATOM     62  C   UNL A   1      36.555  31.630  30.787  1.00  0.00     0.091 A 
ATOM     63  F   UNL A   1      37.804  31.436  28.762  1.00  0.00    -0.205 F 
ATOM     64  C   UNL A   1      36.427  31.333  32.153  1.00  0.00     0.022 A 
BRANCH  62  65
ATOM     65  S   UNL A   1      35.250  32.613  30.040  1.00  0.00     0.127 S 
ATOM     66  O   UNL A   1      34.753  31.708  29.005  1.00  0.00    -0.237 OA
ATOM     67  O   UNL A   1      34.334  32.817  31.163  1.00  0.00    -0.237 OA
ATOM     68  O   UNL A   1      35.892  33.828  29.555  1.00  0.00    -0.744 OA
ENDBRANCH  62  65
ENDBRANCH  44  58
BRANCH  45  69
ATOM     69  C   UNL A   1      46.961  27.438  26.039  1.00  0.00     0.023 A 
ATOM     70  C   UNL A   1      47.923  26.684  26.737  1.00  0.00     0.012 A 
ATOM     71  C   UNL A   1      47.179  27.741  24.681  1.00  0.00     0.148 A 
ATOM     72  C   UNL A   1      49.093  26.261  26.103  1.00  0.00     0.002 A 
ATOM     73  C   UNL A   1      48.320  27.269  24.041  1.00  0.00     0.091 A 
ATOM     74  F   UNL A   1      46.268  28.483  24.037  1.00  0.00    -0.205 F 
ATOM     75  C   UNL A   1      49.285  26.542  24.754  1.00  0.00     0.022 A 
BRANCH  73  76
ATOM     76  S   UNL A   1      48.570  27.481  22.274  1.00  0.00     0.127 S 
ATOM     77  O   UNL A   1      49.831  28.217  22.234  1.00  0.00    -0.237 OA
ATOM     78  O   UNL A   1      48.650  26.098  21.803  1.00  0.00    -0.237 OA
ATOM     79  O   UNL A   1      47.392  28.199  21.808  1.00  0.00    -0.744 OA
ENDBRANCH  73  76
ENDBRANCH  45  69
BRANCH  57  80
ATOM     80  C   UNL A   1      45.143  33.349  29.264  1.00  0.00     0.023 A 
ATOM     81  C   UNL A   1      45.956  33.512  30.402  1.00  0.00     0.012 A 
ATOM     82  C   UNL A   1      45.069  34.384  28.311  1.00  0.00     0.148 A 
ATOM     83  C   UNL A   1      46.664  34.697  30.603  1.00  0.00     0.002 A 
ATOM     84  C   UNL A   1      45.809  35.545  28.498  1.00  0.00     0.091 A 
ATOM     85  F   UNL A   1      44.272  34.217  27.245  1.00  0.00    -0.205 F 
ATOM     86  C   UNL A   1      46.599  35.707  29.646  1.00  0.00     0.022 A 
BRANCH  84  87
ATOM     87  S   UNL A   1      45.848  36.861  27.273  1.00  0.00     0.127 S 
ATOM     88  O   UNL A   1      44.442  37.256  27.214  1.00  0.00    -0.237 OA
ATOM     89  O   UNL A   1      46.732  37.846  27.897  1.00  0.00    -0.237 OA
ATOM     90  O   UNL A   1      46.385  36.256  26.061  1.00  0.00    -0.744 OA
ENDBRANCH  84  87
ENDBRANCH  57  80
ENDBRANCH  31  32
ENDBRANCH  24  26
ENDBRANCH  23  24
ENDBRANCH  22  23
ENDBRANCH   1  22
TORSDOF 17
ENDMDL
MODEL 2
REMARK VINA RESULT:     -11.7      1.410      1.797
REMARK SMILES Cc1cccc(C)c1Nc1ccccc1CC(=O)OCCOC(=O)c1ccc(-c2c3nc(c(-c4cccc(S(=O)(=O)[O-])c4F)c4ccc([nH]4)c(-c4cccc(S(=O)(=O)[O-])c4F)c4nc(c(-c5cccc(S(=O)(=O)[O-])c5F)c5ccc2[nH]5)C=C4)C=C3)cc1
REMARK SMILES IDX 20 1 19 2 17 3 18 4 16 5 15 6 10 7 11 8 12 9 14 10 13 11
REMARK SMILES IDX 9 12 8 14 1 15 2 16 3 17 4 18 6 19 5 20 7 21 21 22 22 23
REMARK SMILES IDX 23 24 24 25 25 26 26 27 87 28 27 29 86 30 28 31 29 32 30 33
REMARK SMILES IDX 80 34 31 35 85 36 79 37 81 38 32 39 84 40 78 41 77 42 33 44
REMARK SMILES IDX 65 45 45 46 64 47 46 48 49 49 63 50 82 51 47 52 48 53 62 55
REMARK SMILES IDX 83 56 50 57 34 58 35 59 43 60 36 61 38 62 44 63 37 64 39 65
REMARK SMILES IDX 40 66 41 67 42 68 66 69 67 70 75 71 68 72 70 73 76 74 69 75
REMARK SMILES IDX 71 76 72 77 73 78 74 79 51 80 52 81 60 82 53 83 55 84 61 85
REMARK SMILES IDX 54 86 56 87 57 88 58 89 59 90
REMARK H PARENT 9 13 81 43 49 54
REMARK Flexibility Score: inf
ROOT
ATOM      1  C   UNL A   1      36.092  22.205  23.563  1.00  0.00     0.274 C 
ENDROOT
BRANCH   1   2
ATOM      2  O   UNL A   1      36.236  23.476  24.223  1.00  0.00    -0.462 OA
BRANCH   2   3
ATOM      3  C   UNL A   1      35.110  24.237  24.255  1.00  0.00     0.310 C 
ATOM      4  O   UNL A   1      34.456  24.544  23.262  1.00  0.00    -0.252 OA
BRANCH   3   5
ATOM      5  C   UNL A   1      34.770  24.773  25.620  1.00  0.00     0.160 C 
BRANCH   5   6
ATOM      6  C   UNL A   1      33.561  25.674  25.782  1.00  0.00    -0.013 A 
ATOM      7  C   UNL A   1      32.279  25.136  26.034  1.00  0.00     0.042 A 
ATOM      8  C   UNL A   1      31.177  26.006  26.125  1.00  0.00     0.026 A 
ATOM      9  C   UNL A   1      31.339  27.388  26.051  1.00  0.00     0.002 A 
ATOM     10  C   UNL A   1      33.708  27.074  25.751  1.00  0.00     0.006 A 
ATOM     11  C   UNL A   1      32.609  27.922  25.886  1.00  0.00     0.000 A 
BRANCH   7  12
ATOM     12  N   UNL A   1      32.053  23.775  26.321  1.00  0.00    -0.355 N 
ATOM     13  H   UNL A   1      31.583  23.607  27.170  1.00  0.00     0.167 HD
BRANCH  12  14
ATOM     14  C   UNL A   1      32.389  22.609  25.593  1.00  0.00     0.044 A 
ATOM     15  C   UNL A   1      33.715  21.825  27.626  1.00  0.00     0.046 C 
ATOM     16  C   UNL A   1      33.197  21.629  26.226  1.00  0.00    -0.027 A 
ATOM     17  C   UNL A   1      33.455  20.409  25.582  1.00  0.00     0.005 A 
ATOM     18  C   UNL A   1      32.928  20.147  24.322  1.00  0.00     0.001 A 
ATOM     19  C   UNL A   1      31.890  22.349  24.293  1.00  0.00    -0.027 A 
ATOM     20  C   UNL A   1      32.153  21.108  23.685  1.00  0.00     0.005 A 
ATOM     21  C   UNL A   1      31.068  23.335  23.505  1.00  0.00     0.046 C 
ENDBRANCH  12  14
ENDBRANCH   7  12
ENDBRANCH   5   6
ENDBRANCH   3   5
ENDBRANCH   2   3
ENDBRANCH   1   2
BRANCH   1  22
ATOM     22  C   UNL A   1      36.800  21.098  24.340  1.00  0.00     0.275 C 
BRANCH  22  23
ATOM     23  O   UNL A   1      37.241  21.587  25.619  1.00  0.00    -0.458 OA
BRANCH  23  24
ATOM     24  C   UNL A   1      38.533  21.341  25.930  1.00  0.00     0.338 C 
ATOM     25  O   UNL A   1      39.138  20.290  25.801  1.00  0.00    -0.246 OA
BRANCH  24  26
ATOM     26  C   UNL A   1      39.158  22.557  26.475  1.00  0.00     0.060 A 
ATOM     27  C   UNL A   1      38.672  23.824  26.140  1.00  0.00     0.016 A 
ATOM     28  C   UNL A   1      40.316  22.422  27.240  1.00  0.00     0.016 A 
ATOM     29  C   UNL A   1      39.369  24.966  26.544  1.00  0.00     0.010 A 
ATOM     30  C   UNL A   1      40.981  23.566  27.686  1.00  0.00     0.010 A 
ATOM     31  C   UNL A   1      40.530  24.847  27.321  1.00  0.00    -0.014 A 
BRANCH  31  32
ATOM     32  C   UNL A   1      41.306  26.040  27.748  1.00  0.00     0.031 A 
ATOM     33  C   UNL A   1      40.629  27.131  28.534  1.00  0.00     0.074 A 
ATOM     34  C   UNL A   1      42.591  26.181  27.372  1.00  0.00     0.049 A 
ATOM     35  N   UNL A   1      41.062  28.329  28.831  1.00  0.00    -0.248 NA
ATOM     36  C   UNL A   1      39.278  26.838  29.044  1.00  0.00     0.031 C 
ATOM     37  C   UNL A   1      43.366  25.197  26.616  1.00  0.00     0.029 A 
ATOM     38  N   UNL A   1      43.463  27.228  27.547  1.00  0.00    -0.354 N 
ATOM     39  C   UNL A   1      40.024  28.950  29.516  1.00  0.00     0.074 A 
ATOM     40  C   UNL A   1      38.938  27.996  29.593  1.00  0.00     0.031 C 
ATOM     41  C   UNL A   1      44.591  25.691  26.378  1.00  0.00     0.029 A 
ATOM     42  C   UNL A   1      44.673  27.044  26.919  1.00  0.00     0.049 A 
ATOM     43  H   UNL A   1      43.243  28.032  28.071  1.00  0.00     0.167 HD
ATOM     44  C   UNL A   1      39.985  30.195  30.048  1.00  0.00     0.034 A 
ATOM     45  C   UNL A   1      45.716  27.884  26.765  1.00  0.00     0.034 A 
ATOM     46  C   UNL A   1      41.083  31.125  30.013  1.00  0.00     0.049 A 
ATOM     47  C   UNL A   1      45.641  29.267  27.354  1.00  0.00     0.074 A 
ATOM     48  C   UNL A   1      41.146  32.402  30.543  1.00  0.00     0.029 A 
ATOM     49  N   UNL A   1      42.312  30.875  29.424  1.00  0.00    -0.354 N 
ATOM     50  N   UNL A   1      44.678  29.813  28.057  1.00  0.00    -0.248 NA
ATOM     51  C   UNL A   1      46.804  30.141  27.145  1.00  0.00     0.031 C 
ATOM     52  C   UNL A   1      42.417  32.924  30.277  1.00  0.00     0.029 A 
ATOM     53  C   UNL A   1      43.145  31.971  29.584  1.00  0.00     0.049 A 
ATOM     54  H   UNL A   1      42.557  30.042  28.961  1.00  0.00     0.167 HD
ATOM     55  C   UNL A   1      45.131  31.083  28.398  1.00  0.00     0.074 A 
ATOM     56  C   UNL A   1      46.463  31.215  27.845  1.00  0.00     0.031 C 
ATOM     57  C   UNL A   1      44.493  32.060  29.087  1.00  0.00     0.034 A 
BRANCH  44  58
ATOM     58  C   UNL A   1      38.727  30.615  30.761  1.00  0.00     0.023 A 
ATOM     59  C   UNL A   1      38.623  30.407  32.151  1.00  0.00     0.012 A 
ATOM     60  C   UNL A   1      37.685  31.273  30.078  1.00  0.00     0.148 A 
ATOM     61  C   UNL A   1      37.492  30.828  32.848  1.00  0.00     0.002 A 
ATOM     62  C   UNL A   1      36.576  31.722  30.787  1.00  0.00     0.091 A 
ATOM     63  F   UNL A   1      37.793  31.441  28.753  1.00  0.00    -0.205 F 
ATOM     64  C   UNL A   1      36.474  31.494  32.169  1.00  0.00     0.022 A 
BRANCH  62  65
ATOM     65  S   UNL A   1      35.245  32.649  30.013  1.00  0.00     0.127 S 
ATOM     66  O   UNL A   1      34.775  31.704  29.001  1.00  0.00    -0.237 OA
ATOM     67  O   UNL A   1      34.321  32.856  31.130  1.00  0.00    -0.237 OA
ATOM     68  O   UNL A   1      35.854  33.868  29.500  1.00  0.00    -0.744 OA
ENDBRANCH  62  65
ENDBRANCH  44  58
BRANCH  45  69
ATOM     69  C   UNL A   1      46.942  27.426  26.051  1.00  0.00     0.023 A 
ATOM     70  C   UNL A   1      47.080  27.705  24.678  1.00  0.00     0.012 A 
ATOM     71  C   UNL A   1      47.976  26.742  26.720  1.00  0.00     0.148 A 
ATOM     72  C   UNL A   1      48.212  27.288  23.977  1.00  0.00     0.002 A 
ATOM     73  C   UNL A   1      49.125  26.378  26.027  1.00  0.00     0.091 A 
ATOM     74  F   UNL A   1      47.818  26.459  28.020  1.00  0.00    -0.205 F 
ATOM     75  C   UNL A   1      49.239  26.637  24.653  1.00  0.00     0.022 A 
BRANCH  73  76
ATOM     76  S   UNL A   1      50.542  25.653  26.861  1.00  0.00     0.127 S 
ATOM     77  O   UNL A   1      50.906  26.705  27.807  1.00  0.00    -0.237 OA
ATOM     78  O   UNL A   1      49.966  24.453  27.468  1.00  0.00    -0.237 OA
ATOM     79  O   UNL A   1      51.506  25.379  25.804  1.00  0.00    -0.744 OA
ENDBRANCH  73  76
ENDBRANCH  45  69
BRANCH  57  80
ATOM     80  C   UNL A   1      45.236  33.349  29.316  1.00  0.00     0.023 A 
ATOM     81  C   UNL A   1      46.053  33.486  30.454  1.00  0.00     0.012 A 
ATOM     82  C   UNL A   1      45.180  34.393  28.372  1.00  0.00     0.148 A 
ATOM     83  C   UNL A   1      46.785  34.655  30.664  1.00  0.00     0.002 A 
ATOM     84  C   UNL A   1      45.943  35.539  28.568  1.00  0.00     0.091 A 
ATOM     85  F   UNL A   1      44.379  34.252  27.306  1.00  0.00    -0.205 F 
ATOM     86  C   UNL A   1      46.738  35.675  29.717  1.00  0.00     0.022 A 
BRANCH  84  87
ATOM     87  S   UNL A   1      46.005  36.864  27.356  1.00  0.00     0.127 S 
ATOM     88  O   UNL A   1      44.618  37.326  27.346  1.00  0.00    -0.237 OA
ATOM     89  O   UNL A   1      46.954  37.799  27.960  1.00  0.00    -0.237 OA
ATOM     90  O   UNL A   1      46.474  36.248  26.121  1.00  0.00    -0.744 OA
ENDBRANCH  84  87
ENDBRANCH  57  80
ENDBRANCH  31  32
ENDBRANCH  24  26
ENDBRANCH  23  24
ENDBRANCH  22  23
ENDBRANCH   1  22
TORSDOF 17
ENDMDL
MODEL 3
REMARK VINA RESULT:     -11.7      5.266     10.119
REMARK SMILES Cc1cccc(C)c1Nc1ccccc1CC(=O)OCCOC(=O)c1ccc(-c2c3nc(c(-c4cccc(S(=O)(=O)[O-])c4F)c4ccc([nH]4)c(-c4cccc(S(=O)(=O)[O-])c4F)c4nc(c(-c5cccc(S(=O)(=O)[O-])c5F)c5ccc2[nH]5)C=C4)C=C3)cc1
REMARK SMILES IDX 20 1 19 2 17 3 18 4 16 5 15 6 10 7 11 8 12 9 14 10 13 11
REMARK SMILES IDX 9 12 8 14 1 15 2 16 3 17 4 18 6 19 5 20 7 21 21 22 22 23
REMARK SMILES IDX 23 24 24 25 25 26 26 27 87 28 27 29 86 30 28 31 29 32 30 33
REMARK SMILES IDX 80 34 31 35 85 36 79 37 81 38 32 39 84 40 78 41 77 42 33 44
REMARK SMILES IDX 65 45 45 46 64 47 46 48 49 49 63 50 82 51 47 52 48 53 62 55
REMARK SMILES IDX 83 56 50 57 34 58 35 59 43 60 36 61 38 62 44 63 37 64 39 65
REMARK SMILES IDX 40 66 41 67 42 68 66 69 67 70 75 71 68 72 70 73 76 74 69 75
REMARK SMILES IDX 71 76 72 77 73 78 74 79 51 80 52 81 60 82 53 83 55 84 61 85
REMARK SMILES IDX 54 86 56 87 57 88 58 89 59 90
REMARK H PARENT 9 13 81 43 49 54
REMARK Flexibility Score: inf
ROOT
ATOM      1  C   UNL A   1      31.668  28.256  26.208  1.00  0.00     0.274 C 
ENDROOT
BRANCH   1   2
ATOM      2  O   UNL A   1      31.525  27.136  27.101  1.00  0.00    -0.462 OA
BRANCH   2   3
ATOM      3  C   UNL A   1      31.974  25.950  26.610  1.00  0.00     0.310 C 
ATOM      4  O   UNL A   1      31.418  24.871  26.795  1.00  0.00    -0.252 OA
BRANCH   3   5
ATOM      5  C   UNL A   1      33.291  26.044  25.886  1.00  0.00     0.160 C 
BRANCH   5   6
ATOM      6  C   UNL A   1      33.844  24.815  25.190  1.00  0.00    -0.013 A 
ATOM      7  C   UNL A   1      33.831  24.707  23.781  1.00  0.00     0.042 A 
ATOM      8  C   UNL A   1      34.306  23.528  23.180  1.00  0.00     0.026 A 
ATOM      9  C   UNL A   1      34.859  22.500  23.943  1.00  0.00     0.002 A 
ATOM     10  C   UNL A   1      34.444  23.785  25.938  1.00  0.00     0.006 A 
ATOM     11  C   UNL A   1      34.948  22.640  25.321  1.00  0.00     0.000 A 
BRANCH   7  12
ATOM     12  N   UNL A   1      33.477  25.771  22.926  1.00  0.00    -0.355 N 
ATOM     13  H   UNL A   1      34.099  25.921  22.179  1.00  0.00     0.167 HD
BRANCH  12  14
ATOM     14  C   UNL A   1      32.375  26.658  22.963  1.00  0.00     0.044 A 
ATOM     15  C   UNL A   1      34.025  28.581  22.663  1.00  0.00     0.046 C 
ATOM     16  C   UNL A   1      32.625  28.048  22.821  1.00  0.00    -0.027 A 
ATOM     17  C   UNL A   1      31.553  28.949  22.735  1.00  0.00     0.005 A 
ATOM     18  C   UNL A   1      30.240  28.496  22.790  1.00  0.00     0.001 A 
ATOM     19  C   UNL A   1      31.035  26.211  23.059  1.00  0.00    -0.027 A 
ATOM     20  C   UNL A   1      29.984  27.139  22.950  1.00  0.00     0.005 A 
ATOM     21  C   UNL A   1      30.653  24.768  23.264  1.00  0.00     0.046 C 
ENDBRANCH  12  14
ENDBRANCH   7  12
ENDBRANCH   5   6
ENDBRANCH   3   5
ENDBRANCH   2   3
ENDBRANCH   1   2
BRANCH   1  22
ATOM     22  C   UNL A   1      31.775  29.567  26.982  1.00  0.00     0.275 C 
BRANCH  22  23
ATOM     23  O   UNL A   1      32.659  30.477  26.306  1.00  0.00    -0.458 OA
BRANCH  23  24
ATOM     24  C   UNL A   1      33.128  31.504  27.050  1.00  0.00     0.338 C 
ATOM     25  O   UNL A   1      32.594  32.583  27.243  1.00  0.00    -0.246 OA
BRANCH  24  26
ATOM     26  C   UNL A   1      34.433  31.147  27.630  1.00  0.00     0.060 A 
ATOM     27  C   UNL A   1      34.745  29.818  27.929  1.00  0.00     0.016 A 
ATOM     28  C   UNL A   1      35.307  32.175  27.982  1.00  0.00     0.016 A 
ATOM     29  C   UNL A   1      35.924  29.517  28.617  1.00  0.00     0.010 A 
ATOM     30  C   UNL A   1      36.508  31.866  28.623  1.00  0.00     0.010 A 
ATOM     31  C   UNL A   1      36.816  30.539  28.970  1.00  0.00    -0.014 A 
BRANCH  31  32
ATOM     32  C   UNL A   1      38.067  30.255  29.720  1.00  0.00     0.031 A 
ATOM     33  C   UNL A   1      39.089  29.314  29.141  1.00  0.00     0.074 A 
ATOM     34  C   UNL A   1      38.253  30.778  30.947  1.00  0.00     0.049 A 
ATOM     35  N   UNL A   1      40.141  28.782  29.709  1.00  0.00    -0.248 NA
ATOM     36  C   UNL A   1      38.896  28.908  27.738  1.00  0.00     0.031 C 
ATOM     37  C   UNL A   1      37.345  31.707  31.619  1.00  0.00     0.029 A 
ATOM     38  N   UNL A   1      39.257  30.574  31.862  1.00  0.00    -0.354 N 
ATOM     39  C   UNL A   1      40.705  27.944  28.755  1.00  0.00     0.074 A 
ATOM     40  C   UNL A   1      39.881  28.037  27.569  1.00  0.00     0.031 C 
ATOM     41  C   UNL A   1      37.822  31.981  32.843  1.00  0.00     0.029 A 
ATOM     42  C   UNL A   1      39.042  31.209  33.062  1.00  0.00     0.049 A 
ATOM     43  H   UNL A   1      40.053  30.026  31.676  1.00  0.00     0.167 HD
ATOM     44  C   UNL A   1      41.819  27.178  28.852  1.00  0.00     0.034 A 
ATOM     45  C   UNL A   1      39.728  31.150  34.220  1.00  0.00     0.034 A 
ATOM     46  C   UNL A   1      42.665  27.123  30.015  1.00  0.00     0.049 A 
ATOM     47  C   UNL A   1      40.954  30.281  34.304  1.00  0.00     0.074 A 
ATOM     48  C   UNL A   1      43.827  26.394  30.200  1.00  0.00     0.029 A 
ATOM     49  N   UNL A   1      42.446  27.832  31.185  1.00  0.00    -0.354 N 
ATOM     50  N   UNL A   1      41.512  29.547  33.372  1.00  0.00    -0.248 NA
ATOM     51  C   UNL A   1      41.656  30.246  35.596  1.00  0.00     0.031 C 
ATOM     52  C   UNL A   1      44.313  26.664  31.484  1.00  0.00     0.029 A 
ATOM     53  C   UNL A   1      43.456  27.564  32.096  1.00  0.00     0.049 A 
ATOM     54  H   UNL A   1      41.687  28.437  31.346  1.00  0.00     0.167 HD
ATOM     55  C   UNL A   1      42.644  28.988  33.953  1.00  0.00     0.074 A 
ATOM     56  C   UNL A   1      42.706  29.488  35.312  1.00  0.00     0.031 C 
ATOM     57  C   UNL A   1      43.540  28.123  33.420  1.00  0.00     0.034 A 
BRANCH  44  58
ATOM     58  C   UNL A   1      42.221  26.369  27.647  1.00  0.00     0.023 A 
ATOM     59  C   UNL A   1      43.030  26.963  26.659  1.00  0.00     0.012 A 
ATOM     60  C   UNL A   1      41.863  25.011  27.527  1.00  0.00     0.148 A 
ATOM     61  C   UNL A   1      43.459  26.226  25.556  1.00  0.00     0.002 A 
ATOM     62  C   UNL A   1      42.325  24.273  26.442  1.00  0.00     0.091 A 
ATOM     63  F   UNL A   1      41.075  24.471  28.466  1.00  0.00    -0.205 F 
ATOM     64  C   UNL A   1      43.116  24.880  25.454  1.00  0.00     0.022 A 
BRANCH  62  65
ATOM     65  S   UNL A   1      41.993  22.517  26.257  1.00  0.00     0.127 S 
ATOM     66  O   UNL A   1      40.533  22.498  26.175  1.00  0.00    -0.237 OA
ATOM     67  O   UNL A   1      42.678  22.203  25.002  1.00  0.00    -0.237 OA
ATOM     68  O   UNL A   1      42.564  21.876  27.433  1.00  0.00    -0.744 OA
ENDBRANCH  62  65
ENDBRANCH  44  58
BRANCH  45  69
ATOM     69  C   UNL A   1      39.295  31.968  35.388  1.00  0.00     0.023 A 
ATOM     70  C   UNL A   1      38.451  31.389  36.355  1.00  0.00     0.012 A 
ATOM     71  C   UNL A   1      39.724  33.298  35.560  1.00  0.00     0.148 A 
ATOM     72  C   UNL A   1      38.021  32.127  37.458  1.00  0.00     0.002 A 
ATOM     73  C   UNL A   1      39.337  34.010  36.690  1.00  0.00     0.091 A 
ATOM     74  F   UNL A   1      40.505  33.845  34.618  1.00  0.00    -0.205 F 
ATOM     75  C   UNL A   1      38.473  33.432  37.633  1.00  0.00     0.022 A 
BRANCH  73  76
ATOM     76  S   UNL A   1      39.986  35.647  37.046  1.00  0.00     0.127 S 
ATOM     77  O   UNL A   1      39.285  35.988  38.281  1.00  0.00    -0.237 OA
ATOM     78  O   UNL A   1      41.417  35.388  37.203  1.00  0.00    -0.237 OA
ATOM     79  O   UNL A   1      39.654  36.449  35.876  1.00  0.00    -0.744 OA
ENDBRANCH  73  76
ENDBRANCH  45  69
BRANCH  57  80
ATOM     80  C   UNL A   1      44.686  27.682  34.290  1.00  0.00     0.023 A 
ATOM     81  C   UNL A   1      45.849  28.473  34.358  1.00  0.00     0.012 A 
ATOM     82  C   UNL A   1      44.585  26.528  35.091  1.00  0.00     0.148 A 
ATOM     83  C   UNL A   1      46.907  28.107  35.190  1.00  0.00     0.002 A 
ATOM     84  C   UNL A   1      45.626  26.192  35.948  1.00  0.00     0.091 A 
ATOM     85  F   UNL A   1      43.478  25.777  34.995  1.00  0.00    -0.205 F 
ATOM     86  C   UNL A   1      46.790  26.975  35.993  1.00  0.00     0.022 A 
BRANCH  84  87
ATOM     87  S   UNL A   1      45.522  24.797  37.077  1.00  0.00     0.127 S 
ATOM     88  O   UNL A   1      45.356  23.676  36.152  1.00  0.00    -0.237 OA
ATOM     89  O   UNL A   1      46.819  24.841  37.753  1.00  0.00    -0.237 OA
ATOM     90  O   UNL A   1      44.384  25.073  37.943  1.00  0.00    -0.744 OA
ENDBRANCH  84  87
ENDBRANCH  57  80
ENDBRANCH  31  32
ENDBRANCH  24  26
ENDBRANCH  23  24
ENDBRANCH  22  23
ENDBRANCH   1  22
TORSDOF 17
ENDMDL
