MODEL 1
REMARK VINA RESULT:     -11.7      0.000      0.000
REMARK SMILES O=C(COc1cccc(NC(=O)c2ccc3c(c2)C(=O)N(c2ccccc2-c2ccccc2)C3=O)c1)OCCOC(=O)c1ccc(-c2c3nc(c(-c4cccc(S(=O)(=O)[O-])c4F)c4ccc([nH]4)c(-c4cccc(S(=O)(=O)[O-])c4F)c4nc(c(-c5cccc(S(=O)(=O)[O-])c5F)c5ccc2[nH]5)C=C4)C=C3)cc1
REMARK SMILES IDX 37 1 2 2 1 3 3 4 4 5 5 6 6 7 36 8 7 9 9 10 8 11 10 12 11 13
REMARK SMILES IDX 12 15 13 16 14 17 18 18 15 19 17 20 16 21 19 22 34 23 20 24
REMARK SMILES IDX 21 25 35 26 22 27 23 28 27 29 24 30 26 31 25 32 28 33 29 34
REMARK SMILES IDX 33 35 30 36 32 37 31 38 38 39 39 40 40 41 41 42 42 43 43 44
REMARK SMILES IDX 44 45 105 46 45 47 104 48 46 49 47 50 48 51 98 52 49 53
REMARK SMILES IDX 103 54 97 55 99 56 50 57 102 58 96 59 95 60 51 62 83 63
REMARK SMILES IDX 63 64 82 65 64 66 67 67 81 68 100 69 65 70 66 71 80 73
REMARK SMILES IDX 101 74 68 75 52 76 53 77 61 78 54 79 56 80 62 81 55 82 57 83
REMARK SMILES IDX 58 84 59 85 60 86 84 87 85 88 93 89 86 90 88 91 94 92 87 93
REMARK SMILES IDX 89 94 90 95 91 96 92 97 69 98 70 99 78 100 71 101 73 102
REMARK SMILES IDX 79 103 72 104 74 105 75 106 76 107 77 108
REMARK H PARENT 10 14 99 61 67 72
REMARK Flexibility Score: inf
ROOT
ATOM      1  O   UNL A   1      35.001  23.307  26.125  1.00  0.00    -0.460 OA
ENDROOT
BRANCH   1   2
ATOM      2  C   UNL A   1      34.033  22.609  26.767  1.00  0.00     0.344 C 
ATOM      3  O   UNL A   1      33.001  23.174  27.129  1.00  0.00    -0.248 OA
BRANCH   2   4
ATOM      4  C   UNL A   1      34.216  21.110  26.959  1.00  0.00     0.351 C 
BRANCH   4   5
ATOM      5  O   UNL A   1      33.015  20.356  26.995  1.00  0.00    -0.482 OA
BRANCH   5   6
ATOM      6  C   UNL A   1      32.819  19.579  25.891  1.00  0.00     0.122 A 
ATOM      7  C   UNL A   1      33.070  18.225  26.063  1.00  0.00     0.046 A 
ATOM      8  C   UNL A   1      32.498  20.095  24.628  1.00  0.00     0.072 A 
ATOM      9  C   UNL A   1      33.006  17.387  24.965  1.00  0.00     0.006 A 
ATOM     10  C   UNL A   1      32.403  19.257  23.513  1.00  0.00     0.045 A 
ATOM     11  C   UNL A   1      32.690  17.907  23.706  1.00  0.00     0.026 A 
BRANCH  10  12
ATOM     12  N   UNL A   1      32.103  19.866  22.268  1.00  0.00    -0.322 N 
ATOM     13  C   UNL A   1      31.977  21.186  21.868  1.00  0.00     0.255 C 
ATOM     14  H   UNL A   1      31.954  19.220  21.540  1.00  0.00     0.170 HD
ATOM     15  O   UNL A   1      31.513  21.488  20.773  1.00  0.00    -0.269 OA
BRANCH  13  16
ATOM     16  C   UNL A   1      32.525  22.251  22.720  1.00  0.00     0.041 A 
ATOM     17  C   UNL A   1      33.838  22.728  22.495  1.00  0.00     0.015 A 
ATOM     18  C   UNL A   1      31.613  22.939  23.516  1.00  0.00     0.028 A 
ATOM     19  C   UNL A   1      34.173  24.035  22.887  1.00  0.00     0.015 A 
ATOM     20  C   UNL A   1      31.982  24.215  23.873  1.00  0.00     0.054 A 
ATOM     21  C   UNL A   1      33.179  24.780  23.506  1.00  0.00     0.053 A 
ATOM     22  C   UNL A   1      31.114  25.274  24.327  1.00  0.00     0.266 C 
ATOM     23  C   UNL A   1      33.010  26.234  23.628  1.00  0.00     0.266 C 
ATOM     24  O   UNL A   1      30.118  24.981  24.967  1.00  0.00    -0.268 OA
ATOM     25  N   UNL A   1      31.671  26.458  23.896  1.00  0.00    -0.242 N 
ATOM     26  O   UNL A   1      33.983  26.951  23.543  1.00  0.00    -0.268 OA
BRANCH  25  27
ATOM     27  C   UNL A   1      30.901  27.663  23.713  1.00  0.00     0.060 A 
ATOM     28  C   UNL A   1      30.089  27.755  22.553  1.00  0.00     0.027 A 
ATOM     29  C   UNL A   1      30.993  28.837  24.511  1.00  0.00     0.006 A 
ATOM     30  C   UNL A   1      29.422  28.917  22.169  1.00  0.00     0.002 A 
ATOM     31  C   UNL A   1      30.261  29.988  24.129  1.00  0.00     0.011 A 
ATOM     32  C   UNL A   1      29.512  30.035  22.964  1.00  0.00     0.001 A 
BRANCH  29  33
ATOM     33  C   UNL A   1      31.909  29.080  25.634  1.00  0.00    -0.016 A 
ATOM     34  C   UNL A   1      33.071  29.848  25.473  1.00  0.00     0.009 A 
ATOM     35  C   UNL A   1      31.723  28.396  26.847  1.00  0.00     0.009 A 
ATOM     36  C   UNL A   1      33.985  29.982  26.522  1.00  0.00     0.001 A 
ATOM     37  C   UNL A   1      32.636  28.525  27.894  1.00  0.00     0.001 A 
ATOM     38  C   UNL A   1      33.762  29.329  27.733  1.00  0.00     0.000 A 
ENDBRANCH  29  33
ENDBRANCH  25  27
ENDBRANCH  13  16
ENDBRANCH  10  12
ENDBRANCH   5   6
ENDBRANCH   4   5
ENDBRANCH   2   4
ENDBRANCH   1   2
BRANCH   1  39
ATOM     39  C   UNL A   1      36.150  22.707  25.489  1.00  0.00     0.274 C 
BRANCH  39  40
ATOM     40  C   UNL A   1      37.427  23.455  25.868  1.00  0.00     0.275 C 
BRANCH  40  41
ATOM     41  O   UNL A   1      38.563  22.599  25.652  1.00  0.00    -0.458 OA
BRANCH  41  42
ATOM     42  C   UNL A   1      39.518  22.625  26.617  1.00  0.00     0.338 C 
ATOM     43  O   UNL A   1      40.250  21.707  26.939  1.00  0.00    -0.246 OA
BRANCH  42  44
ATOM     44  C   UNL A   1      39.686  24.024  27.077  1.00  0.00     0.060 A 
ATOM     45  C   UNL A   1      40.195  24.959  26.167  1.00  0.00     0.016 A 
ATOM     46  C   UNL A   1      39.310  24.429  28.363  1.00  0.00     0.016 A 
ATOM     47  C   UNL A   1      40.367  26.290  26.555  1.00  0.00     0.010 A 
ATOM     48  C   UNL A   1      39.485  25.761  28.750  1.00  0.00     0.010 A 
ATOM     49  C   UNL A   1      40.046  26.692  27.860  1.00  0.00    -0.014 A 
BRANCH  49  50
ATOM     50  C   UNL A   1      40.468  28.033  28.334  1.00  0.00     0.031 A 
ATOM     51  C   UNL A   1      41.941  28.353  28.366  1.00  0.00     0.074 A 
ATOM     52  C   UNL A   1      39.573  28.957  28.732  1.00  0.00     0.049 A 
ATOM     53  N   UNL A   1      42.538  29.481  28.654  1.00  0.00    -0.248 NA
ATOM     54  C   UNL A   1      42.862  27.252  28.039  1.00  0.00     0.031 C 
ATOM     55  C   UNL A   1      38.126  28.764  28.833  1.00  0.00     0.029 A 
ATOM     56  N   UNL A   1      39.767  30.248  29.156  1.00  0.00    -0.354 N 
ATOM     57  C   UNL A   1      43.900  29.226  28.542  1.00  0.00     0.074 A 
ATOM     58  C   UNL A   1      44.044  27.830  28.196  1.00  0.00     0.031 C 
ATOM     59  C   UNL A   1      37.569  29.884  29.331  1.00  0.00     0.029 A 
ATOM     60  C   UNL A   1      38.614  30.881  29.554  1.00  0.00     0.049 A 
ATOM     61  H   UNL A   1      40.652  30.681  29.174  1.00  0.00     0.167 HD
ATOM     62  C   UNL A   1      44.941  30.082  28.679  1.00  0.00     0.034 A 
ATOM     63  C   UNL A   1      38.432  32.127  30.038  1.00  0.00     0.034 A 
ATOM     64  C   UNL A   1      44.812  31.471  29.022  1.00  0.00     0.049 A 
ATOM     65  C   UNL A   1      39.602  33.073  30.131  1.00  0.00     0.074 A 
ATOM     66  C   UNL A   1      45.808  32.425  29.147  1.00  0.00     0.029 A 
ATOM     67  N   UNL A   1      43.615  32.105  29.307  1.00  0.00    -0.354 N 
ATOM     68  N   UNL A   1      40.862  32.866  29.841  1.00  0.00    -0.248 NA
ATOM     69  C   UNL A   1      39.305  34.447  30.567  1.00  0.00     0.031 C 
ATOM     70  C   UNL A   1      45.212  33.637  29.515  1.00  0.00     0.029 A 
ATOM     71  C   UNL A   1      43.845  33.437  29.607  1.00  0.00     0.049 A 
ATOM     72  H   UNL A   1      42.731  31.673  29.298  1.00  0.00     0.167 HD
ATOM     73  C   UNL A   1      41.502  34.083  30.049  1.00  0.00     0.074 A 
ATOM     74  C   UNL A   1      40.486  35.034  30.440  1.00  0.00     0.031 C 
ATOM     75  C   UNL A   1      42.821  34.383  29.954  1.00  0.00     0.034 A 
BRANCH  62  76
ATOM     76  C   UNL A   1      46.317  29.548  28.392  1.00  0.00     0.023 A 
ATOM     77  C   UNL A   1      46.830  29.655  27.082  1.00  0.00     0.012 A 
ATOM     78  C   UNL A   1      47.120  29.001  29.409  1.00  0.00     0.148 A 
ATOM     79  C   UNL A   1      48.114  29.203  26.784  1.00  0.00     0.002 A 
ATOM     80  C   UNL A   1      48.413  28.586  29.112  1.00  0.00     0.091 A 
ATOM     81  F   UNL A   1      46.603  28.884  30.641  1.00  0.00    -0.205 F 
ATOM     82  C   UNL A   1      48.908  28.679  27.800  1.00  0.00     0.022 A 
BRANCH  80  83
ATOM     83  S   UNL A   1      49.539  27.959  30.363  1.00  0.00     0.127 S 
ATOM     84  O   UNL A   1      50.809  27.950  29.638  1.00  0.00    -0.237 OA
ATOM     85  O   UNL A   1      49.440  28.979  31.407  1.00  0.00    -0.237 OA
ATOM     86  O   UNL A   1      49.025  26.651  30.744  1.00  0.00    -0.744 OA
ENDBRANCH  80  83
ENDBRANCH  62  76
BRANCH  63  87
ATOM     87  C   UNL A   1      37.088  32.604  30.457  1.00  0.00     0.023 A 
ATOM     88  C   UNL A   1      36.661  32.409  31.785  1.00  0.00     0.012 A 
ATOM     89  C   UNL A   1      36.196  33.148  29.520  1.00  0.00     0.148 A 
ATOM     90  C   UNL A   1      35.347  32.698  32.156  1.00  0.00     0.002 A 
ATOM     91  C   UNL A   1      34.898  33.467  29.906  1.00  0.00     0.091 A 
ATOM     92  F   UNL A   1      36.613  33.324  28.257  1.00  0.00    -0.205 F 
ATOM     93  C   UNL A   1      34.464  33.226  31.217  1.00  0.00     0.022 A 
BRANCH  91  94
ATOM     94  S   UNL A   1      33.811  34.338  28.768  1.00  0.00     0.127 S 
ATOM     95  O   UNL A   1      33.466  33.296  27.807  1.00  0.00    -0.237 OA
ATOM     96  O   UNL A   1      32.713  34.768  29.634  1.00  0.00    -0.237 OA
ATOM     97  O   UNL A   1      34.635  35.438  28.279  1.00  0.00    -0.744 OA
ENDBRANCH  91  94
ENDBRANCH  63  87
BRANCH  75  98
ATOM     98  C   UNL A   1      43.235  35.794  30.278  1.00  0.00     0.023 A 
ATOM     99  C   UNL A   1      43.725  36.093  31.566  1.00  0.00     0.012 A 
ATOM    100  C   UNL A   1      43.181  36.811  29.307  1.00  0.00     0.148 A 
ATOM    101  C   UNL A   1      44.118  37.391  31.892  1.00  0.00     0.002 A 
ATOM    102  C   UNL A   1      43.616  38.091  29.625  1.00  0.00     0.091 A 
ATOM    103  F   UNL A   1      42.688  36.514  28.095  1.00  0.00    -0.205 F 
ATOM    104  C   UNL A   1      44.074  38.387  30.920  1.00  0.00     0.022 A 
BRANCH 102 105
ATOM    105  S   UNL A   1      43.671  39.409  28.405  1.00  0.00     0.127 S 
ATOM    106  O   UNL A   1      44.295  40.493  29.161  1.00  0.00    -0.237 OA
ATOM    107  O   UNL A   1      44.513  38.833  27.356  1.00  0.00    -0.237 OA
ATOM    108  O   UNL A   1      42.287  39.632  28.005  1.00  0.00    -0.744 OA
ENDBRANCH 102 105
ENDBRANCH  75  98
ENDBRANCH  49  50
ENDBRANCH  42  44
ENDBRANCH  41  42
ENDBRANCH  40  41
ENDBRANCH  39  40
ENDBRANCH   1  39
TORSDOF 20
ENDMDL
MODEL 2
REMARK VINA RESULT:     -11.7      4.758      8.807
REMARK SMILES O=C(COc1cccc(NC(=O)c2ccc3c(c2)C(=O)N(c2ccccc2-c2ccccc2)C3=O)c1)OCCOC(=O)c1ccc(-c2c3nc(c(-c4cccc(S(=O)(=O)[O-])c4F)c4ccc([nH]4)c(-c4cccc(S(=O)(=O)[O-])c4F)c4nc(c(-c5cccc(S(=O)(=O)[O-])c5F)c5ccc2[nH]5)C=C4)C=C3)cc1
REMARK SMILES IDX 37 1 2 2 1 3 3 4 4 5 5 6 6 7 36 8 7 9 9 10 8 11 10 12 11 13
REMARK SMILES IDX 12 15 13 16 14 17 18 18 15 19 17 20 16 21 19 22 34 23 20 24
REMARK SMILES IDX 21 25 35 26 22 27 23 28 27 29 24 30 26 31 25 32 28 33 29 34
REMARK SMILES IDX 33 35 30 36 32 37 31 38 38 39 39 40 40 41 41 42 42 43 43 44
REMARK SMILES IDX 44 45 105 46 45 47 104 48 46 49 47 50 48 51 98 52 49 53
REMARK SMILES IDX 103 54 97 55 99 56 50 57 102 58 96 59 95 60 51 62 83 63
REMARK SMILES IDX 63 64 82 65 64 66 67 67 81 68 100 69 65 70 66 71 80 73
REMARK SMILES IDX 101 74 68 75 52 76 53 77 61 78 54 79 56 80 62 81 55 82 57 83
REMARK SMILES IDX 58 84 59 85 60 86 84 87 85 88 93 89 86 90 88 91 94 92 87 93
REMARK SMILES IDX 89 94 90 95 91 96 92 97 69 98 70 99 78 100 71 101 73 102
REMARK SMILES IDX 79 103 72 104 74 105 75 106 76 107 77 108
REMARK H PARENT 10 14 99 61 67 72
REMARK Flexibility Score: inf
ROOT
ATOM      1  O   UNL A   1      42.612  21.923  25.872  1.00  0.00    -0.460 OA
ENDROOT
BRANCH   1   2
ATOM      2  C   UNL A   1      43.891  22.366  25.815  1.00  0.00     0.344 C 
ATOM      3  O   UNL A   1      44.451  22.501  24.727  1.00  0.00    -0.248 OA
BRANCH   2   4
ATOM      4  C   UNL A   1      44.587  22.761  27.110  1.00  0.00     0.351 C 
BRANCH   4   5
ATOM      5  O   UNL A   1      44.038  23.890  27.770  1.00  0.00    -0.482 OA
BRANCH   5   6
ATOM      6  C   UNL A   1      44.233  23.888  29.120  1.00  0.00     0.122 A 
ATOM      7  C   UNL A   1      43.527  22.921  29.823  1.00  0.00     0.046 A 
ATOM      8  C   UNL A   1      44.994  24.853  29.795  1.00  0.00     0.072 A 
ATOM      9  C   UNL A   1      43.580  22.925  31.204  1.00  0.00     0.006 A 
ATOM     10  C   UNL A   1      45.079  24.853  31.190  1.00  0.00     0.045 A 
ATOM     11  C   UNL A   1      44.336  23.891  31.873  1.00  0.00     0.026 A 
BRANCH  10  12
ATOM     12  N   UNL A   1      45.847  25.882  31.793  1.00  0.00    -0.322 N 
ATOM     13  C   UNL A   1      45.508  27.032  32.486  1.00  0.00     0.255 C 
ATOM     14  H   UNL A   1      46.819  25.753  31.700  1.00  0.00     0.170 HD
ATOM     15  O   UNL A   1      46.338  27.894  32.754  1.00  0.00    -0.269 OA
BRANCH  13  16
ATOM     16  C   UNL A   1      44.147  27.171  33.025  1.00  0.00     0.041 A 
ATOM     17  C   UNL A   1      43.830  26.618  34.287  1.00  0.00     0.015 A 
ATOM     18  C   UNL A   1      43.322  28.098  32.393  1.00  0.00     0.028 A 
ATOM     19  C   UNL A   1      42.780  27.173  35.039  1.00  0.00     0.015 A 
ATOM     20  C   UNL A   1      42.311  28.617  33.168  1.00  0.00     0.054 A 
ATOM     21  C   UNL A   1      42.093  28.236  34.470  1.00  0.00     0.053 A 
ATOM     22  C   UNL A   1      41.581  29.839  32.936  1.00  0.00     0.266 C 
ATOM     23  C   UNL A   1      41.302  29.306  35.092  1.00  0.00     0.266 C 
ATOM     24  O   UNL A   1      41.391  30.200  31.787  1.00  0.00    -0.268 OA
ATOM     25  N   UNL A   1      41.241  30.340  34.174  1.00  0.00    -0.242 N 
ATOM     26  O   UNL A   1      40.818  29.123  36.186  1.00  0.00    -0.268 OA
BRANCH  25  27
ATOM     27  C   UNL A   1      40.954  31.735  34.400  1.00  0.00     0.060 A 
ATOM     28  C   UNL A   1      39.591  32.131  34.424  1.00  0.00     0.027 A 
ATOM     29  C   UNL A   1      41.914  32.783  34.453  1.00  0.00     0.006 A 
ATOM     30  C   UNL A   1      39.175  33.460  34.472  1.00  0.00     0.002 A 
ATOM     31  C   UNL A   1      41.465  34.123  34.557  1.00  0.00     0.011 A 
ATOM     32  C   UNL A   1      40.121  34.456  34.538  1.00  0.00     0.001 A 
BRANCH  29  33
ATOM     33  C   UNL A   1      43.364  32.673  34.241  1.00  0.00    -0.016 A 
ATOM     34  C   UNL A   1      43.942  32.963  32.997  1.00  0.00     0.009 A 
ATOM     35  C   UNL A   1      44.173  32.103  35.238  1.00  0.00     0.009 A 
ATOM     36  C   UNL A   1      45.307  32.752  32.782  1.00  0.00     0.001 A 
ATOM     37  C   UNL A   1      45.535  31.888  35.023  1.00  0.00     0.001 A 
ATOM     38  C   UNL A   1      46.103  32.224  33.797  1.00  0.00     0.000 A 
ENDBRANCH  29  33
ENDBRANCH  25  27
ENDBRANCH  13  16
ENDBRANCH  10  12
ENDBRANCH   5   6
ENDBRANCH   4   5
ENDBRANCH   2   4
ENDBRANCH   1   2
BRANCH   1  39
ATOM     39  C   UNL A   1      42.082  21.101  26.934  1.00  0.00     0.274 C 
BRANCH  39  40
ATOM     40  C   UNL A   1      40.592  20.840  26.721  1.00  0.00     0.275 C 
BRANCH  40  41
ATOM     41  O   UNL A   1      39.829  21.857  27.396  1.00  0.00    -0.458 OA
BRANCH  41  42
ATOM     42  C   UNL A   1      39.279  22.811  26.601  1.00  0.00     0.338 C 
ATOM     43  O   UNL A   1      38.356  22.662  25.821  1.00  0.00    -0.246 OA
BRANCH  42  44
ATOM     44  C   UNL A   1      39.834  24.128  26.991  1.00  0.00     0.060 A 
ATOM     45  C   UNL A   1      40.030  24.382  28.354  1.00  0.00     0.016 A 
ATOM     46  C   UNL A   1      40.202  25.086  26.039  1.00  0.00     0.016 A 
ATOM     47  C   UNL A   1      40.555  25.608  28.769  1.00  0.00     0.010 A 
ATOM     48  C   UNL A   1      40.725  26.314  26.456  1.00  0.00     0.010 A 
ATOM     49  C   UNL A   1      40.873  26.595  27.825  1.00  0.00    -0.014 A 
BRANCH  49  50
ATOM     50  C   UNL A   1      41.185  27.971  28.285  1.00  0.00     0.031 A 
ATOM     51  C   UNL A   1      42.625  28.419  28.289  1.00  0.00     0.074 A 
ATOM     52  C   UNL A   1      40.220  28.816  28.696  1.00  0.00     0.049 A 
ATOM     53  N   UNL A   1      43.126  29.595  28.560  1.00  0.00    -0.248 NA
ATOM     54  C   UNL A   1      43.632  27.400  27.948  1.00  0.00     0.031 C 
ATOM     55  C   UNL A   1      38.798  28.497  28.826  1.00  0.00     0.029 A 
ATOM     56  N   UNL A   1      40.308  30.121  29.112  1.00  0.00    -0.354 N 
ATOM     57  C   UNL A   1      44.503  29.460  28.423  1.00  0.00     0.074 A 
ATOM     58  C   UNL A   1      44.761  28.080  28.080  1.00  0.00     0.031 C 
ATOM     59  C   UNL A   1      38.154  29.568  29.330  1.00  0.00     0.029 A 
ATOM     60  C   UNL A   1      39.112  30.653  29.529  1.00  0.00     0.049 A 
ATOM     61  H   UNL A   1      41.152  30.629  29.111  1.00  0.00     0.167 HD
ATOM     62  C   UNL A   1      45.467  30.405  28.537  1.00  0.00     0.034 A 
ATOM     63  C   UNL A   1      38.831  31.881  30.011  1.00  0.00     0.034 A 
ATOM     64  C   UNL A   1      45.223  31.779  28.877  1.00  0.00     0.049 A 
ATOM     65  C   UNL A   1      39.915  32.926  30.078  1.00  0.00     0.074 A 
ATOM     66  C   UNL A   1      46.135  32.817  28.979  1.00  0.00     0.029 A 
ATOM     67  N   UNL A   1      43.982  32.308  29.182  1.00  0.00    -0.354 N 
ATOM     68  N   UNL A   1      41.183  32.828  29.765  1.00  0.00    -0.248 NA
ATOM     69  C   UNL A   1      39.507  34.271  30.515  1.00  0.00     0.031 C 
ATOM     70  C   UNL A   1      45.442  33.974  29.354  1.00  0.00     0.029 A 
ATOM     71  C   UNL A   1      44.100  33.656  29.472  1.00  0.00     0.049 A 
ATOM     72  H   UNL A   1      43.139  31.799  29.192  1.00  0.00     0.167 HD
ATOM     73  C   UNL A   1      41.718  34.098  29.956  1.00  0.00     0.074 A 
ATOM     74  C   UNL A   1      40.630  34.959  30.363  1.00  0.00     0.031 C 
ATOM     75  C   UNL A   1      43.003  34.511  29.835  1.00  0.00     0.034 A 
BRANCH  62  76
ATOM     76  C   UNL A   1      46.879  29.991  28.226  1.00  0.00     0.023 A 
ATOM     77  C   UNL A   1      47.264  29.845  26.877  1.00  0.00     0.012 A 
ATOM     78  C   UNL A   1      47.832  29.806  29.244  1.00  0.00     0.148 A 
ATOM     79  C   UNL A   1      48.573  29.497  26.546  1.00  0.00     0.002 A 
ATOM     80  C   UNL A   1      49.144  29.494  28.905  1.00  0.00     0.091 A 
ATOM     81  F   UNL A   1      47.437  29.923  30.520  1.00  0.00    -0.205 F 
ATOM     82  C   UNL A   1      49.513  29.332  27.559  1.00  0.00     0.022 A 
BRANCH  80  83
ATOM     83  S   UNL A   1      50.445  29.327  30.132  1.00  0.00     0.127 S 
ATOM     84  O   UNL A   1      50.222  27.964  30.613  1.00  0.00    -0.237 OA
ATOM     85  O   UNL A   1      51.654  29.499  29.325  1.00  0.00    -0.237 OA
ATOM     86  O   UNL A   1      50.213  30.382  31.108  1.00  0.00    -0.744 OA
ENDBRANCH  80  83
ENDBRANCH  62  76
BRANCH  63  87
ATOM     87  C   UNL A   1      37.458  32.241  30.454  1.00  0.00     0.023 A 
ATOM     88  C   UNL A   1      37.003  31.828  31.721  1.00  0.00     0.012 A 
ATOM     89  C   UNL A   1      36.572  32.893  29.582  1.00  0.00     0.148 A 
ATOM     90  C   UNL A   1      35.669  32.011  32.089  1.00  0.00     0.002 A 
ATOM     91  C   UNL A   1      35.252  33.104  29.969  1.00  0.00     0.091 A 
ATOM     92  F   UNL A   1      37.017  33.277  28.376  1.00  0.00    -0.205 F 
ATOM     93  C   UNL A   1      34.792  32.648  31.213  1.00  0.00     0.022 A 
BRANCH  91  94
ATOM     94  S   UNL A   1      34.164  34.103  28.944  1.00  0.00     0.127 S 
ATOM     95  O   UNL A   1      35.023  35.221  28.573  1.00  0.00    -0.237 OA
ATOM     96  O   UNL A   1      33.824  33.193  27.850  1.00  0.00    -0.237 OA
ATOM     97  O   UNL A   1      33.040  34.401  29.825  1.00  0.00    -0.744 OA
ENDBRANCH  91  94
ENDBRANCH  63  87
BRANCH  75  98
ATOM     98  C   UNL A   1      43.299  35.954  30.146  1.00  0.00     0.023 A 
ATOM     99  C   UNL A   1      43.775  36.304  31.426  1.00  0.00     0.012 A 
ATOM    100  C   UNL A   1      43.147  36.956  29.168  1.00  0.00     0.148 A 
ATOM    101  C   UNL A   1      44.059  37.633  31.739  1.00  0.00     0.002 A 
ATOM    102  C   UNL A   1      43.475  38.271  29.474  1.00  0.00     0.091 A 
ATOM    103  F   UNL A   1      42.669  36.609  27.963  1.00  0.00    -0.205 F 
ATOM    104  C   UNL A   1      43.919  38.614  30.761  1.00  0.00     0.022 A 
BRANCH 102 105
ATOM    105  S   UNL A   1      43.404  39.579  28.244  1.00  0.00     0.127 S 
ATOM    106  O   UNL A   1      42.029  40.053  28.388  1.00  0.00    -0.237 OA
ATOM    107  O   UNL A   1      44.424  40.515  28.719  1.00  0.00    -0.237 OA
ATOM    108  O   UNL A   1      43.723  38.941  26.973  1.00  0.00    -0.744 OA
ENDBRANCH 102 105
ENDBRANCH  75  98
ENDBRANCH  49  50
ENDBRANCH  42  44
ENDBRANCH  41  42
ENDBRANCH  40  41
ENDBRANCH  39  40
ENDBRANCH   1  39
TORSDOF 20
ENDMDL
MODEL 3
REMARK VINA RESULT:     -11.4      5.458     14.873
REMARK SMILES O=C(COc1cccc(NC(=O)c2ccc3c(c2)C(=O)N(c2ccccc2-c2ccccc2)C3=O)c1)OCCOC(=O)c1ccc(-c2c3nc(c(-c4cccc(S(=O)(=O)[O-])c4F)c4ccc([nH]4)c(-c4cccc(S(=O)(=O)[O-])c4F)c4nc(c(-c5cccc(S(=O)(=O)[O-])c5F)c5ccc2[nH]5)C=C4)C=C3)cc1
REMARK SMILES IDX 37 1 2 2 1 3 3 4 4 5 5 6 6 7 36 8 7 9 9 10 8 11 10 12 11 13
REMARK SMILES IDX 12 15 13 16 14 17 18 18 15 19 17 20 16 21 19 22 34 23 20 24
REMARK SMILES IDX 21 25 35 26 22 27 23 28 27 29 24 30 26 31 25 32 28 33 29 34
REMARK SMILES IDX 33 35 30 36 32 37 31 38 38 39 39 40 40 41 41 42 42 43 43 44
REMARK SMILES IDX 44 45 105 46 45 47 104 48 46 49 47 50 48 51 98 52 49 53
REMARK SMILES IDX 103 54 97 55 99 56 50 57 102 58 96 59 95 60 51 62 83 63
REMARK SMILES IDX 63 64 82 65 64 66 67 67 81 68 100 69 65 70 66 71 80 73
REMARK SMILES IDX 101 74 68 75 52 76 53 77 61 78 54 79 56 80 62 81 55 82 57 83
REMARK SMILES IDX 58 84 59 85 60 86 84 87 85 88 93 89 86 90 88 91 94 92 87 93
REMARK SMILES IDX 89 94 90 95 91 96 92 97 69 98 70 99 78 100 71 101 73 102
REMARK SMILES IDX 79 103 72 104 74 105 75 106 76 107 77 108
REMARK H PARENT 10 14 99 61 67 72
REMARK Flexibility Score: inf
ROOT
ATOM      1  O   UNL A   1      49.620  38.861  32.070  1.00  0.00    -0.460 OA
ENDROOT
BRANCH   1   2
ATOM      2  C   UNL A   1      48.375  39.282  32.402  1.00  0.00     0.344 C 
ATOM      3  O   UNL A   1      48.074  39.448  33.584  1.00  0.00    -0.248 OA
BRANCH   2   4
ATOM      4  C   UNL A   1      47.392  39.614  31.288  1.00  0.00     0.351 C 
BRANCH   4   5
ATOM      5  O   UNL A   1      47.519  40.916  30.740  1.00  0.00    -0.482 OA
BRANCH   5   6
ATOM      6  C   UNL A   1      46.326  41.527  30.486  1.00  0.00     0.122 A 
ATOM      7  C   UNL A   1      45.290  41.189  31.346  1.00  0.00     0.046 A 
ATOM      8  C   UNL A   1      46.098  42.351  29.376  1.00  0.00     0.072 A 
ATOM      9  C   UNL A   1      44.022  41.675  31.089  1.00  0.00     0.006 A 
ATOM     10  C   UNL A   1      44.826  42.872  29.118  1.00  0.00     0.045 A 
ATOM     11  C   UNL A   1      43.797  42.493  29.979  1.00  0.00     0.026 A 
BRANCH  10  12
ATOM     12  N   UNL A   1      44.677  43.674  27.957  1.00  0.00    -0.322 N 
ATOM     13  C   UNL A   1      44.920  43.444  26.613  1.00  0.00     0.255 C 
ATOM     14  H   UNL A   1      44.331  44.576  28.145  1.00  0.00     0.170 HD
ATOM     15  O   UNL A   1      44.907  44.353  25.790  1.00  0.00    -0.269 OA
BRANCH  13  16
ATOM     16  C   UNL A   1      45.074  42.062  26.137  1.00  0.00     0.041 A 
ATOM     17  C   UNL A   1      46.360  41.564  25.824  1.00  0.00     0.015 A 
ATOM     18  C   UNL A   1      43.974  41.223  26.302  1.00  0.00     0.028 A 
ATOM     19  C   UNL A   1      46.601  40.181  25.902  1.00  0.00     0.015 A 
ATOM     20  C   UNL A   1      44.259  39.880  26.377  1.00  0.00     0.054 A 
ATOM     21  C   UNL A   1      45.532  39.376  26.266  1.00  0.00     0.053 A 
ATOM     22  C   UNL A   1      43.419  38.845  26.930  1.00  0.00     0.266 C 
ATOM     23  C   UNL A   1      45.505  38.036  26.869  1.00  0.00     0.266 C 
ATOM     24  O   UNL A   1      42.209  38.965  26.846  1.00  0.00    -0.268 OA
ATOM     25  N   UNL A   1      44.261  37.890  27.456  1.00  0.00    -0.242 N 
ATOM     26  O   UNL A   1      46.460  37.306  26.728  1.00  0.00    -0.268 OA
BRANCH  25  27
ATOM     27  C   UNL A   1      43.853  36.975  28.495  1.00  0.00     0.060 A 
ATOM     28  C   UNL A   1      43.836  37.461  29.829  1.00  0.00     0.027 A 
ATOM     29  C   UNL A   1      43.609  35.585  28.328  1.00  0.00     0.006 A 
ATOM     30  C   UNL A   1      43.620  36.650  30.941  1.00  0.00     0.002 A 
ATOM     31  C   UNL A   1      43.336  34.792  29.471  1.00  0.00     0.011 A 
ATOM     32  C   UNL A   1      43.370  35.311  30.756  1.00  0.00     0.001 A 
BRANCH  29  33
ATOM     33  C   UNL A   1      43.767  34.793  27.100  1.00  0.00    -0.016 A 
ATOM     34  C   UNL A   1      43.132  35.165  25.907  1.00  0.00     0.009 A 
ATOM     35  C   UNL A   1      44.416  33.549  27.152  1.00  0.00     0.009 A 
ATOM     36  C   UNL A   1      43.206  34.346  24.778  1.00  0.00     0.001 A 
ATOM     37  C   UNL A   1      44.487  32.727  26.026  1.00  0.00     0.001 A 
ATOM     38  C   UNL A   1      43.890  33.133  24.836  1.00  0.00     0.000 A 
ENDBRANCH  29  33
ENDBRANCH  25  27
ENDBRANCH  13  16
ENDBRANCH  10  12
ENDBRANCH   5   6
ENDBRANCH   4   5
ENDBRANCH   2   4
ENDBRANCH   1   2
BRANCH   1  39
ATOM     39  C   UNL A   1      49.925  38.070  30.901  1.00  0.00     0.274 C 
BRANCH  39  40
ATOM     40  C   UNL A   1      49.859  36.579  31.228  1.00  0.00     0.275 C 
BRANCH  40  41
ATOM     41  O   UNL A   1      48.545  36.081  30.918  1.00  0.00    -0.458 OA
BRANCH  41  42
ATOM     42  C   UNL A   1      47.886  35.474  31.937  1.00  0.00     0.338 C 
ATOM     43  O   UNL A   1      47.714  35.918  33.058  1.00  0.00    -0.246 OA
BRANCH  42  44
ATOM     44  C   UNL A   1      47.209  34.265  31.409  1.00  0.00     0.060 A 
ATOM     45  C   UNL A   1      46.926  34.216  30.038  1.00  0.00     0.016 A 
ATOM     46  C   UNL A   1      46.898  33.175  32.229  1.00  0.00     0.016 A 
ATOM     47  C   UNL A   1      46.293  33.096  29.495  1.00  0.00     0.010 A 
ATOM     48  C   UNL A   1      46.262  32.055  31.684  1.00  0.00     0.010 A 
ATOM     49  C   UNL A   1      45.926  32.023  30.320  1.00  0.00    -0.014 A 
BRANCH  49  50
ATOM     50  C   UNL A   1      45.036  30.963  29.785  1.00  0.00     0.031 A 
ATOM     51  C   UNL A   1      45.572  30.049  28.712  1.00  0.00     0.074 A 
ATOM     52  C   UNL A   1      43.775  30.805  30.230  1.00  0.00     0.049 A 
ATOM     53  N   UNL A   1      45.015  29.002  28.161  1.00  0.00    -0.248 NA
ATOM     54  C   UNL A   1      46.911  30.364  28.187  1.00  0.00     0.031 C 
ATOM     55  C   UNL A   1      43.094  31.662  31.201  1.00  0.00     0.029 A 
ATOM     56  N   UNL A   1      42.830  29.869  29.890  1.00  0.00    -0.354 N 
ATOM     57  C   UNL A   1      45.933  28.533  27.228  1.00  0.00     0.074 A 
ATOM     58  C   UNL A   1      47.066  29.430  27.260  1.00  0.00     0.031 C 
ATOM     59  C   UNL A   1      41.825  31.235  31.346  1.00  0.00     0.029 A 
ATOM     60  C   UNL A   1      41.614  30.060  30.504  1.00  0.00     0.049 A 
ATOM     61  H   UNL A   1      43.007  29.130  29.265  1.00  0.00     0.167 HD
ATOM     62  C   UNL A   1      45.859  27.436  26.436  1.00  0.00     0.034 A 
ATOM     63  C   UNL A   1      40.469  29.357  30.394  1.00  0.00     0.034 A 
ATOM     64  C   UNL A   1      44.738  26.538  26.395  1.00  0.00     0.049 A 
ATOM     65  C   UNL A   1      40.433  28.111  29.546  1.00  0.00     0.074 A 
ATOM     66  C   UNL A   1      44.590  25.379  25.652  1.00  0.00     0.029 A 
ATOM     67  N   UNL A   1      43.569  26.701  27.116  1.00  0.00    -0.354 N 
ATOM     68  N   UNL A   1      41.378  27.579  28.811  1.00  0.00    -0.248 NA
ATOM     69  C   UNL A   1      39.180  27.339  29.562  1.00  0.00     0.031 C 
ATOM     70  C   UNL A   1      43.324  24.845  25.920  1.00  0.00     0.029 A 
ATOM     71  C   UNL A   1      42.693  25.666  26.839  1.00  0.00     0.049 A 
ATOM     72  H   UNL A   1      43.387  27.444  27.736  1.00  0.00     0.167 HD
ATOM     73  C   UNL A   1      40.837  26.408  28.290  1.00  0.00     0.074 A 
ATOM     74  C   UNL A   1      39.501  26.283  28.830  1.00  0.00     0.031 C 
ATOM     75  C   UNL A   1      41.384  25.529  27.415  1.00  0.00     0.034 A 
BRANCH  62  76
ATOM     76  C   UNL A   1      47.060  27.111  25.593  1.00  0.00     0.023 A 
ATOM     77  C   UNL A   1      48.066  26.282  26.131  1.00  0.00     0.012 A 
ATOM     78  C   UNL A   1      47.171  27.565  24.266  1.00  0.00     0.148 A 
ATOM     79  C   UNL A   1      49.178  25.930  25.369  1.00  0.00     0.002 A 
ATOM     80  C   UNL A   1      48.265  27.179  23.500  1.00  0.00     0.091 A 
ATOM     81  F   UNL A   1      46.216  28.374  23.784  1.00  0.00    -0.205 F 
ATOM     82  C   UNL A   1      49.272  26.369  24.051  1.00  0.00     0.022 A 
BRANCH  80  83
ATOM     83  S   UNL A   1      48.445  27.638  21.773  1.00  0.00     0.127 S 
ATOM     84  O   UNL A   1      49.550  28.594  21.835  1.00  0.00    -0.237 OA
ATOM     85  O   UNL A   1      48.780  26.358  21.146  1.00  0.00    -0.237 OA
ATOM     86  O   UNL A   1      47.160  28.191  21.369  1.00  0.00    -0.744 OA
ENDBRANCH  80  83
ENDBRANCH  62  76
BRANCH  63  87
ATOM     87  C   UNL A   1      39.239  29.766  31.121  1.00  0.00     0.023 A 
ATOM     88  C   UNL A   1      38.938  29.184  32.368  1.00  0.00     0.012 A 
ATOM     89  C   UNL A   1      38.316  30.643  30.530  1.00  0.00     0.148 A 
ATOM     90  C   UNL A   1      37.711  29.429  32.986  1.00  0.00     0.002 A 
ATOM     91  C   UNL A   1      37.110  30.911  31.169  1.00  0.00     0.091 A 
ATOM     92  F   UNL A   1      38.612  31.186  29.339  1.00  0.00    -0.205 F 
ATOM     93  C   UNL A   1      36.795  30.291  32.387  1.00  0.00     0.022 A 
BRANCH  91  94
ATOM     94  S   UNL A   1      36.008  32.174  30.518  1.00  0.00     0.127 S 
ATOM     95  O   UNL A   1      35.668  31.644  29.203  1.00  0.00    -0.237 OA
ATOM     96  O   UNL A   1      34.911  32.178  31.486  1.00  0.00    -0.237 OA
ATOM     97  O   UNL A   1      36.819  33.386  30.549  1.00  0.00    -0.744 OA
ENDBRANCH  91  94
ENDBRANCH  63  87
BRANCH  75  98
ATOM     98  C   UNL A   1      40.539  24.357  26.992  1.00  0.00     0.023 A 
ATOM     99  C   UNL A   1      39.246  24.585  26.477  1.00  0.00     0.012 A 
ATOM    100  C   UNL A   1      41.032  23.040  27.062  1.00  0.00     0.148 A 
ATOM    101  C   UNL A   1      38.445  23.517  26.076  1.00  0.00     0.002 A 
ATOM    102  C   UNL A   1      40.244  21.985  26.619  1.00  0.00     0.091 A 
ATOM    103  F   UNL A   1      42.255  22.840  27.578  1.00  0.00    -0.205 F 
ATOM    104  C   UNL A   1      38.946  22.220  26.137  1.00  0.00     0.022 A 
BRANCH 102 105
ATOM    105  S   UNL A   1      40.850  20.294  26.584  1.00  0.00     0.127 S 
ATOM    106  O   UNL A   1      39.786  19.609  25.852  1.00  0.00    -0.237 OA
ATOM    107  O   UNL A   1      42.109  20.424  25.849  1.00  0.00    -0.237 OA
ATOM    108  O   UNL A   1      41.010  19.906  27.979  1.00  0.00    -0.744 OA
ENDBRANCH 102 105
ENDBRANCH  75  98
ENDBRANCH  49  50
ENDBRANCH  42  44
ENDBRANCH  41  42
ENDBRANCH  40  41
ENDBRANCH  39  40
ENDBRANCH   1  39
TORSDOF 20
ENDMDL
