MODEL 1
REMARK VINA RESULT:     -12.0      0.000      0.000
REMARK SMILES CCS(=O)(=O)c1ccc(N2CCC[C@H](C(=O)OCCOC(=O)c3ccc(-c4c5nc(c(-c6cccc(S(=O)(=O)[O-])c6F)c6ccc([nH]6)c(-c6cccc(S(=O)(=O)[O-])c6F)c6nc(c(-c7cccc(S(=O)(=O)[O-])c7F)c7ccc4[nH]7)C=C6)C=C5)cc3)C2)c(F)c1
REMARK SMILES IDX 18 1 17 2 15 3 16 4 14 5 10 6 11 7 86 8 12 9 13 10 9 11 6 12
REMARK SMILES IDX 7 13 89 14 8 15 87 16 88 17 3 18 4 19 5 20 2 21 1 22 19 23
REMARK SMILES IDX 20 24 21 25 22 26 23 27 24 28 85 29 25 30 84 31 26 32 27 33
REMARK SMILES IDX 28 34 78 35 29 36 83 37 77 38 79 39 30 40 82 41 76 42 75 43
REMARK SMILES IDX 31 45 63 46 43 47 62 48 44 49 47 50 61 51 80 52 45 53 46 54
REMARK SMILES IDX 60 56 81 57 48 58 32 59 33 60 41 61 34 62 36 63 42 64 35 65
REMARK SMILES IDX 37 66 38 67 39 68 40 69 64 70 65 71 73 72 66 73 68 74 74 75
REMARK SMILES IDX 67 76 69 77 70 78 71 79 72 80 49 81 50 82 58 83 51 84 53 85
REMARK SMILES IDX 59 86 52 87 54 88 55 89 56 90 57 91
REMARK H PARENT 79 44 47 55
REMARK Flexibility Score: inf
ROOT
ATOM      1  C   UNL A   1      31.462  29.027  26.941  1.00  0.00     0.274 C 
ENDROOT
BRANCH   1   2
ATOM      2  O   UNL A   1      32.491  28.028  27.077  1.00  0.00    -0.462 OA
BRANCH   2   3
ATOM      3  C   UNL A   1      32.193  26.769  26.666  1.00  0.00     0.310 C 
ATOM      4  O   UNL A   1      31.106  26.225  26.825  1.00  0.00    -0.252 OA
BRANCH   3   5
ATOM      5  C   UNL A   1      33.352  26.075  25.967  1.00  0.00     0.118 C 
ATOM      6  N   UNL A   1      32.543  26.253  23.668  1.00  0.00    -0.368 N 
ATOM      7  C   UNL A   1      32.471  24.810  23.459  1.00  0.00     0.116 C 
ATOM      8  C   UNL A   1      33.575  26.716  24.603  1.00  0.00     0.132 C 
ATOM      9  C   UNL A   1      32.283  24.072  24.783  1.00  0.00     0.022 C 
ATOM     10  C   UNL A   1      33.261  24.548  25.860  1.00  0.00     0.019 C 
BRANCH   6  11
ATOM     11  C   UNL A   1      31.519  27.133  23.348  1.00  0.00     0.073 A 
ATOM     12  C   UNL A   1      29.405  28.892  22.691  1.00  0.00     0.070 A 
ATOM     13  C   UNL A   1      30.725  29.255  22.422  1.00  0.00     0.022 A 
ATOM     14  C   UNL A   1      29.117  27.648  23.237  1.00  0.00     0.061 A 
ATOM     15  C   UNL A   1      31.768  28.379  22.753  1.00  0.00     0.030 A 
ATOM     16  C   UNL A   1      30.166  26.804  23.582  1.00  0.00     0.147 A 
ATOM     17  F   UNL A   1      29.846  25.658  24.205  1.00  0.00    -0.205 F 
BRANCH  12  18
ATOM     18  S   UNL A   1      28.073  30.003  22.318  1.00  0.00     0.178 S 
ATOM     19  O   UNL A   1      26.910  29.555  23.058  1.00  0.00    -0.224 OA
ATOM     20  O   UNL A   1      28.019  30.136  20.873  1.00  0.00    -0.224 OA
BRANCH  18  21
ATOM     21  C   UNL A   1      28.590  31.581  22.960  1.00  0.00     0.139 C 
ATOM     22  C   UNL A   1      29.356  31.516  24.267  1.00  0.00     0.021 C 
ENDBRANCH  18  21
ENDBRANCH  12  18
ENDBRANCH   6  11
ENDBRANCH   3   5
ENDBRANCH   2   3
ENDBRANCH   1   2
BRANCH   1  23
ATOM     23  C   UNL A   1      31.971  30.210  26.117  1.00  0.00     0.275 C 
BRANCH  23  24
ATOM     24  O   UNL A   1      33.377  30.416  26.333  1.00  0.00    -0.458 OA
BRANCH  24  25
ATOM     25  C   UNL A   1      33.691  31.394  27.216  1.00  0.00     0.338 C 
ATOM     26  O   UNL A   1      33.035  32.378  27.505  1.00  0.00    -0.246 OA
BRANCH  25  27
ATOM     27  C   UNL A   1      34.930  31.016  27.905  1.00  0.00     0.060 A 
ATOM     28  C   UNL A   1      35.943  31.970  28.015  1.00  0.00     0.016 A 
ATOM     29  C   UNL A   1      35.107  29.728  28.405  1.00  0.00     0.016 A 
ATOM     30  C   UNL A   1      37.144  31.649  28.636  1.00  0.00     0.010 A 
ATOM     31  C   UNL A   1      36.309  29.407  29.039  1.00  0.00     0.010 A 
ATOM     32  C   UNL A   1      37.332  30.366  29.158  1.00  0.00    -0.014 A 
BRANCH  32  33
ATOM     33  C   UNL A   1      38.594  30.020  29.848  1.00  0.00     0.031 A 
ATOM     34  C   UNL A   1      39.535  29.030  29.231  1.00  0.00     0.074 A 
ATOM     35  C   UNL A   1      38.863  30.572  31.044  1.00  0.00     0.049 A 
ATOM     36  N   UNL A   1      40.601  28.479  29.745  1.00  0.00    -0.248 NA
ATOM     37  C   UNL A   1      39.236  28.601  27.854  1.00  0.00     0.031 C 
ATOM     38  C   UNL A   1      38.029  31.568  31.720  1.00  0.00     0.029 A 
ATOM     39  N   UNL A   1      39.897  30.353  31.919  1.00  0.00    -0.354 N 
ATOM     40  C   UNL A   1      41.078  27.604  28.777  1.00  0.00     0.074 A 
ATOM     41  C   UNL A   1      40.190  27.704  27.639  1.00  0.00     0.031 C 
ATOM     42  C   UNL A   1      38.572  31.858  32.911  1.00  0.00     0.029 A 
ATOM     43  C   UNL A   1      39.760  31.033  33.107  1.00  0.00     0.049 A 
ATOM     44  H   UNL A   1      40.662  29.767  31.716  1.00  0.00     0.167 HD
ATOM     45  C   UNL A   1      42.164  26.799  28.837  1.00  0.00     0.034 A 
ATOM     46  C   UNL A   1      40.489  30.971  34.237  1.00  0.00     0.034 A 
ATOM     47  C   UNL A   1      43.053  26.731  29.967  1.00  0.00     0.049 A 
ATOM     48  C   UNL A   1      41.679  30.053  34.282  1.00  0.00     0.074 A 
ATOM     49  C   UNL A   1      44.184  25.952  30.123  1.00  0.00     0.029 A 
ATOM     50  N   UNL A   1      42.914  27.475  31.129  1.00  0.00    -0.354 N 
ATOM     51  N   UNL A   1      42.148  29.266  33.344  1.00  0.00    -0.248 NA
ATOM     52  C   UNL A   1      42.456  30.030  35.529  1.00  0.00     0.031 C 
ATOM     53  C   UNL A   1      44.725  26.216  31.386  1.00  0.00     0.029 A 
ATOM     54  C   UNL A   1      43.942  27.177  32.006  1.00  0.00     0.049 A 
ATOM     55  H   UNL A   1      42.191  28.120  31.304  1.00  0.00     0.167 HD
ATOM     56  C   UNL A   1      43.290  28.678  33.873  1.00  0.00     0.074 A 
ATOM     57  C   UNL A   1      43.453  29.214  35.210  1.00  0.00     0.031 C 
ATOM     58  C   UNL A   1      44.120  27.766  33.310  1.00  0.00     0.034 A 
BRANCH  45  59
ATOM     59  C   UNL A   1      42.473  25.941  27.641  1.00  0.00     0.023 A 
ATOM     60  C   UNL A   1      43.327  26.436  26.634  1.00  0.00     0.012 A 
ATOM     61  C   UNL A   1      41.992  24.621  27.552  1.00  0.00     0.148 A 
ATOM     62  C   UNL A   1      43.684  25.636  25.550  1.00  0.00     0.002 A 
ATOM     63  C   UNL A   1      42.383  23.815  26.489  1.00  0.00     0.091 A 
ATOM     64  F   UNL A   1      41.162  24.178  28.507  1.00  0.00    -0.205 F 
ATOM     65  C   UNL A   1      43.222  24.323  25.483  1.00  0.00     0.022 A 
BRANCH  63  66
ATOM     66  S   UNL A   1      41.905  22.088  26.352  1.00  0.00     0.127 S 
ATOM     67  O   UNL A   1      40.460  22.197  26.151  1.00  0.00    -0.237 OA
ATOM     68  O   UNL A   1      42.653  21.653  25.172  1.00  0.00    -0.237 OA
ATOM     69  O   UNL A   1      42.314  21.458  27.599  1.00  0.00    -0.744 OA
ENDBRANCH  63  66
ENDBRANCH  45  59
BRANCH  46  70
ATOM     70  C   UNL A   1      40.125  31.835  35.395  1.00  0.00     0.023 A 
ATOM     71  C   UNL A   1      40.711  33.109  35.513  1.00  0.00     0.012 A 
ATOM     72  C   UNL A   1      39.155  31.435  36.336  1.00  0.00     0.148 A 
ATOM     73  C   UNL A   1      40.348  33.966  36.552  1.00  0.00     0.002 A 
ATOM     74  C   UNL A   1      38.756  32.315  37.335  1.00  0.00     0.091 A 
ATOM     75  F   UNL A   1      38.622  30.211  36.218  1.00  0.00    -0.205 F 
ATOM     76  C   UNL A   1      39.360  33.576  37.454  1.00  0.00     0.022 A 
BRANCH  74  77
ATOM     77  S   UNL A   1      37.396  31.951  38.452  1.00  0.00     0.127 S 
ATOM     78  O   UNL A   1      38.002  32.209  39.755  1.00  0.00    -0.237 OA
ATOM     79  O   UNL A   1      36.391  32.930  38.035  1.00  0.00    -0.237 OA
ATOM     80  O   UNL A   1      37.030  30.566  38.187  1.00  0.00    -0.744 OA
ENDBRANCH  74  77
ENDBRANCH  46  70
BRANCH  58  81
ATOM     81  C   UNL A   1      45.306  27.305  34.115  1.00  0.00     0.023 A 
ATOM     82  C   UNL A   1      46.545  27.958  33.965  1.00  0.00     0.012 A 
ATOM     83  C   UNL A   1      45.165  26.297  35.088  1.00  0.00     0.148 A 
ATOM     84  C   UNL A   1      47.633  27.598  34.759  1.00  0.00     0.002 A 
ATOM     85  C   UNL A   1      46.240  25.976  35.907  1.00  0.00     0.091 A 
ATOM     86  F   UNL A   1      43.983  25.674  35.199  1.00  0.00    -0.205 F 
ATOM     87  C   UNL A   1      47.477  26.618  35.738  1.00  0.00     0.022 A 
BRANCH  85  88
ATOM     88  S   UNL A   1      46.094  24.799  37.257  1.00  0.00     0.127 S 
ATOM     89  O   UNL A   1      47.174  25.227  38.143  1.00  0.00    -0.237 OA
ATOM     90  O   UNL A   1      44.747  25.066  37.763  1.00  0.00    -0.237 OA
ATOM     91  O   UNL A   1      46.258  23.483  36.654  1.00  0.00    -0.744 OA
ENDBRANCH  85  88
ENDBRANCH  58  81
ENDBRANCH  32  33
ENDBRANCH  25  27
ENDBRANCH  24  25
ENDBRANCH  23  24
ENDBRANCH   1  23
TORSDOF 17
ENDMDL
MODEL 2
REMARK VINA RESULT:     -12.0      5.782     10.597
REMARK SMILES CCS(=O)(=O)c1ccc(N2CCC[C@H](C(=O)OCCOC(=O)c3ccc(-c4c5nc(c(-c6cccc(S(=O)(=O)[O-])c6F)c6ccc([nH]6)c(-c6cccc(S(=O)(=O)[O-])c6F)c6nc(c(-c7cccc(S(=O)(=O)[O-])c7F)c7ccc4[nH]7)C=C6)C=C5)cc3)C2)c(F)c1
REMARK SMILES IDX 18 1 17 2 15 3 16 4 14 5 10 6 11 7 86 8 12 9 13 10 9 11 6 12
REMARK SMILES IDX 7 13 89 14 8 15 87 16 88 17 3 18 4 19 5 20 2 21 1 22 19 23
REMARK SMILES IDX 20 24 21 25 22 26 23 27 24 28 85 29 25 30 84 31 26 32 27 33
REMARK SMILES IDX 28 34 78 35 29 36 83 37 77 38 79 39 30 40 82 41 76 42 75 43
REMARK SMILES IDX 31 45 63 46 43 47 62 48 44 49 47 50 61 51 80 52 45 53 46 54
REMARK SMILES IDX 60 56 81 57 48 58 32 59 33 60 41 61 34 62 36 63 42 64 35 65
REMARK SMILES IDX 37 66 38 67 39 68 40 69 64 70 65 71 73 72 66 73 68 74 74 75
REMARK SMILES IDX 67 76 69 77 70 78 71 79 72 80 49 81 50 82 58 83 51 84 53 85
REMARK SMILES IDX 59 86 52 87 54 88 55 89 56 90 57 91
REMARK H PARENT 79 44 47 55
REMARK Flexibility Score: inf
ROOT
ATOM      1  C   UNL A   1      36.171  21.907  24.349  1.00  0.00     0.274 C 
ENDROOT
BRANCH   1   2
ATOM      2  O   UNL A   1      36.219  23.326  24.593  1.00  0.00    -0.462 OA
BRANCH   2   3
ATOM      3  C   UNL A   1      35.170  24.068  24.158  1.00  0.00     0.310 C 
ATOM      4  O   UNL A   1      34.813  24.148  22.988  1.00  0.00    -0.252 OA
BRANCH   3   5
ATOM      5  C   UNL A   1      34.451  24.808  25.277  1.00  0.00     0.118 C 
ATOM      6  N   UNL A   1      32.662  23.193  25.683  1.00  0.00    -0.368 N 
ATOM      7  C   UNL A   1      31.589  24.119  25.334  1.00  0.00     0.116 C 
ATOM      8  C   UNL A   1      33.870  23.796  26.257  1.00  0.00     0.132 C 
ATOM      9  C   UNL A   1      32.087  25.199  24.375  1.00  0.00     0.022 C 
ATOM     10  C   UNL A   1      33.399  25.835  24.842  1.00  0.00     0.019 C 
BRANCH   6  11
ATOM     11  C   UNL A   1      32.757  21.898  25.192  1.00  0.00     0.073 A 
ATOM     12  C   UNL A   1      32.980  19.252  24.221  1.00  0.00     0.070 A 
ATOM     13  C   UNL A   1      32.535  20.271  23.377  1.00  0.00     0.022 A 
ATOM     14  C   UNL A   1      33.362  19.538  25.525  1.00  0.00     0.061 A 
ATOM     15  C   UNL A   1      32.423  21.580  23.867  1.00  0.00     0.030 A 
ATOM     16  C   UNL A   1      33.220  20.837  26.000  1.00  0.00     0.147 A 
ATOM     17  F   UNL A   1      33.499  21.046  27.297  1.00  0.00    -0.205 F 
BRANCH  12  18
ATOM     18  S   UNL A   1      33.089  17.582  23.634  1.00  0.00     0.178 S 
ATOM     19  O   UNL A   1      34.488  17.202  23.651  1.00  0.00    -0.224 OA
ATOM     20  O   UNL A   1      32.323  17.511  22.402  1.00  0.00    -0.224 OA
BRANCH  18  21
ATOM     21  C   UNL A   1      32.214  16.607  24.840  1.00  0.00     0.139 C 
ATOM     22  C   UNL A   1      32.959  15.381  25.327  1.00  0.00     0.021 C 
ENDBRANCH  18  21
ENDBRANCH  12  18
ENDBRANCH   6  11
ENDBRANCH   3   5
ENDBRANCH   2   3
ENDBRANCH   1   2
BRANCH   1  23
ATOM     23  C   UNL A   1      37.499  21.254  24.731  1.00  0.00     0.275 C 
BRANCH  23  24
ATOM     24  O   UNL A   1      37.953  21.728  26.009  1.00  0.00    -0.458 OA
BRANCH  24  25
ATOM     25  C   UNL A   1      39.247  21.457  26.304  1.00  0.00     0.338 C 
ATOM     26  O   UNL A   1      39.851  20.416  26.119  1.00  0.00    -0.246 OA
BRANCH  25  27
ATOM     27  C   UNL A   1      39.884  22.691  26.776  1.00  0.00     0.060 A 
ATOM     28  C   UNL A   1      39.525  23.895  26.168  1.00  0.00     0.016 A 
ATOM     29  C   UNL A   1      40.848  22.660  27.781  1.00  0.00     0.016 A 
ATOM     30  C   UNL A   1      40.122  25.086  26.564  1.00  0.00     0.010 A 
ATOM     31  C   UNL A   1      41.440  23.857  28.188  1.00  0.00     0.010 A 
ATOM     32  C   UNL A   1      41.080  25.075  27.582  1.00  0.00    -0.014 A 
BRANCH  32  33
ATOM     33  C   UNL A   1      41.701  26.339  28.034  1.00  0.00     0.031 A 
ATOM     34  C   UNL A   1      40.874  27.362  28.752  1.00  0.00     0.074 A 
ATOM     35  C   UNL A   1      42.997  26.571  27.759  1.00  0.00     0.049 A 
ATOM     36  N   UNL A   1      41.187  28.586  29.083  1.00  0.00    -0.248 NA
ATOM     37  C   UNL A   1      39.515  26.957  29.147  1.00  0.00     0.031 C 
ATOM     38  C   UNL A   1      43.899  25.630  27.092  1.00  0.00     0.029 A 
ATOM     39  N   UNL A   1      43.774  27.680  27.979  1.00  0.00    -0.354 N 
ATOM     40  C   UNL A   1      40.052  29.115  29.686  1.00  0.00     0.074 A 
ATOM     41  C   UNL A   1      39.046  28.076  29.682  1.00  0.00     0.031 C 
ATOM     42  C   UNL A   1      45.099  26.208  26.938  1.00  0.00     0.029 A 
ATOM     43  C   UNL A   1      45.038  27.575  27.446  1.00  0.00     0.049 A 
ATOM     44  H   UNL A   1      43.458  28.473  28.470  1.00  0.00     0.167 HD
ATOM     45  C   UNL A   1      39.877  30.355  30.198  1.00  0.00     0.034 A 
ATOM     46  C   UNL A   1      46.021  28.490  27.345  1.00  0.00     0.034 A 
ATOM     47  C   UNL A   1      40.898  31.369  30.218  1.00  0.00     0.049 A 
ATOM     48  C   UNL A   1      45.792  29.865  27.907  1.00  0.00     0.074 A 
ATOM     49  C   UNL A   1      40.822  32.654  30.720  1.00  0.00     0.029 A 
ATOM     50  N   UNL A   1      42.183  31.208  29.719  1.00  0.00    -0.354 N 
ATOM     51  N   UNL A   1      44.731  30.339  28.516  1.00  0.00    -0.248 NA
ATOM     52  C   UNL A   1      46.898  30.825  27.792  1.00  0.00     0.031 C 
ATOM     53  C   UNL A   1      42.057  33.277  30.516  1.00  0.00     0.029 A 
ATOM     54  C   UNL A   1      42.910  32.370  29.906  1.00  0.00     0.049 A 
ATOM     55  H   UNL A   1      42.526  30.389  29.295  1.00  0.00     0.167 HD
ATOM     56  C   UNL A   1      45.052  31.640  28.885  1.00  0.00     0.074 A 
ATOM     57  C   UNL A   1      46.413  31.874  28.445  1.00  0.00     0.031 C 
ATOM     58  C   UNL A   1      44.284  32.563  29.514  1.00  0.00     0.034 A 
BRANCH  45  59
ATOM     59  C   UNL A   1      38.541  30.685  30.807  1.00  0.00     0.023 A 
ATOM     60  C   UNL A   1      38.307  30.394  32.165  1.00  0.00     0.012 A 
ATOM     61  C   UNL A   1      37.551  31.355  30.062  1.00  0.00     0.148 A 
ATOM     62  C   UNL A   1      37.103  30.752  32.770  1.00  0.00     0.002 A 
ATOM     63  C   UNL A   1      36.369  31.744  30.681  1.00  0.00     0.091 A 
ATOM     64  F   UNL A   1      37.784  31.600  28.765  1.00  0.00    -0.205 F 
ATOM     65  C   UNL A   1      36.140  31.437  32.032  1.00  0.00     0.022 A 
BRANCH  63  66
ATOM     66  S   UNL A   1      35.100  32.697  29.837  1.00  0.00     0.127 S 
ATOM     67  O   UNL A   1      34.637  31.744  28.829  1.00  0.00    -0.237 OA
ATOM     68  O   UNL A   1      34.143  32.957  30.914  1.00  0.00    -0.237 OA
ATOM     69  O   UNL A   1      35.766  33.882  29.316  1.00  0.00    -0.744 OA
ENDBRANCH  63  66
ENDBRANCH  45  59
BRANCH  46  70
ATOM     70  C   UNL A   1      47.318  28.109  26.719  1.00  0.00     0.023 A 
ATOM     71  C   UNL A   1      48.405  27.764  27.546  1.00  0.00     0.012 A 
ATOM     72  C   UNL A   1      47.462  28.015  25.321  1.00  0.00     0.148 A 
ATOM     73  C   UNL A   1      49.615  27.346  26.992  1.00  0.00     0.002 A 
ATOM     74  C   UNL A   1      48.651  27.543  24.777  1.00  0.00     0.091 A 
ATOM     75  F   UNL A   1      46.422  28.365  24.551  1.00  0.00    -0.205 F 
ATOM     76  C   UNL A   1      49.733  27.220  25.609  1.00  0.00     0.022 A 
BRANCH  74  77
ATOM     77  S   UNL A   1      48.843  27.219  23.020  1.00  0.00     0.127 S 
ATOM     78  O   UNL A   1      50.296  27.195  22.879  1.00  0.00    -0.237 OA
ATOM     79  O   UNL A   1      48.189  25.917  22.878  1.00  0.00    -0.237 OA
ATOM     80  O   UNL A   1      48.159  28.311  22.341  1.00  0.00    -0.744 OA
ENDBRANCH  74  77
ENDBRANCH  46  70
BRANCH  58  81
ATOM     81  C   UNL A   1      44.898  33.906  29.806  1.00  0.00     0.023 A 
ATOM     82  C   UNL A   1      45.587  34.110  31.017  1.00  0.00     0.012 A 
ATOM     83  C   UNL A   1      44.880  34.929  28.838  1.00  0.00     0.148 A 
ATOM     84  C   UNL A   1      46.230  35.320  31.270  1.00  0.00     0.002 A 
ATOM     85  C   UNL A   1      45.562  36.115  29.077  1.00  0.00     0.091 A 
ATOM     86  F   UNL A   1      44.200  34.723  27.700  1.00  0.00    -0.205 F 
ATOM     87  C   UNL A   1      46.229  36.317  30.295  1.00  0.00     0.022 A 
BRANCH  85  88
ATOM     88  S   UNL A   1      45.695  37.407  27.835  1.00  0.00     0.127 S 
ATOM     89  O   UNL A   1      44.299  37.806  27.669  1.00  0.00    -0.237 OA
ATOM     90  O   UNL A   1      46.538  38.400  28.502  1.00  0.00    -0.237 OA
ATOM     91  O   UNL A   1      46.313  36.779  26.675  1.00  0.00    -0.744 OA
ENDBRANCH  85  88
ENDBRANCH  58  81
ENDBRANCH  32  33
ENDBRANCH  25  27
ENDBRANCH  24  25
ENDBRANCH  23  24
ENDBRANCH   1  23
TORSDOF 17
ENDMDL
MODEL 3
REMARK VINA RESULT:     -11.7      0.794      7.594
REMARK SMILES CCS(=O)(=O)c1ccc(N2CCC[C@H](C(=O)OCCOC(=O)c3ccc(-c4c5nc(c(-c6cccc(S(=O)(=O)[O-])c6F)c6ccc([nH]6)c(-c6cccc(S(=O)(=O)[O-])c6F)c6nc(c(-c7cccc(S(=O)(=O)[O-])c7F)c7ccc4[nH]7)C=C6)C=C5)cc3)C2)c(F)c1
REMARK SMILES IDX 18 1 17 2 15 3 16 4 14 5 10 6 11 7 86 8 12 9 13 10 9 11 6 12
REMARK SMILES IDX 7 13 89 14 8 15 87 16 88 17 3 18 4 19 5 20 2 21 1 22 19 23
REMARK SMILES IDX 20 24 21 25 22 26 23 27 24 28 85 29 25 30 84 31 26 32 27 33
REMARK SMILES IDX 28 34 78 35 29 36 83 37 77 38 79 39 30 40 82 41 76 42 75 43
REMARK SMILES IDX 31 45 63 46 43 47 62 48 44 49 47 50 61 51 80 52 45 53 46 54
REMARK SMILES IDX 60 56 81 57 48 58 32 59 33 60 41 61 34 62 36 63 42 64 35 65
REMARK SMILES IDX 37 66 38 67 39 68 40 69 64 70 65 71 73 72 66 73 68 74 74 75
REMARK SMILES IDX 67 76 69 77 70 78 71 79 72 80 49 81 50 82 58 83 51 84 53 85
REMARK SMILES IDX 59 86 52 87 54 88 55 89 56 90 57 91
REMARK H PARENT 79 44 47 55
REMARK Flexibility Score: inf
ROOT
ATOM      1  C   UNL A   1      31.476  29.063  26.660  1.00  0.00     0.274 C 
ENDROOT
BRANCH   1   2
ATOM      2  O   UNL A   1      32.611  28.177  26.681  1.00  0.00    -0.462 OA
BRANCH   2   3
ATOM      3  C   UNL A   1      32.363  26.846  26.584  1.00  0.00     0.310 C 
ATOM      4  O   UNL A   1      31.368  26.290  27.033  1.00  0.00    -0.252 OA
BRANCH   3   5
ATOM      5  C   UNL A   1      33.453  26.084  25.844  1.00  0.00     0.118 C 
ATOM      6  N   UNL A   1      32.542  26.261  23.583  1.00  0.00    -0.368 N 
ATOM      7  C   UNL A   1      32.391  24.820  23.406  1.00  0.00     0.116 C 
ATOM      8  C   UNL A   1      33.639  26.690  24.458  1.00  0.00     0.132 C 
ATOM      9  C   UNL A   1      32.233  24.115  24.752  1.00  0.00     0.022 C 
ATOM     10  C   UNL A   1      33.284  24.561  25.771  1.00  0.00     0.019 C 
BRANCH   6  11
ATOM     11  C   UNL A   1      31.546  27.184  23.295  1.00  0.00     0.073 A 
ATOM     12  C   UNL A   1      29.546  29.096  22.712  1.00  0.00     0.070 A 
ATOM     13  C   UNL A   1      29.197  27.870  23.281  1.00  0.00     0.022 A 
ATOM     14  C   UNL A   1      30.879  29.404  22.474  1.00  0.00     0.061 A 
ATOM     15  C   UNL A   1      30.194  26.926  23.564  1.00  0.00     0.030 A 
ATOM     16  C   UNL A   1      31.850  28.445  22.737  1.00  0.00     0.147 A 
ATOM     17  F   UNL A   1      33.113  28.745  22.392  1.00  0.00    -0.205 F 
BRANCH  12  18
ATOM     18  S   UNL A   1      28.297  30.288  22.308  1.00  0.00     0.178 S 
ATOM     19  O   UNL A   1      27.353  30.323  23.407  1.00  0.00    -0.224 OA
ATOM     20  O   UNL A   1      27.845  29.993  20.959  1.00  0.00    -0.224 OA
BRANCH  18  21
ATOM     21  C   UNL A   1      29.150  31.849  22.234  1.00  0.00     0.139 C 
ATOM     22  C   UNL A   1      28.451  32.989  22.946  1.00  0.00     0.021 C 
ENDBRANCH  18  21
ENDBRANCH  12  18
ENDBRANCH   6  11
ENDBRANCH   3   5
ENDBRANCH   2   3
ENDBRANCH   1   2
BRANCH   1  23
ATOM     23  C   UNL A   1      31.878  30.433  26.113  1.00  0.00     0.275 C 
BRANCH  23  24
ATOM     24  O   UNL A   1      33.294  30.641  26.245  1.00  0.00    -0.458 OA
BRANCH  24  25
ATOM     25  C   UNL A   1      33.663  31.557  27.171  1.00  0.00     0.338 C 
ATOM     26  O   UNL A   1      33.077  32.576  27.488  1.00  0.00    -0.246 OA
BRANCH  25  27
ATOM     27  C   UNL A   1      34.857  31.060  27.865  1.00  0.00     0.060 A 
ATOM     28  C   UNL A   1      35.949  31.920  27.999  1.00  0.00     0.016 A 
ATOM     29  C   UNL A   1      34.914  29.755  28.347  1.00  0.00     0.016 A 
ATOM     30  C   UNL A   1      37.111  31.484  28.625  1.00  0.00     0.010 A 
ATOM     31  C   UNL A   1      36.076  29.320  28.987  1.00  0.00     0.010 A 
ATOM     32  C   UNL A   1      37.179  30.181  29.129  1.00  0.00    -0.014 A 
BRANCH  32  33
ATOM     33  C   UNL A   1      38.399  29.715  29.824  1.00  0.00     0.031 A 
ATOM     34  C   UNL A   1      38.762  30.289  31.160  1.00  0.00     0.074 A 
ATOM     35  C   UNL A   1      39.190  28.806  29.228  1.00  0.00     0.049 A 
ATOM     36  N   UNL A   1      39.859  30.133  31.851  1.00  0.00    -0.248 NA
ATOM     37  C   UNL A   1      37.760  31.155  31.804  1.00  0.00     0.031 C 
ATOM     38  C   UNL A   1      38.913  28.163  27.941  1.00  0.00     0.029 A 
ATOM     39  N   UNL A   1      40.401  28.287  29.607  1.00  0.00    -0.354 N 
ATOM     40  C   UNL A   1      39.703  30.914  32.989  1.00  0.00     0.074 A 
ATOM     41  C   UNL A   1      38.400  31.537  32.901  1.00  0.00     0.031 C 
ATOM     42  C   UNL A   1      39.935  27.352  27.629  1.00  0.00     0.029 A 
ATOM     43  C   UNL A   1      40.959  27.457  28.663  1.00  0.00     0.049 A 
ATOM     44  H   UNL A   1      40.829  28.489  30.471  1.00  0.00     0.167 HD
ATOM     45  C   UNL A   1      40.571  31.086  34.013  1.00  0.00     0.034 A 
ATOM     46  C   UNL A   1      42.174  26.877  28.620  1.00  0.00     0.034 A 
ATOM     47  C   UNL A   1      41.852  30.437  34.098  1.00  0.00     0.049 A 
ATOM     48  C   UNL A   1      43.125  27.099  29.763  1.00  0.00     0.074 A 
ATOM     49  C   UNL A   1      42.801  30.539  35.098  1.00  0.00     0.029 A 
ATOM     50  N   UNL A   1      42.360  29.560  33.151  1.00  0.00    -0.354 N 
ATOM     51  N   UNL A   1      42.948  27.803  30.856  1.00  0.00    -0.248 NA
ATOM     52  C   UNL A   1      44.432  26.433  29.682  1.00  0.00     0.031 C 
ATOM     53  C   UNL A   1      43.890  29.733  34.750  1.00  0.00     0.029 A 
ATOM     54  C   UNL A   1      43.608  29.110  33.544  1.00  0.00     0.049 A 
ATOM     55  H   UNL A   1      41.900  29.297  32.321  1.00  0.00     0.167 HD
ATOM     56  C   UNL A   1      44.105  27.639  31.607  1.00  0.00     0.074 A 
ATOM     57  C   UNL A   1      44.971  26.755  30.852  1.00  0.00     0.031 C 
ATOM     58  C   UNL A   1      44.429  28.184  32.806  1.00  0.00     0.034 A 
BRANCH  45  59
ATOM     59  C   UNL A   1      40.158  31.990  35.143  1.00  0.00     0.023 A 
ATOM     60  C   UNL A   1      40.601  33.327  35.157  1.00  0.00     0.012 A 
ATOM     61  C   UNL A   1      39.269  31.544  36.140  1.00  0.00     0.148 A 
ATOM     62  C   UNL A   1      40.177  34.204  36.155  1.00  0.00     0.002 A 
ATOM     63  C   UNL A   1      38.820  32.433  37.109  1.00  0.00     0.091 A 
ATOM     64  F   UNL A   1      38.880  30.262  36.121  1.00  0.00    -0.205 F 
ATOM     65  C   UNL A   1      39.278  33.761  37.123  1.00  0.00     0.022 A 
BRANCH  63  66
ATOM     66  S   UNL A   1      37.604  31.981  38.352  1.00  0.00     0.127 S 
ATOM     67  O   UNL A   1      38.367  32.154  39.588  1.00  0.00    -0.237 OA
ATOM     68  O   UNL A   1      36.556  32.980  38.138  1.00  0.00    -0.237 OA
ATOM     69  O   UNL A   1      37.209  30.612  38.050  1.00  0.00    -0.744 OA
ENDBRANCH  63  66
ENDBRANCH  45  59
BRANCH  46  70
ATOM     70  C   UNL A   1      42.531  26.003  27.467  1.00  0.00     0.023 A 
ATOM     71  C   UNL A   1      43.370  26.507  26.456  1.00  0.00     0.012 A 
ATOM     72  C   UNL A   1      42.107  24.660  27.403  1.00  0.00     0.148 A 
ATOM     73  C   UNL A   1      43.770  25.696  25.394  1.00  0.00     0.002 A 
ATOM     74  C   UNL A   1      42.555  23.841  26.373  1.00  0.00     0.091 A 
ATOM     75  F   UNL A   1      41.293  24.204  28.366  1.00  0.00    -0.205 F 
ATOM     76  C   UNL A   1      43.377  24.360  25.360  1.00  0.00     0.022 A 
BRANCH  74  77
ATOM     77  S   UNL A   1      42.213  22.078  26.327  1.00  0.00     0.127 S 
ATOM     78  O   UNL A   1      40.770  22.060  26.101  1.00  0.00    -0.237 OA
ATOM     79  O   UNL A   1      43.020  21.642  25.187  1.00  0.00    -0.237 OA
ATOM     80  O   UNL A   1      42.659  21.557  27.612  1.00  0.00    -0.744 OA
ENDBRANCH  74  77
ENDBRANCH  46  70
BRANCH  58  81
ATOM     81  C   UNL A   1      45.761  27.819  33.406  1.00  0.00     0.023 A 
ATOM     82  C   UNL A   1      46.881  28.638  33.167  1.00  0.00     0.012 A 
ATOM     83  C   UNL A   1      45.876  26.725  34.285  1.00  0.00     0.148 A 
ATOM     84  C   UNL A   1      48.102  28.361  33.778  1.00  0.00     0.002 A 
ATOM     85  C   UNL A   1      47.084  26.481  34.926  1.00  0.00     0.091 A 
ATOM     86  F   UNL A   1      44.803  25.944  34.481  1.00  0.00    -0.205 F 
ATOM     87  C   UNL A   1      48.200  27.291  34.667  1.00  0.00     0.022 A 
BRANCH  85  88
ATOM     88  S   UNL A   1      47.266  25.189  36.161  1.00  0.00     0.127 S 
ATOM     89  O   UNL A   1      46.982  23.987  35.380  1.00  0.00    -0.237 OA
ATOM     90  O   UNL A   1      48.664  25.336  36.568  1.00  0.00    -0.237 OA
ATOM     91  O   UNL A   1      46.301  25.502  37.207  1.00  0.00    -0.744 OA
ENDBRANCH  85  88
ENDBRANCH  58  81
ENDBRANCH  32  33
ENDBRANCH  25  27
ENDBRANCH  24  25
ENDBRANCH  23  24
ENDBRANCH   1  23
TORSDOF 17
ENDMDL
