MODEL 1
REMARK VINA RESULT:     -11.1      0.000      0.000
REMARK SMILES Cc1sc2[nH]c(SCC(=O)OCCOC(=O)c3ccc(-c4c5nc(c(-c6cccc(S(=O)(=O)[O-])c6F)c6ccc([nH]6)c(-c6cccc(S(=O)(=O)[O-])c6F)c6nc(c(-c7cccc(S(=O)(=O)[O-])c7F)c7ccc4[nH]7)C=C6)C=C5)cc3)nc(=O)c2c1C
REMARK SMILES IDX 13 1 12 2 11 3 9 4 10 5 8 6 7 7 6 8 1 9 2 10 3 11 84 12 4 13
REMARK SMILES IDX 83 14 85 15 5 16 81 17 80 19 82 20 14 21 15 22 16 23 17 24
REMARK SMILES IDX 18 25 79 26 19 27 78 28 20 29 21 30 22 31 72 32 23 33 77 34
REMARK SMILES IDX 71 35 73 36 24 37 76 38 70 39 69 40 25 42 57 43 37 44 56 45
REMARK SMILES IDX 38 46 41 47 55 48 74 49 39 50 40 51 54 53 75 54 42 55 26 56
REMARK SMILES IDX 27 57 35 58 28 59 30 60 36 61 29 62 31 63 32 64 33 65 34 66
REMARK SMILES IDX 58 67 59 68 67 69 60 70 62 71 68 72 61 73 63 74 64 75 65 76
REMARK SMILES IDX 66 77 43 78 44 79 52 80 45 81 47 82 53 83 46 84 48 85 49 86
REMARK SMILES IDX 50 87 51 88
REMARK H PARENT 5 18 73 41 41 52
REMARK Flexibility Score: inf
ROOT
ATOM      1  C   UNL A   1      41.553  20.576  27.032  1.00  0.00     0.275 C 
ENDROOT
BRANCH   1   2
ATOM      2  C   UNL A   1      41.323  19.387  26.092  1.00  0.00     0.274 C 
BRANCH   2   3
ATOM      3  O   UNL A   1      42.457  19.114  25.232  1.00  0.00    -0.461 OA
BRANCH   3   4
ATOM      4  C   UNL A   1      43.534  18.547  25.834  1.00  0.00     0.316 C 
ATOM      5  O   UNL A   1      43.444  17.616  26.636  1.00  0.00    -0.251 OA
BRANCH   4   6
ATOM      6  C   UNL A   1      44.895  19.102  25.456  1.00  0.00     0.200 C 
BRANCH   6   7
ATOM      7  S   UNL A   1      44.975  20.285  24.094  1.00  0.00    -0.076 SA
BRANCH   7   8
ATOM      8  C   UNL A   1      45.531  21.754  24.889  1.00  0.00     0.170 A 
ATOM      9  C   UNL A   1      45.709  25.822  29.531  1.00  0.00     0.057 C 
ATOM     10  C   UNL A   1      45.668  24.925  28.338  1.00  0.00     0.007 A 
ATOM     11  S   UNL A   1      45.051  23.327  28.477  1.00  0.00    -0.122 S 
ATOM     12  C   UNL A   1      46.107  25.212  27.054  1.00  0.00    -0.022 A 
ATOM     13  C   UNL A   1      45.428  22.985  26.868  1.00  0.00     0.108 A 
ATOM     14  C   UNL A   1      46.026  24.036  26.225  1.00  0.00     0.080 A 
ATOM     15  C   UNL A   1      46.626  26.540  26.591  1.00  0.00     0.046 C 
ATOM     16  N   UNL A   1      45.181  21.839  26.207  1.00  0.00    -0.326 N 
ATOM     17  C   UNL A   1      46.469  23.860  24.848  1.00  0.00     0.282 A 
ATOM     18  H   UNL A   1      44.757  21.078  26.665  1.00  0.00     0.169 HD
ATOM     19  N   UNL A   1      46.183  22.646  24.225  1.00  0.00    -0.185 NA
ATOM     20  O   UNL A   1      47.040  24.770  24.274  1.00  0.00    -0.267 OA
ENDBRANCH   7   8
ENDBRANCH   6   7
ENDBRANCH   4   6
ENDBRANCH   3   4
ENDBRANCH   2   3
ENDBRANCH   1   2
BRANCH   1  21
ATOM     21  O   UNL A   1      40.304  21.113  27.511  1.00  0.00    -0.458 OA
BRANCH  21  22
ATOM     22  C   UNL A   1      39.993  22.256  26.857  1.00  0.00     0.338 C 
ATOM     23  O   UNL A   1      39.647  22.302  25.685  1.00  0.00    -0.246 OA
BRANCH  22  24
ATOM     24  C   UNL A   1      40.125  23.483  27.661  1.00  0.00     0.060 A 
ATOM     25  C   UNL A   1      39.226  24.548  27.521  1.00  0.00     0.016 A 
ATOM     26  C   UNL A   1      41.402  23.709  28.156  1.00  0.00     0.016 A 
ATOM     27  C   UNL A   1      39.674  25.867  27.709  1.00  0.00     0.010 A 
ATOM     28  C   UNL A   1      41.837  25.019  28.339  1.00  0.00     0.010 A 
ATOM     29  C   UNL A   1      41.009  26.122  28.057  1.00  0.00    -0.014 A 
BRANCH  29  30
ATOM     30  C   UNL A   1      41.525  27.522  28.184  1.00  0.00     0.031 A 
ATOM     31  C   UNL A   1      40.427  28.561  28.123  1.00  0.00     0.074 A 
ATOM     32  C   UNL A   1      42.578  27.794  28.994  1.00  0.00     0.049 A 
ATOM     33  N   UNL A   1      39.720  29.036  29.107  1.00  0.00    -0.248 NA
ATOM     34  C   UNL A   1      39.875  28.871  26.798  1.00  0.00     0.031 C 
ATOM     35  C   UNL A   1      42.538  27.676  30.455  1.00  0.00     0.029 A 
ATOM     36  N   UNL A   1      43.629  28.675  28.753  1.00  0.00    -0.354 N 
ATOM     37  C   UNL A   1      38.587  29.621  28.545  1.00  0.00     0.074 A 
ATOM     38  C   UNL A   1      38.730  29.487  27.113  1.00  0.00     0.031 C 
ATOM     39  C   UNL A   1      43.425  28.537  30.991  1.00  0.00     0.029 A 
ATOM     40  C   UNL A   1      44.113  29.263  29.922  1.00  0.00     0.049 A 
ATOM     41  H   UNL A   1      43.990  28.863  27.856  1.00  0.00     0.167 HD
ATOM     42  C   UNL A   1      37.570  30.181  29.257  1.00  0.00     0.034 A 
ATOM     43  C   UNL A   1      44.632  30.525  29.996  1.00  0.00     0.034 A 
ATOM     44  C   UNL A   1      37.778  30.277  30.669  1.00  0.00     0.049 A 
ATOM     45  C   UNL A   1      43.438  31.315  30.471  1.00  0.00     0.074 A 
ATOM     46  C   UNL A   1      37.366  29.632  31.815  1.00  0.00     0.029 A 
ATOM     47  N   UNL A   1      38.636  31.256  31.110  1.00  0.00    -0.354 N 
ATOM     48  N   UNL A   1      42.963  31.386  31.688  1.00  0.00    -0.248 NA
ATOM     49  C   UNL A   1      42.491  31.704  29.424  1.00  0.00     0.031 C 
ATOM     50  C   UNL A   1      38.342  29.956  32.811  1.00  0.00     0.029 A 
ATOM     51  C   UNL A   1      39.296  30.772  32.209  1.00  0.00     0.049 A 
ATOM     52  H   UNL A   1      38.756  32.145  30.708  1.00  0.00     0.167 HD
ATOM     53  C   UNL A   1      41.574  31.457  31.523  1.00  0.00     0.074 A 
ATOM     54  C   UNL A   1      41.358  31.707  30.111  1.00  0.00     0.031 C 
ATOM     55  C   UNL A   1      40.674  31.106  32.490  1.00  0.00     0.034 A 
BRANCH  42  56
ATOM     56  C   UNL A   1      36.417  30.886  28.640  1.00  0.00     0.023 A 
ATOM     57  C   UNL A   1      36.283  32.256  28.937  1.00  0.00     0.012 A 
ATOM     58  C   UNL A   1      35.383  30.225  27.951  1.00  0.00     0.148 A 
ATOM     59  C   UNL A   1      35.126  32.953  28.604  1.00  0.00     0.002 A 
ATOM     60  C   UNL A   1      34.227  30.930  27.614  1.00  0.00     0.091 A 
ATOM     61  F   UNL A   1      35.523  28.920  27.678  1.00  0.00    -0.205 F 
ATOM     62  C   UNL A   1      34.094  32.289  27.951  1.00  0.00     0.022 A 
BRANCH  60  63
ATOM     63  S   UNL A   1      32.821  30.185  26.774  1.00  0.00     0.127 S 
ATOM     64  O   UNL A   1      33.408  29.788  25.494  1.00  0.00    -0.237 OA
ATOM     65  O   UNL A   1      32.491  29.069  27.663  1.00  0.00    -0.237 OA
ATOM     66  O   UNL A   1      31.801  31.222  26.704  1.00  0.00    -0.744 OA
ENDBRANCH  60  63
ENDBRANCH  42  56
BRANCH  43  67
ATOM     67  C   UNL A   1      45.551  30.957  28.886  1.00  0.00     0.023 A 
ATOM     68  C   UNL A   1      45.186  32.142  28.199  1.00  0.00     0.012 A 
ATOM     69  C   UNL A   1      46.741  30.321  28.485  1.00  0.00     0.148 A 
ATOM     70  C   UNL A   1      46.022  32.736  27.252  1.00  0.00     0.002 A 
ATOM     71  C   UNL A   1      47.599  30.941  27.573  1.00  0.00     0.091 A 
ATOM     72  F   UNL A   1      47.054  29.128  29.005  1.00  0.00    -0.205 F 
ATOM     73  C   UNL A   1      47.246  32.152  26.962  1.00  0.00     0.022 A 
BRANCH  71  74
ATOM     74  S   UNL A   1      49.228  30.283  27.180  1.00  0.00     0.127 S 
ATOM     75  O   UNL A   1      49.779  29.998  28.504  1.00  0.00    -0.237 OA
ATOM     76  O   UNL A   1      48.878  29.102  26.393  1.00  0.00    -0.237 OA
ATOM     77  O   UNL A   1      49.914  31.343  26.454  1.00  0.00    -0.744 OA
ENDBRANCH  71  74
ENDBRANCH  43  67
BRANCH  55  78
ATOM     78  C   UNL A   1      41.216  30.909  33.867  1.00  0.00     0.023 A 
ATOM     79  C   UNL A   1      41.264  32.038  34.706  1.00  0.00     0.012 A 
ATOM     80  C   UNL A   1      41.609  29.655  34.376  1.00  0.00     0.148 A 
ATOM     81  C   UNL A   1      41.676  31.926  36.031  1.00  0.00     0.002 A 
ATOM     82  C   UNL A   1      42.017  29.550  35.703  1.00  0.00     0.091 A 
ATOM     83  F   UNL A   1      41.538  28.576  33.581  1.00  0.00    -0.205 F 
ATOM     84  C   UNL A   1      42.047  30.683  36.531  1.00  0.00     0.022 A 
BRANCH  82  85
ATOM     85  S   UNL A   1      42.536  27.988  36.423  1.00  0.00     0.127 S 
ATOM     86  O   UNL A   1      43.478  28.408  37.464  1.00  0.00    -0.237 OA
ATOM     87  O   UNL A   1      41.276  27.455  36.938  1.00  0.00    -0.237 OA
ATOM     88  O   UNL A   1      43.154  27.247  35.333  1.00  0.00    -0.744 OA
ENDBRANCH  82  85
ENDBRANCH  55  78
ENDBRANCH  29  30
ENDBRANCH  22  24
ENDBRANCH  21  22
ENDBRANCH   1  21
TORSDOF 16
ENDMDL
MODEL 2
REMARK VINA RESULT:     -10.9      2.935     10.962
REMARK SMILES Cc1sc2[nH]c(SCC(=O)OCCOC(=O)c3ccc(-c4c5nc(c(-c6cccc(S(=O)(=O)[O-])c6F)c6ccc([nH]6)c(-c6cccc(S(=O)(=O)[O-])c6F)c6nc(c(-c7cccc(S(=O)(=O)[O-])c7F)c7ccc4[nH]7)C=C6)C=C5)cc3)nc(=O)c2c1C
REMARK SMILES IDX 13 1 12 2 11 3 9 4 10 5 8 6 7 7 6 8 1 9 2 10 3 11 84 12 4 13
REMARK SMILES IDX 83 14 85 15 5 16 81 17 80 19 82 20 14 21 15 22 16 23 17 24
REMARK SMILES IDX 18 25 79 26 19 27 78 28 20 29 21 30 22 31 72 32 23 33 77 34
REMARK SMILES IDX 71 35 73 36 24 37 76 38 70 39 69 40 25 42 57 43 37 44 56 45
REMARK SMILES IDX 38 46 41 47 55 48 74 49 39 50 40 51 54 53 75 54 42 55 26 56
REMARK SMILES IDX 27 57 35 58 28 59 30 60 36 61 29 62 31 63 32 64 33 65 34 66
REMARK SMILES IDX 58 67 59 68 67 69 60 70 62 71 68 72 61 73 63 74 64 75 65 76
REMARK SMILES IDX 66 77 43 78 44 79 52 80 45 81 47 82 53 83 46 84 48 85 49 86
REMARK SMILES IDX 50 87 51 88
REMARK H PARENT 5 18 73 41 41 52
REMARK Flexibility Score: inf
ROOT
ATOM      1  C   UNL A   1      33.886  33.058  28.471  1.00  0.00     0.275 C 
ENDROOT
BRANCH   1   2
ATOM      2  C   UNL A   1      33.470  34.524  28.643  1.00  0.00     0.274 C 
BRANCH   2   3
ATOM      3  O   UNL A   1      32.649  34.748  29.816  1.00  0.00    -0.461 OA
BRANCH   3   4
ATOM      4  C   UNL A   1      33.036  35.769  30.624  1.00  0.00     0.316 C 
ATOM      5  O   UNL A   1      32.540  36.895  30.568  1.00  0.00    -0.251 OA
BRANCH   4   6
ATOM      6  C   UNL A   1      34.116  35.457  31.642  1.00  0.00     0.200 C 
BRANCH   6   7
ATOM      7  S   UNL A   1      33.954  33.940  32.609  1.00  0.00    -0.076 SA
BRANCH   7   8
ATOM      8  C   UNL A   1      35.616  33.602  33.080  1.00  0.00     0.170 A 
ATOM      9  C   UNL A   1      41.727  33.526  32.197  1.00  0.00     0.057 C 
ATOM     10  C   UNL A   1      40.259  33.443  32.457  1.00  0.00     0.007 A 
ATOM     11  S   UNL A   1      39.162  34.392  31.536  1.00  0.00    -0.122 S 
ATOM     12  C   UNL A   1      39.616  32.675  33.416  1.00  0.00    -0.022 A 
ATOM     13  C   UNL A   1      37.848  33.849  32.445  1.00  0.00     0.108 A 
ATOM     14  C   UNL A   1      38.209  32.983  33.441  1.00  0.00     0.080 A 
ATOM     15  C   UNL A   1      40.284  31.686  34.326  1.00  0.00     0.046 C 
ATOM     16  N   UNL A   1      36.553  34.166  32.260  1.00  0.00    -0.326 N 
ATOM     17  C   UNL A   1      37.184  32.486  34.351  1.00  0.00     0.282 A 
ATOM     18  H   UNL A   1      36.286  34.792  31.549  1.00  0.00     0.169 HD
ATOM     19  N   UNL A   1      35.863  32.857  34.103  1.00  0.00    -0.185 NA
ATOM     20  O   UNL A   1      37.494  31.748  35.268  1.00  0.00    -0.267 OA
ENDBRANCH   7   8
ENDBRANCH   6   7
ENDBRANCH   4   6
ENDBRANCH   3   4
ENDBRANCH   2   3
ENDBRANCH   1   2
BRANCH   1  21
ATOM     21  O   UNL A   1      35.133  32.949  27.755  1.00  0.00    -0.458 OA
BRANCH  21  22
ATOM     22  C   UNL A   1      36.180  32.996  28.611  1.00  0.00     0.338 C 
ATOM     23  O   UNL A   1      36.705  34.030  28.997  1.00  0.00    -0.246 OA
BRANCH  22  24
ATOM     24  C   UNL A   1      36.681  31.680  29.044  1.00  0.00     0.060 A 
ATOM     25  C   UNL A   1      36.661  31.299  30.392  1.00  0.00     0.016 A 
ATOM     26  C   UNL A   1      37.582  31.091  28.167  1.00  0.00     0.016 A 
ATOM     27  C   UNL A   1      37.670  30.458  30.893  1.00  0.00     0.010 A 
ATOM     28  C   UNL A   1      38.577  30.260  28.672  1.00  0.00     0.010 A 
ATOM     29  C   UNL A   1      38.683  29.980  30.048  1.00  0.00    -0.014 A 
BRANCH  29  30
ATOM     30  C   UNL A   1      39.810  29.148  30.578  1.00  0.00     0.031 A 
ATOM     31  C   UNL A   1      39.943  27.818  29.868  1.00  0.00     0.074 A 
ATOM     32  C   UNL A   1      40.958  29.735  30.995  1.00  0.00     0.049 A 
ATOM     33  N   UNL A   1      40.628  27.550  28.794  1.00  0.00    -0.248 NA
ATOM     34  C   UNL A   1      38.981  26.769  30.230  1.00  0.00     0.031 C 
ATOM     35  C   UNL A   1      41.891  30.431  30.103  1.00  0.00     0.029 A 
ATOM     36  N   UNL A   1      41.734  29.392  32.099  1.00  0.00    -0.354 N 
ATOM     37  C   UNL A   1      40.128  26.354  28.284  1.00  0.00     0.074 A 
ATOM     38  C   UNL A   1      39.107  25.915  29.208  1.00  0.00     0.031 C 
ATOM     39  C   UNL A   1      43.132  30.362  30.624  1.00  0.00     0.029 A 
ATOM     40  C   UNL A   1      43.093  29.632  31.893  1.00  0.00     0.049 A 
ATOM     41  H   UNL A   1      41.365  29.020  32.932  1.00  0.00     0.167 HD
ATOM     42  C   UNL A   1      40.549  25.768  27.129  1.00  0.00     0.034 A 
ATOM     43  C   UNL A   1      44.102  28.889  32.437  1.00  0.00     0.034 A 
ATOM     44  C   UNL A   1      41.675  26.382  26.494  1.00  0.00     0.049 A 
ATOM     45  C   UNL A   1      44.424  27.943  31.307  1.00  0.00     0.074 A 
ATOM     46  C   UNL A   1      41.925  27.200  25.415  1.00  0.00     0.029 A 
ATOM     47  N   UNL A   1      42.908  26.166  27.062  1.00  0.00    -0.354 N 
ATOM     48  N   UNL A   1      45.124  28.195  30.232  1.00  0.00    -0.248 NA
ATOM     49  C   UNL A   1      43.545  26.776  31.201  1.00  0.00     0.031 C 
ATOM     50  C   UNL A   1      43.205  27.791  25.669  1.00  0.00     0.029 A 
ATOM     51  C   UNL A   1      43.653  27.304  26.895  1.00  0.00     0.049 A 
ATOM     52  H   UNL A   1      43.203  25.342  27.510  1.00  0.00     0.167 HD
ATOM     53  C   UNL A   1      44.494  27.464  29.217  1.00  0.00     0.074 A 
ATOM     54  C   UNL A   1      43.571  26.571  29.892  1.00  0.00     0.031 C 
ATOM     55  C   UNL A   1      44.599  27.760  27.887  1.00  0.00     0.034 A 
BRANCH  42  56
ATOM     56  C   UNL A   1      40.075  24.443  26.651  1.00  0.00     0.023 A 
ATOM     57  C   UNL A   1      38.742  24.375  26.201  1.00  0.00     0.012 A 
ATOM     58  C   UNL A   1      40.815  23.255  26.801  1.00  0.00     0.148 A 
ATOM     59  C   UNL A   1      38.131  23.151  25.950  1.00  0.00     0.002 A 
ATOM     60  C   UNL A   1      40.198  22.030  26.542  1.00  0.00     0.091 A 
ATOM     61  F   UNL A   1      42.081  23.335  27.233  1.00  0.00    -0.205 F 
ATOM     62  C   UNL A   1      38.855  21.978  26.129  1.00  0.00     0.022 A 
BRANCH  60  63
ATOM     63  S   UNL A   1      41.025  20.445  26.741  1.00  0.00     0.127 S 
ATOM     64  O   UNL A   1      40.930  20.232  28.185  1.00  0.00    -0.237 OA
ATOM     65  O   UNL A   1      40.180  19.557  25.939  1.00  0.00    -0.237 OA
ATOM     66  O   UNL A   1      42.372  20.628  26.219  1.00  0.00    -0.744 OA
ENDBRANCH  60  63
ENDBRANCH  42  56
BRANCH  43  67
ATOM     67  C   UNL A   1      43.953  28.476  33.875  1.00  0.00     0.023 A 
ATOM     68  C   UNL A   1      44.501  29.359  34.839  1.00  0.00     0.012 A 
ATOM     69  C   UNL A   1      43.304  27.322  34.356  1.00  0.00     0.148 A 
ATOM     70  C   UNL A   1      44.304  29.177  36.209  1.00  0.00     0.002 A 
ATOM     71  C   UNL A   1      43.067  27.165  35.724  1.00  0.00     0.091 A 
ATOM     72  F   UNL A   1      42.896  26.390  33.487  1.00  0.00    -0.205 F 
ATOM     73  C   UNL A   1      43.558  28.095  36.651  1.00  0.00     0.022 A 
BRANCH  71  74
ATOM     74  S   UNL A   1      42.063  25.822  36.380  1.00  0.00     0.127 S 
ATOM     75  O   UNL A   1      41.962  26.170  37.797  1.00  0.00    -0.237 OA
ATOM     76  O   UNL A   1      40.828  25.988  35.617  1.00  0.00    -0.237 OA
ATOM     77  O   UNL A   1      42.814  24.604  36.109  1.00  0.00    -0.744 OA
ENDBRANCH  71  74
ENDBRANCH  43  67
BRANCH  55  78
ATOM     78  C   UNL A   1      45.660  28.737  27.503  1.00  0.00     0.023 A 
ATOM     79  C   UNL A   1      45.328  30.103  27.566  1.00  0.00     0.012 A 
ATOM     80  C   UNL A   1      46.973  28.361  27.154  1.00  0.00     0.148 A 
ATOM     81  C   UNL A   1      46.283  31.082  27.306  1.00  0.00     0.002 A 
ATOM     82  C   UNL A   1      47.923  29.346  26.898  1.00  0.00     0.091 A 
ATOM     83  F   UNL A   1      47.292  27.058  27.119  1.00  0.00    -0.205 F 
ATOM     84  C   UNL A   1      47.581  30.705  26.977  1.00  0.00     0.022 A 
BRANCH  82  85
ATOM     85  S   UNL A   1      49.615  28.947  26.443  1.00  0.00     0.127 S 
ATOM     86  O   UNL A   1      50.067  28.121  27.566  1.00  0.00    -0.237 OA
ATOM     87  O   UNL A   1      49.429  28.207  25.196  1.00  0.00    -0.237 OA
ATOM     88  O   UNL A   1      50.300  30.227  26.339  1.00  0.00    -0.744 OA
ENDBRANCH  82  85
ENDBRANCH  55  78
ENDBRANCH  29  30
ENDBRANCH  22  24
ENDBRANCH  21  22
ENDBRANCH   1  21
TORSDOF 16
ENDMDL
MODEL 3
REMARK VINA RESULT:     -10.9      7.534     10.887
REMARK SMILES Cc1sc2[nH]c(SCC(=O)OCCOC(=O)c3ccc(-c4c5nc(c(-c6cccc(S(=O)(=O)[O-])c6F)c6ccc([nH]6)c(-c6cccc(S(=O)(=O)[O-])c6F)c6nc(c(-c7cccc(S(=O)(=O)[O-])c7F)c7ccc4[nH]7)C=C6)C=C5)cc3)nc(=O)c2c1C
REMARK SMILES IDX 13 1 12 2 11 3 9 4 10 5 8 6 7 7 6 8 1 9 2 10 3 11 84 12 4 13
REMARK SMILES IDX 83 14 85 15 5 16 81 17 80 19 82 20 14 21 15 22 16 23 17 24
REMARK SMILES IDX 18 25 79 26 19 27 78 28 20 29 21 30 22 31 72 32 23 33 77 34
REMARK SMILES IDX 71 35 73 36 24 37 76 38 70 39 69 40 25 42 57 43 37 44 56 45
REMARK SMILES IDX 38 46 41 47 55 48 74 49 39 50 40 51 54 53 75 54 42 55 26 56
REMARK SMILES IDX 27 57 35 58 28 59 30 60 36 61 29 62 31 63 32 64 33 65 34 66
REMARK SMILES IDX 58 67 59 68 67 69 60 70 62 71 68 72 61 73 63 74 64 75 65 76
REMARK SMILES IDX 66 77 43 78 44 79 52 80 45 81 47 82 53 83 46 84 48 85 49 86
REMARK SMILES IDX 50 87 51 88
REMARK H PARENT 5 18 73 41 41 52
REMARK Flexibility Score: inf
ROOT
ATOM      1  C   UNL A   1      45.985  20.779  36.773  1.00  0.00     0.275 C 
ENDROOT
BRANCH   1   2
ATOM      2  C   UNL A   1      46.050  19.249  36.690  1.00  0.00     0.274 C 
BRANCH   2   3
ATOM      3  O   UNL A   1      45.195  18.591  37.658  1.00  0.00    -0.461 OA
BRANCH   3   4
ATOM      4  C   UNL A   1      45.830  18.005  38.706  1.00  0.00     0.316 C 
ATOM      5  O   UNL A   1      46.907  18.404  39.149  1.00  0.00    -0.251 OA
BRANCH   4   6
ATOM      6  C   UNL A   1      45.132  16.819  39.346  1.00  0.00     0.200 C 
BRANCH   6   7
ATOM      7  S   UNL A   1      43.454  16.431  38.801  1.00  0.00    -0.076 SA
BRANCH   7   8
ATOM      8  C   UNL A   1      42.874  15.358  40.070  1.00  0.00     0.170 A 
ATOM      9  C   UNL A   1      42.767  13.119  45.824  1.00  0.00     0.057 C 
ATOM     10  C   UNL A   1      42.783  13.555  44.396  1.00  0.00     0.007 A 
ATOM     11  S   UNL A   1      43.484  15.062  43.959  1.00  0.00    -0.122 S 
ATOM     12  C   UNL A   1      42.256  12.881  43.304  1.00  0.00    -0.022 A 
ATOM     13  C   UNL A   1      43.031  14.864  42.345  1.00  0.00     0.108 A 
ATOM     14  C   UNL A   1      42.347  13.699  42.122  1.00  0.00     0.080 A 
ATOM     15  C   UNL A   1      41.647  11.511  43.342  1.00  0.00     0.046 C 
ATOM     16  N   UNL A   1      43.296  15.700  41.324  1.00  0.00    -0.326 N 
ATOM     17  C   UNL A   1      41.833  13.428  40.785  1.00  0.00     0.282 A 
ATOM     18  H   UNL A   1      43.783  16.541  41.478  1.00  0.00     0.169 HD
ATOM     19  N   UNL A   1      42.142  14.339  39.775  1.00  0.00    -0.185 NA
ATOM     20  O   UNL A   1      41.186  12.417  40.578  1.00  0.00    -0.267 OA
ENDBRANCH   7   8
ENDBRANCH   6   7
ENDBRANCH   4   6
ENDBRANCH   3   4
ENDBRANCH   2   3
ENDBRANCH   1   2
BRANCH   1  21
ATOM     21  O   UNL A   1      45.377  21.341  35.593  1.00  0.00    -0.458 OA
BRANCH  21  22
ATOM     22  C   UNL A   1      46.271  22.089  34.905  1.00  0.00     0.338 C 
ATOM     23  O   UNL A   1      47.440  21.776  34.737  1.00  0.00    -0.246 OA
BRANCH  22  24
ATOM     24  C   UNL A   1      45.738  23.356  34.377  1.00  0.00     0.060 A 
ATOM     25  C   UNL A   1      44.683  23.376  33.454  1.00  0.00     0.016 A 
ATOM     26  C   UNL A   1      46.620  24.425  34.450  1.00  0.00     0.016 A 
ATOM     27  C   UNL A   1      44.627  24.390  32.482  1.00  0.00     0.010 A 
ATOM     28  C   UNL A   1      46.557  25.424  33.483  1.00  0.00     0.010 A 
ATOM     29  C   UNL A   1      45.606  25.394  32.445  1.00  0.00    -0.014 A 
BRANCH  29  30
ATOM     30  C   UNL A   1      45.609  26.437  31.371  1.00  0.00     0.031 A 
ATOM     31  C   UNL A   1      45.497  25.849  29.980  1.00  0.00     0.074 A 
ATOM     32  C   UNL A   1      45.010  27.636  31.577  1.00  0.00     0.049 A 
ATOM     33  N   UNL A   1      44.413  25.574  29.314  1.00  0.00    -0.248 NA
ATOM     34  C   UNL A   1      46.708  25.243  29.413  1.00  0.00     0.031 C 
ATOM     35  C   UNL A   1      43.562  27.809  31.742  1.00  0.00     0.029 A 
ATOM     36  N   UNL A   1      45.458  28.890  31.171  1.00  0.00    -0.354 N 
ATOM     37  C   UNL A   1      44.775  24.687  28.303  1.00  0.00     0.074 A 
ATOM     38  C   UNL A   1      46.206  24.511  28.412  1.00  0.00     0.031 C 
ATOM     39  C   UNL A   1      43.217  29.044  31.329  1.00  0.00     0.029 A 
ATOM     40  C   UNL A   1      44.411  29.764  30.881  1.00  0.00     0.049 A 
ATOM     41  H   UNL A   1      46.410  29.133  31.097  1.00  0.00     0.167 HD
ATOM     42  C   UNL A   1      43.906  24.118  27.423  1.00  0.00     0.034 A 
ATOM     43  C   UNL A   1      44.462  30.746  29.931  1.00  0.00     0.034 A 
ATOM     44  C   UNL A   1      42.557  24.591  27.487  1.00  0.00     0.049 A 
ATOM     45  C   UNL A   1      43.799  30.068  28.759  1.00  0.00     0.074 A 
ATOM     46  C   UNL A   1      41.340  24.164  27.973  1.00  0.00     0.029 A 
ATOM     47  N   UNL A   1      42.302  25.830  26.950  1.00  0.00    -0.354 N 
ATOM     48  N   UNL A   1      42.519  29.881  28.566  1.00  0.00    -0.248 NA
ATOM     49  C   UNL A   1      44.667  29.186  27.976  1.00  0.00     0.031 C 
ATOM     50  C   UNL A   1      40.545  25.347  28.110  1.00  0.00     0.029 A 
ATOM     51  C   UNL A   1      41.329  26.426  27.708  1.00  0.00     0.049 A 
ATOM     52  H   UNL A   1      42.741  26.220  26.161  1.00  0.00     0.167 HD
ATOM     53  C   UNL A   1      42.432  28.629  27.945  1.00  0.00     0.074 A 
ATOM     54  C   UNL A   1      43.788  28.286  27.560  1.00  0.00     0.031 C 
ATOM     55  C   UNL A   1      41.310  27.848  27.960  1.00  0.00     0.034 A 
BRANCH  42  56
ATOM     56  C   UNL A   1      44.321  23.251  26.290  1.00  0.00     0.023 A 
ATOM     57  C   UNL A   1      44.826  23.903  25.149  1.00  0.00     0.012 A 
ATOM     58  C   UNL A   1      44.064  21.868  26.238  1.00  0.00     0.148 A 
ATOM     59  C   UNL A   1      45.027  23.212  23.958  1.00  0.00     0.002 A 
ATOM     60  C   UNL A   1      44.273  21.179  25.043  1.00  0.00     0.091 A 
ATOM     61  F   UNL A   1      43.581  21.261  27.332  1.00  0.00    -0.205 F 
ATOM     62  C   UNL A   1      44.742  21.853  23.902  1.00  0.00     0.022 A 
BRANCH  60  63
ATOM     63  S   UNL A   1      43.938  19.423  24.841  1.00  0.00     0.127 S 
ATOM     64  O   UNL A   1      42.511  19.347  25.153  1.00  0.00    -0.237 OA
ATOM     65  O   UNL A   1      44.265  19.210  23.430  1.00  0.00    -0.237 OA
ATOM     66  O   UNL A   1      44.823  18.737  25.773  1.00  0.00    -0.744 OA
ENDBRANCH  60  63
ENDBRANCH  42  56
BRANCH  43  67
ATOM     67  C   UNL A   1      45.730  31.551  29.843  1.00  0.00     0.023 A 
ATOM     68  C   UNL A   1      46.580  31.504  30.976  1.00  0.00     0.012 A 
ATOM     69  C   UNL A   1      46.165  32.316  28.744  1.00  0.00     0.148 A 
ATOM     70  C   UNL A   1      47.852  32.079  30.973  1.00  0.00     0.002 A 
ATOM     71  C   UNL A   1      47.455  32.851  28.724  1.00  0.00     0.091 A 
ATOM     72  F   UNL A   1      45.337  32.507  27.709  1.00  0.00    -0.205 F 
ATOM     73  C   UNL A   1      48.304  32.726  29.833  1.00  0.00     0.022 A 
BRANCH  71  74
ATOM     74  S   UNL A   1      48.142  33.658  27.268  1.00  0.00     0.127 S 
ATOM     75  O   UNL A   1      47.928  32.656  26.224  1.00  0.00    -0.237 OA
ATOM     76  O   UNL A   1      47.291  34.842  27.168  1.00  0.00    -0.237 OA
ATOM     77  O   UNL A   1      49.541  33.912  27.585  1.00  0.00    -0.744 OA
ENDBRANCH  71  74
ENDBRANCH  43  67
BRANCH  55  78
ATOM     78  C   UNL A   1      40.049  28.500  28.423  1.00  0.00     0.023 A 
ATOM     79  C   UNL A   1      39.235  29.094  27.439  1.00  0.00     0.012 A 
ATOM     80  C   UNL A   1      39.613  28.486  29.762  1.00  0.00     0.148 A 
ATOM     81  C   UNL A   1      38.003  29.648  27.773  1.00  0.00     0.002 A 
ATOM     82  C   UNL A   1      38.378  29.041  30.088  1.00  0.00     0.091 A 
ATOM     83  F   UNL A   1      40.380  27.898  30.693  1.00  0.00    -0.205 F 
ATOM     84  C   UNL A   1      37.572  29.618  29.095  1.00  0.00     0.022 A 
BRANCH  82  85
ATOM     85  S   UNL A   1      37.756  29.066  31.774  1.00  0.00     0.127 S 
ATOM     86  O   UNL A   1      38.507  30.168  32.381  1.00  0.00    -0.237 OA
ATOM     87  O   UNL A   1      36.337  29.351  31.571  1.00  0.00    -0.237 OA
ATOM     88  O   UNL A   1      38.080  27.758  32.325  1.00  0.00    -0.744 OA
ENDBRANCH  82  85
ENDBRANCH  55  78
ENDBRANCH  29  30
ENDBRANCH  22  24
ENDBRANCH  21  22
ENDBRANCH   1  21
TORSDOF 16
ENDMDL
