MODEL 1
REMARK VINA RESULT:     -11.4      0.000      0.000
REMARK SMILES COc1ccccc1Nc1snc(C)c1C(=O)OCCOC(=O)c1ccc(-c2c3nc(c(-c4cccc(S(=O)(=O)[O-])c4F)c4ccc([nH]4)c(-c4cccc(S(=O)(=O)[O-])c4F)c4nc(c(-c5cccc(S(=O)(=O)[O-])c5F)c5ccc2[nH]5)C=C4)C=C3)cc1
REMARK SMILES IDX 19 1 18 2 16 3 17 4 15 5 10 6 11 7 12 8 13 9 14 10 9 11 8 13
REMARK SMILES IDX 3 14 4 15 5 16 7 17 6 18 2 19 1 20 20 21 21 22 22 23 23 24
REMARK SMILES IDX 24 25 25 26 86 27 26 28 85 29 27 30 28 31 29 32 79 33 30 34
REMARK SMILES IDX 84 35 78 36 80 37 31 38 83 39 77 40 76 41 32 43 64 44 44 45
REMARK SMILES IDX 63 46 45 47 48 48 62 49 81 50 46 51 47 52 61 54 82 55 49 56
REMARK SMILES IDX 33 57 34 58 42 59 35 60 37 61 43 62 36 63 38 64 39 65 40 66
REMARK SMILES IDX 41 67 65 68 66 69 74 70 67 71 69 72 75 73 68 74 70 75 71 76
REMARK SMILES IDX 72 77 73 78 50 79 51 80 59 81 52 82 54 83 60 84 53 85 55 86
REMARK SMILES IDX 56 87 57 88 58 89
REMARK H PARENT 9 12 80 42 48 53
REMARK Flexibility Score: inf
ROOT
ATOM      1  C   UNL A   1      36.177  20.653  25.059  1.00  0.00     0.275 C 
ENDROOT
BRANCH   1   2
ATOM      2  O   UNL A   1      35.462  21.709  25.714  1.00  0.00    -0.458 OA
BRANCH   2   3
ATOM      3  C   UNL A   1      34.708  22.526  24.921  1.00  0.00     0.343 C 
ATOM      4  O   UNL A   1      35.050  22.904  23.801  1.00  0.00    -0.246 OA
BRANCH   3   5
ATOM      5  C   UNL A   1      33.436  22.896  25.522  1.00  0.00     0.117 A 
ATOM      6  C   UNL A   1      32.387  22.023  25.809  1.00  0.00     0.128 A 
ATOM      7  S   UNL A   1      31.053  22.974  26.340  1.00  0.00    -0.017 S 
ATOM      8  N   UNL A   1      31.848  24.414  26.389  1.00  0.00    -0.195 NA
ATOM      9  C   UNL A   1      33.076  24.248  25.894  1.00  0.00     0.068 A 
ATOM     10  C   UNL A   1      33.925  25.470  25.760  1.00  0.00     0.069 C 
BRANCH   6  11
ATOM     11  N   UNL A   1      32.265  20.671  25.722  1.00  0.00    -0.342 N 
ATOM     12  H   UNL A   1      32.084  20.200  26.568  1.00  0.00     0.168 HD
BRANCH  11  13
ATOM     13  C   UNL A   1      32.363  19.860  24.572  1.00  0.00     0.082 A 
ATOM     14  C   UNL A   1      32.549  18.471  24.698  1.00  0.00     0.142 A 
ATOM     15  C   UNL A   1      32.596  17.646  23.570  1.00  0.00     0.048 A 
ATOM     16  C   UNL A   1      32.419  18.190  22.298  1.00  0.00     0.004 A 
ATOM     17  C   UNL A   1      32.220  20.385  23.279  1.00  0.00     0.030 A 
ATOM     18  C   UNL A   1      32.233  19.561  22.152  1.00  0.00     0.002 A 
BRANCH  14  19
ATOM     19  O   UNL A   1      32.798  17.881  25.915  1.00  0.00    -0.495 OA
ATOM     20  C   UNL A   1      32.982  16.470  25.791  1.00  0.00     0.278 C 
ENDBRANCH  14  19
ENDBRANCH  11  13
ENDBRANCH   6  11
ENDBRANCH   3   5
ENDBRANCH   2   3
ENDBRANCH   1   2
BRANCH   1  21
ATOM     21  C   UNL A   1      37.659  20.983  24.997  1.00  0.00     0.275 C 
BRANCH  21  22
ATOM     22  O   UNL A   1      38.063  21.866  26.046  1.00  0.00    -0.458 OA
BRANCH  22  23
ATOM     23  C   UNL A   1      39.371  21.771  26.378  1.00  0.00     0.338 C 
ATOM     24  O   UNL A   1      40.016  20.748  26.537  1.00  0.00    -0.246 OA
BRANCH  23  25
ATOM     25  C   UNL A   1      39.879  23.093  26.758  1.00  0.00     0.060 A 
ATOM     26  C   UNL A   1      41.001  23.132  27.587  1.00  0.00     0.016 A 
ATOM     27  C   UNL A   1      39.132  24.249  26.480  1.00  0.00     0.016 A 
ATOM     28  C   UNL A   1      41.312  24.321  28.215  1.00  0.00     0.010 A 
ATOM     29  C   UNL A   1      39.455  25.440  27.101  1.00  0.00     0.010 A 
ATOM     30  C   UNL A   1      40.516  25.462  27.999  1.00  0.00    -0.014 A 
BRANCH  30  31
ATOM     31  C   UNL A   1      40.993  26.718  28.559  1.00  0.00     0.031 A 
ATOM     32  C   UNL A   1      42.322  27.084  28.012  1.00  0.00     0.074 A 
ATOM     33  C   UNL A   1      40.315  27.510  29.415  1.00  0.00     0.049 A 
ATOM     34  N   UNL A   1      43.442  27.060  28.652  1.00  0.00    -0.248 NA
ATOM     35  C   UNL A   1      42.464  27.263  26.557  1.00  0.00     0.031 C 
ATOM     36  C   UNL A   1      38.922  27.385  29.845  1.00  0.00     0.029 A 
ATOM     37  N   UNL A   1      40.709  28.680  30.000  1.00  0.00    -0.354 N 
ATOM     38  C   UNL A   1      44.394  27.495  27.738  1.00  0.00     0.074 A 
ATOM     39  C   UNL A   1      43.788  27.383  26.439  1.00  0.00     0.031 C 
ATOM     40  C   UNL A   1      38.522  28.554  30.395  1.00  0.00     0.029 A 
ATOM     41  C   UNL A   1      39.656  29.462  30.469  1.00  0.00     0.049 A 
ATOM     42  H   UNL A   1      41.653  28.947  30.081  1.00  0.00     0.167 HD
ATOM     43  C   UNL A   1      45.469  28.206  28.172  1.00  0.00     0.034 A 
ATOM     44  C   UNL A   1      39.698  30.777  30.815  1.00  0.00     0.034 A 
ATOM     45  C   UNL A   1      45.704  27.991  29.581  1.00  0.00     0.049 A 
ATOM     46  C   UNL A   1      41.107  31.103  31.136  1.00  0.00     0.074 A 
ATOM     47  C   UNL A   1      45.860  26.873  30.381  1.00  0.00     0.029 A 
ATOM     48  N   UNL A   1      45.386  29.018  30.436  1.00  0.00    -0.354 N 
ATOM     49  N   UNL A   1      41.728  30.626  32.178  1.00  0.00    -0.248 NA
ATOM     50  C   UNL A   1      41.955  31.584  30.058  1.00  0.00     0.031 C 
ATOM     51  C   UNL A   1      45.146  27.176  31.577  1.00  0.00     0.029 A 
ATOM     52  C   UNL A   1      44.680  28.487  31.478  1.00  0.00     0.049 A 
ATOM     53  H   UNL A   1      45.624  29.967  30.318  1.00  0.00     0.167 HD
ATOM     54  C   UNL A   1      42.977  30.277  31.684  1.00  0.00     0.074 A 
ATOM     55  C   UNL A   1      43.095  30.980  30.406  1.00  0.00     0.031 C 
ATOM     56  C   UNL A   1      43.666  29.218  32.200  1.00  0.00     0.034 A 
BRANCH  43  57
ATOM     57  C   UNL A   1      45.999  29.429  27.454  1.00  0.00     0.023 A 
ATOM     58  C   UNL A   1      47.397  29.628  27.483  1.00  0.00     0.012 A 
ATOM     59  C   UNL A   1      45.205  30.527  27.043  1.00  0.00     0.148 A 
ATOM     60  C   UNL A   1      47.964  30.876  27.208  1.00  0.00     0.002 A 
ATOM     61  C   UNL A   1      45.779  31.741  26.692  1.00  0.00     0.091 A 
ATOM     62  F   UNL A   1      43.875  30.464  27.110  1.00  0.00    -0.205 F 
ATOM     63  C   UNL A   1      47.155  31.934  26.812  1.00  0.00     0.022 A 
BRANCH  61  64
ATOM     64  S   UNL A   1      44.782  33.127  26.130  1.00  0.00     0.127 S 
ATOM     65  O   UNL A   1      44.177  33.577  27.380  1.00  0.00    -0.237 OA
ATOM     66  O   UNL A   1      45.803  34.015  25.575  1.00  0.00    -0.237 OA
ATOM     67  O   UNL A   1      43.862  32.582  25.138  1.00  0.00    -0.744 OA
ENDBRANCH  61  64
ENDBRANCH  43  57
BRANCH  44  68
ATOM     68  C   UNL A   1      38.677  31.844  30.644  1.00  0.00     0.023 A 
ATOM     69  C   UNL A   1      38.113  32.084  29.371  1.00  0.00     0.012 A 
ATOM     70  C   UNL A   1      38.043  32.429  31.761  1.00  0.00     0.148 A 
ATOM     71  C   UNL A   1      36.944  32.844  29.225  1.00  0.00     0.002 A 
ATOM     72  C   UNL A   1      36.890  33.194  31.611  1.00  0.00     0.091 A 
ATOM     73  F   UNL A   1      38.511  32.161  32.986  1.00  0.00    -0.205 F 
ATOM     74  C   UNL A   1      36.328  33.394  30.345  1.00  0.00     0.022 A 
BRANCH  72  75
ATOM     75  S   UNL A   1      36.038  33.912  33.022  1.00  0.00     0.127 S 
ATOM     76  O   UNL A   1      37.051  34.825  33.557  1.00  0.00    -0.237 OA
ATOM     77  O   UNL A   1      34.898  34.567  32.390  1.00  0.00    -0.237 OA
ATOM     78  O   UNL A   1      35.718  32.796  33.904  1.00  0.00    -0.744 OA
ENDBRANCH  72  75
ENDBRANCH  44  68
BRANCH  56  79
ATOM     79  C   UNL A   1      43.204  28.613  33.500  1.00  0.00     0.023 A 
ATOM     80  C   UNL A   1      42.234  27.591  33.574  1.00  0.00     0.012 A 
ATOM     81  C   UNL A   1      43.904  28.972  34.665  1.00  0.00     0.148 A 
ATOM     82  C   UNL A   1      41.958  26.958  34.790  1.00  0.00     0.002 A 
ATOM     83  C   UNL A   1      43.663  28.306  35.858  1.00  0.00     0.091 A 
ATOM     84  F   UNL A   1      44.820  29.947  34.576  1.00  0.00    -0.205 F 
ATOM     85  C   UNL A   1      42.683  27.304  35.929  1.00  0.00     0.022 A 
BRANCH  83  86
ATOM     86  S   UNL A   1      44.651  28.628  37.320  1.00  0.00     0.127 S 
ATOM     87  O   UNL A   1      44.254  27.533  38.203  1.00  0.00    -0.237 OA
ATOM     88  O   UNL A   1      46.017  28.534  36.803  1.00  0.00    -0.237 OA
ATOM     89  O   UNL A   1      44.278  29.963  37.771  1.00  0.00    -0.744 OA
ENDBRANCH  83  86
ENDBRANCH  56  79
ENDBRANCH  30  31
ENDBRANCH  23  25
ENDBRANCH  22  23
ENDBRANCH  21  22
ENDBRANCH   1  21
TORSDOF 17
ENDMDL
MODEL 2
REMARK VINA RESULT:     -11.3      5.020     11.006
REMARK SMILES COc1ccccc1Nc1snc(C)c1C(=O)OCCOC(=O)c1ccc(-c2c3nc(c(-c4cccc(S(=O)(=O)[O-])c4F)c4ccc([nH]4)c(-c4cccc(S(=O)(=O)[O-])c4F)c4nc(c(-c5cccc(S(=O)(=O)[O-])c5F)c5ccc2[nH]5)C=C4)C=C3)cc1
REMARK SMILES IDX 19 1 18 2 16 3 17 4 15 5 10 6 11 7 12 8 13 9 14 10 9 11 8 13
REMARK SMILES IDX 3 14 4 15 5 16 7 17 6 18 2 19 1 20 20 21 21 22 22 23 23 24
REMARK SMILES IDX 24 25 25 26 86 27 26 28 85 29 27 30 28 31 29 32 79 33 30 34
REMARK SMILES IDX 84 35 78 36 80 37 31 38 83 39 77 40 76 41 32 43 64 44 44 45
REMARK SMILES IDX 63 46 45 47 48 48 62 49 81 50 46 51 47 52 61 54 82 55 49 56
REMARK SMILES IDX 33 57 34 58 42 59 35 60 37 61 43 62 36 63 38 64 39 65 40 66
REMARK SMILES IDX 41 67 65 68 66 69 74 70 67 71 69 72 75 73 68 74 70 75 71 76
REMARK SMILES IDX 72 77 73 78 50 79 51 80 59 81 52 82 54 83 60 84 53 85 55 86
REMARK SMILES IDX 56 87 57 88 58 89
REMARK H PARENT 9 12 80 42 48 53
REMARK Flexibility Score: inf
ROOT
ATOM      1  C   UNL A   1      34.168  34.613  28.012  1.00  0.00     0.275 C 
ENDROOT
BRANCH   1   2
ATOM      2  O   UNL A   1      34.638  35.089  29.280  1.00  0.00    -0.458 OA
BRANCH   2   3
ATOM      3  C   UNL A   1      33.691  35.358  30.226  1.00  0.00     0.343 C 
ATOM      4  O   UNL A   1      32.503  35.554  29.974  1.00  0.00    -0.246 OA
BRANCH   3   5
ATOM      5  C   UNL A   1      34.220  35.369  31.581  1.00  0.00     0.117 A 
ATOM      6  C   UNL A   1      35.190  34.502  32.083  1.00  0.00     0.128 A 
ATOM      7  S   UNL A   1      35.336  34.810  33.771  1.00  0.00    -0.017 S 
ATOM      8  N   UNL A   1      34.348  36.126  33.815  1.00  0.00    -0.195 NA
ATOM      9  C   UNL A   1      33.791  36.289  32.613  1.00  0.00     0.068 A 
ATOM     10  C   UNL A   1      32.779  37.379  32.476  1.00  0.00     0.069 C 
BRANCH   6  11
ATOM     11  N   UNL A   1      35.947  33.532  31.503  1.00  0.00    -0.342 N 
ATOM     12  H   UNL A   1      35.453  32.830  31.021  1.00  0.00     0.168 HD
BRANCH  11  13
ATOM     13  C   UNL A   1      37.352  33.407  31.505  1.00  0.00     0.082 A 
ATOM     14  C   UNL A   1      37.973  32.384  32.247  1.00  0.00     0.142 A 
ATOM     15  C   UNL A   1      39.360  32.214  32.217  1.00  0.00     0.048 A 
ATOM     16  C   UNL A   1      40.149  33.039  31.416  1.00  0.00     0.004 A 
ATOM     17  C   UNL A   1      38.173  34.243  30.732  1.00  0.00     0.030 A 
ATOM     18  C   UNL A   1      39.555  34.056  30.675  1.00  0.00     0.002 A 
BRANCH  14  19
ATOM     19  O   UNL A   1      37.262  31.582  33.108  1.00  0.00    -0.495 OA
ATOM     20  C   UNL A   1      36.790  30.399  32.460  1.00  0.00     0.278 C 
ENDBRANCH  14  19
ENDBRANCH  11  13
ENDBRANCH   6  11
ENDBRANCH   3   5
ENDBRANCH   2   3
ENDBRANCH   1   2
BRANCH   1  21
ATOM     21  C   UNL A   1      33.687  33.176  28.137  1.00  0.00     0.275 C 
BRANCH  21  22
ATOM     22  O   UNL A   1      34.693  32.312  28.668  1.00  0.00    -0.458 OA
BRANCH  22  23
ATOM     23  C   UNL A   1      34.784  31.116  28.043  1.00  0.00     0.338 C 
ATOM     24  O   UNL A   1      33.862  30.404  27.681  1.00  0.00    -0.246 OA
BRANCH  23  25
ATOM     25  C   UNL A   1      36.177  30.660  28.054  1.00  0.00     0.060 A 
ATOM     26  C   UNL A   1      36.409  29.307  27.806  1.00  0.00     0.016 A 
ATOM     27  C   UNL A   1      37.199  31.507  28.514  1.00  0.00     0.016 A 
ATOM     28  C   UNL A   1      37.648  28.785  28.117  1.00  0.00     0.010 A 
ATOM     29  C   UNL A   1      38.442  30.983  28.812  1.00  0.00     0.010 A 
ATOM     30  C   UNL A   1      38.649  29.617  28.653  1.00  0.00    -0.014 A 
BRANCH  30  31
ATOM     31  C   UNL A   1      39.978  29.042  28.804  1.00  0.00     0.031 A 
ATOM     32  C   UNL A   1      40.363  28.938  30.233  1.00  0.00     0.074 A 
ATOM     33  C   UNL A   1      40.762  28.588  27.804  1.00  0.00     0.049 A 
ATOM     34  N   UNL A   1      41.252  29.652  30.836  1.00  0.00    -0.248 NA
ATOM     35  C   UNL A   1      39.520  28.137  31.136  1.00  0.00     0.031 C 
ATOM     36  C   UNL A   1      40.413  28.419  26.393  1.00  0.00     0.029 A 
ATOM     37  N   UNL A   1      42.022  28.067  27.869  1.00  0.00    -0.354 N 
ATOM     38  C   UNL A   1      41.269  29.185  32.145  1.00  0.00     0.074 A 
ATOM     39  C   UNL A   1      40.053  28.437  32.322  1.00  0.00     0.031 C 
ATOM     40  C   UNL A   1      41.323  27.610  25.806  1.00  0.00     0.029 A 
ATOM     41  C   UNL A   1      42.378  27.304  26.758  1.00  0.00     0.049 A 
ATOM     42  H   UNL A   1      42.625  28.214  28.633  1.00  0.00     0.167 HD
ATOM     43  C   UNL A   1      42.432  29.192  32.848  1.00  0.00     0.034 A 
ATOM     44  C   UNL A   1      43.415  26.429  26.659  1.00  0.00     0.034 A 
ATOM     45  C   UNL A   1      43.376  30.130  32.286  1.00  0.00     0.049 A 
ATOM     46  C   UNL A   1      44.409  26.805  27.690  1.00  0.00     0.074 A 
ATOM     47  C   UNL A   1      43.332  31.470  31.949  1.00  0.00     0.029 A 
ATOM     48  N   UNL A   1      44.448  29.609  31.600  1.00  0.00    -0.354 N 
ATOM     49  N   UNL A   1      45.103  27.907  27.641  1.00  0.00    -0.248 NA
ATOM     50  C   UNL A   1      44.297  26.186  29.000  1.00  0.00     0.031 C 
ATOM     51  C   UNL A   1      44.046  31.563  30.718  1.00  0.00     0.029 A 
ATOM     52  C   UNL A   1      44.564  30.301  30.427  1.00  0.00     0.049 A 
ATOM     53  H   UNL A   1      45.027  28.871  31.899  1.00  0.00     0.167 HD
ATOM     54  C   UNL A   1      45.068  28.377  28.946  1.00  0.00     0.074 A 
ATOM     55  C   UNL A   1      44.649  27.232  29.754  1.00  0.00     0.031 C 
ATOM     56  C   UNL A   1      45.081  29.715  29.212  1.00  0.00     0.034 A 
BRANCH  43  57
ATOM     57  C   UNL A   1      42.879  28.042  33.725  1.00  0.00     0.023 A 
ATOM     58  C   UNL A   1      43.699  27.062  33.122  1.00  0.00     0.012 A 
ATOM     59  C   UNL A   1      42.297  27.710  34.972  1.00  0.00     0.148 A 
ATOM     60  C   UNL A   1      43.853  25.791  33.685  1.00  0.00     0.002 A 
ATOM     61  C   UNL A   1      42.521  26.476  35.567  1.00  0.00     0.091 A 
ATOM     62  F   UNL A   1      41.412  28.525  35.546  1.00  0.00    -0.205 F 
ATOM     63  C   UNL A   1      43.265  25.498  34.908  1.00  0.00     0.022 A 
BRANCH  61  64
ATOM     64  S   UNL A   1      41.820  26.061  37.169  1.00  0.00     0.127 S 
ATOM     65  O   UNL A   1      41.431  24.669  36.967  1.00  0.00    -0.237 OA
ATOM     66  O   UNL A   1      42.968  26.266  38.052  1.00  0.00    -0.237 OA
ATOM     67  O   UNL A   1      40.727  27.002  37.384  1.00  0.00    -0.744 OA
ENDBRANCH  61  64
ENDBRANCH  43  57
BRANCH  44  68
ATOM     68  C   UNL A   1      43.510  25.138  25.929  1.00  0.00     0.023 A 
ATOM     69  C   UNL A   1      44.597  24.897  25.059  1.00  0.00     0.012 A 
ATOM     70  C   UNL A   1      42.708  24.035  26.294  1.00  0.00     0.148 A 
ATOM     71  C   UNL A   1      44.893  23.604  24.605  1.00  0.00     0.002 A 
ATOM     72  C   UNL A   1      42.997  22.755  25.831  1.00  0.00     0.091 A 
ATOM     73  F   UNL A   1      41.716  24.219  27.173  1.00  0.00    -0.205 F 
ATOM     74  C   UNL A   1      44.098  22.531  24.996  1.00  0.00     0.022 A 
BRANCH  72  75
ATOM     75  S   UNL A   1      42.018  21.327  26.319  1.00  0.00     0.127 S 
ATOM     76  O   UNL A   1      40.678  21.710  25.869  1.00  0.00    -0.237 OA
ATOM     77  O   UNL A   1      42.639  20.254  25.549  1.00  0.00    -0.237 OA
ATOM     78  O   UNL A   1      42.153  21.228  27.767  1.00  0.00    -0.744 OA
ENDBRANCH  72  75
ENDBRANCH  44  68
BRANCH  56  79
ATOM     79  C   UNL A   1      45.431  30.675  28.106  1.00  0.00     0.023 A 
ATOM     80  C   UNL A   1      44.464  31.303  27.292  1.00  0.00     0.012 A 
ATOM     81  C   UNL A   1      46.772  31.083  28.005  1.00  0.00     0.148 A 
ATOM     82  C   UNL A   1      44.835  32.301  26.386  1.00  0.00     0.002 A 
ATOM     83  C   UNL A   1      47.128  32.109  27.141  1.00  0.00     0.091 A 
ATOM     84  F   UNL A   1      47.679  30.473  28.784  1.00  0.00    -0.205 F 
ATOM     85  C   UNL A   1      46.165  32.716  26.321  1.00  0.00     0.022 A 
BRANCH  83  86
ATOM     86  S   UNL A   1      48.798  32.762  27.107  1.00  0.00     0.127 S 
ATOM     87  O   UNL A   1      49.583  31.572  26.784  1.00  0.00    -0.237 OA
ATOM     88  O   UNL A   1      48.724  33.756  26.036  1.00  0.00    -0.237 OA
ATOM     89  O   UNL A   1      49.036  33.329  28.429  1.00  0.00    -0.744 OA
ENDBRANCH  83  86
ENDBRANCH  56  79
ENDBRANCH  30  31
ENDBRANCH  23  25
ENDBRANCH  22  23
ENDBRANCH  21  22
ENDBRANCH   1  21
TORSDOF 17
ENDMDL
MODEL 3
REMARK VINA RESULT:     -11.1      1.216      2.942
REMARK SMILES COc1ccccc1Nc1snc(C)c1C(=O)OCCOC(=O)c1ccc(-c2c3nc(c(-c4cccc(S(=O)(=O)[O-])c4F)c4ccc([nH]4)c(-c4cccc(S(=O)(=O)[O-])c4F)c4nc(c(-c5cccc(S(=O)(=O)[O-])c5F)c5ccc2[nH]5)C=C4)C=C3)cc1
REMARK SMILES IDX 19 1 18 2 16 3 17 4 15 5 10 6 11 7 12 8 13 9 14 10 9 11 8 13
REMARK SMILES IDX 3 14 4 15 5 16 7 17 6 18 2 19 1 20 20 21 21 22 22 23 23 24
REMARK SMILES IDX 24 25 25 26 86 27 26 28 85 29 27 30 28 31 29 32 79 33 30 34
REMARK SMILES IDX 84 35 78 36 80 37 31 38 83 39 77 40 76 41 32 43 64 44 44 45
REMARK SMILES IDX 63 46 45 47 48 48 62 49 81 50 46 51 47 52 61 54 82 55 49 56
REMARK SMILES IDX 33 57 34 58 42 59 35 60 37 61 43 62 36 63 38 64 39 65 40 66
REMARK SMILES IDX 41 67 65 68 66 69 74 70 67 71 69 72 75 73 68 74 70 75 71 76
REMARK SMILES IDX 72 77 73 78 50 79 51 80 59 81 52 82 54 83 60 84 53 85 55 86
REMARK SMILES IDX 56 87 57 88 58 89
REMARK H PARENT 9 12 80 42 48 53
REMARK Flexibility Score: inf
ROOT
ATOM      1  C   UNL A   1      36.462  20.758  24.867  1.00  0.00     0.275 C 
ENDROOT
BRANCH   1   2
ATOM      2  O   UNL A   1      35.691  21.030  26.045  1.00  0.00    -0.458 OA
BRANCH   2   3
ATOM      3  C   UNL A   1      34.765  22.030  25.956  1.00  0.00     0.343 C 
ATOM      4  O   UNL A   1      34.667  22.950  26.767  1.00  0.00    -0.246 OA
BRANCH   3   5
ATOM      5  C   UNL A   1      33.908  21.918  24.786  1.00  0.00     0.117 A 
ATOM      6  C   UNL A   1      33.788  22.866  23.771  1.00  0.00     0.128 A 
ATOM      7  S   UNL A   1      32.526  22.344  22.723  1.00  0.00    -0.017 S 
ATOM      8  N   UNL A   1      32.283  20.876  23.425  1.00  0.00    -0.195 NA
ATOM      9  C   UNL A   1      33.036  20.792  24.523  1.00  0.00     0.068 A 
ATOM     10  C   UNL A   1      32.880  19.565  25.361  1.00  0.00     0.069 C 
BRANCH   6  11
ATOM     11  N   UNL A   1      34.439  24.034  23.521  1.00  0.00    -0.342 N 
ATOM     12  H   UNL A   1      35.290  23.956  23.032  1.00  0.00     0.168 HD
BRANCH  11  13
ATOM     13  C   UNL A   1      34.047  25.342  23.874  1.00  0.00     0.082 A 
ATOM     14  C   UNL A   1      33.633  26.251  22.882  1.00  0.00     0.142 A 
ATOM     15  C   UNL A   1      33.191  27.533  23.220  1.00  0.00     0.048 A 
ATOM     16  C   UNL A   1      33.118  27.917  24.560  1.00  0.00     0.004 A 
ATOM     17  C   UNL A   1      33.994  25.766  25.211  1.00  0.00     0.030 A 
ATOM     18  C   UNL A   1      33.523  27.034  25.555  1.00  0.00     0.002 A 
BRANCH  14  19
ATOM     19  O   UNL A   1      33.744  25.960  21.543  1.00  0.00    -0.495 OA
ATOM     20  C   UNL A   1      32.469  25.710  20.949  1.00  0.00     0.278 C 
ENDBRANCH  14  19
ENDBRANCH  11  13
ENDBRANCH   6  11
ENDBRANCH   3   5
ENDBRANCH   2   3
ENDBRANCH   1   2
BRANCH   1  21
ATOM     21  C   UNL A   1      37.764  21.541  24.900  1.00  0.00     0.275 C 
BRANCH  21  22
ATOM     22  O   UNL A   1      38.155  21.890  26.229  1.00  0.00    -0.458 OA
BRANCH  22  23
ATOM     23  C   UNL A   1      39.490  21.852  26.443  1.00  0.00     0.338 C 
ATOM     24  O   UNL A   1      40.195  20.859  26.514  1.00  0.00    -0.246 OA
BRANCH  23  25
ATOM     25  C   UNL A   1      39.967  23.188  26.816  1.00  0.00     0.060 A 
ATOM     26  C   UNL A   1      41.089  23.258  27.642  1.00  0.00     0.016 A 
ATOM     27  C   UNL A   1      39.191  24.324  26.534  1.00  0.00     0.016 A 
ATOM     28  C   UNL A   1      41.372  24.457  28.264  1.00  0.00     0.010 A 
ATOM     29  C   UNL A   1      39.486  25.526  27.149  1.00  0.00     0.010 A 
ATOM     30  C   UNL A   1      40.549  25.577  28.044  1.00  0.00    -0.014 A 
BRANCH  30  31
ATOM     31  C   UNL A   1      40.996  26.847  28.598  1.00  0.00     0.031 A 
ATOM     32  C   UNL A   1      42.317  27.240  28.050  1.00  0.00     0.074 A 
ATOM     33  C   UNL A   1      40.298  27.629  29.448  1.00  0.00     0.049 A 
ATOM     34  N   UNL A   1      43.436  27.245  28.693  1.00  0.00    -0.248 NA
ATOM     35  C   UNL A   1      42.457  27.414  26.595  1.00  0.00     0.031 C 
ATOM     36  C   UNL A   1      38.908  27.475  29.876  1.00  0.00     0.029 A 
ATOM     37  N   UNL A   1      40.665  28.810  30.026  1.00  0.00    -0.354 N 
ATOM     38  C   UNL A   1      44.380  27.696  27.777  1.00  0.00     0.074 A 
ATOM     39  C   UNL A   1      43.778  27.563  26.478  1.00  0.00     0.031 C 
ATOM     40  C   UNL A   1      38.481  28.637  30.419  1.00  0.00     0.029 A 
ATOM     41  C   UNL A   1      39.593  29.571  30.489  1.00  0.00     0.049 A 
ATOM     42  H   UNL A   1      41.602  29.100  30.107  1.00  0.00     0.167 HD
ATOM     43  C   UNL A   1      45.437  28.435  28.208  1.00  0.00     0.034 A 
ATOM     44  C   UNL A   1      39.605  30.889  30.828  1.00  0.00     0.034 A 
ATOM     45  C   UNL A   1      45.674  28.233  29.619  1.00  0.00     0.049 A 
ATOM     46  C   UNL A   1      41.005  31.249  31.148  1.00  0.00     0.074 A 
ATOM     47  C   UNL A   1      45.855  27.124  30.425  1.00  0.00     0.029 A 
ATOM     48  N   UNL A   1      45.332  29.258  30.467  1.00  0.00    -0.354 N 
ATOM     49  N   UNL A   1      41.636  30.793  32.194  1.00  0.00    -0.248 NA
ATOM     50  C   UNL A   1      41.844  31.743  30.069  1.00  0.00     0.031 C 
ATOM     51  C   UNL A   1      45.133  27.418  31.619  1.00  0.00     0.029 A 
ATOM     52  C   UNL A   1      44.637  28.717  31.512  1.00  0.00     0.049 A 
ATOM     53  H   UNL A   1      45.548  30.212  30.344  1.00  0.00     0.167 HD
ATOM     54  C   UNL A   1      42.893  30.469  31.704  1.00  0.00     0.074 A 
ATOM     55  C   UNL A   1      42.997  31.167  30.422  1.00  0.00     0.031 C 
ATOM     56  C   UNL A   1      43.605  29.429  32.228  1.00  0.00     0.034 A 
BRANCH  43  57
ATOM     57  C   UNL A   1      45.940  29.665  27.484  1.00  0.00     0.023 A 
ATOM     58  C   UNL A   1      47.339  29.860  27.455  1.00  0.00     0.012 A 
ATOM     59  C   UNL A   1      45.133  30.770  27.121  1.00  0.00     0.148 A 
ATOM     60  C   UNL A   1      47.898  31.110  27.173  1.00  0.00     0.002 A 
ATOM     61  C   UNL A   1      45.696  31.987  26.761  1.00  0.00     0.091 A 
ATOM     62  F   UNL A   1      43.808  30.710  27.243  1.00  0.00    -0.205 F 
ATOM     63  C   UNL A   1      47.076  32.174  26.824  1.00  0.00     0.022 A 
BRANCH  61  64
ATOM     64  S   UNL A   1      44.680  33.383  26.259  1.00  0.00     0.127 S 
ATOM     65  O   UNL A   1      45.694  34.346  25.842  1.00  0.00    -0.237 OA
ATOM     66  O   UNL A   1      43.893  32.796  25.175  1.00  0.00    -0.237 OA
ATOM     67  O   UNL A   1      43.897  33.751  27.433  1.00  0.00    -0.744 OA
ENDBRANCH  61  64
ENDBRANCH  43  57
BRANCH  44  68
ATOM     68  C   UNL A   1      38.561  31.931  30.649  1.00  0.00     0.023 A 
ATOM     69  C   UNL A   1      38.033  32.189  29.363  1.00  0.00     0.012 A 
ATOM     70  C   UNL A   1      37.872  32.469  31.758  1.00  0.00     0.148 A 
ATOM     71  C   UNL A   1      36.848  32.921  29.196  1.00  0.00     0.002 A 
ATOM     72  C   UNL A   1      36.703  33.205  31.587  1.00  0.00     0.091 A 
ATOM     73  F   UNL A   1      38.305  32.181  32.991  1.00  0.00    -0.205 F 
ATOM     74  C   UNL A   1      36.179  33.423  30.308  1.00  0.00     0.022 A 
BRANCH  72  75
ATOM     75  S   UNL A   1      35.784  33.861  32.987  1.00  0.00     0.127 S 
ATOM     76  O   UNL A   1      36.577  35.039  33.346  1.00  0.00    -0.237 OA
ATOM     77  O   UNL A   1      34.486  34.157  32.387  1.00  0.00    -0.237 OA
ATOM     78  O   UNL A   1      35.790  32.809  33.996  1.00  0.00    -0.744 OA
ENDBRANCH  72  75
ENDBRANCH  44  68
BRANCH  56  79
ATOM     79  C   UNL A   1      43.156  28.821  33.530  1.00  0.00     0.023 A 
ATOM     80  C   UNL A   1      42.182  27.804  33.612  1.00  0.00     0.012 A 
ATOM     81  C   UNL A   1      43.870  29.173  34.688  1.00  0.00     0.148 A 
ATOM     82  C   UNL A   1      41.916  27.168  34.829  1.00  0.00     0.002 A 
ATOM     83  C   UNL A   1      43.639  28.504  35.882  1.00  0.00     0.091 A 
ATOM     84  F   UNL A   1      44.790  30.144  34.593  1.00  0.00    -0.205 F 
ATOM     85  C   UNL A   1      42.656  27.506  35.961  1.00  0.00     0.022 A 
BRANCH  83  86
ATOM     86  S   UNL A   1      44.645  28.816  37.334  1.00  0.00     0.127 S 
ATOM     87  O   UNL A   1      44.327  27.666  38.177  1.00  0.00    -0.237 OA
ATOM     88  O   UNL A   1      46.001  28.815  36.782  1.00  0.00    -0.237 OA
ATOM     89  O   UNL A   1      44.215  30.110  37.851  1.00  0.00    -0.744 OA
ENDBRANCH  83  86
ENDBRANCH  56  79
ENDBRANCH  30  31
ENDBRANCH  23  25
ENDBRANCH  22  23
ENDBRANCH  21  22
ENDBRANCH   1  21
TORSDOF 17
ENDMDL
