MODEL 1
REMARK VINA RESULT:     -11.8      0.000      0.000
REMARK SMILES CC(C)[C@H]1CC[C@@H](C)C/C1=C(\F)C(=O)OCCOC(=O)c1ccc(-c2c3nc(c(-c4cccc(S(=O)(=O)[O-])c4F)c4ccc([nH]4)c(-c4cccc(S(=O)(=O)[O-])c4F)c4nc(c(-c5cccc(S(=O)(=O)[O-])c5F)c5ccc2[nH]5)C=C4)C=C3)cc1
REMARK SMILES IDX 17 1 16 2 15 3 13 4 14 5 11 6 4 7 5 8 10 9 6 10 9 11 7 12
REMARK SMILES IDX 12 13 8 14 2 15 1 16 3 17 18 18 19 19 20 20 21 21 22 22
REMARK SMILES IDX 83 23 23 24 82 25 24 26 25 27 26 28 76 29 27 30 81 31 75 32
REMARK SMILES IDX 77 33 28 34 80 35 74 36 73 37 29 39 61 40 41 41 60 42 42 43
REMARK SMILES IDX 45 44 59 45 78 46 43 47 44 48 58 50 79 51 46 52 30 53 31 54
REMARK SMILES IDX 39 55 32 56 34 57 40 58 33 59 35 60 36 61 37 62 38 63 62 64
REMARK SMILES IDX 63 65 71 66 64 67 66 68 72 69 65 70 67 71 68 72 69 73 70 74
REMARK SMILES IDX 47 75 48 76 56 77 49 78 51 79 57 80 50 81 52 82 53 83 54 84
REMARK SMILES IDX 55 85
REMARK H PARENT 77 38 45 49
REMARK Flexibility Score: inf
ROOT
ATOM      1  C   UNL A   1      35.654  22.465  24.299  1.00  0.00     0.275 C 
ENDROOT
BRANCH   1   2
ATOM      2  C   UNL A   1      35.087  23.747  23.595  1.00  0.00     0.275 C 
BRANCH   2   3
ATOM      3  O   UNL A   1      33.637  23.740  23.398  1.00  0.00    -0.457 OA
BRANCH   3   4
ATOM      4  C   UNL A   1      32.858  23.799  24.537  1.00  0.00     0.367 C 
ATOM      5  O   UNL A   1      31.965  22.997  24.792  1.00  0.00    -0.243 OA
BRANCH   4   6
ATOM      6  C   UNL A   1      33.170  24.963  25.475  1.00  0.00     0.207 C 
ATOM      7  C   UNL A   1      32.305  27.086  24.205  1.00  0.00     0.021 C 
ATOM      8  C   UNL A   1      31.708  28.486  24.512  1.00  0.00     0.009 C 
ATOM      9  C   UNL A   1      33.019  26.318  25.331  1.00  0.00    -0.023 C 
ATOM     10  C   UNL A   1      32.576  29.323  25.419  1.00  0.00     0.004 C 
ATOM     11  C   UNL A   1      33.748  27.268  26.274  1.00  0.00     0.038 C 
ATOM     12  C   UNL A   1      32.947  28.523  26.671  1.00  0.00    -0.010 C 
ATOM     13  F   UNL A   1      33.931  24.532  26.513  1.00  0.00    -0.199 F 
ATOM     14  C   UNL A   1      31.716  28.158  27.509  1.00  0.00     0.008 C 
BRANCH   7  15
ATOM     15  C   UNL A   1      31.246  26.201  23.559  1.00  0.00    -0.010 C 
ATOM     16  C   UNL A   1      29.880  26.193  24.241  1.00  0.00     0.008 C 
ATOM     17  C   UNL A   1      31.506  26.221  22.053  1.00  0.00     0.008 C 
ENDBRANCH   7  15
ENDBRANCH   4   6
ENDBRANCH   3   4
ENDBRANCH   2   3
ENDBRANCH   1   2
BRANCH   1  18
ATOM     18  O   UNL A   1      37.089  22.283  24.133  1.00  0.00    -0.458 OA
BRANCH  18  19
ATOM     19  C   UNL A   1      37.785  21.552  25.072  1.00  0.00     0.338 C 
ATOM     20  O   UNL A   1      37.991  20.347  25.001  1.00  0.00    -0.246 OA
BRANCH  19  21
ATOM     21  C   UNL A   1      38.450  22.458  26.092  1.00  0.00     0.060 A 
ATOM     22  C   UNL A   1      38.079  23.785  26.143  1.00  0.00     0.016 A 
ATOM     23  C   UNL A   1      39.604  22.102  26.806  1.00  0.00     0.016 A 
ATOM     24  C   UNL A   1      39.000  24.747  26.563  1.00  0.00     0.010 A 
ATOM     25  C   UNL A   1      40.399  23.090  27.469  1.00  0.00     0.010 A 
ATOM     26  C   UNL A   1      40.145  24.462  27.311  1.00  0.00    -0.014 A 
BRANCH  26  27
ATOM     27  C   UNL A   1      40.976  25.609  27.876  1.00  0.00     0.031 A 
ATOM     28  C   UNL A   1      40.394  26.658  28.811  1.00  0.00     0.074 A 
ATOM     29  C   UNL A   1      42.306  25.718  27.606  1.00  0.00     0.049 A 
ATOM     30  N   UNL A   1      40.861  27.848  29.109  1.00  0.00    -0.248 NA
ATOM     31  C   UNL A   1      39.144  26.331  29.516  1.00  0.00     0.031 C 
ATOM     32  C   UNL A   1      43.108  24.773  26.820  1.00  0.00     0.029 A 
ATOM     33  N   UNL A   1      43.244  26.668  27.973  1.00  0.00    -0.354 N 
ATOM     34  C   UNL A   1      39.910  28.456  29.927  1.00  0.00     0.074 A 
ATOM     35  C   UNL A   1      38.873  27.469  30.149  1.00  0.00     0.031 C 
ATOM     36  C   UNL A   1      44.399  25.101  26.874  1.00  0.00     0.029 A 
ATOM     37  C   UNL A   1      44.493  26.433  27.432  1.00  0.00     0.049 A 
ATOM     38  H   UNL A   1      43.041  27.433  28.558  1.00  0.00     0.167 HD
ATOM     39  C   UNL A   1      39.891  29.726  30.412  1.00  0.00     0.034 A 
ATOM     40  C   UNL A   1      45.569  27.222  27.234  1.00  0.00     0.034 A 
ATOM     41  C   UNL A   1      40.966  30.675  30.239  1.00  0.00     0.049 A 
ATOM     42  C   UNL A   1      45.492  28.649  27.669  1.00  0.00     0.074 A 
ATOM     43  C   UNL A   1      41.024  32.000  30.644  1.00  0.00     0.029 A 
ATOM     44  N   UNL A   1      42.176  30.400  29.620  1.00  0.00    -0.354 N 
ATOM     45  N   UNL A   1      44.534  29.253  28.325  1.00  0.00    -0.248 NA
ATOM     46  C   UNL A   1      46.629  29.510  27.319  1.00  0.00     0.031 C 
ATOM     47  C   UNL A   1      42.247  32.536  30.226  1.00  0.00     0.029 A 
ATOM     48  C   UNL A   1      42.975  31.532  29.609  1.00  0.00     0.049 A 
ATOM     49  H   UNL A   1      42.429  29.527  29.243  1.00  0.00     0.167 HD
ATOM     50  C   UNL A   1      44.954  30.566  28.476  1.00  0.00     0.074 A 
ATOM     51  C   UNL A   1      46.269  30.658  27.874  1.00  0.00     0.031 C 
ATOM     52  C   UNL A   1      44.297  31.605  29.043  1.00  0.00     0.034 A 
BRANCH  39  53
ATOM     53  C   UNL A   1      38.635  30.214  31.099  1.00  0.00     0.023 A 
ATOM     54  C   UNL A   1      38.441  30.046  32.482  1.00  0.00     0.012 A 
ATOM     55  C   UNL A   1      37.667  30.923  30.351  1.00  0.00     0.148 A 
ATOM     56  C   UNL A   1      37.289  30.542  33.102  1.00  0.00     0.002 A 
ATOM     57  C   UNL A   1      36.545  31.449  30.981  1.00  0.00     0.091 A 
ATOM     58  F   UNL A   1      37.866  31.074  29.034  1.00  0.00    -0.205 F 
ATOM     59  C   UNL A   1      36.347  31.247  32.356  1.00  0.00     0.022 A 
BRANCH  57  60
ATOM     60  S   UNL A   1      35.314  32.431  30.115  1.00  0.00     0.127 S 
ATOM     61  O   UNL A   1      36.111  33.570  29.662  1.00  0.00    -0.237 OA
ATOM     62  O   UNL A   1      34.889  31.522  29.049  1.00  0.00    -0.237 OA
ATOM     63  O   UNL A   1      34.284  32.746  31.094  1.00  0.00    -0.744 OA
ENDBRANCH  57  60
ENDBRANCH  39  53
BRANCH  40  64
ATOM     64  C   UNL A   1      46.746  26.709  26.461  1.00  0.00     0.023 A 
ATOM     65  C   UNL A   1      46.788  26.849  25.062  1.00  0.00     0.012 A 
ATOM     66  C   UNL A   1      47.850  26.120  27.119  1.00  0.00     0.148 A 
ATOM     67  C   UNL A   1      47.899  26.408  24.337  1.00  0.00     0.002 A 
ATOM     68  C   UNL A   1      48.986  25.770  26.403  1.00  0.00     0.091 A 
ATOM     69  F   UNL A   1      47.784  25.947  28.447  1.00  0.00    -0.205 F 
ATOM     70  C   UNL A   1      49.005  25.891  25.009  1.00  0.00     0.022 A 
BRANCH  68  71
ATOM     71  S   UNL A   1      50.513  25.283  27.219  1.00  0.00     0.127 S 
ATOM     72  O   UNL A   1      51.373  24.967  26.083  1.00  0.00    -0.237 OA
ATOM     73  O   UNL A   1      50.873  26.500  27.946  1.00  0.00    -0.237 OA
ATOM     74  O   UNL A   1      50.153  24.163  28.080  1.00  0.00    -0.744 OA
ENDBRANCH  68  71
ENDBRANCH  40  64
BRANCH  52  75
ATOM     75  C   UNL A   1      45.016  32.924  29.085  1.00  0.00     0.023 A 
ATOM     76  C   UNL A   1      45.953  33.189  30.105  1.00  0.00     0.012 A 
ATOM     77  C   UNL A   1      44.783  33.889  28.088  1.00  0.00     0.148 A 
ATOM     78  C   UNL A   1      46.621  34.411  30.149  1.00  0.00     0.002 A 
ATOM     79  C   UNL A   1      45.493  35.082  28.107  1.00  0.00     0.091 A 
ATOM     80  F   UNL A   1      43.866  33.625  27.145  1.00  0.00    -0.205 F 
ATOM     81  C   UNL A   1      46.402  35.351  29.144  1.00  0.00     0.022 A 
BRANCH  79  82
ATOM     82  S   UNL A   1      45.344  36.307  26.804  1.00  0.00     0.127 S 
ATOM     83  O   UNL A   1      46.194  35.736  25.760  1.00  0.00    -0.237 OA
ATOM     84  O   UNL A   1      43.911  36.271  26.511  1.00  0.00    -0.237 OA
ATOM     85  O   UNL A   1      45.814  37.562  27.374  1.00  0.00    -0.744 OA
ENDBRANCH  79  82
ENDBRANCH  52  75
ENDBRANCH  26  27
ENDBRANCH  19  21
ENDBRANCH  18  19
ENDBRANCH   1  18
TORSDOF 15
ENDMDL
MODEL 2
REMARK VINA RESULT:     -11.7      4.791      9.879
REMARK SMILES CC(C)[C@H]1CC[C@@H](C)C/C1=C(\F)C(=O)OCCOC(=O)c1ccc(-c2c3nc(c(-c4cccc(S(=O)(=O)[O-])c4F)c4ccc([nH]4)c(-c4cccc(S(=O)(=O)[O-])c4F)c4nc(c(-c5cccc(S(=O)(=O)[O-])c5F)c5ccc2[nH]5)C=C4)C=C3)cc1
REMARK SMILES IDX 17 1 16 2 15 3 13 4 14 5 11 6 4 7 5 8 10 9 6 10 9 11 7 12
REMARK SMILES IDX 12 13 8 14 2 15 1 16 3 17 18 18 19 19 20 20 21 21 22 22
REMARK SMILES IDX 83 23 23 24 82 25 24 26 25 27 26 28 76 29 27 30 81 31 75 32
REMARK SMILES IDX 77 33 28 34 80 35 74 36 73 37 29 39 61 40 41 41 60 42 42 43
REMARK SMILES IDX 45 44 59 45 78 46 43 47 44 48 58 50 79 51 46 52 30 53 31 54
REMARK SMILES IDX 39 55 32 56 34 57 40 58 33 59 35 60 36 61 37 62 38 63 62 64
REMARK SMILES IDX 63 65 71 66 64 67 66 68 72 69 65 70 67 71 68 72 69 73 70 74
REMARK SMILES IDX 47 75 48 76 56 77 49 78 51 79 57 80 50 81 52 82 53 83 54 84
REMARK SMILES IDX 55 85
REMARK H PARENT 77 38 45 49
REMARK Flexibility Score: inf
ROOT
ATOM      1  C   UNL A   1      31.610  28.814  25.486  1.00  0.00     0.275 C 
ENDROOT
BRANCH   1   2
ATOM      2  C   UNL A   1      32.373  27.664  24.739  1.00  0.00     0.275 C 
BRANCH   2   3
ATOM      3  O   UNL A   1      31.768  26.340  24.887  1.00  0.00    -0.457 OA
BRANCH   3   4
ATOM      4  C   UNL A   1      32.276  25.536  25.888  1.00  0.00     0.367 C 
ATOM      5  O   UNL A   1      31.634  25.190  26.875  1.00  0.00    -0.243 OA
BRANCH   4   6
ATOM      6  C   UNL A   1      33.731  25.109  25.698  1.00  0.00     0.207 C 
ATOM      7  C   UNL A   1      33.622  22.510  25.382  1.00  0.00     0.021 C 
ATOM      8  C   UNL A   1      34.384  21.375  24.646  1.00  0.00     0.009 C 
ATOM      9  C   UNL A   1      34.311  23.875  25.562  1.00  0.00    -0.023 C 
ATOM     10  C   UNL A   1      35.853  21.321  24.984  1.00  0.00     0.004 C 
ATOM     11  C   UNL A   1      35.813  23.715  25.755  1.00  0.00     0.038 C 
ATOM     12  C   UNL A   1      36.483  22.705  24.803  1.00  0.00    -0.010 C 
ATOM     13  F   UNL A   1      34.558  26.157  25.943  1.00  0.00    -0.199 F 
ATOM     14  C   UNL A   1      36.418  23.183  23.347  1.00  0.00     0.008 C 
BRANCH   7  15
ATOM     15  C   UNL A   1      32.245  22.698  24.760  1.00  0.00    -0.010 C 
ATOM     16  C   UNL A   1      32.221  22.916  23.248  1.00  0.00     0.008 C 
ATOM     17  C   UNL A   1      31.270  21.840  25.566  1.00  0.00     0.008 C 
ENDBRANCH   7  15
ENDBRANCH   4   6
ENDBRANCH   3   4
ENDBRANCH   2   3
ENDBRANCH   1   2
BRANCH   1  18
ATOM     18  O   UNL A   1      32.223  29.210  26.747  1.00  0.00    -0.458 OA
BRANCH  18  19
ATOM     19  C   UNL A   1      32.633  30.515  26.911  1.00  0.00     0.338 C 
ATOM     20  O   UNL A   1      31.878  31.476  27.000  1.00  0.00    -0.246 OA
BRANCH  19  21
ATOM     21  C   UNL A   1      34.123  30.592  27.188  1.00  0.00     0.060 A 
ATOM     22  C   UNL A   1      34.836  29.419  27.317  1.00  0.00     0.016 A 
ATOM     23  C   UNL A   1      34.776  31.769  27.586  1.00  0.00     0.016 A 
ATOM     24  C   UNL A   1      35.970  29.382  28.132  1.00  0.00     0.010 A 
ATOM     25  C   UNL A   1      36.076  31.729  28.182  1.00  0.00     0.010 A 
ATOM     26  C   UNL A   1      36.688  30.513  28.528  1.00  0.00    -0.014 A 
BRANCH  26  27
ATOM     27  C   UNL A   1      38.015  30.341  29.257  1.00  0.00     0.031 A 
ATOM     28  C   UNL A   1      39.163  29.524  28.684  1.00  0.00     0.074 A 
ATOM     29  C   UNL A   1      38.255  30.961  30.446  1.00  0.00     0.049 A 
ATOM     30  N   UNL A   1      40.205  29.017  29.303  1.00  0.00    -0.248 NA
ATOM     31  C   UNL A   1      39.158  29.252  27.238  1.00  0.00     0.031 C 
ATOM     32  C   UNL A   1      37.345  31.879  31.140  1.00  0.00     0.029 A 
ATOM     33  N   UNL A   1      39.350  30.933  31.293  1.00  0.00    -0.354 N 
ATOM     34  C   UNL A   1      40.905  28.270  28.357  1.00  0.00     0.074 A 
ATOM     35  C   UNL A   1      40.215  28.456  27.098  1.00  0.00     0.031 C 
ATOM     36  C   UNL A   1      37.947  32.419  32.199  1.00  0.00     0.029 A 
ATOM     37  C   UNL A   1      39.161  31.672  32.445  1.00  0.00     0.049 A 
ATOM     38  H   UNL A   1      40.176  30.437  31.096  1.00  0.00     0.167 HD
ATOM     39  C   UNL A   1      41.995  27.478  28.536  1.00  0.00     0.034 A 
ATOM     40  C   UNL A   1      39.769  31.662  33.649  1.00  0.00     0.034 A 
ATOM     41  C   UNL A   1      42.714  27.358  29.784  1.00  0.00     0.049 A 
ATOM     42  C   UNL A   1      40.894  30.704  33.868  1.00  0.00     0.074 A 
ATOM     43  C   UNL A   1      43.795  26.544  30.085  1.00  0.00     0.029 A 
ATOM     44  N   UNL A   1      42.431  28.077  30.935  1.00  0.00    -0.354 N 
ATOM     45  N   UNL A   1      41.465  29.902  33.006  1.00  0.00    -0.248 NA
ATOM     46  C   UNL A   1      41.444  30.629  35.228  1.00  0.00     0.031 C 
ATOM     47  C   UNL A   1      44.133  26.738  31.429  1.00  0.00     0.029 A 
ATOM     48  C   UNL A   1      43.298  27.712  31.952  1.00  0.00     0.049 A 
ATOM     49  H   UNL A   1      41.718  28.750  31.017  1.00  0.00     0.167 HD
ATOM     50  C   UNL A   1      42.450  29.231  33.714  1.00  0.00     0.074 A 
ATOM     51  C   UNL A   1      42.420  29.747  35.068  1.00  0.00     0.031 C 
ATOM     52  C   UNL A   1      43.287  28.257  33.284  1.00  0.00     0.034 A 
BRANCH  39  53
ATOM     53  C   UNL A   1      42.438  26.595  27.391  1.00  0.00     0.023 A 
ATOM     54  C   UNL A   1      43.307  27.069  26.391  1.00  0.00     0.012 A 
ATOM     55  C   UNL A   1      42.031  25.241  27.361  1.00  0.00     0.148 A 
ATOM     56  C   UNL A   1      43.735  26.221  25.363  1.00  0.00     0.002 A 
ATOM     57  C   UNL A   1      42.493  24.394  26.360  1.00  0.00     0.091 A 
ATOM     58  F   UNL A   1      41.202  24.805  28.321  1.00  0.00    -0.205 F 
ATOM     59  C   UNL A   1      43.335  24.887  25.351  1.00  0.00     0.022 A 
BRANCH  57  60
ATOM     60  S   UNL A   1      42.088  22.644  26.303  1.00  0.00     0.127 S 
ATOM     61  O   UNL A   1      42.737  22.152  27.518  1.00  0.00    -0.237 OA
ATOM     62  O   UNL A   1      40.626  22.665  26.359  1.00  0.00    -0.237 OA
ATOM     63  O   UNL A   1      42.644  22.140  25.055  1.00  0.00    -0.744 OA
ENDBRANCH  57  60
ENDBRANCH  39  53
BRANCH  40  64
ATOM     64  C   UNL A   1      39.224  32.489  34.774  1.00  0.00     0.023 A 
ATOM     65  C   UNL A   1      38.216  31.971  35.607  1.00  0.00     0.012 A 
ATOM     66  C   UNL A   1      39.736  33.778  35.047  1.00  0.00     0.148 A 
ATOM     67  C   UNL A   1      37.728  32.719  36.682  1.00  0.00     0.002 A 
ATOM     68  C   UNL A   1      39.312  34.475  36.170  1.00  0.00     0.091 A 
ATOM     69  F   UNL A   1      40.664  34.285  34.222  1.00  0.00    -0.205 F 
ATOM     70  C   UNL A   1      38.292  33.959  36.977  1.00  0.00     0.022 A 
BRANCH  68  71
ATOM     71  S   UNL A   1      40.128  35.981  36.718  1.00  0.00     0.127 S 
ATOM     72  O   UNL A   1      41.500  35.525  36.915  1.00  0.00    -0.237 OA
ATOM     73  O   UNL A   1      39.931  36.870  35.573  1.00  0.00    -0.237 OA
ATOM     74  O   UNL A   1      39.413  36.395  37.920  1.00  0.00    -0.744 OA
ENDBRANCH  68  71
ENDBRANCH  40  64
BRANCH  52  75
ATOM     75  C   UNL A   1      44.278  27.723  34.280  1.00  0.00     0.023 A 
ATOM     76  C   UNL A   1      45.529  28.353  34.443  1.00  0.00     0.012 A 
ATOM     77  C   UNL A   1      43.950  26.612  35.078  1.00  0.00     0.148 A 
ATOM     78  C   UNL A   1      46.451  27.861  35.364  1.00  0.00     0.002 A 
ATOM     79  C   UNL A   1      44.853  26.160  36.031  1.00  0.00     0.091 A 
ATOM     80  F   UNL A   1      42.766  26.012  34.882  1.00  0.00    -0.205 F 
ATOM     81  C   UNL A   1      46.109  26.774  36.166  1.00  0.00     0.022 A 
BRANCH  79  82
ATOM     82  S   UNL A   1      44.459  24.830  37.170  1.00  0.00     0.127 S 
ATOM     83  O   UNL A   1      43.038  24.619  36.900  1.00  0.00    -0.237 OA
ATOM     84  O   UNL A   1      45.335  23.756  36.701  1.00  0.00    -0.237 OA
ATOM     85  O   UNL A   1      44.774  25.331  38.501  1.00  0.00    -0.744 OA
ENDBRANCH  79  82
ENDBRANCH  52  75
ENDBRANCH  26  27
ENDBRANCH  19  21
ENDBRANCH  18  19
ENDBRANCH   1  18
TORSDOF 15
ENDMDL
MODEL 3
REMARK VINA RESULT:     -11.5      5.069      9.804
REMARK SMILES CC(C)[C@H]1CC[C@@H](C)C/C1=C(\F)C(=O)OCCOC(=O)c1ccc(-c2c3nc(c(-c4cccc(S(=O)(=O)[O-])c4F)c4ccc([nH]4)c(-c4cccc(S(=O)(=O)[O-])c4F)c4nc(c(-c5cccc(S(=O)(=O)[O-])c5F)c5ccc2[nH]5)C=C4)C=C3)cc1
REMARK SMILES IDX 17 1 16 2 15 3 13 4 14 5 11 6 4 7 5 8 10 9 6 10 9 11 7 12
REMARK SMILES IDX 12 13 8 14 2 15 1 16 3 17 18 18 19 19 20 20 21 21 22 22
REMARK SMILES IDX 83 23 23 24 82 25 24 26 25 27 26 28 76 29 27 30 81 31 75 32
REMARK SMILES IDX 77 33 28 34 80 35 74 36 73 37 29 39 61 40 41 41 60 42 42 43
REMARK SMILES IDX 45 44 59 45 78 46 43 47 44 48 58 50 79 51 46 52 30 53 31 54
REMARK SMILES IDX 39 55 32 56 34 57 40 58 33 59 35 60 36 61 37 62 38 63 62 64
REMARK SMILES IDX 63 65 71 66 64 67 66 68 72 69 65 70 67 71 68 72 69 73 70 74
REMARK SMILES IDX 47 75 48 76 56 77 49 78 51 79 57 80 50 81 52 82 53 83 54 84
REMARK SMILES IDX 55 85
REMARK H PARENT 77 38 45 49
REMARK Flexibility Score: inf
ROOT
ATOM      1  C   UNL A   1      32.512  29.627  25.347  1.00  0.00     0.275 C 
ENDROOT
BRANCH   1   2
ATOM      2  C   UNL A   1      31.217  28.786  25.067  1.00  0.00     0.275 C 
BRANCH   2   3
ATOM      3  O   UNL A   1      31.457  27.357  24.855  1.00  0.00    -0.457 OA
BRANCH   3   4
ATOM      4  C   UNL A   1      31.998  26.657  25.914  1.00  0.00     0.367 C 
ATOM      5  O   UNL A   1      31.485  26.603  27.028  1.00  0.00    -0.243 OA
BRANCH   4   6
ATOM      6  C   UNL A   1      33.321  25.953  25.616  1.00  0.00     0.207 C 
ATOM      7  C   UNL A   1      32.761  23.397  25.779  1.00  0.00     0.021 C 
ATOM      8  C   UNL A   1      33.212  22.047  25.161  1.00  0.00     0.009 C 
ATOM      9  C   UNL A   1      33.673  24.628  25.625  1.00  0.00    -0.023 C 
ATOM     10  C   UNL A   1      34.690  21.781  25.310  1.00  0.00     0.004 C 
ATOM     11  C   UNL A   1      35.144  24.233  25.646  1.00  0.00     0.038 C 
ATOM     12  C   UNL A   1      35.490  22.987  24.808  1.00  0.00    -0.010 C 
ATOM     13  F   UNL A   1      34.328  26.860  25.563  1.00  0.00    -0.199 F 
ATOM     14  C   UNL A   1      35.272  23.242  23.312  1.00  0.00     0.008 C 
BRANCH   7  15
ATOM     15  C   UNL A   1      31.349  23.734  25.317  1.00  0.00    -0.010 C 
ATOM     16  C   UNL A   1      31.097  23.629  23.814  1.00  0.00     0.008 C 
ATOM     17  C   UNL A   1      30.398  23.286  26.427  1.00  0.00     0.008 C 
ENDBRANCH   7  15
ENDBRANCH   4   6
ENDBRANCH   3   4
ENDBRANCH   2   3
ENDBRANCH   1   2
BRANCH   1  18
ATOM     18  O   UNL A   1      32.877  29.700  26.755  1.00  0.00    -0.458 OA
BRANCH  18  19
ATOM     19  C   UNL A   1      33.374  30.883  27.257  1.00  0.00     0.338 C 
ATOM     20  O   UNL A   1      32.684  31.807  27.673  1.00  0.00    -0.246 OA
BRANCH  19  21
ATOM     21  C   UNL A   1      34.880  30.816  27.434  1.00  0.00     0.060 A 
ATOM     22  C   UNL A   1      35.484  29.579  27.519  1.00  0.00     0.016 A 
ATOM     23  C   UNL A   1      35.668  31.923  27.784  1.00  0.00     0.016 A 
ATOM     24  C   UNL A   1      36.661  29.431  28.257  1.00  0.00     0.010 A 
ATOM     25  C   UNL A   1      36.995  31.757  28.293  1.00  0.00     0.010 A 
ATOM     26  C   UNL A   1      37.508  30.487  28.601  1.00  0.00    -0.014 A 
BRANCH  26  27
ATOM     27  C   UNL A   1      38.858  30.186  29.241  1.00  0.00     0.031 A 
ATOM     28  C   UNL A   1      39.859  29.220  28.624  1.00  0.00     0.074 A 
ATOM     29  C   UNL A   1      39.257  30.816  30.381  1.00  0.00     0.049 A 
ATOM     30  N   UNL A   1      40.880  28.617  29.190  1.00  0.00    -0.248 NA
ATOM     31  C   UNL A   1      39.712  28.899  27.196  1.00  0.00     0.031 C 
ATOM     32  C   UNL A   1      38.513  31.859  31.096  1.00  0.00     0.029 A 
ATOM     33  N   UNL A   1      40.402  30.689  31.149  1.00  0.00    -0.354 N 
ATOM     34  C   UNL A   1      41.415  27.759  28.230  1.00  0.00     0.074 A 
ATOM     35  C   UNL A   1      40.657  27.980  27.017  1.00  0.00     0.031 C 
ATOM     36  C   UNL A   1      39.252  32.362  32.086  1.00  0.00     0.029 A 
ATOM     37  C   UNL A   1      40.387  31.486  32.278  1.00  0.00     0.049 A 
ATOM     38  H   UNL A   1      41.149  30.093  30.915  1.00  0.00     0.167 HD
ATOM     39  C   UNL A   1      42.417  26.851  28.366  1.00  0.00     0.034 A 
ATOM     40  C   UNL A   1      41.080  31.447  33.435  1.00  0.00     0.034 A 
ATOM     41  C   UNL A   1      43.210  26.691  29.564  1.00  0.00     0.049 A 
ATOM     42  C   UNL A   1      42.100  30.371  33.615  1.00  0.00     0.074 A 
ATOM     43  C   UNL A   1      44.211  25.768  29.823  1.00  0.00     0.029 A 
ATOM     44  N   UNL A   1      43.099  27.480  30.699  1.00  0.00    -0.354 N 
ATOM     45  N   UNL A   1      42.509  29.478  32.751  1.00  0.00    -0.248 NA
ATOM     46  C   UNL A   1      42.739  30.281  34.934  1.00  0.00     0.031 C 
ATOM     47  C   UNL A   1      44.669  25.968  31.130  1.00  0.00     0.029 A 
ATOM     48  C   UNL A   1      43.994  27.051  31.667  1.00  0.00     0.049 A 
ATOM     49  H   UNL A   1      42.477  28.234  30.802  1.00  0.00     0.167 HD
ATOM     50  C   UNL A   1      43.461  28.721  33.416  1.00  0.00     0.074 A 
ATOM     51  C   UNL A   1      43.593  29.285  34.745  1.00  0.00     0.031 C 
ATOM     52  C   UNL A   1      44.146  27.641  32.971  1.00  0.00     0.034 A 
BRANCH  39  53
ATOM     53  C   UNL A   1      42.668  25.881  27.232  1.00  0.00     0.023 A 
ATOM     54  C   UNL A   1      43.529  26.204  26.167  1.00  0.00     0.012 A 
ATOM     55  C   UNL A   1      42.086  24.594  27.279  1.00  0.00     0.148 A 
ATOM     56  C   UNL A   1      43.777  25.276  25.150  1.00  0.00     0.002 A 
ATOM     57  C   UNL A   1      42.369  23.663  26.286  1.00  0.00     0.091 A 
ATOM     58  F   UNL A   1      41.268  24.303  28.300  1.00  0.00    -0.205 F 
ATOM     59  C   UNL A   1      43.204  24.007  25.212  1.00  0.00     0.022 A 
BRANCH  57  60
ATOM     60  S   UNL A   1      41.734  21.982  26.320  1.00  0.00     0.127 S 
ATOM     61  O   UNL A   1      42.475  21.365  25.221  1.00  0.00    -0.237 OA
ATOM     62  O   UNL A   1      42.134  21.529  27.654  1.00  0.00    -0.237 OA
ATOM     63  O   UNL A   1      40.297  22.087  26.118  1.00  0.00    -0.744 OA
ENDBRANCH  57  60
ENDBRANCH  39  53
BRANCH  40  64
ATOM     64  C   UNL A   1      40.719  32.372  34.557  1.00  0.00     0.023 A 
ATOM     65  C   UNL A   1      41.410  33.586  34.723  1.00  0.00     0.012 A 
ATOM     66  C   UNL A   1      39.656  32.069  35.439  1.00  0.00     0.148 A 
ATOM     67  C   UNL A   1      41.055  34.472  35.743  1.00  0.00     0.002 A 
ATOM     68  C   UNL A   1      39.251  32.996  36.390  1.00  0.00     0.091 A 
ATOM     69  F   UNL A   1      39.032  30.890  35.305  1.00  0.00    -0.205 F 
ATOM     70  C   UNL A   1      39.963  34.189  36.560  1.00  0.00     0.022 A 
BRANCH  68  71
ATOM     71  S   UNL A   1      37.739  32.783  37.341  1.00  0.00     0.127 S 
ATOM     72  O   UNL A   1      37.922  31.447  37.899  1.00  0.00    -0.237 OA
ATOM     73  O   UNL A   1      37.832  33.875  38.310  1.00  0.00    -0.237 OA
ATOM     74  O   UNL A   1      36.652  32.933  36.381  1.00  0.00    -0.744 OA
ENDBRANCH  68  71
ENDBRANCH  40  64
BRANCH  52  75
ATOM     75  C   UNL A   1      45.142  27.030  33.917  1.00  0.00     0.023 A 
ATOM     76  C   UNL A   1      46.488  27.446  33.894  1.00  0.00     0.012 A 
ATOM     77  C   UNL A   1      44.728  26.063  34.851  1.00  0.00     0.148 A 
ATOM     78  C   UNL A   1      47.416  26.881  34.768  1.00  0.00     0.002 A 
ATOM     79  C   UNL A   1      45.646  25.545  35.755  1.00  0.00     0.091 A 
ATOM     80  F   UNL A   1      43.448  25.662  34.833  1.00  0.00    -0.205 F 
ATOM     81  C   UNL A   1      46.993  25.941  35.706  1.00  0.00     0.022 A 
BRANCH  79  82
ATOM     82  S   UNL A   1      45.170  24.403  37.056  1.00  0.00     0.127 S 
ATOM     83  O   UNL A   1      44.454  23.376  36.302  1.00  0.00    -0.237 OA
ATOM     84  O   UNL A   1      46.468  23.980  37.583  1.00  0.00    -0.237 OA
ATOM     85  O   UNL A   1      44.359  25.171  37.990  1.00  0.00    -0.744 OA
ENDBRANCH  79  82
ENDBRANCH  52  75
ENDBRANCH  26  27
ENDBRANCH  19  21
ENDBRANCH  18  19
ENDBRANCH   1  18
TORSDOF 15
ENDMDL
