MODEL 1
REMARK VINA RESULT:     -12.7      0.000      0.000
REMARK SMILES O=C(OCCOC(=O)c1cccc(NC(=O)c2cc3ccccc3[nH]2)c1)c1ccc(-c2c3nc(c(-c4cccc(S(=O)(=O)[O-])c4F)c4ccc([nH]4)c(-c4cccc(S(=O)(=O)[O-])c4F)c4nc(c(-c5cccc(S(=O)(=O)[O-])c5F)c5ccc2[nH]5)C=C4)C=C3)cc1
REMARK SMILES IDX 4 1 3 2 2 3 1 4 27 5 28 6 89 7 29 8 88 9 30 10 31 11 32 12
REMARK SMILES IDX 82 13 33 14 87 15 81 16 83 17 34 18 86 19 80 20 79 21 35 23
REMARK SMILES IDX 67 24 47 25 66 26 48 27 51 28 65 29 84 30 49 31 50 32 64 34
REMARK SMILES IDX 85 35 52 36 36 37 37 38 45 39 38 40 40 41 46 42 39 43 41 44
REMARK SMILES IDX 42 45 43 46 44 47 68 48 69 49 77 50 70 51 72 52 78 53 71 54
REMARK SMILES IDX 73 55 74 56 75 57 76 58 53 59 54 60 62 61 55 62 57 63 63 64
REMARK SMILES IDX 56 65 58 66 59 67 60 68 61 69 5 70 6 71 7 72 8 73 9 74 10 75
REMARK SMILES IDX 26 76 11 77 13 78 12 79 14 80 15 81 16 83 17 84 18 85 25 86
REMARK SMILES IDX 19 87 24 88 20 90 23 91 21 92 22 93
REMARK H PARENT 83 22 51 33 14 82 25 89
REMARK Flexibility Score: inf
ROOT
ATOM      1  C   UNL A   1      31.970  32.665  26.865  1.00  0.00     0.275 C 
ENDROOT
BRANCH   1   2
ATOM      2  O   UNL A   1      32.554  33.479  27.895  1.00  0.00    -0.458 OA
BRANCH   2   3
ATOM      3  C   UNL A   1      33.833  33.896  28.059  1.00  0.00     0.338 C 
ATOM      4  O   UNL A   1      34.148  35.006  27.631  1.00  0.00    -0.246 OA
BRANCH   3   5
ATOM      5  C   UNL A   1      34.922  33.035  28.620  1.00  0.00     0.060 A 
ATOM      6  C   UNL A   1      34.747  31.946  29.477  1.00  0.00     0.016 A 
ATOM      7  C   UNL A   1      36.235  33.386  28.262  1.00  0.00     0.016 A 
ATOM      8  C   UNL A   1      35.840  31.189  29.916  1.00  0.00     0.010 A 
ATOM      9  C   UNL A   1      37.330  32.628  28.686  1.00  0.00     0.010 A 
ATOM     10  C   UNL A   1      37.137  31.528  29.530  1.00  0.00    -0.014 A 
BRANCH  10  11
ATOM     11  C   UNL A   1      38.302  30.858  30.152  1.00  0.00     0.031 A 
ATOM     12  C   UNL A   1      38.746  31.340  31.503  1.00  0.00     0.074 A 
ATOM     13  C   UNL A   1      38.930  29.834  29.543  1.00  0.00     0.049 A 
ATOM     14  N   UNL A   1      39.704  30.885  32.263  1.00  0.00    -0.248 NA
ATOM     15  C   UNL A   1      37.981  32.451  32.100  1.00  0.00     0.031 C 
ATOM     16  C   UNL A   1      38.501  29.207  28.295  1.00  0.00     0.029 A 
ATOM     17  N   UNL A   1      40.075  29.152  29.874  1.00  0.00    -0.354 N 
ATOM     18  C   UNL A   1      39.638  31.627  33.434  1.00  0.00     0.074 A 
ATOM     19  C   UNL A   1      38.592  32.609  33.264  1.00  0.00     0.031 C 
ATOM     20  C   UNL A   1      39.408  28.283  27.930  1.00  0.00     0.029 A 
ATOM     21  C   UNL A   1      40.493  28.269  28.900  1.00  0.00     0.049 A 
ATOM     22  H   UNL A   1      40.552  29.282  30.724  1.00  0.00     0.167 HD
ATOM     23  C   UNL A   1      40.353  31.465  34.568  1.00  0.00     0.034 A 
ATOM     24  C   UNL A   1      41.622  27.535  28.805  1.00  0.00     0.034 A 
ATOM     25  C   UNL A   1      41.394  30.485  34.706  1.00  0.00     0.049 A 
ATOM     26  C   UNL A   1      42.516  27.505  30.017  1.00  0.00     0.074 A 
ATOM     27  C   UNL A   1      42.164  30.192  35.814  1.00  0.00     0.029 A 
ATOM     28  N   UNL A   1      41.825  29.654  33.680  1.00  0.00    -0.354 N 
ATOM     29  N   UNL A   1      42.362  28.122  31.167  1.00  0.00    -0.248 NA
ATOM     30  C   UNL A   1      43.679  26.613  29.965  1.00  0.00     0.031 C 
ATOM     31  C   UNL A   1      43.089  29.208  35.445  1.00  0.00     0.029 A 
ATOM     32  C   UNL A   1      42.874  28.867  34.117  1.00  0.00     0.049 A 
ATOM     33  H   UNL A   1      41.441  29.629  32.775  1.00  0.00     0.167 HD
ATOM     34  C   UNL A   1      43.351  27.625  32.005  1.00  0.00     0.074 A 
ATOM     35  C   UNL A   1      44.122  26.683  31.214  1.00  0.00     0.031 C 
ATOM     36  C   UNL A   1      43.588  27.903  33.313  1.00  0.00     0.034 A 
BRANCH  23  37
ATOM     37  C   UNL A   1      39.997  32.346  35.736  1.00  0.00     0.023 A 
ATOM     38  C   UNL A   1      40.740  33.523  35.971  1.00  0.00     0.012 A 
ATOM     39  C   UNL A   1      38.948  32.007  36.609  1.00  0.00     0.148 A 
ATOM     40  C   UNL A   1      40.472  34.325  37.078  1.00  0.00     0.002 A 
ATOM     41  C   UNL A   1      38.661  32.832  37.691  1.00  0.00     0.091 A 
ATOM     42  F   UNL A   1      38.273  30.871  36.386  1.00  0.00    -0.205 F 
ATOM     43  C   UNL A   1      39.430  33.983  37.935  1.00  0.00     0.022 A 
BRANCH  41  44
ATOM     44  S   UNL A   1      37.307  32.506  38.824  1.00  0.00     0.127 S 
ATOM     45  O   UNL A   1      36.147  32.861  38.008  1.00  0.00    -0.237 OA
ATOM     46  O   UNL A   1      37.459  31.074  39.081  1.00  0.00    -0.237 OA
ATOM     47  O   UNL A   1      37.541  33.359  39.981  1.00  0.00    -0.744 OA
ENDBRANCH  41  44
ENDBRANCH  23  37
BRANCH  24  48
ATOM     48  C   UNL A   1      41.874  26.656  27.616  1.00  0.00     0.023 A 
ATOM     49  C   UNL A   1      42.521  27.206  26.496  1.00  0.00     0.012 A 
ATOM     50  C   UNL A   1      41.528  25.284  27.588  1.00  0.00     0.148 A 
ATOM     51  C   UNL A   1      42.825  26.415  25.387  1.00  0.00     0.002 A 
ATOM     52  C   UNL A   1      41.898  24.475  26.512  1.00  0.00     0.091 A 
ATOM     53  F   UNL A   1      40.792  24.805  28.592  1.00  0.00    -0.205 F 
ATOM     54  C   UNL A   1      42.537  25.052  25.404  1.00  0.00     0.022 A 
BRANCH  52  55
ATOM     55  S   UNL A   1      41.663  22.680  26.460  1.00  0.00     0.127 S 
ATOM     56  O   UNL A   1      42.370  22.309  25.236  1.00  0.00    -0.237 OA
ATOM     57  O   UNL A   1      42.320  22.238  27.694  1.00  0.00    -0.237 OA
ATOM     58  O   UNL A   1      40.230  22.418  26.450  1.00  0.00    -0.744 OA
ENDBRANCH  52  55
ENDBRANCH  24  48
BRANCH  36  59
ATOM     59  C   UNL A   1      44.692  27.142  33.993  1.00  0.00     0.023 A 
ATOM     60  C   UNL A   1      46.016  27.616  33.928  1.00  0.00     0.012 A 
ATOM     61  C   UNL A   1      44.394  26.014  34.784  1.00  0.00     0.148 A 
ATOM     62  C   UNL A   1      47.032  26.963  34.622  1.00  0.00     0.002 A 
ATOM     63  C   UNL A   1      45.403  25.402  35.515  1.00  0.00     0.091 A 
ATOM     64  F   UNL A   1      43.129  25.570  34.816  1.00  0.00    -0.205 F 
ATOM     65  C   UNL A   1      46.725  25.867  35.425  1.00  0.00     0.022 A 
BRANCH  63  66
ATOM     66  S   UNL A   1      45.075  24.059  36.662  1.00  0.00     0.127 S 
ATOM     67  O   UNL A   1      44.597  23.009  35.763  1.00  0.00    -0.237 OA
ATOM     68  O   UNL A   1      46.398  23.813  37.239  1.00  0.00    -0.237 OA
ATOM     69  O   UNL A   1      44.092  24.570  37.607  1.00  0.00    -0.744 OA
ENDBRANCH  63  66
ENDBRANCH  36  59
ENDBRANCH  10  11
ENDBRANCH   3   5
ENDBRANCH   2   3
ENDBRANCH   1   2
BRANCH   1  70
ATOM     70  C   UNL A   1      32.299  31.171  26.936  1.00  0.00     0.275 C 
BRANCH  70  71
ATOM     71  O   UNL A   1      31.717  30.410  25.873  1.00  0.00    -0.458 OA
BRANCH  71  72
ATOM     72  C   UNL A   1      32.365  29.246  25.571  1.00  0.00     0.338 C 
ATOM     73  O   UNL A   1      33.541  29.010  25.730  1.00  0.00    -0.246 OA
BRANCH  72  74
ATOM     74  C   UNL A   1      31.369  28.250  25.108  1.00  0.00     0.062 A 
ATOM     75  C   UNL A   1      30.654  28.464  23.932  1.00  0.00     0.016 A 
ATOM     76  C   UNL A   1      31.145  27.090  25.838  1.00  0.00     0.041 A 
ATOM     77  C   UNL A   1      29.746  27.491  23.486  1.00  0.00     0.003 A 
ATOM     78  C   UNL A   1      30.196  26.138  25.419  1.00  0.00     0.042 A 
ATOM     79  C   UNL A   1      29.506  26.326  24.234  1.00  0.00     0.026 A 
BRANCH  78  80
ATOM     80  N   UNL A   1      30.033  25.104  26.317  1.00  0.00    -0.321 N 
ATOM     81  C   UNL A   1      30.413  23.830  26.562  1.00  0.00     0.272 C 
ATOM     82  H   UNL A   1      29.425  25.398  27.033  1.00  0.00     0.170 HD
ATOM     83  O   UNL A   1      29.705  23.360  27.463  1.00  0.00    -0.267 OA
BRANCH  81  84
ATOM     84  C   UNL A   1      31.410  23.029  25.906  1.00  0.00     0.105 A 
ATOM     85  C   UNL A   1      31.643  22.739  24.565  1.00  0.00     0.042 A 
ATOM     86  N   UNL A   1      32.632  22.888  26.546  1.00  0.00    -0.351 N 
ATOM     87  C   UNL A   1      33.072  22.832  24.366  1.00  0.00     0.000 A 
ATOM     88  C   UNL A   1      33.654  22.929  25.623  1.00  0.00     0.046 A 
ATOM     89  H   UNL A   1      32.752  22.775  27.517  1.00  0.00     0.167 HD
ATOM     90  C   UNL A   1      33.912  23.023  23.244  1.00  0.00     0.010 A 
ATOM     91  C   UNL A   1      35.002  23.238  25.842  1.00  0.00     0.026 A 
ATOM     92  C   UNL A   1      35.258  23.390  23.444  1.00  0.00     0.001 A 
ATOM     93  C   UNL A   1      35.790  23.506  24.727  1.00  0.00     0.002 A 
ENDBRANCH  81  84
ENDBRANCH  78  80
ENDBRANCH  72  74
ENDBRANCH  71  72
ENDBRANCH  70  71
ENDBRANCH   1  70
TORSDOF 16
ENDMDL
MODEL 2
REMARK VINA RESULT:     -12.6      1.268      1.530
REMARK SMILES O=C(OCCOC(=O)c1cccc(NC(=O)c2cc3ccccc3[nH]2)c1)c1ccc(-c2c3nc(c(-c4cccc(S(=O)(=O)[O-])c4F)c4ccc([nH]4)c(-c4cccc(S(=O)(=O)[O-])c4F)c4nc(c(-c5cccc(S(=O)(=O)[O-])c5F)c5ccc2[nH]5)C=C4)C=C3)cc1
REMARK SMILES IDX 4 1 3 2 2 3 1 4 27 5 28 6 89 7 29 8 88 9 30 10 31 11 32 12
REMARK SMILES IDX 82 13 33 14 87 15 81 16 83 17 34 18 86 19 80 20 79 21 35 23
REMARK SMILES IDX 67 24 47 25 66 26 48 27 51 28 65 29 84 30 49 31 50 32 64 34
REMARK SMILES IDX 85 35 52 36 36 37 37 38 45 39 38 40 40 41 46 42 39 43 41 44
REMARK SMILES IDX 42 45 43 46 44 47 68 48 69 49 77 50 70 51 72 52 78 53 71 54
REMARK SMILES IDX 73 55 74 56 75 57 76 58 53 59 54 60 62 61 55 62 57 63 63 64
REMARK SMILES IDX 56 65 58 66 59 67 60 68 61 69 5 70 6 71 7 72 8 73 9 74 10 75
REMARK SMILES IDX 26 76 11 77 13 78 12 79 14 80 15 81 16 83 17 84 18 85 25 86
REMARK SMILES IDX 19 87 24 88 20 90 23 91 21 92 22 93
REMARK H PARENT 83 22 51 33 14 82 25 89
REMARK Flexibility Score: inf
ROOT
ATOM      1  C   UNL A   1      31.745  32.563  26.624  1.00  0.00     0.275 C 
ENDROOT
BRANCH   1   2
ATOM      2  O   UNL A   1      32.430  33.289  27.658  1.00  0.00    -0.458 OA
BRANCH   2   3
ATOM      3  C   UNL A   1      33.716  33.714  27.721  1.00  0.00     0.338 C 
ATOM      4  O   UNL A   1      34.002  34.796  27.208  1.00  0.00    -0.246 OA
BRANCH   3   5
ATOM      5  C   UNL A   1      34.837  32.888  28.269  1.00  0.00     0.060 A 
ATOM      6  C   UNL A   1      34.720  31.613  28.826  1.00  0.00     0.016 A 
ATOM      7  C   UNL A   1      36.113  33.478  28.237  1.00  0.00     0.016 A 
ATOM      8  C   UNL A   1      35.847  30.917  29.281  1.00  0.00     0.010 A 
ATOM      9  C   UNL A   1      37.245  32.784  28.677  1.00  0.00     0.010 A 
ATOM     10  C   UNL A   1      37.114  31.499  29.216  1.00  0.00    -0.014 A 
BRANCH  10  11
ATOM     11  C   UNL A   1      38.270  30.852  29.877  1.00  0.00     0.031 A 
ATOM     12  C   UNL A   1      38.648  31.331  31.249  1.00  0.00     0.074 A 
ATOM     13  C   UNL A   1      38.947  29.850  29.284  1.00  0.00     0.049 A 
ATOM     14  N   UNL A   1      39.587  30.893  32.042  1.00  0.00    -0.248 NA
ATOM     15  C   UNL A   1      37.832  32.418  31.825  1.00  0.00     0.031 C 
ATOM     16  C   UNL A   1      38.583  29.225  28.015  1.00  0.00     0.029 A 
ATOM     17  N   UNL A   1      40.094  29.194  29.654  1.00  0.00    -0.354 N 
ATOM     18  C   UNL A   1      39.456  31.622  33.216  1.00  0.00     0.074 A 
ATOM     19  C   UNL A   1      38.392  32.579  33.013  1.00  0.00     0.031 C 
ATOM     20  C   UNL A   1      39.526  28.327  27.678  1.00  0.00     0.029 A 
ATOM     21  C   UNL A   1      40.573  28.331  28.690  1.00  0.00     0.049 A 
ATOM     22  H   UNL A   1      40.534  29.327  30.524  1.00  0.00     0.167 HD
ATOM     23  C   UNL A   1      40.130  31.466  34.377  1.00  0.00     0.034 A 
ATOM     24  C   UNL A   1      41.722  27.626  28.634  1.00  0.00     0.034 A 
ATOM     25  C   UNL A   1      41.188  30.512  34.547  1.00  0.00     0.049 A 
ATOM     26  C   UNL A   1      42.568  27.607  29.880  1.00  0.00     0.074 A 
ATOM     27  C   UNL A   1      41.921  30.227  35.681  1.00  0.00     0.029 A 
ATOM     28  N   UNL A   1      41.681  29.701  33.531  1.00  0.00    -0.354 N 
ATOM     29  N   UNL A   1      42.354  28.208  31.028  1.00  0.00    -0.248 NA
ATOM     30  C   UNL A   1      43.755  26.744  29.866  1.00  0.00     0.031 C 
ATOM     31  C   UNL A   1      42.884  29.270  35.340  1.00  0.00     0.029 A 
ATOM     32  C   UNL A   1      42.730  28.936  34.002  1.00  0.00     0.049 A 
ATOM     33  H   UNL A   1      41.333  29.676  32.611  1.00  0.00     0.167 HD
ATOM     34  C   UNL A   1      43.322  27.728  31.900  1.00  0.00     0.074 A 
ATOM     35  C   UNL A   1      44.146  26.813  31.132  1.00  0.00     0.031 C 
ATOM     36  C   UNL A   1      43.500  27.999  33.218  1.00  0.00     0.034 A 
BRANCH  23  37
ATOM     37  C   UNL A   1      39.706  32.327  35.537  1.00  0.00     0.023 A 
ATOM     38  C   UNL A   1      38.800  31.814  36.489  1.00  0.00     0.012 A 
ATOM     39  C   UNL A   1      40.183  33.643  35.678  1.00  0.00     0.148 A 
ATOM     40  C   UNL A   1      38.343  32.609  37.539  1.00  0.00     0.002 A 
ATOM     41  C   UNL A   1      39.752  34.418  36.748  1.00  0.00     0.091 A 
ATOM     42  F   UNL A   1      41.020  34.123  34.747  1.00  0.00    -0.205 F 
ATOM     43  C   UNL A   1      38.823  33.908  37.672  1.00  0.00     0.022 A 
BRANCH  41  44
ATOM     44  S   UNL A   1      40.349  36.087  37.037  1.00  0.00     0.127 S 
ATOM     45  O   UNL A   1      41.794  35.873  37.122  1.00  0.00    -0.237 OA
ATOM     46  O   UNL A   1      39.905  36.785  35.831  1.00  0.00    -0.237 OA
ATOM     47  O   UNL A   1      39.710  36.532  38.268  1.00  0.00    -0.744 OA
ENDBRANCH  41  44
ENDBRANCH  23  37
BRANCH  24  48
ATOM     48  C   UNL A   1      42.043  26.766  27.448  1.00  0.00     0.023 A 
ATOM     49  C   UNL A   1      42.625  27.365  26.317  1.00  0.00     0.012 A 
ATOM     50  C   UNL A   1      41.826  25.367  27.432  1.00  0.00     0.148 A 
ATOM     51  C   UNL A   1      42.991  26.597  25.210  1.00  0.00     0.002 A 
ATOM     52  C   UNL A   1      42.259  24.588  26.357  1.00  0.00     0.091 A 
ATOM     53  F   UNL A   1      41.148  24.830  28.447  1.00  0.00    -0.205 F 
ATOM     54  C   UNL A   1      42.831  25.213  25.240  1.00  0.00     0.022 A 
BRANCH  52  55
ATOM     55  S   UNL A   1      42.193  22.778  26.320  1.00  0.00     0.127 S 
ATOM     56  O   UNL A   1      42.800  22.471  25.027  1.00  0.00    -0.237 OA
ATOM     57  O   UNL A   1      43.013  22.406  27.476  1.00  0.00    -0.237 OA
ATOM     58  O   UNL A   1      40.797  22.382  26.458  1.00  0.00    -0.744 OA
ENDBRANCH  52  55
ENDBRANCH  24  48
BRANCH  36  59
ATOM     59  C   UNL A   1      44.595  27.259  33.935  1.00  0.00     0.023 A 
ATOM     60  C   UNL A   1      45.891  27.805  33.993  1.00  0.00     0.012 A 
ATOM     61  C   UNL A   1      44.307  26.073  34.640  1.00  0.00     0.148 A 
ATOM     62  C   UNL A   1      46.892  27.167  34.723  1.00  0.00     0.002 A 
ATOM     63  C   UNL A   1      45.296  25.473  35.408  1.00  0.00     0.091 A 
ATOM     64  F   UNL A   1      43.070  25.561  34.555  1.00  0.00    -0.205 F 
ATOM     65  C   UNL A   1      46.592  26.012  35.441  1.00  0.00     0.022 A 
BRANCH  63  66
ATOM     66  S   UNL A   1      44.965  24.050  36.454  1.00  0.00     0.127 S 
ATOM     67  O   UNL A   1      46.284  23.790  37.029  1.00  0.00    -0.237 OA
ATOM     68  O   UNL A   1      43.981  24.581  37.399  1.00  0.00    -0.237 OA
ATOM     69  O   UNL A   1      44.452  23.013  35.570  1.00  0.00    -0.744 OA
ENDBRANCH  63  66
ENDBRANCH  36  59
ENDBRANCH  10  11
ENDBRANCH   3   5
ENDBRANCH   2   3
ENDBRANCH   1   2
BRANCH   1  70
ATOM     70  C   UNL A   1      31.634  31.051  26.840  1.00  0.00     0.275 C 
BRANCH  70  71
ATOM     71  O   UNL A   1      31.786  30.292  25.635  1.00  0.00    -0.458 OA
BRANCH  71  72
ATOM     72  C   UNL A   1      32.319  29.045  25.799  1.00  0.00     0.338 C 
ATOM     73  O   UNL A   1      33.352  28.768  26.364  1.00  0.00    -0.246 OA
BRANCH  72  74
ATOM     74  C   UNL A   1      31.367  28.044  25.260  1.00  0.00     0.062 A 
ATOM     75  C   UNL A   1      30.772  28.236  24.015  1.00  0.00     0.016 A 
ATOM     76  C   UNL A   1      31.066  26.900  25.988  1.00  0.00     0.041 A 
ATOM     77  C   UNL A   1      29.906  27.258  23.502  1.00  0.00     0.003 A 
ATOM     78  C   UNL A   1      30.158  25.943  25.497  1.00  0.00     0.042 A 
ATOM     79  C   UNL A   1      29.588  26.109  24.246  1.00  0.00     0.026 A 
BRANCH  78  80
ATOM     80  N   UNL A   1      29.903  24.928  26.395  1.00  0.00    -0.321 N 
ATOM     81  C   UNL A   1      30.313  23.693  26.759  1.00  0.00     0.272 C 
ATOM     82  H   UNL A   1      29.157  25.199  26.978  1.00  0.00     0.170 HD
ATOM     83  O   UNL A   1      29.486  23.201  27.538  1.00  0.00    -0.267 OA
BRANCH  81  84
ATOM     84  C   UNL A   1      31.462  22.945  26.326  1.00  0.00     0.105 A 
ATOM     85  C   UNL A   1      31.721  22.212  25.172  1.00  0.00     0.042 A 
ATOM     86  N   UNL A   1      32.698  23.347  26.810  1.00  0.00    -0.351 N 
ATOM     87  C   UNL A   1      33.071  22.538  24.771  1.00  0.00     0.000 A 
ATOM     88  C   UNL A   1      33.647  23.250  25.815  1.00  0.00     0.046 A 
ATOM     89  H   UNL A   1      32.873  23.655  27.729  1.00  0.00     0.167 HD
ATOM     90  C   UNL A   1      33.799  22.457  23.561  1.00  0.00     0.010 A 
ATOM     91  C   UNL A   1      34.875  23.915  25.728  1.00  0.00     0.026 A 
ATOM     92  C   UNL A   1      35.010  23.165  23.435  1.00  0.00     0.001 A 
ATOM     93  C   UNL A   1      35.533  23.893  24.502  1.00  0.00     0.002 A 
ENDBRANCH  81  84
ENDBRANCH  78  80
ENDBRANCH  72  74
ENDBRANCH  71  72
ENDBRANCH  70  71
ENDBRANCH   1  70
TORSDOF 16
ENDMDL
MODEL 3
REMARK VINA RESULT:     -12.3      1.963      7.996
REMARK SMILES O=C(OCCOC(=O)c1cccc(NC(=O)c2cc3ccccc3[nH]2)c1)c1ccc(-c2c3nc(c(-c4cccc(S(=O)(=O)[O-])c4F)c4ccc([nH]4)c(-c4cccc(S(=O)(=O)[O-])c4F)c4nc(c(-c5cccc(S(=O)(=O)[O-])c5F)c5ccc2[nH]5)C=C4)C=C3)cc1
REMARK SMILES IDX 4 1 3 2 2 3 1 4 27 5 28 6 89 7 29 8 88 9 30 10 31 11 32 12
REMARK SMILES IDX 82 13 33 14 87 15 81 16 83 17 34 18 86 19 80 20 79 21 35 23
REMARK SMILES IDX 67 24 47 25 66 26 48 27 51 28 65 29 84 30 49 31 50 32 64 34
REMARK SMILES IDX 85 35 52 36 36 37 37 38 45 39 38 40 40 41 46 42 39 43 41 44
REMARK SMILES IDX 42 45 43 46 44 47 68 48 69 49 77 50 70 51 72 52 78 53 71 54
REMARK SMILES IDX 73 55 74 56 75 57 76 58 53 59 54 60 62 61 55 62 57 63 63 64
REMARK SMILES IDX 56 65 58 66 59 67 60 68 61 69 5 70 6 71 7 72 8 73 9 74 10 75
REMARK SMILES IDX 26 76 11 77 13 78 12 79 14 80 15 81 16 83 17 84 18 85 25 86
REMARK SMILES IDX 19 87 24 88 20 90 23 91 21 92 22 93
REMARK H PARENT 83 22 51 33 14 82 25 89
REMARK Flexibility Score: inf
ROOT
ATOM      1  C   UNL A   1      32.781  32.395  27.192  1.00  0.00     0.275 C 
ENDROOT
BRANCH   1   2
ATOM      2  O   UNL A   1      32.493  33.726  27.651  1.00  0.00    -0.458 OA
BRANCH   2   3
ATOM      3  C   UNL A   1      33.092  34.464  28.618  1.00  0.00     0.338 C 
ATOM      4  O   UNL A   1      32.667  35.599  28.837  1.00  0.00    -0.246 OA
BRANCH   3   5
ATOM      5  C   UNL A   1      34.320  34.029  29.354  1.00  0.00     0.060 A 
ATOM      6  C   UNL A   1      35.639  34.269  28.962  1.00  0.00     0.016 A 
ATOM      7  C   UNL A   1      34.108  33.288  30.530  1.00  0.00     0.016 A 
ATOM      8  C   UNL A   1      36.716  33.842  29.748  1.00  0.00     0.010 A 
ATOM      9  C   UNL A   1      35.178  32.868  31.326  1.00  0.00     0.010 A 
ATOM     10  C   UNL A   1      36.494  33.134  30.929  1.00  0.00    -0.014 A 
BRANCH  10  11
ATOM     11  C   UNL A   1      37.625  32.508  31.652  1.00  0.00     0.031 A 
ATOM     12  C   UNL A   1      38.256  31.290  31.041  1.00  0.00     0.074 A 
ATOM     13  C   UNL A   1      38.094  33.025  32.804  1.00  0.00     0.049 A 
ATOM     14  N   UNL A   1      39.280  30.599  31.460  1.00  0.00    -0.248 NA
ATOM     15  C   UNL A   1      37.688  30.812  29.766  1.00  0.00     0.031 C 
ATOM     16  C   UNL A   1      37.640  34.274  33.411  1.00  0.00     0.029 A 
ATOM     17  N   UNL A   1      39.038  32.558  33.684  1.00  0.00    -0.354 N 
ATOM     18  C   UNL A   1      39.499  29.630  30.490  1.00  0.00     0.074 A 
ATOM     19  C   UNL A   1      38.463  29.775  29.493  1.00  0.00     0.031 C 
ATOM     20  C   UNL A   1      38.254  34.437  34.597  1.00  0.00     0.029 A 
ATOM     21  C   UNL A   1      39.122  33.296  34.847  1.00  0.00     0.049 A 
ATOM     22  H   UNL A   1      39.601  31.772  33.503  1.00  0.00     0.167 HD
ATOM     23  C   UNL A   1      40.510  28.736  30.414  1.00  0.00     0.034 A 
ATOM     24  C   UNL A   1      39.821  33.074  35.980  1.00  0.00     0.034 A 
ATOM     25  C   UNL A   1      41.521  28.609  31.424  1.00  0.00     0.049 A 
ATOM     26  C   UNL A   1      40.822  31.948  35.950  1.00  0.00     0.074 A 
ATOM     27  C   UNL A   1      42.619  27.772  31.448  1.00  0.00     0.029 A 
ATOM     28  N   UNL A   1      41.536  29.331  32.612  1.00  0.00    -0.354 N 
ATOM     29  N   UNL A   1      41.101  31.122  34.967  1.00  0.00    -0.248 NA
ATOM     30  C   UNL A   1      41.671  31.781  37.136  1.00  0.00     0.031 C 
ATOM     31  C   UNL A   1      43.278  27.963  32.669  1.00  0.00     0.029 A 
ATOM     32  C   UNL A   1      42.607  28.939  33.392  1.00  0.00     0.049 A 
ATOM     33  H   UNL A   1      40.880  30.021  32.860  1.00  0.00     0.167 HD
ATOM     34  C   UNL A   1      42.213  30.399  35.378  1.00  0.00     0.074 A 
ATOM     35  C   UNL A   1      42.532  30.863  36.715  1.00  0.00     0.031 C 
ATOM     36  C   UNL A   1      42.921  29.457  34.703  1.00  0.00     0.034 A 
BRANCH  23  37
ATOM     37  C   UNL A   1      40.567  27.868  29.186  1.00  0.00     0.023 A 
ATOM     38  C   UNL A   1      39.752  26.718  29.107  1.00  0.00     0.012 A 
ATOM     39  C   UNL A   1      41.434  28.172  28.120  1.00  0.00     0.148 A 
ATOM     40  C   UNL A   1      39.829  25.864  28.009  1.00  0.00     0.002 A 
ATOM     41  C   UNL A   1      41.479  27.336  27.011  1.00  0.00     0.091 A 
ATOM     42  F   UNL A   1      42.221  29.253  28.226  1.00  0.00    -0.205 F 
ATOM     43  C   UNL A   1      40.688  26.175  26.959  1.00  0.00     0.022 A 
BRANCH  41  44
ATOM     44  S   UNL A   1      42.514  27.676  25.584  1.00  0.00     0.127 S 
ATOM     45  O   UNL A   1      43.845  27.713  26.187  1.00  0.00    -0.237 OA
ATOM     46  O   UNL A   1      42.259  26.512  24.736  1.00  0.00    -0.237 OA
ATOM     47  O   UNL A   1      42.039  28.940  25.038  1.00  0.00    -0.744 OA
ENDBRANCH  41  44
ENDBRANCH  23  37
BRANCH  24  48
ATOM     48  C   UNL A   1      39.726  34.016  37.143  1.00  0.00     0.023 A 
ATOM     49  C   UNL A   1      40.193  35.332  36.984  1.00  0.00     0.012 A 
ATOM     50  C   UNL A   1      39.148  33.652  38.383  1.00  0.00     0.148 A 
ATOM     51  C   UNL A   1      40.078  36.261  38.020  1.00  0.00     0.002 A 
ATOM     52  C   UNL A   1      38.965  34.599  39.392  1.00  0.00     0.091 A 
ATOM     53  F   UNL A   1      38.838  32.369  38.573  1.00  0.00    -0.205 F 
ATOM     54  C   UNL A   1      39.446  35.903  39.209  1.00  0.00     0.022 A 
BRANCH  52  55
ATOM     55  S   UNL A   1      38.076  34.279  40.938  1.00  0.00     0.127 S 
ATOM     56  O   UNL A   1      37.793  35.629  41.419  1.00  0.00    -0.237 OA
ATOM     57  O   UNL A   1      36.895  33.542  40.479  1.00  0.00    -0.237 OA
ATOM     58  O   UNL A   1      38.947  33.486  41.796  1.00  0.00    -0.744 OA
ENDBRANCH  52  55
ENDBRANCH  24  48
BRANCH  36  59
ATOM     59  C   UNL A   1      44.144  28.898  35.374  1.00  0.00     0.023 A 
ATOM     60  C   UNL A   1      45.402  29.488  35.147  1.00  0.00     0.012 A 
ATOM     61  C   UNL A   1      44.025  27.853  36.312  1.00  0.00     0.148 A 
ATOM     62  C   UNL A   1      46.529  29.029  35.826  1.00  0.00     0.002 A 
ATOM     63  C   UNL A   1      45.142  27.438  37.025  1.00  0.00     0.091 A 
ATOM     64  F   UNL A   1      42.820  27.294  36.500  1.00  0.00    -0.205 F 
ATOM     65  C   UNL A   1      46.397  28.016  36.774  1.00  0.00     0.022 A 
BRANCH  63  66
ATOM     66  S   UNL A   1      45.040  26.222  38.343  1.00  0.00     0.127 S 
ATOM     67  O   UNL A   1      44.125  26.874  39.279  1.00  0.00    -0.237 OA
ATOM     68  O   UNL A   1      44.480  25.060  37.652  1.00  0.00    -0.237 OA
ATOM     69  O   UNL A   1      46.402  26.038  38.825  1.00  0.00    -0.744 OA
ENDBRANCH  63  66
ENDBRANCH  36  59
ENDBRANCH  10  11
ENDBRANCH   3   5
ENDBRANCH   2   3
ENDBRANCH   1   2
BRANCH   1  70
ATOM     70  C   UNL A   1      31.574  31.584  26.715  1.00  0.00     0.275 C 
BRANCH  70  71
ATOM     71  O   UNL A   1      31.915  30.544  25.792  1.00  0.00    -0.458 OA
BRANCH  71  72
ATOM     72  C   UNL A   1      32.200  29.335  26.361  1.00  0.00     0.338 C 
ATOM     73  O   UNL A   1      32.927  29.133  27.306  1.00  0.00    -0.246 OA
BRANCH  72  74
ATOM     74  C   UNL A   1      31.381  28.291  25.698  1.00  0.00     0.062 A 
ATOM     75  C   UNL A   1      30.833  28.520  24.439  1.00  0.00     0.016 A 
ATOM     76  C   UNL A   1      31.160  27.070  26.324  1.00  0.00     0.041 A 
ATOM     77  C   UNL A   1      30.097  27.504  23.808  1.00  0.00     0.003 A 
ATOM     78  C   UNL A   1      30.379  26.071  25.715  1.00  0.00     0.042 A 
ATOM     79  C   UNL A   1      29.858  26.277  24.449  1.00  0.00     0.026 A 
BRANCH  78  80
ATOM     80  N   UNL A   1      30.181  24.971  26.522  1.00  0.00    -0.321 N 
ATOM     81  C   UNL A   1      30.396  23.638  26.585  1.00  0.00     0.272 C 
ATOM     82  H   UNL A   1      29.721  25.258  27.344  1.00  0.00     0.170 HD
ATOM     83  O   UNL A   1      29.748  23.165  27.529  1.00  0.00    -0.267 OA
BRANCH  81  84
ATOM     84  C   UNL A   1      31.169  22.793  25.718  1.00  0.00     0.105 A 
ATOM     85  C   UNL A   1      31.725  23.002  24.459  1.00  0.00     0.042 A 
ATOM     86  N   UNL A   1      31.937  21.804  26.315  1.00  0.00    -0.351 N 
ATOM     87  C   UNL A   1      33.052  22.430  24.493  1.00  0.00     0.000 A 
ATOM     88  C   UNL A   1      33.149  21.694  25.667  1.00  0.00     0.046 A 
ATOM     89  H   UNL A   1      31.659  21.261  27.087  1.00  0.00     0.167 HD
ATOM     90  C   UNL A   1      34.235  22.607  23.739  1.00  0.00     0.010 A 
ATOM     91  C   UNL A   1      34.343  21.155  26.160  1.00  0.00     0.026 A 
ATOM     92  C   UNL A   1      35.457  22.121  24.245  1.00  0.00     0.001 A 
ATOM     93  C   UNL A   1      35.509  21.415  25.445  1.00  0.00     0.002 A 
ENDBRANCH  81  84
ENDBRANCH  78  80
ENDBRANCH  72  74
ENDBRANCH  71  72
ENDBRANCH  70  71
ENDBRANCH   1  70
TORSDOF 16
ENDMDL
