MODEL 1
REMARK VINA RESULT:     -11.2      0.000      0.000
REMARK SMILES Cc1cc(C)n([C@@H](C(=O)OCCOC(=O)c2ccc(-c3c4nc(c(-c5cccc(S(=O)(=O)[O-])c5F)c5ccc([nH]5)c(-c5cccc(S(=O)(=O)[O-])c5F)c5nc(c(-c6cccc(S(=O)(=O)[O-])c6F)c6ccc3[nH]6)C=C5)C=C4)cc2)C(C)C)n1
REMARK SMILES IDX 12 1 11 2 10 3 8 4 9 5 7 6 6 7 1 8 2 9 3 10 82 11 4 12 5 13
REMARK SMILES IDX 79 14 80 15 81 16 13 17 14 18 15 19 16 20 17 21 78 22 18 23
REMARK SMILES IDX 77 24 19 25 20 26 21 27 71 28 22 29 76 30 70 31 72 32 23 33
REMARK SMILES IDX 75 34 69 35 68 36 24 38 56 39 36 40 55 41 37 42 40 43 54 44
REMARK SMILES IDX 73 45 38 46 39 47 53 49 74 50 41 51 25 52 26 53 34 54 27 55
REMARK SMILES IDX 29 56 35 57 28 58 30 59 31 60 32 61 33 62 57 63 58 64 66 65
REMARK SMILES IDX 59 66 61 67 67 68 60 69 62 70 63 71 64 72 65 73 42 74 43 75
REMARK SMILES IDX 51 76 44 77 46 78 52 79 45 80 47 81 48 82 49 83 50 84
REMARK H PARENT 72 37 40 48
REMARK Flexibility Score: inf
ROOT
ATOM      1  C   UNL A   1      38.756  21.776  25.648  1.00  0.00     0.275 C 
ENDROOT
BRANCH   1   2
ATOM      2  C   UNL A   1      37.291  21.617  25.250  1.00  0.00     0.274 C 
BRANCH   2   3
ATOM      3  O   UNL A   1      37.068  22.318  24.008  1.00  0.00    -0.460 OA
BRANCH   3   4
ATOM      4  C   UNL A   1      35.776  22.636  23.711  1.00  0.00     0.331 C 
ATOM      5  O   UNL A   1      35.451  23.209  22.670  1.00  0.00    -0.250 OA
BRANCH   4   6
ATOM      6  C   UNL A   1      34.761  22.230  24.783  1.00  0.00     0.219 C 
BRANCH   6   7
ATOM      7  N   UNL A   1      33.864  21.128  24.373  1.00  0.00    -0.255 N 
ATOM      8  C   UNL A   1      32.884  17.791  25.150  1.00  0.00     0.069 C 
ATOM      9  C   UNL A   1      33.065  19.153  24.607  1.00  0.00     0.060 A 
ATOM     10  C   UNL A   1      32.253  19.789  23.665  1.00  0.00     0.048 A 
ATOM     11  N   UNL A   1      34.058  19.941  25.020  1.00  0.00    -0.177 NA
ATOM     12  C   UNL A   1      32.745  21.072  23.556  1.00  0.00     0.037 A 
ATOM     13  C   UNL A   1      32.134  22.135  22.730  1.00  0.00     0.066 C 
ENDBRANCH   6   7
BRANCH   6  14
ATOM     14  C   UNL A   1      34.069  23.382  25.580  1.00  0.00     0.019 C 
ATOM     15  C   UNL A   1      33.959  23.009  27.065  1.00  0.00     0.010 C 
ATOM     16  C   UNL A   1      34.759  24.750  25.476  1.00  0.00     0.010 C 
ENDBRANCH   6  14
ENDBRANCH   4   6
ENDBRANCH   3   4
ENDBRANCH   2   3
ENDBRANCH   1   2
BRANCH   1  17
ATOM     17  O   UNL A   1      39.036  22.958  26.421  1.00  0.00    -0.458 OA
BRANCH  17  18
ATOM     18  C   UNL A   1      40.321  23.122  26.788  1.00  0.00     0.338 C 
ATOM     19  O   UNL A   1      41.222  22.310  26.658  1.00  0.00    -0.246 OA
BRANCH  18  20
ATOM     20  C   UNL A   1      40.511  24.305  27.618  1.00  0.00     0.060 A 
ATOM     21  C   UNL A   1      39.477  25.253  27.602  1.00  0.00     0.016 A 
ATOM     22  C   UNL A   1      41.738  24.568  28.221  1.00  0.00     0.016 A 
ATOM     23  C   UNL A   1      39.731  26.533  28.027  1.00  0.00     0.010 A 
ATOM     24  C   UNL A   1      41.967  25.827  28.726  1.00  0.00     0.010 A 
ATOM     25  C   UNL A   1      40.986  26.812  28.574  1.00  0.00    -0.014 A 
BRANCH  25  26
ATOM     26  C   UNL A   1      41.121  28.069  29.288  1.00  0.00     0.031 A 
ATOM     27  C   UNL A   1      42.155  28.939  28.649  1.00  0.00     0.074 A 
ATOM     28  C   UNL A   1      40.263  28.424  30.265  1.00  0.00     0.049 A 
ATOM     29  N   UNL A   1      43.222  29.434  29.186  1.00  0.00    -0.248 NA
ATOM     30  C   UNL A   1      42.118  29.078  27.176  1.00  0.00     0.031 C 
ATOM     31  C   UNL A   1      39.083  27.685  30.723  1.00  0.00     0.029 A 
ATOM     32  N   UNL A   1      40.149  29.608  30.924  1.00  0.00    -0.354 N 
ATOM     33  C   UNL A   1      43.825  30.173  28.169  1.00  0.00     0.074 A 
ATOM     34  C   UNL A   1      43.263  29.715  26.932  1.00  0.00     0.031 C 
ATOM     35  C   UNL A   1      38.233  28.544  31.326  1.00  0.00     0.029 A 
ATOM     36  C   UNL A   1      38.857  29.853  31.393  1.00  0.00     0.049 A 
ATOM     37  H   UNL A   1      40.901  30.229  31.058  1.00  0.00     0.167 HD
ATOM     38  C   UNL A   1      44.473  31.336  28.446  1.00  0.00     0.034 A 
ATOM     39  C   UNL A   1      38.314  31.065  31.688  1.00  0.00     0.034 A 
ATOM     40  C   UNL A   1      44.880  31.390  29.824  1.00  0.00     0.049 A 
ATOM     41  C   UNL A   1      39.434  32.024  31.838  1.00  0.00     0.074 A 
ATOM     42  C   UNL A   1      45.641  30.572  30.638  1.00  0.00     0.029 A 
ATOM     43  N   UNL A   1      44.131  32.174  30.666  1.00  0.00    -0.354 N 
ATOM     44  N   UNL A   1      40.317  31.948  32.794  1.00  0.00    -0.248 NA
ATOM     45  C   UNL A   1      39.849  32.760  30.654  1.00  0.00     0.031 C 
ATOM     46  C   UNL A   1      44.949  30.557  31.883  1.00  0.00     0.029 A 
ATOM     47  C   UNL A   1      43.871  31.439  31.791  1.00  0.00     0.049 A 
ATOM     48  H   UNL A   1      43.835  33.096  30.492  1.00  0.00     0.167 HD
ATOM     49  C   UNL A   1      41.526  32.187  32.155  1.00  0.00     0.074 A 
ATOM     50  C   UNL A   1      41.169  32.770  30.861  1.00  0.00     0.031 C 
ATOM     51  C   UNL A   1      42.680  31.603  32.593  1.00  0.00     0.034 A 
BRANCH  38  52
ATOM     52  C   UNL A   1      44.347  32.576  27.590  1.00  0.00     0.023 A 
ATOM     53  C   UNL A   1      45.285  32.745  26.550  1.00  0.00     0.012 A 
ATOM     54  C   UNL A   1      43.550  33.699  27.919  1.00  0.00     0.148 A 
ATOM     55  C   UNL A   1      45.446  33.977  25.905  1.00  0.00     0.002 A 
ATOM     56  C   UNL A   1      43.649  34.891  27.214  1.00  0.00     0.091 A 
ATOM     57  F   UNL A   1      42.787  33.687  29.013  1.00  0.00    -0.205 F 
ATOM     58  C   UNL A   1      44.620  35.047  26.226  1.00  0.00     0.022 A 
BRANCH  56  59
ATOM     59  S   UNL A   1      42.560  36.280  27.561  1.00  0.00     0.127 S 
ATOM     60  O   UNL A   1      43.072  36.736  28.850  1.00  0.00    -0.237 OA
ATOM     61  O   UNL A   1      42.842  37.165  26.431  1.00  0.00    -0.237 OA
ATOM     62  O   UNL A   1      41.211  35.730  27.566  1.00  0.00    -0.744 OA
ENDBRANCH  56  59
ENDBRANCH  38  52
BRANCH  39  63
ATOM     63  C   UNL A   1      36.914  31.535  31.523  1.00  0.00     0.023 A 
ATOM     64  C   UNL A   1      36.198  32.011  32.642  1.00  0.00     0.012 A 
ATOM     65  C   UNL A   1      36.369  31.780  30.243  1.00  0.00     0.148 A 
ATOM     66  C   UNL A   1      35.001  32.724  32.490  1.00  0.00     0.002 A 
ATOM     67  C   UNL A   1      35.173  32.478  30.095  1.00  0.00     0.091 A 
ATOM     68  F   UNL A   1      37.070  31.415  29.161  1.00  0.00    -0.205 F 
ATOM     69  C   UNL A   1      34.491  32.962  31.216  1.00  0.00     0.022 A 
BRANCH  67  70
ATOM     70  S   UNL A   1      34.472  32.837  28.478  1.00  0.00     0.127 S 
ATOM     71  O   UNL A   1      33.976  31.523  28.065  1.00  0.00    -0.237 OA
ATOM     72  O   UNL A   1      33.432  33.808  28.807  1.00  0.00    -0.237 OA
ATOM     73  O   UNL A   1      35.576  33.340  27.669  1.00  0.00    -0.744 OA
ENDBRANCH  67  70
ENDBRANCH  39  63
BRANCH  51  74
ATOM     74  C   UNL A   1      42.660  30.882  33.916  1.00  0.00     0.023 A 
ATOM     75  C   UNL A   1      42.742  31.544  35.160  1.00  0.00     0.012 A 
ATOM     76  C   UNL A   1      42.374  29.508  33.899  1.00  0.00     0.148 A 
ATOM     77  C   UNL A   1      42.564  30.843  36.358  1.00  0.00     0.002 A 
ATOM     78  C   UNL A   1      42.151  28.826  35.086  1.00  0.00     0.091 A 
ATOM     79  F   UNL A   1      42.297  28.894  32.708  1.00  0.00    -0.205 F 
ATOM     80  C   UNL A   1      42.254  29.485  36.320  1.00  0.00     0.022 A 
BRANCH  78  81
ATOM     81  S   UNL A   1      41.630  27.110  35.085  1.00  0.00     0.127 S 
ATOM     82  O   UNL A   1      42.852  26.422  34.677  1.00  0.00    -0.237 OA
ATOM     83  O   UNL A   1      41.243  26.898  36.481  1.00  0.00    -0.237 OA
ATOM     84  O   UNL A   1      40.519  27.029  34.144  1.00  0.00    -0.744 OA
ENDBRANCH  78  81
ENDBRANCH  51  74
ENDBRANCH  25  26
ENDBRANCH  18  20
ENDBRANCH  17  18
ENDBRANCH   1  17
TORSDOF 16
ENDMDL
MODEL 2
REMARK VINA RESULT:     -11.1      3.389      8.885
REMARK SMILES Cc1cc(C)n([C@@H](C(=O)OCCOC(=O)c2ccc(-c3c4nc(c(-c5cccc(S(=O)(=O)[O-])c5F)c5ccc([nH]5)c(-c5cccc(S(=O)(=O)[O-])c5F)c5nc(c(-c6cccc(S(=O)(=O)[O-])c6F)c6ccc3[nH]6)C=C5)C=C4)cc2)C(C)C)n1
REMARK SMILES IDX 12 1 11 2 10 3 8 4 9 5 7 6 6 7 1 8 2 9 3 10 82 11 4 12 5 13
REMARK SMILES IDX 79 14 80 15 81 16 13 17 14 18 15 19 16 20 17 21 78 22 18 23
REMARK SMILES IDX 77 24 19 25 20 26 21 27 71 28 22 29 76 30 70 31 72 32 23 33
REMARK SMILES IDX 75 34 69 35 68 36 24 38 56 39 36 40 55 41 37 42 40 43 54 44
REMARK SMILES IDX 73 45 38 46 39 47 53 49 74 50 41 51 25 52 26 53 34 54 27 55
REMARK SMILES IDX 29 56 35 57 28 58 30 59 31 60 32 61 33 62 57 63 58 64 66 65
REMARK SMILES IDX 59 66 61 67 67 68 60 69 62 70 63 71 64 72 65 73 42 74 43 75
REMARK SMILES IDX 51 76 44 77 46 78 52 79 45 80 47 81 48 82 49 83 50 84
REMARK H PARENT 72 37 40 48
REMARK Flexibility Score: inf
ROOT
ATOM      1  C   UNL A   1      33.317  30.703  27.018  1.00  0.00     0.275 C 
ENDROOT
BRANCH   1   2
ATOM      2  C   UNL A   1      32.177  29.688  27.049  1.00  0.00     0.274 C 
BRANCH   2   3
ATOM      3  O   UNL A   1      32.735  28.359  26.970  1.00  0.00    -0.460 OA
BRANCH   3   4
ATOM      4  C   UNL A   1      32.782  27.790  25.733  1.00  0.00     0.331 C 
ATOM      5  O   UNL A   1      33.778  27.841  25.011  1.00  0.00    -0.250 OA
BRANCH   4   6
ATOM      6  C   UNL A   1      31.488  27.088  25.309  1.00  0.00     0.219 C 
BRANCH   6   7
ATOM      7  N   UNL A   1      31.511  25.622  25.500  1.00  0.00    -0.255 N 
ATOM      8  C   UNL A   1      29.839  22.916  27.108  1.00  0.00     0.069 C 
ATOM      9  C   UNL A   1      30.714  23.808  26.319  1.00  0.00     0.060 A 
ATOM     10  C   UNL A   1      31.679  23.419  25.389  1.00  0.00     0.048 A 
ATOM     11  N   UNL A   1      30.623  25.135  26.417  1.00  0.00    -0.177 NA
ATOM     12  C   UNL A   1      32.152  24.589  24.833  1.00  0.00     0.037 A 
ATOM     13  C   UNL A   1      33.133  24.654  23.730  1.00  0.00     0.066 C 
ENDBRANCH   6   7
BRANCH   6  14
ATOM     14  C   UNL A   1      30.821  27.569  23.981  1.00  0.00     0.019 C 
ATOM     15  C   UNL A   1      29.445  26.911  23.809  1.00  0.00     0.010 C 
ATOM     16  C   UNL A   1      30.647  29.090  23.854  1.00  0.00     0.010 C 
ENDBRANCH   6  14
ENDBRANCH   4   6
ENDBRANCH   3   4
ENDBRANCH   2   3
ENDBRANCH   1   2
BRANCH   1  17
ATOM     17  O   UNL A   1      34.540  30.240  27.622  1.00  0.00    -0.458 OA
BRANCH  17  18
ATOM     18  C   UNL A   1      35.304  31.192  28.190  1.00  0.00     0.338 C 
ATOM     19  O   UNL A   1      34.988  32.353  28.391  1.00  0.00    -0.246 OA
BRANCH  18  20
ATOM     20  C   UNL A   1      36.693  30.772  28.330  1.00  0.00     0.060 A 
ATOM     21  C   UNL A   1      36.978  29.436  28.014  1.00  0.00     0.016 A 
ATOM     22  C   UNL A   1      37.633  31.599  28.941  1.00  0.00     0.016 A 
ATOM     23  C   UNL A   1      38.139  28.869  28.475  1.00  0.00     0.010 A 
ATOM     24  C   UNL A   1      38.835  31.053  29.329  1.00  0.00     0.010 A 
ATOM     25  C   UNL A   1      39.054  29.685  29.145  1.00  0.00    -0.014 A 
BRANCH  25  26
ATOM     26  C   UNL A   1      40.387  29.142  29.345  1.00  0.00     0.031 A 
ATOM     27  C   UNL A   1      40.646  28.881  30.794  1.00  0.00     0.074 A 
ATOM     28  C   UNL A   1      41.160  28.764  28.308  1.00  0.00     0.049 A 
ATOM     29  N   UNL A   1      41.593  29.360  31.533  1.00  0.00    -0.248 NA
ATOM     30  C   UNL A   1      39.587  28.192  31.566  1.00  0.00     0.031 C 
ATOM     31  C   UNL A   1      40.807  28.777  26.886  1.00  0.00     0.029 A 
ATOM     32  N   UNL A   1      42.351  28.108  28.315  1.00  0.00    -0.354 N 
ATOM     33  C   UNL A   1      41.388  28.794  32.790  1.00  0.00     0.074 A 
ATOM     34  C   UNL A   1      40.036  28.314  32.814  1.00  0.00     0.031 C 
ATOM     35  C   UNL A   1      41.597  27.899  26.229  1.00  0.00     0.029 A 
ATOM     36  C   UNL A   1      42.571  27.358  27.158  1.00  0.00     0.049 A 
ATOM     37  H   UNL A   1      42.993  28.157  29.060  1.00  0.00     0.167 HD
ATOM     38  C   UNL A   1      42.441  28.451  33.578  1.00  0.00     0.034 A 
ATOM     39  C   UNL A   1      43.403  26.290  27.027  1.00  0.00     0.034 A 
ATOM     40  C   UNL A   1      43.625  29.183  33.214  1.00  0.00     0.049 A 
ATOM     41  C   UNL A   1      44.342  26.319  28.173  1.00  0.00     0.074 A 
ATOM     42  C   UNL A   1      43.929  30.525  33.094  1.00  0.00     0.029 A 
ATOM     43  N   UNL A   1      44.575  28.510  32.487  1.00  0.00    -0.354 N 
ATOM     44  N   UNL A   1      45.229  27.259  28.347  1.00  0.00    -0.248 NA
ATOM     45  C   UNL A   1      43.964  25.580  29.368  1.00  0.00     0.031 C 
ATOM     46  C   UNL A   1      44.725  30.611  31.916  1.00  0.00     0.029 A 
ATOM     47  C   UNL A   1      44.942  29.317  31.443  1.00  0.00     0.049 A 
ATOM     48  H   UNL A   1      44.928  27.612  32.681  1.00  0.00     0.167 HD
ATOM     49  C   UNL A   1      45.149  27.550  29.702  1.00  0.00     0.074 A 
ATOM     50  C   UNL A   1      44.423  26.426  30.295  1.00  0.00     0.031 C 
ATOM     51  C   UNL A   1      45.393  28.811  30.166  1.00  0.00     0.034 A 
BRANCH  38  52
ATOM     52  C   UNL A   1      42.497  27.163  34.368  1.00  0.00     0.023 A 
ATOM     53  C   UNL A   1      42.035  27.197  35.700  1.00  0.00     0.012 A 
ATOM     54  C   UNL A   1      43.223  26.013  33.974  1.00  0.00     0.148 A 
ATOM     55  C   UNL A   1      42.317  26.162  36.598  1.00  0.00     0.002 A 
ATOM     56  C   UNL A   1      43.421  24.947  34.841  1.00  0.00     0.091 A 
ATOM     57  F   UNL A   1      43.864  25.987  32.804  1.00  0.00    -0.205 F 
ATOM     58  C   UNL A   1      42.999  25.030  36.167  1.00  0.00     0.022 A 
BRANCH  56  59
ATOM     59  S   UNL A   1      44.248  23.442  34.307  1.00  0.00     0.127 S 
ATOM     60  O   UNL A   1      45.571  23.947  33.952  1.00  0.00    -0.237 OA
ATOM     61  O   UNL A   1      44.198  22.630  35.522  1.00  0.00    -0.237 OA
ATOM     62  O   UNL A   1      43.445  22.921  33.208  1.00  0.00    -0.744 OA
ENDBRANCH  56  59
ENDBRANCH  38  52
BRANCH  39  63
ATOM     63  C   UNL A   1      43.246  25.071  26.191  1.00  0.00     0.023 A 
ATOM     64  C   UNL A   1      44.175  24.803  25.162  1.00  0.00     0.012 A 
ATOM     65  C   UNL A   1      42.364  24.033  26.566  1.00  0.00     0.148 A 
ATOM     66  C   UNL A   1      44.238  23.543  24.550  1.00  0.00     0.002 A 
ATOM     67  C   UNL A   1      42.421  22.787  25.948  1.00  0.00     0.091 A 
ATOM     68  F   UNL A   1      41.532  24.232  27.596  1.00  0.00    -0.205 F 
ATOM     69  C   UNL A   1      43.365  22.533  24.946  1.00  0.00     0.022 A 
BRANCH  67  70
ATOM     70  S   UNL A   1      41.337  21.434  26.427  1.00  0.00     0.127 S 
ATOM     71  O   UNL A   1      41.888  20.318  25.657  1.00  0.00    -0.237 OA
ATOM     72  O   UNL A   1      41.565  21.357  27.867  1.00  0.00    -0.237 OA
ATOM     73  O   UNL A   1      39.996  21.836  26.018  1.00  0.00    -0.744 OA
ENDBRANCH  67  70
ENDBRANCH  39  63
BRANCH  51  74
ATOM     74  C   UNL A   1      45.974  29.824  29.214  1.00  0.00     0.023 A 
ATOM     75  C   UNL A   1      47.353  29.915  28.928  1.00  0.00     0.012 A 
ATOM     76  C   UNL A   1      45.074  30.590  28.456  1.00  0.00     0.148 A 
ATOM     77  C   UNL A   1      47.822  30.769  27.923  1.00  0.00     0.002 A 
ATOM     78  C   UNL A   1      45.538  31.398  27.429  1.00  0.00     0.091 A 
ATOM     79  F   UNL A   1      43.766  30.489  28.738  1.00  0.00    -0.205 F 
ATOM     80  C   UNL A   1      46.912  31.500  27.163  1.00  0.00     0.022 A 
BRANCH  78  81
ATOM     81  S   UNL A   1      44.400  32.263  26.345  1.00  0.00     0.127 S 
ATOM     82  O   UNL A   1      45.282  32.697  25.264  1.00  0.00    -0.237 OA
ATOM     83  O   UNL A   1      43.453  31.208  25.978  1.00  0.00    -0.237 OA
ATOM     84  O   UNL A   1      43.816  33.331  27.148  1.00  0.00    -0.744 OA
ENDBRANCH  78  81
ENDBRANCH  51  74
ENDBRANCH  25  26
ENDBRANCH  18  20
ENDBRANCH  17  18
ENDBRANCH   1  17
TORSDOF 16
ENDMDL
MODEL 3
REMARK VINA RESULT:     -11.0      3.956      8.022
REMARK SMILES Cc1cc(C)n([C@@H](C(=O)OCCOC(=O)c2ccc(-c3c4nc(c(-c5cccc(S(=O)(=O)[O-])c5F)c5ccc([nH]5)c(-c5cccc(S(=O)(=O)[O-])c5F)c5nc(c(-c6cccc(S(=O)(=O)[O-])c6F)c6ccc3[nH]6)C=C5)C=C4)cc2)C(C)C)n1
REMARK SMILES IDX 12 1 11 2 10 3 8 4 9 5 7 6 6 7 1 8 2 9 3 10 82 11 4 12 5 13
REMARK SMILES IDX 79 14 80 15 81 16 13 17 14 18 15 19 16 20 17 21 78 22 18 23
REMARK SMILES IDX 77 24 19 25 20 26 21 27 71 28 22 29 76 30 70 31 72 32 23 33
REMARK SMILES IDX 75 34 69 35 68 36 24 38 56 39 36 40 55 41 37 42 40 43 54 44
REMARK SMILES IDX 73 45 38 46 39 47 53 49 74 50 41 51 25 52 26 53 34 54 27 55
REMARK SMILES IDX 29 56 35 57 28 58 30 59 31 60 32 61 33 62 57 63 58 64 66 65
REMARK SMILES IDX 59 66 61 67 67 68 60 69 62 70 63 71 64 72 65 73 42 74 43 75
REMARK SMILES IDX 51 76 44 77 46 78 52 79 45 80 47 81 48 82 49 83 50 84
REMARK H PARENT 72 37 40 48
REMARK Flexibility Score: inf
ROOT
ATOM      1  C   UNL A   1      38.837  20.141  25.592  1.00  0.00     0.275 C 
ENDROOT
BRANCH   1   2
ATOM      2  C   UNL A   1      37.519  19.780  24.912  1.00  0.00     0.274 C 
BRANCH   2   3
ATOM      3  O   UNL A   1      36.501  20.707  25.347  1.00  0.00    -0.460 OA
BRANCH   3   4
ATOM      4  C   UNL A   1      35.209  20.356  25.096  1.00  0.00     0.331 C 
ATOM      5  O   UNL A   1      34.898  19.303  24.538  1.00  0.00    -0.250 OA
BRANCH   4   6
ATOM      6  C   UNL A   1      34.172  21.385  25.557  1.00  0.00     0.219 C 
BRANCH   6   7
ATOM      7  N   UNL A   1      33.641  22.231  24.466  1.00  0.00    -0.255 N 
ATOM      8  C   UNL A   1      30.714  23.891  23.293  1.00  0.00     0.069 C 
ATOM      9  C   UNL A   1      32.064  23.338  23.527  1.00  0.00     0.060 A 
ATOM     10  C   UNL A   1      33.232  23.670  22.837  1.00  0.00     0.048 A 
ATOM     11  N   UNL A   1      32.293  22.449  24.494  1.00  0.00    -0.177 NA
ATOM     12  C   UNL A   1      34.247  22.992  23.477  1.00  0.00     0.037 A 
ATOM     13  C   UNL A   1      35.680  23.116  23.138  1.00  0.00     0.066 C 
ENDBRANCH   6   7
BRANCH   6  14
ATOM     14  C   UNL A   1      34.463  22.138  26.894  1.00  0.00     0.019 C 
ATOM     15  C   UNL A   1      34.951  23.564  26.605  1.00  0.00     0.010 C 
ATOM     16  C   UNL A   1      33.276  22.221  27.865  1.00  0.00     0.010 C 
ENDBRANCH   6  14
ENDBRANCH   4   6
ENDBRANCH   3   4
ENDBRANCH   2   3
ENDBRANCH   1   2
BRANCH   1  17
ATOM     17  O   UNL A   1      39.783  19.059  25.665  1.00  0.00    -0.458 OA
BRANCH  17  18
ATOM     18  C   UNL A   1      41.074  19.423  25.788  1.00  0.00     0.338 C 
ATOM     19  O   UNL A   1      42.049  18.718  25.588  1.00  0.00    -0.246 OA
BRANCH  18  20
ATOM     20  C   UNL A   1      41.222  20.715  26.446  1.00  0.00     0.060 A 
ATOM     21  C   UNL A   1      41.868  21.721  25.713  1.00  0.00     0.016 A 
ATOM     22  C   UNL A   1      40.922  20.869  27.798  1.00  0.00     0.016 A 
ATOM     23  C   UNL A   1      42.383  22.808  26.372  1.00  0.00     0.010 A 
ATOM     24  C   UNL A   1      41.364  22.001  28.445  1.00  0.00     0.010 A 
ATOM     25  C   UNL A   1      42.137  22.930  27.742  1.00  0.00    -0.014 A 
BRANCH  25  26
ATOM     26  C   UNL A   1      42.420  24.222  28.343  1.00  0.00     0.031 A 
ATOM     27  C   UNL A   1      41.330  25.200  28.045  1.00  0.00     0.074 A 
ATOM     28  C   UNL A   1      43.443  24.394  29.204  1.00  0.00     0.049 A 
ATOM     29  N   UNL A   1      41.427  26.345  27.452  1.00  0.00    -0.248 NA
ATOM     30  C   UNL A   1      39.933  24.742  28.218  1.00  0.00     0.031 C 
ATOM     31  C   UNL A   1      44.365  23.370  29.704  1.00  0.00     0.029 A 
ATOM     32  N   UNL A   1      43.757  25.476  29.965  1.00  0.00    -0.354 N 
ATOM     33  C   UNL A   1      40.129  26.854  27.442  1.00  0.00     0.074 A 
ATOM     34  C   UNL A   1      39.246  25.748  27.678  1.00  0.00     0.031 C 
ATOM     35  C   UNL A   1      44.899  23.791  30.871  1.00  0.00     0.029 A 
ATOM     36  C   UNL A   1      44.446  25.145  31.133  1.00  0.00     0.049 A 
ATOM     37  H   UNL A   1      43.522  26.400  29.716  1.00  0.00     0.167 HD
ATOM     38  C   UNL A   1      39.905  28.187  27.590  1.00  0.00     0.034 A 
ATOM     39  C   UNL A   1      44.520  25.885  32.271  1.00  0.00     0.034 A 
ATOM     40  C   UNL A   1      41.068  28.954  27.235  1.00  0.00     0.049 A 
ATOM     41  C   UNL A   1      44.117  27.269  31.924  1.00  0.00     0.074 A 
ATOM     42  C   UNL A   1      41.860  29.038  26.105  1.00  0.00     0.029 A 
ATOM     43  N   UNL A   1      41.820  29.460  28.266  1.00  0.00    -0.354 N 
ATOM     44  N   UNL A   1      44.807  28.036  31.126  1.00  0.00    -0.248 NA
ATOM     45  C   UNL A   1      42.711  27.613  32.071  1.00  0.00     0.031 C 
ATOM     46  C   UNL A   1      43.192  29.117  26.604  1.00  0.00     0.029 A 
ATOM     47  C   UNL A   1      43.132  29.177  27.997  1.00  0.00     0.049 A 
ATOM     48  H   UNL A   1      41.478  29.940  29.055  1.00  0.00     0.167 HD
ATOM     49  C   UNL A   1      43.847  28.627  30.317  1.00  0.00     0.074 A 
ATOM     50  C   UNL A   1      42.573  28.403  31.002  1.00  0.00     0.031 C 
ATOM     51  C   UNL A   1      44.127  28.962  29.023  1.00  0.00     0.034 A 
BRANCH  38  52
ATOM     52  C   UNL A   1      38.799  28.747  28.456  1.00  0.00     0.023 A 
ATOM     53  C   UNL A   1      37.880  29.627  27.848  1.00  0.00     0.012 A 
ATOM     54  C   UNL A   1      38.778  28.680  29.870  1.00  0.00     0.148 A 
ATOM     55  C   UNL A   1      37.019  30.425  28.610  1.00  0.00     0.002 A 
ATOM     56  C   UNL A   1      37.859  29.403  30.618  1.00  0.00     0.091 A 
ATOM     57  F   UNL A   1      39.739  28.031  30.530  1.00  0.00    -0.205 F 
ATOM     58  C   UNL A   1      36.997  30.305  29.994  1.00  0.00     0.022 A 
BRANCH  56  59
ATOM     59  S   UNL A   1      37.760  29.233  32.406  1.00  0.00     0.127 S 
ATOM     60  O   UNL A   1      37.737  27.782  32.560  1.00  0.00    -0.237 OA
ATOM     61  O   UNL A   1      38.999  29.885  32.832  1.00  0.00    -0.237 OA
ATOM     62  O   UNL A   1      36.548  29.939  32.801  1.00  0.00    -0.744 OA
ENDBRANCH  56  59
ENDBRANCH  38  52
BRANCH  39  63
ATOM     63  C   UNL A   1      44.585  25.434  33.686  1.00  0.00     0.023 A 
ATOM     64  C   UNL A   1      43.393  25.246  34.417  1.00  0.00     0.012 A 
ATOM     65  C   UNL A   1      45.781  24.923  34.238  1.00  0.00     0.148 A 
ATOM     66  C   UNL A   1      43.390  24.555  35.637  1.00  0.00     0.002 A 
ATOM     67  C   UNL A   1      45.777  24.248  35.455  1.00  0.00     0.091 A 
ATOM     68  F   UNL A   1      46.912  25.013  33.525  1.00  0.00    -0.205 F 
ATOM     69  C   UNL A   1      44.581  24.051  36.154  1.00  0.00     0.022 A 
BRANCH  67  70
ATOM     70  S   UNL A   1      47.277  23.556  36.167  1.00  0.00     0.127 S 
ATOM     71  O   UNL A   1      47.687  22.601  35.137  1.00  0.00    -0.237 OA
ATOM     72  O   UNL A   1      48.130  24.735  36.285  1.00  0.00    -0.237 OA
ATOM     73  O   UNL A   1      46.871  22.939  37.425  1.00  0.00    -0.744 OA
ENDBRANCH  67  70
ENDBRANCH  39  63
BRANCH  51  74
ATOM     74  C   UNL A   1      45.560  28.890  28.559  1.00  0.00     0.023 A 
ATOM     75  C   UNL A   1      46.508  29.904  28.817  1.00  0.00     0.012 A 
ATOM     76  C   UNL A   1      45.998  27.680  27.999  1.00  0.00     0.148 A 
ATOM     77  C   UNL A   1      47.859  29.719  28.500  1.00  0.00     0.002 A 
ATOM     78  C   UNL A   1      47.345  27.482  27.731  1.00  0.00     0.091 A 
ATOM     79  F   UNL A   1      45.085  26.726  27.764  1.00  0.00    -0.205 F 
ATOM     80  C   UNL A   1      48.279  28.501  27.969  1.00  0.00     0.022 A 
BRANCH  78  81
ATOM     81  S   UNL A   1      47.953  25.893  27.164  1.00  0.00     0.127 S 
ATOM     82  O   UNL A   1      47.462  24.992  28.204  1.00  0.00    -0.237 OA
ATOM     83  O   UNL A   1      47.291  25.749  25.865  1.00  0.00    -0.237 OA
ATOM     84  O   UNL A   1      49.402  26.026  27.079  1.00  0.00    -0.744 OA
ENDBRANCH  78  81
ENDBRANCH  51  74
ENDBRANCH  25  26
ENDBRANCH  18  20
ENDBRANCH  17  18
ENDBRANCH   1  17
TORSDOF 16
ENDMDL
