MODEL 1
REMARK VINA RESULT:     -11.9      0.000      0.000
REMARK SMILES COc1c(N)cc(-c2ccccc2)cc1C(=O)OCCOC(=O)c1ccc(-c2c3nc(c(-c4cccc(S(=O)(=O)[O-])c4F)c4ccc([nH]4)c(-c4cccc(S(=O)(=O)[O-])c4F)c4nc(c(-c5cccc(S(=O)(=O)[O-])c5F)c5ccc2[nH]5)C=C4)C=C3)cc1
REMARK SMILES IDX 20 1 19 2 18 3 16 4 17 5 15 6 3 7 4 8 6 9 14 10 7 11 2 12
REMARK SMILES IDX 1 13 5 14 8 17 9 18 13 19 10 20 12 21 11 22 21 23 22 24
REMARK SMILES IDX 23 25 24 26 25 27 86 28 26 29 85 30 27 31 28 32 29 33 79 34
REMARK SMILES IDX 30 35 84 36 78 37 80 38 31 39 83 40 77 41 76 42 32 44 64 45
REMARK SMILES IDX 44 46 63 47 45 48 48 49 62 50 81 51 46 52 47 53 61 55 82 56
REMARK SMILES IDX 49 57 33 58 34 59 42 60 35 61 37 62 43 63 36 64 38 65 39 66
REMARK SMILES IDX 40 67 41 68 65 69 66 70 74 71 67 72 69 73 75 74 68 75 70 76
REMARK SMILES IDX 71 77 72 78 73 79 50 80 51 81 59 82 52 83 54 84 60 85 53 86
REMARK SMILES IDX 55 87 56 88 57 89 58 90
REMARK H PARENT 5 15 5 16 80 43 48 54
REMARK Flexibility Score: inf
ROOT
ATOM      1  C   UNL A   1      37.200  20.957  24.616  1.00  0.00     0.275 C 
ENDROOT
BRANCH   1   2
ATOM      2  C   UNL A   1      36.858  22.161  23.741  1.00  0.00     0.275 C 
BRANCH   2   3
ATOM      3  O   UNL A   1      35.958  23.057  24.425  1.00  0.00    -0.458 OA
BRANCH   3   4
ATOM      4  C   UNL A   1      34.833  23.395  23.749  1.00  0.00     0.342 C 
ATOM      5  O   UNL A   1      34.659  23.303  22.543  1.00  0.00    -0.246 OA
BRANCH   4   6
ATOM      6  C   UNL A   1      33.742  23.789  24.666  1.00  0.00     0.104 A 
ATOM      7  C   UNL A   1      32.771  22.902  25.137  1.00  0.00     0.156 A 
ATOM      8  C   UNL A   1      31.858  23.320  26.126  1.00  0.00     0.076 A 
ATOM      9  C   UNL A   1      31.809  24.676  26.482  1.00  0.00     0.038 A 
ATOM     10  C   UNL A   1      33.740  25.113  25.126  1.00  0.00     0.028 A 
ATOM     11  C   UNL A   1      32.745  25.591  25.984  1.00  0.00    -0.015 A 
BRANCH   7  12
ATOM     12  O   UNL A   1      32.773  21.587  24.733  1.00  0.00    -0.494 OA
ATOM     13  C   UNL A   1      33.549  20.802  25.645  1.00  0.00     0.278 C 
ENDBRANCH   7  12
BRANCH   8  14
ATOM     14  N   UNL A   1      30.923  22.435  26.665  1.00  0.00    -0.396 N 
ATOM     15  H   UNL A   1      29.964  22.658  26.643  1.00  0.00     0.156 HD
ATOM     16  H   UNL A   1      31.221  21.587  27.068  1.00  0.00     0.156 HD
ENDBRANCH   8  14
BRANCH  11  17
ATOM     17  C   UNL A   1      32.714  27.014  26.345  1.00  0.00    -0.018 A 
ATOM     18  C   UNL A   1      31.634  27.557  27.057  1.00  0.00     0.009 A 
ATOM     19  C   UNL A   1      33.793  27.856  26.025  1.00  0.00     0.009 A 
ATOM     20  C   UNL A   1      31.636  28.899  27.444  1.00  0.00     0.001 A 
ATOM     21  C   UNL A   1      33.795  29.199  26.410  1.00  0.00     0.001 A 
ATOM     22  C   UNL A   1      32.716  29.719  27.121  1.00  0.00     0.000 A 
ENDBRANCH  11  17
ENDBRANCH   4   6
ENDBRANCH   3   4
ENDBRANCH   2   3
ENDBRANCH   1   2
BRANCH   1  23
ATOM     23  O   UNL A   1      37.677  21.402  25.896  1.00  0.00    -0.458 OA
BRANCH  23  24
ATOM     24  C   UNL A   1      39.002  21.242  26.112  1.00  0.00     0.338 C 
ATOM     25  O   UNL A   1      39.692  20.280  25.825  1.00  0.00    -0.246 OA
BRANCH  24  26
ATOM     26  C   UNL A   1      39.547  22.459  26.731  1.00  0.00     0.060 A 
ATOM     27  C   UNL A   1      39.044  23.696  26.340  1.00  0.00     0.016 A 
ATOM     28  C   UNL A   1      40.649  22.388  27.579  1.00  0.00     0.016 A 
ATOM     29  C   UNL A   1      39.713  24.868  26.690  1.00  0.00     0.010 A 
ATOM     30  C   UNL A   1      41.246  23.571  28.028  1.00  0.00     0.010 A 
ATOM     31  C   UNL A   1      40.820  24.825  27.548  1.00  0.00    -0.014 A 
BRANCH  31  32
ATOM     32  C   UNL A   1      41.554  26.068  27.929  1.00  0.00     0.031 A 
ATOM     33  C   UNL A   1      40.863  27.138  28.741  1.00  0.00     0.074 A 
ATOM     34  C   UNL A   1      42.825  26.270  27.524  1.00  0.00     0.049 A 
ATOM     35  N   UNL A   1      41.239  28.367  28.984  1.00  0.00    -0.248 NA
ATOM     36  C   UNL A   1      39.566  26.782  29.340  1.00  0.00     0.031 C 
ATOM     37  C   UNL A   1      43.627  25.327  26.744  1.00  0.00     0.029 A 
ATOM     38  N   UNL A   1      43.660  27.348  27.695  1.00  0.00    -0.354 N 
ATOM     39  C   UNL A   1      40.190  28.958  29.680  1.00  0.00     0.074 A 
ATOM     40  C   UNL A   1      39.167  27.946  29.837  1.00  0.00     0.031 C 
ATOM     41  C   UNL A   1      44.837  25.856  26.516  1.00  0.00     0.029 A 
ATOM     42  C   UNL A   1      44.873  27.209  27.058  1.00  0.00     0.049 A 
ATOM     43  H   UNL A   1      43.415  28.143  28.221  1.00  0.00     0.167 HD
ATOM     44  C   UNL A   1      40.090  30.224  30.154  1.00  0.00     0.034 A 
ATOM     45  C   UNL A   1      45.886  28.082  26.884  1.00  0.00     0.034 A 
ATOM     46  C   UNL A   1      41.143  31.201  30.078  1.00  0.00     0.049 A 
ATOM     47  C   UNL A   1      45.768  29.468  27.453  1.00  0.00     0.074 A 
ATOM     48  C   UNL A   1      41.154  32.494  30.574  1.00  0.00     0.029 A 
ATOM     49  N   UNL A   1      42.378  30.991  29.485  1.00  0.00    -0.354 N 
ATOM     50  N   UNL A   1      44.784  29.994  28.142  1.00  0.00    -0.248 NA
ATOM     51  C   UNL A   1      46.902  30.376  27.232  1.00  0.00     0.031 C 
ATOM     52  C   UNL A   1      42.397  33.065  30.280  1.00  0.00     0.029 A 
ATOM     53  C   UNL A   1      43.163  32.124  29.611  1.00  0.00     0.049 A 
ATOM     54  H   UNL A   1      42.657  30.158  29.041  1.00  0.00     0.167 HD
ATOM     55  C   UNL A   1      45.186  31.288  28.450  1.00  0.00     0.074 A 
ATOM     56  C   UNL A   1      46.516  31.456  27.899  1.00  0.00     0.031 C 
ATOM     57  C   UNL A   1      44.506  32.259  29.107  1.00  0.00     0.034 A 
BRANCH  44  58
ATOM     58  C   UNL A   1      38.802  30.622  30.830  1.00  0.00     0.023 A 
ATOM     59  C   UNL A   1      38.638  30.396  32.212  1.00  0.00     0.012 A 
ATOM     60  C   UNL A   1      37.780  31.272  30.111  1.00  0.00     0.148 A 
ATOM     61  C   UNL A   1      37.464  30.781  32.859  1.00  0.00     0.002 A 
ATOM     62  C   UNL A   1      36.629  31.690  30.772  1.00  0.00     0.091 A 
ATOM     63  F   UNL A   1      37.941  31.458  28.792  1.00  0.00    -0.205 F 
ATOM     64  C   UNL A   1      36.466  31.437  32.143  1.00  0.00     0.022 A 
BRANCH  62  65
ATOM     65  S   UNL A   1      35.326  32.612  29.947  1.00  0.00     0.127 S 
ATOM     66  O   UNL A   1      36.047  33.796  29.484  1.00  0.00    -0.237 OA
ATOM     67  O   UNL A   1      34.919  31.693  28.882  1.00  0.00    -0.237 OA
ATOM     68  O   UNL A   1      34.306  32.850  30.958  1.00  0.00    -0.744 OA
ENDBRANCH  62  65
ENDBRANCH  44  58
BRANCH  45  69
ATOM     69  C   UNL A   1      47.108  27.653  26.146  1.00  0.00     0.023 A 
ATOM     70  C   UNL A   1      48.099  26.914  26.818  1.00  0.00     0.012 A 
ATOM     71  C   UNL A   1      47.264  27.917  24.770  1.00  0.00     0.148 A 
ATOM     72  C   UNL A   1      49.230  26.459  26.139  1.00  0.00     0.002 A 
ATOM     73  C   UNL A   1      48.361  27.407  24.086  1.00  0.00     0.091 A 
ATOM     74  F   UNL A   1      46.324  28.646  24.150  1.00  0.00    -0.205 F 
ATOM     75  C   UNL A   1      49.353  26.690  24.771  1.00  0.00     0.022 A 
BRANCH  73  76
ATOM     76  S   UNL A   1      48.512  27.529  22.300  1.00  0.00     0.127 S 
ATOM     77  O   UNL A   1      49.723  28.332  22.155  1.00  0.00    -0.237 OA
ATOM     78  O   UNL A   1      48.654  26.127  21.907  1.00  0.00    -0.237 OA
ATOM     79  O   UNL A   1      47.275  28.151  21.848  1.00  0.00    -0.744 OA
ENDBRANCH  73  76
ENDBRANCH  45  69
BRANCH  57  80
ATOM     80  C   UNL A   1      45.194  33.584  29.295  1.00  0.00     0.023 A 
ATOM     81  C   UNL A   1      45.986  33.799  30.439  1.00  0.00     0.012 A 
ATOM     82  C   UNL A   1      45.112  34.587  28.309  1.00  0.00     0.148 A 
ATOM     83  C   UNL A   1      46.665  35.005  30.614  1.00  0.00     0.002 A 
ATOM     84  C   UNL A   1      45.825  35.769  28.470  1.00  0.00     0.091 A 
ATOM     85  F   UNL A   1      44.334  34.369  27.238  1.00  0.00    -0.205 F 
ATOM     86  C   UNL A   1      46.594  35.983  29.625  1.00  0.00     0.022 A 
BRANCH  84  87
ATOM     87  S   UNL A   1      45.856  37.046  27.207  1.00  0.00     0.127 S 
ATOM     88  O   UNL A   1      46.403  36.321  26.063  1.00  0.00    -0.237 OA
ATOM     89  O   UNL A   1      44.442  37.402  27.084  1.00  0.00    -0.237 OA
ATOM     90  O   UNL A   1      46.699  38.109  27.738  1.00  0.00    -0.744 OA
ENDBRANCH  84  87
ENDBRANCH  57  80
ENDBRANCH  31  32
ENDBRANCH  24  26
ENDBRANCH  23  24
ENDBRANCH   1  23
TORSDOF 17
ENDMDL
MODEL 2
REMARK VINA RESULT:     -11.7      5.405     10.361
REMARK SMILES COc1c(N)cc(-c2ccccc2)cc1C(=O)OCCOC(=O)c1ccc(-c2c3nc(c(-c4cccc(S(=O)(=O)[O-])c4F)c4ccc([nH]4)c(-c4cccc(S(=O)(=O)[O-])c4F)c4nc(c(-c5cccc(S(=O)(=O)[O-])c5F)c5ccc2[nH]5)C=C4)C=C3)cc1
REMARK SMILES IDX 20 1 19 2 18 3 16 4 17 5 15 6 3 7 4 8 6 9 14 10 7 11 2 12
REMARK SMILES IDX 1 13 5 14 8 17 9 18 13 19 10 20 12 21 11 22 21 23 22 24
REMARK SMILES IDX 23 25 24 26 25 27 86 28 26 29 85 30 27 31 28 32 29 33 79 34
REMARK SMILES IDX 30 35 84 36 78 37 80 38 31 39 83 40 77 41 76 42 32 44 64 45
REMARK SMILES IDX 44 46 63 47 45 48 48 49 62 50 81 51 46 52 47 53 61 55 82 56
REMARK SMILES IDX 49 57 33 58 34 59 42 60 35 61 37 62 43 63 36 64 38 65 39 66
REMARK SMILES IDX 40 67 41 68 65 69 66 70 74 71 67 72 69 73 75 74 68 75 70 76
REMARK SMILES IDX 71 77 72 78 73 79 50 80 51 81 59 82 52 83 54 84 60 85 53 86
REMARK SMILES IDX 55 87 56 88 57 89 58 90
REMARK H PARENT 5 15 5 16 80 43 48 54
REMARK Flexibility Score: inf
ROOT
ATOM      1  C   UNL A   1      31.629  30.399  26.864  1.00  0.00     0.275 C 
ENDROOT
BRANCH   1   2
ATOM      2  C   UNL A   1      31.643  28.925  27.262  1.00  0.00     0.275 C 
BRANCH   2   3
ATOM      3  O   UNL A   1      32.192  28.110  26.205  1.00  0.00    -0.458 OA
BRANCH   3   4
ATOM      4  C   UNL A   1      31.686  26.856  26.103  1.00  0.00     0.342 C 
ATOM      5  O   UNL A   1      30.824  26.363  26.815  1.00  0.00    -0.246 OA
BRANCH   4   6
ATOM      6  C   UNL A   1      32.213  26.151  24.915  1.00  0.00     0.104 A 
ATOM      7  C   UNL A   1      31.650  26.256  23.641  1.00  0.00     0.156 A 
ATOM      8  C   UNL A   1      32.301  25.675  22.534  1.00  0.00     0.076 A 
ATOM      9  C   UNL A   1      33.400  24.832  22.754  1.00  0.00     0.038 A 
ATOM     10  C   UNL A   1      33.379  25.393  25.087  1.00  0.00     0.028 A 
ATOM     11  C   UNL A   1      33.951  24.675  24.031  1.00  0.00    -0.015 A 
BRANCH   7  12
ATOM     12  O   UNL A   1      30.528  27.026  23.436  1.00  0.00    -0.494 OA
ATOM     13  C   UNL A   1      29.354  26.256  23.721  1.00  0.00     0.278 C 
ENDBRANCH   7  12
BRANCH   8  14
ATOM     14  N   UNL A   1      31.798  25.824  21.241  1.00  0.00    -0.396 N 
ATOM     15  H   UNL A   1      31.508  25.033  20.730  1.00  0.00     0.156 HD
ATOM     16  H   UNL A   1      31.732  26.721  20.837  1.00  0.00     0.156 HD
ENDBRANCH   8  14
BRANCH  11  17
ATOM     17  C   UNL A   1      35.103  23.800  24.283  1.00  0.00    -0.018 A 
ATOM     18  C   UNL A   1      35.711  23.087  23.240  1.00  0.00     0.009 A 
ATOM     19  C   UNL A   1      35.652  23.695  25.572  1.00  0.00     0.009 A 
ATOM     20  C   UNL A   1      36.840  22.298  23.477  1.00  0.00     0.001 A 
ATOM     21  C   UNL A   1      36.780  22.905  25.811  1.00  0.00     0.001 A 
ATOM     22  C   UNL A   1      37.373  22.208  24.762  1.00  0.00     0.000 A 
ENDBRANCH  11  17
ENDBRANCH   4   6
ENDBRANCH   3   4
ENDBRANCH   2   3
ENDBRANCH   1   2
BRANCH   1  23
ATOM     23  O   UNL A   1      32.956  30.824  26.515  1.00  0.00    -0.458 OA
BRANCH  23  24
ATOM     24  C   UNL A   1      33.474  31.810  27.282  1.00  0.00     0.338 C 
ATOM     25  O   UNL A   1      32.939  32.853  27.613  1.00  0.00    -0.246 OA
BRANCH  24  26
ATOM     26  C   UNL A   1      34.820  31.426  27.730  1.00  0.00     0.060 A 
ATOM     27  C   UNL A   1      35.080  30.089  28.012  1.00  0.00     0.016 A 
ATOM     28  C   UNL A   1      35.774  32.400  28.012  1.00  0.00     0.016 A 
ATOM     29  C   UNL A   1      36.241  29.729  28.694  1.00  0.00     0.010 A 
ATOM     30  C   UNL A   1      36.992  32.019  28.587  1.00  0.00     0.010 A 
ATOM     31  C   UNL A   1      37.221  30.688  28.984  1.00  0.00    -0.014 A 
BRANCH  31  32
ATOM     32  C   UNL A   1      38.469  30.323  29.720  1.00  0.00     0.031 A 
ATOM     33  C   UNL A   1      39.457  29.360  29.105  1.00  0.00     0.074 A 
ATOM     34  C   UNL A   1      38.711  30.815  30.952  1.00  0.00     0.049 A 
ATOM     35  N   UNL A   1      40.473  28.749  29.659  1.00  0.00    -0.248 NA
ATOM     36  C   UNL A   1      39.261  29.024  27.685  1.00  0.00     0.031 C 
ATOM     37  C   UNL A   1      37.857  31.761  31.672  1.00  0.00     0.029 A 
ATOM     38  N   UNL A   1      39.741  30.570  31.829  1.00  0.00    -0.354 N 
ATOM     39  C   UNL A   1      40.979  27.892  28.688  1.00  0.00     0.074 A 
ATOM     40  C   UNL A   1      40.168  28.073  27.503  1.00  0.00     0.031 C 
ATOM     41  C   UNL A   1      38.400  32.027  32.868  1.00  0.00     0.029 A 
ATOM     42  C   UNL A   1      39.595  31.210  33.039  1.00  0.00     0.049 A 
ATOM     43  H   UNL A   1      40.509  29.993  31.613  1.00  0.00     0.167 HD
ATOM     44  C   UNL A   1      42.027  27.037  28.771  1.00  0.00     0.034 A 
ATOM     45  C   UNL A   1      40.310  31.120  34.180  1.00  0.00     0.034 A 
ATOM     46  C   UNL A   1      42.889  26.923  29.919  1.00  0.00     0.049 A 
ATOM     47  C   UNL A   1      41.492  30.194  34.235  1.00  0.00     0.074 A 
ATOM     48  C   UNL A   1      44.006  26.121  30.079  1.00  0.00     0.029 A 
ATOM     49  N   UNL A   1      42.742  27.642  31.094  1.00  0.00    -0.354 N 
ATOM     50  N   UNL A   1      41.977  29.421  33.293  1.00  0.00    -0.248 NA
ATOM     51  C   UNL A   1      42.233  30.137  35.503  1.00  0.00     0.031 C 
ATOM     52  C   UNL A   1      44.535  26.357  31.352  1.00  0.00     0.029 A 
ATOM     53  C   UNL A   1      43.753  27.312  31.981  1.00  0.00     0.049 A 
ATOM     54  H   UNL A   1      42.025  28.293  31.272  1.00  0.00     0.167 HD
ATOM     55  C   UNL A   1      43.088  28.797  33.849  1.00  0.00     0.074 A 
ATOM     56  C   UNL A   1      43.222  29.307  35.199  1.00  0.00     0.031 C 
ATOM     57  C   UNL A   1      43.908  27.868  33.301  1.00  0.00     0.034 A 
BRANCH  44  58
ATOM     58  C   UNL A   1      42.327  26.172  27.573  1.00  0.00     0.023 A 
ATOM     59  C   UNL A   1      43.061  26.702  26.493  1.00  0.00     0.012 A 
ATOM     60  C   UNL A   1      41.933  24.819  27.542  1.00  0.00     0.148 A 
ATOM     61  C   UNL A   1      43.369  25.909  25.387  1.00  0.00     0.002 A 
ATOM     62  C   UNL A   1      42.280  24.024  26.454  1.00  0.00     0.091 A 
ATOM     63  F   UNL A   1      41.215  24.336  28.567  1.00  0.00    -0.205 F 
ATOM     64  C   UNL A   1      42.989  24.569  25.373  1.00  0.00     0.022 A 
BRANCH  62  65
ATOM     65  S   UNL A   1      41.901  22.268  26.386  1.00  0.00     0.127 S 
ATOM     66  O   UNL A   1      42.590  21.864  25.161  1.00  0.00    -0.237 OA
ATOM     67  O   UNL A   1      42.511  21.769  27.619  1.00  0.00    -0.237 OA
ATOM     68  O   UNL A   1      40.449  22.177  26.352  1.00  0.00    -0.744 OA
ENDBRANCH  62  65
ENDBRANCH  44  58
BRANCH  45  69
ATOM     69  C   UNL A   1      39.924  31.949  35.357  1.00  0.00     0.023 A 
ATOM     70  C   UNL A   1      40.388  33.275  35.451  1.00  0.00     0.012 A 
ATOM     71  C   UNL A   1      39.052  31.455  36.348  1.00  0.00     0.148 A 
ATOM     72  C   UNL A   1      40.003  34.089  36.517  1.00  0.00     0.002 A 
ATOM     73  C   UNL A   1      38.623  32.291  37.373  1.00  0.00     0.091 A 
ATOM     74  F   UNL A   1      38.642  30.182  36.258  1.00  0.00    -0.205 F 
ATOM     75  C   UNL A   1      39.109  33.603  37.468  1.00  0.00     0.022 A 
BRANCH  73  76
ATOM     76  S   UNL A   1      37.356  31.789  38.544  1.00  0.00     0.127 S 
ATOM     77  O   UNL A   1      38.033  31.988  39.822  1.00  0.00    -0.237 OA
ATOM     78  O   UNL A   1      36.283  32.743  38.261  1.00  0.00    -0.237 OA
ATOM     79  O   UNL A   1      37.033  30.411  38.200  1.00  0.00    -0.744 OA
ENDBRANCH  73  76
ENDBRANCH  45  69
BRANCH  57  80
ATOM     80  C   UNL A   1      45.043  27.357  34.146  1.00  0.00     0.023 A 
ATOM     81  C   UNL A   1      46.265  28.054  34.162  1.00  0.00     0.012 A 
ATOM     82  C   UNL A   1      44.876  26.230  34.974  1.00  0.00     0.148 A 
ATOM     83  C   UNL A   1      47.317  27.622  34.969  1.00  0.00     0.002 A 
ATOM     84  C   UNL A   1      45.914  25.828  35.807  1.00  0.00     0.091 A 
ATOM     85  F   UNL A   1      43.711  25.567  34.927  1.00  0.00    -0.205 F 
ATOM     86  C   UNL A   1      47.137  26.517  35.799  1.00  0.00     0.022 A 
BRANCH  84  87
ATOM     87  S   UNL A   1      45.738  24.469  36.968  1.00  0.00     0.127 S 
ATOM     88  O   UNL A   1      44.560  24.877  37.729  1.00  0.00    -0.237 OA
ATOM     89  O   UNL A   1      45.524  23.324  36.081  1.00  0.00    -0.237 OA
ATOM     90  O   UNL A   1      46.986  24.423  37.718  1.00  0.00    -0.744 OA
ENDBRANCH  84  87
ENDBRANCH  57  80
ENDBRANCH  31  32
ENDBRANCH  24  26
ENDBRANCH  23  24
ENDBRANCH   1  23
TORSDOF 17
ENDMDL
MODEL 3
REMARK VINA RESULT:     -11.6      1.449      1.788
REMARK SMILES COc1c(N)cc(-c2ccccc2)cc1C(=O)OCCOC(=O)c1ccc(-c2c3nc(c(-c4cccc(S(=O)(=O)[O-])c4F)c4ccc([nH]4)c(-c4cccc(S(=O)(=O)[O-])c4F)c4nc(c(-c5cccc(S(=O)(=O)[O-])c5F)c5ccc2[nH]5)C=C4)C=C3)cc1
REMARK SMILES IDX 20 1 19 2 18 3 16 4 17 5 15 6 3 7 4 8 6 9 14 10 7 11 2 12
REMARK SMILES IDX 1 13 5 14 8 17 9 18 13 19 10 20 12 21 11 22 21 23 22 24
REMARK SMILES IDX 23 25 24 26 25 27 86 28 26 29 85 30 27 31 28 32 29 33 79 34
REMARK SMILES IDX 30 35 84 36 78 37 80 38 31 39 83 40 77 41 76 42 32 44 64 45
REMARK SMILES IDX 44 46 63 47 45 48 48 49 62 50 81 51 46 52 47 53 61 55 82 56
REMARK SMILES IDX 49 57 33 58 34 59 42 60 35 61 37 62 43 63 36 64 38 65 39 66
REMARK SMILES IDX 40 67 41 68 65 69 66 70 74 71 67 72 69 73 75 74 68 75 70 76
REMARK SMILES IDX 71 77 72 78 73 79 50 80 51 81 59 82 52 83 54 84 60 85 53 86
REMARK SMILES IDX 55 87 56 88 57 89 58 90
REMARK H PARENT 5 15 5 16 80 43 48 54
REMARK Flexibility Score: inf
ROOT
ATOM      1  C   UNL A   1      36.583  20.750  25.127  1.00  0.00     0.275 C 
ENDROOT
BRANCH   1   2
ATOM      2  C   UNL A   1      35.458  21.715  25.492  1.00  0.00     0.275 C 
BRANCH   2   3
ATOM      3  O   UNL A   1      35.749  23.048  25.023  1.00  0.00    -0.458 OA
BRANCH   3   4
ATOM      4  C   UNL A   1      35.216  23.382  23.821  1.00  0.00     0.342 C 
ATOM      5  O   UNL A   1      35.663  23.081  22.724  1.00  0.00    -0.246 OA
BRANCH   4   6
ATOM      6  C   UNL A   1      33.916  24.070  23.972  1.00  0.00     0.104 A 
ATOM      7  C   UNL A   1      32.743  23.651  23.341  1.00  0.00     0.156 A 
ATOM      8  C   UNL A   1      31.516  24.270  23.657  1.00  0.00     0.076 A 
ATOM      9  C   UNL A   1      31.518  25.426  24.451  1.00  0.00     0.038 A 
ATOM     10  C   UNL A   1      33.869  25.160  24.852  1.00  0.00     0.028 A 
ATOM     11  C   UNL A   1      32.693  25.890  25.055  1.00  0.00    -0.015 A 
BRANCH   7  12
ATOM     12  O   UNL A   1      32.753  22.560  22.504  1.00  0.00    -0.494 OA
ATOM     13  C   UNL A   1      32.502  21.369  23.257  1.00  0.00     0.278 C 
ENDBRANCH   7  12
BRANCH   8  14
ATOM     14  N   UNL A   1      30.318  23.826  23.094  1.00  0.00    -0.396 N 
ATOM     15  H   UNL A   1      29.618  23.437  23.668  1.00  0.00     0.156 HD
ATOM     16  H   UNL A   1      30.172  23.900  22.122  1.00  0.00     0.156 HD
ENDBRANCH   8  14
BRANCH  11  17
ATOM     17  C   UNL A   1      32.717  27.096  25.892  1.00  0.00    -0.018 A 
ATOM     18  C   UNL A   1      33.824  27.957  25.890  1.00  0.00     0.009 A 
ATOM     19  C   UNL A   1      31.606  27.441  26.680  1.00  0.00     0.009 A 
ATOM     20  C   UNL A   1      33.818  29.130  26.648  1.00  0.00     0.001 A 
ATOM     21  C   UNL A   1      31.599  28.613  27.439  1.00  0.00     0.001 A 
ATOM     22  C   UNL A   1      32.706  29.458  27.421  1.00  0.00     0.000 A 
ENDBRANCH  11  17
ENDBRANCH   4   6
ENDBRANCH   3   4
ENDBRANCH   2   3
ENDBRANCH   1   2
BRANCH   1  23
ATOM     23  O   UNL A   1      37.812  21.474  24.956  1.00  0.00    -0.458 OA
BRANCH  23  24
ATOM     24  C   UNL A   1      38.820  21.114  25.782  1.00  0.00     0.338 C 
ATOM     25  O   UNL A   1      39.265  19.995  25.971  1.00  0.00    -0.246 OA
BRANCH  24  26
ATOM     26  C   UNL A   1      39.375  22.312  26.429  1.00  0.00     0.060 A 
ATOM     27  C   UNL A   1      38.863  23.560  26.085  1.00  0.00     0.016 A 
ATOM     28  C   UNL A   1      40.490  22.216  27.256  1.00  0.00     0.016 A 
ATOM     29  C   UNL A   1      39.537  24.721  26.460  1.00  0.00     0.010 A 
ATOM     30  C   UNL A   1      41.093  23.386  27.731  1.00  0.00     0.010 A 
ATOM     31  C   UNL A   1      40.658  24.653  27.298  1.00  0.00    -0.014 A 
BRANCH  31  32
ATOM     32  C   UNL A   1      41.397  25.886  27.705  1.00  0.00     0.031 A 
ATOM     33  C   UNL A   1      40.720  26.926  28.564  1.00  0.00     0.074 A 
ATOM     34  C   UNL A   1      42.659  26.103  27.282  1.00  0.00     0.049 A 
ATOM     35  N   UNL A   1      41.098  28.148  28.840  1.00  0.00    -0.248 NA
ATOM     36  C   UNL A   1      39.435  26.548  29.176  1.00  0.00     0.031 C 
ATOM     37  C   UNL A   1      43.448  25.188  26.457  1.00  0.00     0.029 A 
ATOM     38  N   UNL A   1      43.496  27.178  27.472  1.00  0.00    -0.354 N 
ATOM     39  C   UNL A   1      40.062  28.713  29.575  1.00  0.00     0.074 A 
ATOM     40  C   UNL A   1      39.044  27.694  29.719  1.00  0.00     0.031 C 
ATOM     41  C   UNL A   1      44.653  25.728  26.223  1.00  0.00     0.029 A 
ATOM     42  C   UNL A   1      44.696  27.063  26.808  1.00  0.00     0.049 A 
ATOM     43  H   UNL A   1      43.259  27.955  28.029  1.00  0.00     0.167 HD
ATOM     44  C   UNL A   1      39.968  29.963  30.092  1.00  0.00     0.034 A 
ATOM     45  C   UNL A   1      45.704  27.943  26.643  1.00  0.00     0.034 A 
ATOM     46  C   UNL A   1      41.018  30.945  30.027  1.00  0.00     0.049 A 
ATOM     47  C   UNL A   1      45.594  29.309  27.259  1.00  0.00     0.074 A 
ATOM     48  C   UNL A   1      41.036  32.221  30.565  1.00  0.00     0.029 A 
ATOM     49  N   UNL A   1      42.242  30.757  29.405  1.00  0.00    -0.354 N 
ATOM     50  N   UNL A   1      44.623  29.811  27.983  1.00  0.00    -0.248 NA
ATOM     51  C   UNL A   1      46.722  30.227  27.045  1.00  0.00     0.031 C 
ATOM     52  C   UNL A   1      42.272  32.804  30.266  1.00  0.00     0.029 A 
ATOM     53  C   UNL A   1      43.027  31.888  29.551  1.00  0.00     0.049 A 
ATOM     54  H   UNL A   1      42.514  29.940  28.928  1.00  0.00     0.167 HD
ATOM     55  C   UNL A   1      45.029  31.095  28.325  1.00  0.00     0.074 A 
ATOM     56  C   UNL A   1      46.347  31.284  27.755  1.00  0.00     0.031 C 
ATOM     57  C   UNL A   1      44.360  32.042  29.027  1.00  0.00     0.034 A 
BRANCH  44  58
ATOM     58  C   UNL A   1      38.693  30.335  30.806  1.00  0.00     0.023 A 
ATOM     59  C   UNL A   1      38.514  29.970  32.155  1.00  0.00     0.012 A 
ATOM     60  C   UNL A   1      37.700  31.097  30.159  1.00  0.00     0.148 A 
ATOM     61  C   UNL A   1      37.352  30.329  32.839  1.00  0.00     0.002 A 
ATOM     62  C   UNL A   1      36.563  31.486  30.860  1.00  0.00     0.091 A 
ATOM     63  F   UNL A   1      37.875  31.417  28.868  1.00  0.00    -0.205 F 
ATOM     64  C   UNL A   1      36.383  31.095  32.195  1.00  0.00     0.022 A 
BRANCH  62  65
ATOM     65  S   UNL A   1      35.300  32.540  30.136  1.00  0.00     0.127 S 
ATOM     66  O   UNL A   1      34.840  31.724  29.013  1.00  0.00    -0.237 OA
ATOM     67  O   UNL A   1      34.334  32.667  31.230  1.00  0.00    -0.237 OA
ATOM     68  O   UNL A   1      35.974  33.781  29.780  1.00  0.00    -0.744 OA
ENDBRANCH  62  65
ENDBRANCH  44  58
BRANCH  45  69
ATOM     69  C   UNL A   1      46.912  27.542  25.867  1.00  0.00     0.023 A 
ATOM     70  C   UNL A   1      46.949  27.765  24.478  1.00  0.00     0.012 A 
ATOM     71  C   UNL A   1      48.046  27.000  26.505  1.00  0.00     0.148 A 
ATOM     72  C   UNL A   1      48.085  27.444  23.736  1.00  0.00     0.002 A 
ATOM     73  C   UNL A   1      49.198  26.741  25.770  1.00  0.00     0.091 A 
ATOM     74  F   UNL A   1      47.986  26.768  27.824  1.00  0.00    -0.205 F 
ATOM     75  C   UNL A   1      49.215  26.948  24.383  1.00  0.00     0.022 A 
BRANCH  73  76
ATOM     76  S   UNL A   1      50.738  26.249  26.553  1.00  0.00     0.127 S 
ATOM     77  O   UNL A   1      51.692  26.399  25.458  1.00  0.00    -0.237 OA
ATOM     78  O   UNL A   1      50.868  27.239  27.623  1.00  0.00    -0.237 OA
ATOM     79  O   UNL A   1      50.516  24.889  27.025  1.00  0.00    -0.744 OA
ENDBRANCH  73  76
ENDBRANCH  45  69
BRANCH  57  80
ATOM     80  C   UNL A   1      45.049  33.362  29.244  1.00  0.00     0.023 A 
ATOM     81  C   UNL A   1      45.880  33.535  30.367  1.00  0.00     0.012 A 
ATOM     82  C   UNL A   1      44.927  34.404  28.304  1.00  0.00     0.148 A 
ATOM     83  C   UNL A   1      46.560  34.735  30.567  1.00  0.00     0.002 A 
ATOM     84  C   UNL A   1      45.640  35.583  28.488  1.00  0.00     0.091 A 
ATOM     85  F   UNL A   1      44.112  34.227  27.253  1.00  0.00    -0.205 F 
ATOM     86  C   UNL A   1      46.450  35.753  29.622  1.00  0.00     0.022 A 
BRANCH  84  87
ATOM     87  S   UNL A   1      45.621  36.911  27.278  1.00  0.00     0.127 S 
ATOM     88  O   UNL A   1      46.335  36.304  26.157  1.00  0.00    -0.237 OA
ATOM     89  O   UNL A   1      44.188  37.110  27.053  1.00  0.00    -0.237 OA
ATOM     90  O   UNL A   1      46.291  38.037  27.914  1.00  0.00    -0.744 OA
ENDBRANCH  84  87
ENDBRANCH  57  80
ENDBRANCH  31  32
ENDBRANCH  24  26
ENDBRANCH  23  24
ENDBRANCH   1  23
TORSDOF 17
ENDMDL
