MODEL 1
REMARK VINA RESULT:     -11.1      0.000      0.000
REMARK SMILES CC[C@@H](O)C[NH+]1CC(n2cc(C(=O)OCCOC(=O)c3ccc(-c4c5nc(c(-c6cccc(S(=O)(=O)[O-])c6F)c6ccc([nH]6)c(-c6cccc(S(=O)(=O)[O-])c6F)c6nc(c(-c7cccc(S(=O)(=O)[O-])c7F)c7ccc4[nH]7)C=C6)C=C5)cc3)nn2)C1
REMARK SMILES IDX 15 1 14 2 12 3 13 4 11 5 9 6 10 7 84 8 83 9 8 10 6 11 7 12
REMARK SMILES IDX 85 13 5 15 3 16 2 17 1 18 4 19 16 21 17 22 18 23 19 24 20 25
REMARK SMILES IDX 21 26 82 27 22 28 81 29 23 30 24 31 25 32 75 33 26 34 80 35
REMARK SMILES IDX 74 36 76 37 27 38 79 39 73 40 72 41 28 43 60 44 40 45 59 46
REMARK SMILES IDX 41 47 44 48 58 49 77 50 42 51 43 52 57 54 78 55 45 56 29 57
REMARK SMILES IDX 30 58 38 59 31 60 33 61 39 62 32 63 34 64 35 65 36 66 37 67
REMARK SMILES IDX 61 68 62 69 70 70 63 71 65 72 71 73 64 74 66 75 67 76 68 77
REMARK SMILES IDX 69 78 46 79 47 80 55 81 48 82 50 83 56 84 49 85 51 86 52 87
REMARK SMILES IDX 53 88 54 89
REMARK H PARENT 6 14 4 20 76 42 44 53
REMARK Flexibility Score: inf
ROOT
ATOM      1  C   UNL A   1      41.428  19.922  27.036  1.00  0.00     0.275 C 
ENDROOT
BRANCH   1   2
ATOM      2  O   UNL A   1      41.745  18.916  26.056  1.00  0.00    -0.457 OA
BRANCH   2   3
ATOM      3  C   UNL A   1      42.970  18.317  26.193  1.00  0.00     0.360 C 
ATOM      4  O   UNL A   1      43.166  17.305  26.863  1.00  0.00    -0.244 OA
BRANCH   3   5
ATOM      5  C   UNL A   1      44.015  18.991  25.438  1.00  0.00     0.190 A 
ATOM      6  N   UNL A   1      45.317  20.443  24.486  1.00  0.00    -0.237 N 
ATOM      7  C   UNL A   1      44.128  20.339  25.151  1.00  0.00     0.147 A 
ATOM      8  N   UNL A   1      45.889  19.239  24.323  1.00  0.00    -0.066 NA
ATOM      9  N   UNL A   1      45.086  18.337  24.875  1.00  0.00    -0.123 NA
BRANCH   6  10
ATOM     10  C   UNL A   1      46.008  21.692  24.370  1.00  0.00     0.218 C 
ATOM     11  N   UNL A   1      45.634  23.756  24.552  1.00  0.00    -0.329 N 
ATOM     12  C   UNL A   1      45.955  22.679  25.559  1.00  0.00     0.296 C 
ATOM     13  C   UNL A   1      45.041  22.696  23.712  1.00  0.00     0.296 C 
ATOM     14  H   UNL A   1      46.338  24.399  24.191  1.00  0.00     0.348 HD
BRANCH  11  15
ATOM     15  C   UNL A   1      44.606  24.675  25.075  1.00  0.00     0.294 C 
BRANCH  15  16
ATOM     16  C   UNL A   1      45.073  26.133  25.374  1.00  0.00     0.169 C 
BRANCH  16  17
ATOM     17  C   UNL A   1      45.202  26.440  26.878  1.00  0.00     0.034 C 
ATOM     18  C   UNL A   1      46.156  27.571  27.228  1.00  0.00     0.007 C 
ENDBRANCH  16  17
BRANCH  16  19
ATOM     19  O   UNL A   1      46.357  26.309  24.758  1.00  0.00    -0.387 OA
ATOM     20  H   UNL A   1      46.242  26.696  23.876  1.00  0.00     0.211 HD
ENDBRANCH  16  19
ENDBRANCH  15  16
ENDBRANCH  11  15
ENDBRANCH   6  10
ENDBRANCH   3   5
ENDBRANCH   2   3
ENDBRANCH   1   2
BRANCH   1  21
ATOM     21  C   UNL A   1      40.579  21.027  26.425  1.00  0.00     0.275 C 
BRANCH  21  22
ATOM     22  O   UNL A   1      40.580  22.188  27.254  1.00  0.00    -0.458 OA
BRANCH  22  23
ATOM     23  C   UNL A   1      39.683  23.131  26.889  1.00  0.00     0.338 C 
ATOM     24  O   UNL A   1      38.666  22.968  26.234  1.00  0.00    -0.246 OA
BRANCH  23  25
ATOM     25  C   UNL A   1      40.229  24.450  27.178  1.00  0.00     0.060 A 
ATOM     26  C   UNL A   1      41.381  24.514  27.970  1.00  0.00     0.016 A 
ATOM     27  C   UNL A   1      39.410  25.561  26.946  1.00  0.00     0.016 A 
ATOM     28  C   UNL A   1      41.634  25.678  28.663  1.00  0.00     0.010 A 
ATOM     29  C   UNL A   1      39.640  26.702  27.662  1.00  0.00     0.010 A 
ATOM     30  C   UNL A   1      40.717  26.726  28.552  1.00  0.00    -0.014 A 
BRANCH  30  31
ATOM     31  C   UNL A   1      40.976  27.960  29.260  1.00  0.00     0.031 A 
ATOM     32  C   UNL A   1      42.018  28.779  28.583  1.00  0.00     0.074 A 
ATOM     33  C   UNL A   1      40.167  28.332  30.273  1.00  0.00     0.049 A 
ATOM     34  N   UNL A   1      43.108  29.254  29.086  1.00  0.00    -0.248 NA
ATOM     35  C   UNL A   1      41.926  28.939  27.116  1.00  0.00     0.031 C 
ATOM     36  C   UNL A   1      38.958  27.636  30.734  1.00  0.00     0.029 A 
ATOM     37  N   UNL A   1      40.121  29.505  30.964  1.00  0.00    -0.354 N 
ATOM     38  C   UNL A   1      43.689  29.990  28.053  1.00  0.00     0.074 A 
ATOM     39  C   UNL A   1      43.070  29.558  26.835  1.00  0.00     0.031 C 
ATOM     40  C   UNL A   1      38.165  28.516  31.382  1.00  0.00     0.029 A 
ATOM     41  C   UNL A   1      38.845  29.798  31.449  1.00  0.00     0.049 A 
ATOM     42  H   UNL A   1      40.905  30.085  31.107  1.00  0.00     0.167 HD
ATOM     43  C   UNL A   1      44.381  31.131  28.318  1.00  0.00     0.034 A 
ATOM     44  C   UNL A   1      38.342  31.031  31.723  1.00  0.00     0.034 A 
ATOM     45  C   UNL A   1      44.830  31.157  29.686  1.00  0.00     0.049 A 
ATOM     46  C   UNL A   1      39.491  31.963  31.836  1.00  0.00     0.074 A 
ATOM     47  C   UNL A   1      45.572  30.298  30.474  1.00  0.00     0.029 A 
ATOM     48  N   UNL A   1      44.157  31.984  30.552  1.00  0.00    -0.354 N 
ATOM     49  N   UNL A   1      40.392  31.886  32.776  1.00  0.00    -0.248 NA
ATOM     50  C   UNL A   1      39.897  32.670  30.632  1.00  0.00     0.031 C 
ATOM     51  C   UNL A   1      44.932  30.328  31.746  1.00  0.00     0.029 A 
ATOM     52  C   UNL A   1      43.898  31.265  31.689  1.00  0.00     0.049 A 
ATOM     53  H   UNL A   1      43.906  32.921  30.387  1.00  0.00     0.167 HD
ATOM     54  C   UNL A   1      41.593  32.092  32.109  1.00  0.00     0.074 A 
ATOM     55  C   UNL A   1      41.221  32.663  30.815  1.00  0.00     0.031 C 
ATOM     56  C   UNL A   1      42.746  31.493  32.529  1.00  0.00     0.034 A 
BRANCH  43  57
ATOM     57  C   UNL A   1      44.274  32.392  27.485  1.00  0.00     0.023 A 
ATOM     58  C   UNL A   1      45.199  32.534  26.429  1.00  0.00     0.012 A 
ATOM     59  C   UNL A   1      43.538  33.548  27.849  1.00  0.00     0.148 A 
ATOM     60  C   UNL A   1      45.437  33.772  25.824  1.00  0.00     0.002 A 
ATOM     61  C   UNL A   1      43.721  34.757  27.190  1.00  0.00     0.091 A 
ATOM     62  F   UNL A   1      42.749  33.541  28.923  1.00  0.00    -0.205 F 
ATOM     63  C   UNL A   1      44.696  34.884  26.202  1.00  0.00     0.022 A 
BRANCH  61  64
ATOM     64  S   UNL A   1      42.756  36.216  27.612  1.00  0.00     0.127 S 
ATOM     65  O   UNL A   1      41.397  35.684  27.586  1.00  0.00    -0.237 OA
ATOM     66  O   UNL A   1      43.273  36.537  28.943  1.00  0.00    -0.237 OA
ATOM     67  O   UNL A   1      43.074  37.209  26.595  1.00  0.00    -0.744 OA
ENDBRANCH  61  64
ENDBRANCH  43  57
BRANCH  44  68
ATOM     68  C   UNL A   1      36.952  31.526  31.523  1.00  0.00     0.023 A 
ATOM     69  C   UNL A   1      36.220  32.033  32.617  1.00  0.00     0.012 A 
ATOM     70  C   UNL A   1      36.427  31.745  30.229  1.00  0.00     0.148 A 
ATOM     71  C   UNL A   1      35.024  32.740  32.426  1.00  0.00     0.002 A 
ATOM     72  C   UNL A   1      35.225  32.423  30.043  1.00  0.00     0.091 A 
ATOM     73  F   UNL A   1      37.153  31.389  29.162  1.00  0.00    -0.205 F 
ATOM     74  C   UNL A   1      34.525  32.935  31.140  1.00  0.00     0.022 A 
BRANCH  72  75
ATOM     75  S   UNL A   1      34.542  32.688  28.401  1.00  0.00     0.127 S 
ATOM     76  O   UNL A   1      33.413  33.579  28.678  1.00  0.00    -0.237 OA
ATOM     77  O   UNL A   1      35.660  33.312  27.703  1.00  0.00    -0.237 OA
ATOM     78  O   UNL A   1      34.147  31.368  27.923  1.00  0.00    -0.744 OA
ENDBRANCH  72  75
ENDBRANCH  44  68
BRANCH  56  79
ATOM     79  C   UNL A   1      42.758  30.804  33.868  1.00  0.00     0.023 A 
ATOM     80  C   UNL A   1      42.887  31.499  35.089  1.00  0.00     0.012 A 
ATOM     81  C   UNL A   1      42.434  29.438  33.896  1.00  0.00     0.148 A 
ATOM     82  C   UNL A   1      42.714  30.839  36.309  1.00  0.00     0.002 A 
ATOM     83  C   UNL A   1      42.214  28.798  35.107  1.00  0.00     0.091 A 
ATOM     84  F   UNL A   1      42.314  28.792  32.725  1.00  0.00    -0.205 F 
ATOM     85  C   UNL A   1      42.363  29.491  36.318  1.00  0.00     0.022 A 
BRANCH  83  86
ATOM     86  S   UNL A   1      41.635  27.103  35.166  1.00  0.00     0.127 S 
ATOM     87  O   UNL A   1      41.208  26.975  36.557  1.00  0.00    -0.237 OA
ATOM     88  O   UNL A   1      40.545  27.105  34.188  1.00  0.00    -0.237 OA
ATOM     89  O   UNL A   1      42.774  26.277  34.780  1.00  0.00    -0.744 OA
ENDBRANCH  83  86
ENDBRANCH  56  79
ENDBRANCH  30  31
ENDBRANCH  23  25
ENDBRANCH  22  23
ENDBRANCH  21  22
ENDBRANCH   1  21
TORSDOF 19
ENDMDL
MODEL 2
REMARK VINA RESULT:     -10.6      3.460     11.788
REMARK SMILES CC[C@@H](O)C[NH+]1CC(n2cc(C(=O)OCCOC(=O)c3ccc(-c4c5nc(c(-c6cccc(S(=O)(=O)[O-])c6F)c6ccc([nH]6)c(-c6cccc(S(=O)(=O)[O-])c6F)c6nc(c(-c7cccc(S(=O)(=O)[O-])c7F)c7ccc4[nH]7)C=C6)C=C5)cc3)nn2)C1
REMARK SMILES IDX 15 1 14 2 12 3 13 4 11 5 9 6 10 7 84 8 83 9 8 10 6 11 7 12
REMARK SMILES IDX 85 13 5 15 3 16 2 17 1 18 4 19 16 21 17 22 18 23 19 24 20 25
REMARK SMILES IDX 21 26 82 27 22 28 81 29 23 30 24 31 25 32 75 33 26 34 80 35
REMARK SMILES IDX 74 36 76 37 27 38 79 39 73 40 72 41 28 43 60 44 40 45 59 46
REMARK SMILES IDX 41 47 44 48 58 49 77 50 42 51 43 52 57 54 78 55 45 56 29 57
REMARK SMILES IDX 30 58 38 59 31 60 33 61 39 62 32 63 34 64 35 65 36 66 37 67
REMARK SMILES IDX 61 68 62 69 70 70 63 71 65 72 71 73 64 74 66 75 67 76 68 77
REMARK SMILES IDX 69 78 46 79 47 80 55 81 48 82 50 83 56 84 49 85 51 86 52 87
REMARK SMILES IDX 53 88 54 89
REMARK H PARENT 6 14 4 20 76 42 44 53
REMARK Flexibility Score: inf
ROOT
ATOM      1  C   UNL A   1      33.898  33.919  27.958  1.00  0.00     0.275 C 
ENDROOT
BRANCH   1   2
ATOM      2  O   UNL A   1      34.272  35.116  28.666  1.00  0.00    -0.457 OA
BRANCH   2   3
ATOM      3  C   UNL A   1      33.266  35.733  29.364  1.00  0.00     0.360 C 
ATOM      4  O   UNL A   1      32.226  36.140  28.851  1.00  0.00    -0.244 OA
BRANCH   3   5
ATOM      5  C   UNL A   1      33.548  35.833  30.788  1.00  0.00     0.190 A 
ATOM      6  N   UNL A   1      34.165  35.482  32.839  1.00  0.00    -0.237 N 
ATOM      7  C   UNL A   1      34.000  34.844  31.641  1.00  0.00     0.147 A 
ATOM      8  N   UNL A   1      33.795  36.770  32.757  1.00  0.00    -0.066 NA
ATOM      9  N   UNL A   1      33.386  36.991  31.513  1.00  0.00    -0.123 NA
BRANCH   6  10
ATOM     10  C   UNL A   1      34.992  34.939  33.873  1.00  0.00     0.218 C 
ATOM     11  N   UNL A   1      36.261  33.295  34.217  1.00  0.00    -0.329 N 
ATOM     12  C   UNL A   1      36.472  34.631  33.550  1.00  0.00     0.296 C 
ATOM     13  C   UNL A   1      34.839  33.406  33.832  1.00  0.00     0.296 C 
ATOM     14  H   UNL A   1      36.546  33.108  35.178  1.00  0.00     0.348 HD
BRANCH  11  15
ATOM     15  C   UNL A   1      36.944  32.220  33.471  1.00  0.00     0.294 C 
BRANCH  15  16
ATOM     16  C   UNL A   1      38.068  31.457  34.238  1.00  0.00     0.169 C 
BRANCH  16  17
ATOM     17  C   UNL A   1      39.394  32.236  34.317  1.00  0.00     0.034 C 
ATOM     18  C   UNL A   1      39.949  32.707  32.982  1.00  0.00     0.007 C 
ENDBRANCH  16  17
BRANCH  16  19
ATOM     19  O   UNL A   1      37.596  31.220  35.572  1.00  0.00    -0.387 OA
ATOM     20  H   UNL A   1      38.096  31.771  36.195  1.00  0.00     0.211 HD
ENDBRANCH  16  19
ENDBRANCH  15  16
ENDBRANCH  11  15
ENDBRANCH   6  10
ENDBRANCH   3   5
ENDBRANCH   2   3
ENDBRANCH   1   2
BRANCH   1  21
ATOM     21  C   UNL A   1      33.990  32.700  28.863  1.00  0.00     0.275 C 
BRANCH  21  22
ATOM     22  O   UNL A   1      35.347  32.311  29.059  1.00  0.00    -0.458 OA
BRANCH  22  23
ATOM     23  C   UNL A   1      35.620  31.041  28.686  1.00  0.00     0.338 C 
ATOM     24  O   UNL A   1      34.909  30.295  28.032  1.00  0.00    -0.246 OA
BRANCH  23  25
ATOM     25  C   UNL A   1      36.806  30.577  29.394  1.00  0.00     0.060 A 
ATOM     26  C   UNL A   1      37.744  31.540  29.786  1.00  0.00     0.016 A 
ATOM     27  C   UNL A   1      37.104  29.211  29.342  1.00  0.00     0.016 A 
ATOM     28  C   UNL A   1      39.046  31.139  29.988  1.00  0.00     0.010 A 
ATOM     29  C   UNL A   1      38.404  28.819  29.506  1.00  0.00     0.010 A 
ATOM     30  C   UNL A   1      39.366  29.796  29.772  1.00  0.00    -0.014 A 
BRANCH  30  31
ATOM     31  C   UNL A   1      40.725  29.356  29.995  1.00  0.00     0.031 A 
ATOM     32  C   UNL A   1      41.050  29.272  31.445  1.00  0.00     0.074 A 
ATOM     33  C   UNL A   1      41.457  28.893  28.961  1.00  0.00     0.049 A 
ATOM     34  N   UNL A   1      42.028  29.831  32.076  1.00  0.00    -0.248 NA
ATOM     35  C   UNL A   1      40.060  28.633  32.338  1.00  0.00     0.031 C 
ATOM     36  C   UNL A   1      41.004  28.715  27.575  1.00  0.00     0.029 A 
ATOM     37  N   UNL A   1      42.677  28.288  28.960  1.00  0.00    -0.354 N 
ATOM     38  C   UNL A   1      41.908  29.384  33.393  1.00  0.00     0.074 A 
ATOM     39  C   UNL A   1      40.575  28.879  33.540  1.00  0.00     0.031 C 
ATOM     40  C   UNL A   1      41.793  27.800  26.970  1.00  0.00     0.029 A 
ATOM     41  C   UNL A   1      42.840  27.401  27.894  1.00  0.00     0.049 A 
ATOM     42  H   UNL A   1      43.370  28.458  29.639  1.00  0.00     0.167 HD
ATOM     43  C   UNL A   1      43.014  29.152  34.149  1.00  0.00     0.034 A 
ATOM     44  C   UNL A   1      43.663  26.319  27.855  1.00  0.00     0.034 A 
ATOM     45  C   UNL A   1      44.152  29.869  33.635  1.00  0.00     0.049 A 
ATOM     46  C   UNL A   1      44.661  26.482  28.940  1.00  0.00     0.074 A 
ATOM     47  C   UNL A   1      44.403  31.194  33.337  1.00  0.00     0.029 A 
ATOM     48  N   UNL A   1      45.101  29.140  32.960  1.00  0.00    -0.354 N 
ATOM     49  N   UNL A   1      45.556  27.430  28.960  1.00  0.00    -0.248 NA
ATOM     50  C   UNL A   1      44.348  25.884  30.229  1.00  0.00     0.031 C 
ATOM     51  C   UNL A   1      45.156  31.158  32.129  1.00  0.00     0.029 A 
ATOM     52  C   UNL A   1      45.400  29.821  31.811  1.00  0.00     0.049 A 
ATOM     53  H   UNL A   1      45.493  28.285  33.249  1.00  0.00     0.167 HD
ATOM     54  C   UNL A   1      45.550  27.870  30.278  1.00  0.00     0.074 A 
ATOM     55  C   UNL A   1      44.861  26.822  31.031  1.00  0.00     0.031 C 
ATOM     56  C   UNL A   1      45.816  29.173  30.588  1.00  0.00     0.034 A 
BRANCH  43  57
ATOM     57  C   UNL A   1      43.167  27.958  35.070  1.00  0.00     0.023 A 
ATOM     58  C   UNL A   1      43.557  28.229  36.399  1.00  0.00     0.012 A 
ATOM     59  C   UNL A   1      43.240  26.607  34.647  1.00  0.00     0.148 A 
ATOM     60  C   UNL A   1      44.066  27.228  37.233  1.00  0.00     0.002 A 
ATOM     61  C   UNL A   1      43.671  25.603  35.505  1.00  0.00     0.091 A 
ATOM     62  F   UNL A   1      43.026  26.282  33.371  1.00  0.00    -0.205 F 
ATOM     63  C   UNL A   1      44.121  25.914  36.787  1.00  0.00     0.022 A 
BRANCH  61  64
ATOM     64  S   UNL A   1      43.719  23.880  34.991  1.00  0.00     0.127 S 
ATOM     65  O   UNL A   1      42.297  23.569  34.881  1.00  0.00    -0.237 OA
ATOM     66  O   UNL A   1      44.435  23.971  33.719  1.00  0.00    -0.237 OA
ATOM     67  O   UNL A   1      44.449  23.175  36.036  1.00  0.00    -0.744 OA
ENDBRANCH  61  64
ENDBRANCH  43  57
BRANCH  44  68
ATOM     68  C   UNL A   1      43.423  25.001  27.206  1.00  0.00     0.023 A 
ATOM     69  C   UNL A   1      42.165  24.375  27.326  1.00  0.00     0.012 A 
ATOM     70  C   UNL A   1      44.328  24.470  26.257  1.00  0.00     0.148 A 
ATOM     71  C   UNL A   1      41.820  23.276  26.524  1.00  0.00     0.002 A 
ATOM     72  C   UNL A   1      43.994  23.363  25.483  1.00  0.00     0.091 A 
ATOM     73  F   UNL A   1      45.481  25.110  26.027  1.00  0.00    -0.205 F 
ATOM     74  C   UNL A   1      42.734  22.769  25.603  1.00  0.00     0.022 A 
BRANCH  72  75
ATOM     75  S   UNL A   1      45.147  22.671  24.289  1.00  0.00     0.127 S 
ATOM     76  O   UNL A   1      45.776  21.595  25.058  1.00  0.00    -0.237 OA
ATOM     77  O   UNL A   1      44.254  22.224  23.226  1.00  0.00    -0.237 OA
ATOM     78  O   UNL A   1      46.056  23.758  23.945  1.00  0.00    -0.744 OA
ENDBRANCH  72  75
ENDBRANCH  44  68
BRANCH  56  79
ATOM     79  C   UNL A   1      46.359  30.078  29.513  1.00  0.00     0.023 A 
ATOM     80  C   UNL A   1      47.719  30.091  29.135  1.00  0.00     0.012 A 
ATOM     81  C   UNL A   1      45.432  30.790  28.737  1.00  0.00     0.148 A 
ATOM     82  C   UNL A   1      48.142  30.814  28.015  1.00  0.00     0.002 A 
ATOM     83  C   UNL A   1      45.847  31.466  27.599  1.00  0.00     0.091 A 
ATOM     84  F   UNL A   1      44.143  30.766  29.111  1.00  0.00    -0.205 F 
ATOM     85  C   UNL A   1      47.203  31.490  27.238  1.00  0.00     0.022 A 
BRANCH  83  86
ATOM     86  S   UNL A   1      44.663  32.239  26.497  1.00  0.00     0.127 S 
ATOM     87  O   UNL A   1      44.140  33.323  27.326  1.00  0.00    -0.237 OA
ATOM     88  O   UNL A   1      45.504  32.672  25.380  1.00  0.00    -0.237 OA
ATOM     89  O   UNL A   1      43.704  31.197  26.147  1.00  0.00    -0.744 OA
ENDBRANCH  83  86
ENDBRANCH  56  79
ENDBRANCH  30  31
ENDBRANCH  23  25
ENDBRANCH  22  23
ENDBRANCH  21  22
ENDBRANCH   1  21
TORSDOF 19
ENDMDL
MODEL 3
REMARK VINA RESULT:     -10.5      4.516     10.421
REMARK SMILES CC[C@@H](O)C[NH+]1CC(n2cc(C(=O)OCCOC(=O)c3ccc(-c4c5nc(c(-c6cccc(S(=O)(=O)[O-])c6F)c6ccc([nH]6)c(-c6cccc(S(=O)(=O)[O-])c6F)c6nc(c(-c7cccc(S(=O)(=O)[O-])c7F)c7ccc4[nH]7)C=C6)C=C5)cc3)nn2)C1
REMARK SMILES IDX 15 1 14 2 12 3 13 4 11 5 9 6 10 7 84 8 83 9 8 10 6 11 7 12
REMARK SMILES IDX 85 13 5 15 3 16 2 17 1 18 4 19 16 21 17 22 18 23 19 24 20 25
REMARK SMILES IDX 21 26 82 27 22 28 81 29 23 30 24 31 25 32 75 33 26 34 80 35
REMARK SMILES IDX 74 36 76 37 27 38 79 39 73 40 72 41 28 43 60 44 40 45 59 46
REMARK SMILES IDX 41 47 44 48 58 49 77 50 42 51 43 52 57 54 78 55 45 56 29 57
REMARK SMILES IDX 30 58 38 59 31 60 33 61 39 62 32 63 34 64 35 65 36 66 37 67
REMARK SMILES IDX 61 68 62 69 70 70 63 71 65 72 71 73 64 74 66 75 67 76 68 77
REMARK SMILES IDX 69 78 46 79 47 80 55 81 48 82 50 83 56 84 49 85 51 86 52 87
REMARK SMILES IDX 53 88 54 89
REMARK H PARENT 6 14 4 20 76 42 44 53
REMARK Flexibility Score: inf
ROOT
ATOM      1  C   UNL A   1      32.914  29.652  25.958  1.00  0.00     0.275 C 
ENDROOT
BRANCH   1   2
ATOM      2  O   UNL A   1      33.670  28.427  25.956  1.00  0.00    -0.457 OA
BRANCH   2   3
ATOM      3  C   UNL A   1      33.586  27.678  24.811  1.00  0.00     0.360 C 
ATOM      4  O   UNL A   1      33.965  28.066  23.708  1.00  0.00    -0.244 OA
BRANCH   3   5
ATOM      5  C   UNL A   1      33.022  26.356  25.043  1.00  0.00     0.190 A 
ATOM      6  N   UNL A   1      32.693  24.267  25.530  1.00  0.00    -0.237 N 
ATOM      7  C   UNL A   1      33.690  25.183  25.343  1.00  0.00     0.147 A 
ATOM      8  N   UNL A   1      31.485  24.814  25.313  1.00  0.00    -0.066 NA
ATOM      9  N   UNL A   1      31.675  26.085  24.983  1.00  0.00    -0.123 NA
BRANCH   6  10
ATOM     10  C   UNL A   1      32.915  23.048  26.247  1.00  0.00     0.218 C 
ATOM     11  N   UNL A   1      32.974  20.972  25.904  1.00  0.00    -0.329 N 
ATOM     12  C   UNL A   1      33.993  22.070  25.726  1.00  0.00     0.296 C 
ATOM     13  C   UNL A   1      31.934  21.998  25.690  1.00  0.00     0.296 C 
ATOM     14  H   UNL A   1      32.965  20.356  26.717  1.00  0.00     0.348 HD
BRANCH  11  15
ATOM     15  C   UNL A   1      33.032  20.013  24.783  1.00  0.00     0.294 C 
BRANCH  15  16
ATOM     16  C   UNL A   1      32.730  18.524  25.135  1.00  0.00     0.169 C 
BRANCH  16  17
ATOM     17  C   UNL A   1      33.827  17.548  24.668  1.00  0.00     0.034 C 
ATOM     18  C   UNL A   1      33.693  17.063  23.233  1.00  0.00     0.007 C 
ENDBRANCH  16  17
BRANCH  16  19
ATOM     19  O   UNL A   1      32.613  18.432  26.562  1.00  0.00    -0.387 OA
ATOM     20  H   UNL A   1      32.971  17.582  26.862  1.00  0.00     0.211 HD
ENDBRANCH  16  19
ENDBRANCH  15  16
ENDBRANCH  11  15
ENDBRANCH   6  10
ENDBRANCH   3   5
ENDBRANCH   2   3
ENDBRANCH   1   2
BRANCH   1  21
ATOM     21  C   UNL A   1      33.394  30.586  27.059  1.00  0.00     0.275 C 
BRANCH  21  22
ATOM     22  O   UNL A   1      34.652  30.158  27.577  1.00  0.00    -0.458 OA
BRANCH  22  23
ATOM     23  C   UNL A   1      35.465  31.167  27.962  1.00  0.00     0.338 C 
ATOM     24  O   UNL A   1      35.412  32.334  27.609  1.00  0.00    -0.246 OA
BRANCH  23  25
ATOM     25  C   UNL A   1      36.603  30.616  28.687  1.00  0.00     0.060 A 
ATOM     26  C   UNL A   1      37.541  31.518  29.202  1.00  0.00     0.016 A 
ATOM     27  C   UNL A   1      36.872  29.251  28.538  1.00  0.00     0.016 A 
ATOM     28  C   UNL A   1      38.822  31.068  29.434  1.00  0.00     0.010 A 
ATOM     29  C   UNL A   1      38.152  28.812  28.733  1.00  0.00     0.010 A 
ATOM     30  C   UNL A   1      39.122  29.739  29.125  1.00  0.00    -0.014 A 
BRANCH  30  31
ATOM     31  C   UNL A   1      40.458  29.246  29.378  1.00  0.00     0.031 A 
ATOM     32  C   UNL A   1      40.689  28.990  30.825  1.00  0.00     0.074 A 
ATOM     33  C   UNL A   1      41.245  28.887  28.343  1.00  0.00     0.049 A 
ATOM     34  N   UNL A   1      41.635  29.452  31.574  1.00  0.00    -0.248 NA
ATOM     35  C   UNL A   1      39.636  28.276  31.578  1.00  0.00     0.031 C 
ATOM     36  C   UNL A   1      40.878  28.878  26.921  1.00  0.00     0.029 A 
ATOM     37  N   UNL A   1      42.453  28.259  28.346  1.00  0.00    -0.354 N 
ATOM     38  C   UNL A   1      41.426  28.861  32.821  1.00  0.00     0.074 A 
ATOM     39  C   UNL A   1      40.079  28.372  32.829  1.00  0.00     0.031 C 
ATOM     40  C   UNL A   1      41.688  28.020  26.264  1.00  0.00     0.029 A 
ATOM     41  C   UNL A   1      42.669  27.496  27.197  1.00  0.00     0.049 A 
ATOM     42  H   UNL A   1      43.105  28.335  29.080  1.00  0.00     0.167 HD
ATOM     43  C   UNL A   1      42.479  28.520  33.611  1.00  0.00     0.034 A 
ATOM     44  C   UNL A   1      43.477  26.407  27.083  1.00  0.00     0.034 A 
ATOM     45  C   UNL A   1      43.658  29.264  33.253  1.00  0.00     0.049 A 
ATOM     46  C   UNL A   1      44.407  26.423  28.238  1.00  0.00     0.074 A 
ATOM     47  C   UNL A   1      43.947  30.610  33.124  1.00  0.00     0.029 A 
ATOM     48  N   UNL A   1      44.635  28.597  32.556  1.00  0.00    -0.354 N 
ATOM     49  N   UNL A   1      45.313  27.342  28.421  1.00  0.00    -0.248 NA
ATOM     50  C   UNL A   1      44.005  25.690  29.429  1.00  0.00     0.031 C 
ATOM     51  C   UNL A   1      44.774  30.694  31.968  1.00  0.00     0.029 A 
ATOM     52  C   UNL A   1      45.016  29.396  31.513  1.00  0.00     0.049 A 
ATOM     53  H   UNL A   1      44.996  27.706  32.768  1.00  0.00     0.167 HD
ATOM     54  C   UNL A   1      45.232  27.630  29.778  1.00  0.00     0.074 A 
ATOM     55  C   UNL A   1      44.482  26.519  30.363  1.00  0.00     0.031 C 
ATOM     56  C   UNL A   1      45.498  28.883  30.252  1.00  0.00     0.034 A 
BRANCH  43  57
ATOM     57  C   UNL A   1      42.556  27.226  34.396  1.00  0.00     0.023 A 
ATOM     58  C   UNL A   1      42.191  27.289  35.758  1.00  0.00     0.012 A 
ATOM     59  C   UNL A   1      43.228  26.053  33.969  1.00  0.00     0.148 A 
ATOM     60  C   UNL A   1      42.545  26.280  36.660  1.00  0.00     0.002 A 
ATOM     61  C   UNL A   1      43.506  25.018  34.853  1.00  0.00     0.091 A 
ATOM     62  F   UNL A   1      43.732  25.969  32.738  1.00  0.00    -0.205 F 
ATOM     63  C   UNL A   1      43.201  25.142  36.207  1.00  0.00     0.022 A 
BRANCH  61  64
ATOM     64  S   UNL A   1      44.314  23.505  34.308  1.00  0.00     0.127 S 
ATOM     65  O   UNL A   1      43.412  23.057  33.251  1.00  0.00    -0.237 OA
ATOM     66  O   UNL A   1      45.608  24.010  33.849  1.00  0.00    -0.237 OA
ATOM     67  O   UNL A   1      44.392  22.652  35.486  1.00  0.00    -0.744 OA
ENDBRANCH  61  64
ENDBRANCH  43  57
BRANCH  44  68
ATOM     68  C   UNL A   1      43.257  25.177  26.274  1.00  0.00     0.023 A 
ATOM     69  C   UNL A   1      44.164  24.837  25.248  1.00  0.00     0.012 A 
ATOM     70  C   UNL A   1      42.315  24.197  26.663  1.00  0.00     0.148 A 
ATOM     71  C   UNL A   1      44.139  23.569  24.647  1.00  0.00     0.002 A 
ATOM     72  C   UNL A   1      42.274  22.950  26.046  1.00  0.00     0.091 A 
ATOM     73  F   UNL A   1      41.521  24.437  27.714  1.00  0.00    -0.205 F 
ATOM     74  C   UNL A   1      43.194  22.626  25.044  1.00  0.00     0.022 A 
BRANCH  72  75
ATOM     75  S   UNL A   1      41.065  21.707  26.521  1.00  0.00     0.127 S 
ATOM     76  O   UNL A   1      41.490  20.547  25.735  1.00  0.00    -0.237 OA
ATOM     77  O   UNL A   1      41.295  21.592  27.957  1.00  0.00    -0.237 OA
ATOM     78  O   UNL A   1      39.770  22.247  26.124  1.00  0.00    -0.744 OA
ENDBRANCH  72  75
ENDBRANCH  44  68
BRANCH  56  79
ATOM     79  C   UNL A   1      46.121  29.891  29.322  1.00  0.00     0.023 A 
ATOM     80  C   UNL A   1      47.499  29.909  29.020  1.00  0.00     0.012 A 
ATOM     81  C   UNL A   1      45.255  30.717  28.588  1.00  0.00     0.148 A 
ATOM     82  C   UNL A   1      48.001  30.746  28.019  1.00  0.00     0.002 A 
ATOM     83  C   UNL A   1      45.749  31.510  27.563  1.00  0.00     0.091 A 
ATOM     84  F   UNL A   1      43.947  30.688  28.888  1.00  0.00    -0.205 F 
ATOM     85  C   UNL A   1      47.123  31.536  27.280  1.00  0.00     0.022 A 
BRANCH  83  86
ATOM     86  S   UNL A   1      44.647  32.442  26.500  1.00  0.00     0.127 S 
ATOM     87  O   UNL A   1      44.030  33.372  27.444  1.00  0.00    -0.237 OA
ATOM     88  O   UNL A   1      45.570  33.058  25.547  1.00  0.00    -0.237 OA
ATOM     89  O   UNL A   1      43.745  31.463  25.903  1.00  0.00    -0.744 OA
ENDBRANCH  83  86
ENDBRANCH  56  79
ENDBRANCH  30  31
ENDBRANCH  23  25
ENDBRANCH  22  23
ENDBRANCH  21  22
ENDBRANCH   1  21
TORSDOF 19
ENDMDL
