MODEL 1
REMARK VINA RESULT:     -11.3      0.000      0.000
REMARK SMILES O=C(OCCOC(=O)c1cc([C@@H]2C=NN=C2c2ccc(F)cc2)c2c(ccc3ccccc32)n1)c1ccc(-c2c3nc(c(-c4cccc(S(=O)(=O)[O-])c4F)c4ccc([nH]4)c(-c4cccc(S(=O)(=O)[O-])c4F)c4nc(c(-c5cccc(S(=O)(=O)[O-])c5F)c5ccc2[nH]5)C=C4)C=C3)cc1
REMARK SMILES IDX 4 1 3 2 2 3 1 4 35 5 36 6 97 7 37 8 96 9 38 10 39 11 40 12
REMARK SMILES IDX 90 13 41 14 95 15 89 16 91 17 42 18 94 19 88 20 87 21 43 23
REMARK SMILES IDX 75 24 55 25 74 26 56 27 59 28 73 29 92 30 57 31 58 32 72 34
REMARK SMILES IDX 93 35 60 36 44 37 45 38 53 39 46 40 48 41 54 42 47 43 49 44
REMARK SMILES IDX 50 45 51 46 52 47 76 48 77 49 85 50 78 51 80 52 86 53 79 54
REMARK SMILES IDX 81 55 82 56 83 57 84 58 61 59 62 60 70 61 63 62 65 63 71 64
REMARK SMILES IDX 64 65 66 66 67 67 68 68 69 69 5 70 6 71 7 72 8 73 9 74 10 75
REMARK SMILES IDX 34 76 11 77 25 78 24 79 26 80 33 81 27 82 28 83 32 84 29 85
REMARK SMILES IDX 31 86 30 87 12 88 13 89 16 90 14 91 15 92 17 93 18 94 23 95
REMARK SMILES IDX 19 96 22 97 20 98 21 99
REMARK H PARENT 91 22 59 33
REMARK Flexibility Score: inf
ROOT
ATOM      1  C   UNL A   1      46.768  24.465  26.268  1.00  0.00     0.275 C 
ENDROOT
BRANCH   1   2
ATOM      2  O   UNL A   1      46.509  24.542  27.686  1.00  0.00    -0.458 OA
BRANCH   2   3
ATOM      3  C   UNL A   1      45.230  24.506  28.128  1.00  0.00     0.338 C 
ATOM      4  O   UNL A   1      44.578  23.484  28.240  1.00  0.00    -0.246 OA
BRANCH   3   5
ATOM      5  C   UNL A   1      44.797  25.834  28.632  1.00  0.00     0.060 A 
ATOM      6  C   UNL A   1      45.464  27.008  28.263  1.00  0.00     0.016 A 
ATOM      7  C   UNL A   1      43.693  25.898  29.491  1.00  0.00     0.016 A 
ATOM      8  C   UNL A   1      45.072  28.224  28.798  1.00  0.00     0.010 A 
ATOM      9  C   UNL A   1      43.299  27.122  30.029  1.00  0.00     0.010 A 
ATOM     10  C   UNL A   1      44.008  28.278  29.704  1.00  0.00    -0.014 A 
BRANCH  10  11
ATOM     11  C   UNL A   1      43.646  29.593  30.223  1.00  0.00     0.031 A 
ATOM     12  C   UNL A   1      43.554  29.699  31.704  1.00  0.00     0.074 A 
ATOM     13  C   UNL A   1      43.459  30.685  29.458  1.00  0.00     0.049 A 
ATOM     14  N   UNL A   1      42.492  29.836  32.432  1.00  0.00    -0.248 NA
ATOM     15  C   UNL A   1      44.788  29.525  32.475  1.00  0.00     0.031 C 
ATOM     16  C   UNL A   1      43.786  30.863  28.042  1.00  0.00     0.029 A 
ATOM     17  N   UNL A   1      43.024  31.921  29.836  1.00  0.00    -0.354 N 
ATOM     18  C   UNL A   1      42.950  29.996  33.743  1.00  0.00     0.074 A 
ATOM     19  C   UNL A   1      44.338  29.618  33.726  1.00  0.00     0.031 C 
ATOM     20  C   UNL A   1      43.758  32.182  27.744  1.00  0.00     0.029 A 
ATOM     21  C   UNL A   1      43.259  32.913  28.894  1.00  0.00     0.049 A 
ATOM     22  H   UNL A   1      42.583  32.095  30.700  1.00  0.00     0.167 HD
ATOM     23  C   UNL A   1      42.205  30.645  34.682  1.00  0.00     0.034 A 
ATOM     24  C   UNL A   1      43.100  34.245  29.075  1.00  0.00     0.034 A 
ATOM     25  C   UNL A   1      40.824  30.754  34.275  1.00  0.00     0.049 A 
ATOM     26  C   UNL A   1      42.139  34.429  30.184  1.00  0.00     0.074 A 
ATOM     27  C   UNL A   1      39.819  29.872  33.936  1.00  0.00     0.029 A 
ATOM     28  N   UNL A   1      40.401  31.988  33.850  1.00  0.00    -0.354 N 
ATOM     29  N   UNL A   1      40.879  34.102  30.116  1.00  0.00    -0.248 NA
ATOM     30  C   UNL A   1      42.651  34.683  31.520  1.00  0.00     0.031 C 
ATOM     31  C   UNL A   1      39.065  30.540  32.925  1.00  0.00     0.029 A 
ATOM     32  C   UNL A   1      39.631  31.803  32.736  1.00  0.00     0.049 A 
ATOM     33  H   UNL A   1      40.612  32.852  34.272  1.00  0.00     0.167 HD
ATOM     34  C   UNL A   1      40.562  33.682  31.398  1.00  0.00     0.074 A 
ATOM     35  C   UNL A   1      41.635  34.201  32.240  1.00  0.00     0.031 C 
ATOM     36  C   UNL A   1      39.625  32.711  31.607  1.00  0.00     0.034 A 
BRANCH  23  37
ATOM     37  C   UNL A   1      42.756  31.527  35.795  1.00  0.00     0.023 A 
ATOM     38  C   UNL A   1      42.277  31.276  37.106  1.00  0.00     0.012 A 
ATOM     39  C   UNL A   1      43.463  32.736  35.607  1.00  0.00     0.148 A 
ATOM     40  C   UNL A   1      42.397  32.216  38.136  1.00  0.00     0.002 A 
ATOM     41  C   UNL A   1      43.649  33.635  36.655  1.00  0.00     0.091 A 
ATOM     42  F   UNL A   1      43.864  33.103  34.389  1.00  0.00    -0.205 F 
ATOM     43  C   UNL A   1      43.083  33.400  37.909  1.00  0.00     0.022 A 
BRANCH  41  44
ATOM     44  S   UNL A   1      44.582  35.157  36.438  1.00  0.00     0.127 S 
ATOM     45  O   UNL A   1      43.726  35.893  35.512  1.00  0.00    -0.237 OA
ATOM     46  O   UNL A   1      44.616  35.684  37.802  1.00  0.00    -0.237 OA
ATOM     47  O   UNL A   1      45.885  34.752  35.923  1.00  0.00    -0.744 OA
ENDBRANCH  41  44
ENDBRANCH  23  37
BRANCH  24  48
ATOM     48  C   UNL A   1      43.879  35.377  28.525  1.00  0.00     0.023 A 
ATOM     49  C   UNL A   1      45.138  35.131  27.941  1.00  0.00     0.012 A 
ATOM     50  C   UNL A   1      43.271  36.632  28.296  1.00  0.00     0.148 A 
ATOM     51  C   UNL A   1      45.747  36.080  27.112  1.00  0.00     0.002 A 
ATOM     52  C   UNL A   1      43.882  37.573  27.475  1.00  0.00     0.091 A 
ATOM     53  F   UNL A   1      42.053  36.862  28.803  1.00  0.00    -0.205 F 
ATOM     54  C   UNL A   1      45.114  37.295  26.868  1.00  0.00     0.022 A 
BRANCH  52  55
ATOM     55  S   UNL A   1      43.108  39.149  27.086  1.00  0.00     0.127 S 
ATOM     56  O   UNL A   1      44.059  39.729  26.136  1.00  0.00    -0.237 OA
ATOM     57  O   UNL A   1      41.839  38.724  26.501  1.00  0.00    -0.237 OA
ATOM     58  O   UNL A   1      43.013  39.867  28.350  1.00  0.00    -0.744 OA
ENDBRANCH  52  55
ENDBRANCH  24  48
BRANCH  36  59
ATOM     59  C   UNL A   1      38.713  32.329  30.468  1.00  0.00     0.023 A 
ATOM     60  C   UNL A   1      39.010  31.259  29.599  1.00  0.00     0.012 A 
ATOM     61  C   UNL A   1      37.437  32.917  30.410  1.00  0.00     0.148 A 
ATOM     62  C   UNL A   1      38.061  30.791  28.688  1.00  0.00     0.002 A 
ATOM     63  C   UNL A   1      36.476  32.412  29.543  1.00  0.00     0.091 A 
ATOM     64  F   UNL A   1      37.170  33.934  31.245  1.00  0.00    -0.205 F 
ATOM     65  C   UNL A   1      36.787  31.355  28.674  1.00  0.00     0.022 A 
BRANCH  63  66
ATOM     66  S   UNL A   1      34.773  32.980  29.585  1.00  0.00     0.127 S 
ATOM     67  O   UNL A   1      34.391  32.702  30.968  1.00  0.00    -0.237 OA
ATOM     68  O   UNL A   1      34.912  34.401  29.263  1.00  0.00    -0.237 OA
ATOM     69  O   UNL A   1      34.065  32.207  28.573  1.00  0.00    -0.744 OA
ENDBRANCH  63  66
ENDBRANCH  36  59
ENDBRANCH  10  11
ENDBRANCH   3   5
ENDBRANCH   2   3
ENDBRANCH   1   2
BRANCH   1  70
ATOM     70  C   UNL A   1      46.325  23.199  25.540  1.00  0.00     0.275 C 
BRANCH  70  71
ATOM     71  O   UNL A   1      45.810  23.553  24.247  1.00  0.00    -0.457 OA
BRANCH  71  72
ATOM     72  C   UNL A   1      44.639  22.953  23.908  1.00  0.00     0.357 C 
ATOM     73  O   UNL A   1      44.454  22.127  23.034  1.00  0.00    -0.244 OA
BRANCH  72  74
ATOM     74  C   UNL A   1      43.562  23.629  24.654  1.00  0.00     0.149 A 
ATOM     75  C   UNL A   1      42.706  22.834  25.367  1.00  0.00     0.041 A 
ATOM     76  N   UNL A   1      43.568  24.962  24.739  1.00  0.00    -0.241 NA
ATOM     77  C   UNL A   1      41.823  23.418  26.303  1.00  0.00    -0.021 A 
ATOM     78  C   UNL A   1      42.683  25.548  25.557  1.00  0.00     0.072 A 
ATOM     79  C   UNL A   1      41.769  24.868  26.427  1.00  0.00     0.012 A 
ATOM     80  C   UNL A   1      42.752  26.922  25.528  1.00  0.00     0.029 A 
ATOM     81  C   UNL A   1      40.962  25.727  27.319  1.00  0.00    -0.009 A 
ATOM     82  C   UNL A   1      41.937  27.721  26.313  1.00  0.00     0.011 A 
ATOM     83  C   UNL A   1      41.048  27.144  27.204  1.00  0.00    -0.018 A 
ATOM     84  C   UNL A   1      40.073  25.298  28.332  1.00  0.00     0.009 A 
ATOM     85  C   UNL A   1      40.258  28.012  27.979  1.00  0.00     0.009 A 
ATOM     86  C   UNL A   1      39.298  26.159  29.120  1.00  0.00     0.001 A 
ATOM     87  C   UNL A   1      39.377  27.522  28.930  1.00  0.00     0.001 A 
BRANCH  77  88
ATOM     88  C   UNL A   1      41.173  22.354  27.151  1.00  0.00     0.115 C 
ATOM     89  C   UNL A   1      41.971  21.217  27.664  1.00  0.00     0.123 C 
ATOM     90  C   UNL A   1      39.978  21.598  26.656  1.00  0.00     0.083 C 
ATOM     91  N   UNL A   1      41.296  20.111  27.672  1.00  0.00    -0.162 NA
ATOM     92  N   UNL A   1      40.027  20.350  27.032  1.00  0.00    -0.154 NA
BRANCH  90  93
ATOM     93  C   UNL A   1      38.799  22.205  25.983  1.00  0.00    -0.001 A 
ATOM     94  C   UNL A   1      38.146  21.444  25.003  1.00  0.00     0.013 A 
ATOM     95  C   UNL A   1      38.307  23.482  26.282  1.00  0.00     0.013 A 
ATOM     96  C   UNL A   1      37.002  21.938  24.367  1.00  0.00     0.040 A 
ATOM     97  C   UNL A   1      37.159  23.973  25.651  1.00  0.00     0.040 A 
ATOM     98  C   UNL A   1      36.514  23.194  24.704  1.00  0.00     0.123 A 
ATOM     99  F   UNL A   1      35.412  23.661  24.103  1.00  0.00    -0.207 F 
ENDBRANCH  90  93
ENDBRANCH  77  88
ENDBRANCH  72  74
ENDBRANCH  71  72
ENDBRANCH  70  71
ENDBRANCH   1  70
TORSDOF 16
ENDMDL
MODEL 2
REMARK VINA RESULT:     -11.2      4.537     10.426
REMARK SMILES O=C(OCCOC(=O)c1cc([C@@H]2C=NN=C2c2ccc(F)cc2)c2c(ccc3ccccc32)n1)c1ccc(-c2c3nc(c(-c4cccc(S(=O)(=O)[O-])c4F)c4ccc([nH]4)c(-c4cccc(S(=O)(=O)[O-])c4F)c4nc(c(-c5cccc(S(=O)(=O)[O-])c5F)c5ccc2[nH]5)C=C4)C=C3)cc1
REMARK SMILES IDX 4 1 3 2 2 3 1 4 35 5 36 6 97 7 37 8 96 9 38 10 39 11 40 12
REMARK SMILES IDX 90 13 41 14 95 15 89 16 91 17 42 18 94 19 88 20 87 21 43 23
REMARK SMILES IDX 75 24 55 25 74 26 56 27 59 28 73 29 92 30 57 31 58 32 72 34
REMARK SMILES IDX 93 35 60 36 44 37 45 38 53 39 46 40 48 41 54 42 47 43 49 44
REMARK SMILES IDX 50 45 51 46 52 47 76 48 77 49 85 50 78 51 80 52 86 53 79 54
REMARK SMILES IDX 81 55 82 56 83 57 84 58 61 59 62 60 70 61 63 62 65 63 71 64
REMARK SMILES IDX 64 65 66 66 67 67 68 68 69 69 5 70 6 71 7 72 8 73 9 74 10 75
REMARK SMILES IDX 34 76 11 77 25 78 24 79 26 80 33 81 27 82 28 83 32 84 29 85
REMARK SMILES IDX 31 86 30 87 12 88 13 89 16 90 14 91 15 92 17 93 18 94 23 95
REMARK SMILES IDX 19 96 22 97 20 98 21 99
REMARK H PARENT 91 22 59 33
REMARK Flexibility Score: inf
ROOT
ATOM      1  C   UNL A   1      37.744  34.609  33.529  1.00  0.00     0.275 C 
ENDROOT
BRANCH   1   2
ATOM      2  O   UNL A   1      38.254  33.411  32.904  1.00  0.00    -0.458 OA
BRANCH   2   3
ATOM      3  C   UNL A   1      38.818  33.494  31.676  1.00  0.00     0.338 C 
ATOM      4  O   UNL A   1      38.710  34.459  30.941  1.00  0.00    -0.246 OA
BRANCH   3   5
ATOM      5  C   UNL A   1      39.730  32.350  31.424  1.00  0.00     0.060 A 
ATOM      6  C   UNL A   1      40.184  31.535  32.467  1.00  0.00     0.016 A 
ATOM      7  C   UNL A   1      40.134  32.090  30.109  1.00  0.00     0.016 A 
ATOM      8  C   UNL A   1      41.082  30.512  32.207  1.00  0.00     0.010 A 
ATOM      9  C   UNL A   1      41.036  31.061  29.846  1.00  0.00     0.010 A 
ATOM     10  C   UNL A   1      41.531  30.293  30.901  1.00  0.00    -0.014 A 
BRANCH  10  11
ATOM     11  C   UNL A   1      42.471  29.195  30.699  1.00  0.00     0.031 A 
ATOM     12  C   UNL A   1      42.989  28.554  31.938  1.00  0.00     0.074 A 
ATOM     13  C   UNL A   1      42.830  28.717  29.493  1.00  0.00     0.049 A 
ATOM     14  N   UNL A   1      44.182  28.626  32.437  1.00  0.00    -0.248 NA
ATOM     15  C   UNL A   1      42.033  27.830  32.778  1.00  0.00     0.031 C 
ATOM     16  C   UNL A   1      42.224  29.000  28.191  1.00  0.00     0.029 A 
ATOM     17  N   UNL A   1      43.770  27.772  29.201  1.00  0.00    -0.354 N 
ATOM     18  C   UNL A   1      44.184  27.765  33.537  1.00  0.00     0.074 A 
ATOM     19  C   UNL A   1      42.804  27.452  33.797  1.00  0.00     0.031 C 
ATOM     20  C   UNL A   1      42.650  28.081  27.295  1.00  0.00     0.029 A 
ATOM     21  C   UNL A   1      43.669  27.256  27.917  1.00  0.00     0.049 A 
ATOM     22  H   UNL A   1      44.459  27.482  29.844  1.00  0.00     0.167 HD
ATOM     23  C   UNL A   1      45.337  27.200  33.997  1.00  0.00     0.034 A 
ATOM     24  C   UNL A   1      44.345  26.191  27.424  1.00  0.00     0.034 A 
ATOM     25  C   UNL A   1      46.498  27.896  33.496  1.00  0.00     0.049 A 
ATOM     26  C   UNL A   1      45.566  26.026  28.242  1.00  0.00     0.074 A 
ATOM     27  C   UNL A   1      46.982  29.186  33.556  1.00  0.00     0.029 A 
ATOM     28  N   UNL A   1      47.211  27.272  32.503  1.00  0.00    -0.354 N 
ATOM     29  N   UNL A   1      46.553  26.878  28.255  1.00  0.00    -0.248 NA
ATOM     30  C   UNL A   1      45.561  25.056  29.323  1.00  0.00     0.031 C 
ATOM     31  C   UNL A   1      47.627  29.398  32.300  1.00  0.00     0.029 A 
ATOM     32  C   UNL A   1      47.531  28.214  31.567  1.00  0.00     0.049 A 
ATOM     33  H   UNL A   1      47.451  26.318  32.472  1.00  0.00     0.167 HD
ATOM     34  C   UNL A   1      47.026  26.838  29.556  1.00  0.00     0.074 A 
ATOM     35  C   UNL A   1      46.484  25.604  30.115  1.00  0.00     0.031 C 
ATOM     36  C   UNL A   1      47.564  27.948  30.143  1.00  0.00     0.034 A 
BRANCH  23  37
ATOM     37  C   UNL A   1      45.464  25.801  34.584  1.00  0.00     0.023 A 
ATOM     38  C   UNL A   1      44.985  24.728  33.789  1.00  0.00     0.012 A 
ATOM     39  C   UNL A   1      45.741  25.502  35.937  1.00  0.00     0.148 A 
ATOM     40  C   UNL A   1      44.695  23.471  34.330  1.00  0.00     0.002 A 
ATOM     41  C   UNL A   1      45.526  24.226  36.455  1.00  0.00     0.091 A 
ATOM     42  F   UNL A   1      46.102  26.468  36.782  1.00  0.00    -0.205 F 
ATOM     43  C   UNL A   1      44.964  23.220  35.668  1.00  0.00     0.022 A 
BRANCH  41  44
ATOM     44  S   UNL A   1      45.914  23.824  38.165  1.00  0.00     0.127 S 
ATOM     45  O   UNL A   1      47.321  24.207  38.241  1.00  0.00    -0.237 OA
ATOM     46  O   UNL A   1      44.993  24.699  38.892  1.00  0.00    -0.237 OA
ATOM     47  O   UNL A   1      45.626  22.403  38.311  1.00  0.00    -0.744 OA
ENDBRANCH  41  44
ENDBRANCH  23  37
BRANCH  24  48
ATOM     48  C   UNL A   1      43.914  25.161  26.452  1.00  0.00     0.023 A 
ATOM     49  C   UNL A   1      44.658  24.973  25.269  1.00  0.00     0.012 A 
ATOM     50  C   UNL A   1      42.976  24.170  26.816  1.00  0.00     0.148 A 
ATOM     51  C   UNL A   1      44.511  23.811  24.503  1.00  0.00     0.002 A 
ATOM     52  C   UNL A   1      42.832  23.019  26.048  1.00  0.00     0.091 A 
ATOM     53  F   UNL A   1      42.298  24.311  27.963  1.00  0.00    -0.205 F 
ATOM     54  C   UNL A   1      43.609  22.829  24.898  1.00  0.00     0.022 A 
BRANCH  52  55
ATOM     55  S   UNL A   1      41.712  21.692  26.516  1.00  0.00     0.127 S 
ATOM     56  O   UNL A   1      42.096  21.446  27.906  1.00  0.00    -0.237 OA
ATOM     57  O   UNL A   1      40.407  22.324  26.343  1.00  0.00    -0.237 OA
ATOM     58  O   UNL A   1      42.005  20.588  25.611  1.00  0.00    -0.744 OA
ENDBRANCH  52  55
ENDBRANCH  24  48
BRANCH  36  59
ATOM     59  C   UNL A   1      47.933  29.120  29.269  1.00  0.00     0.023 A 
ATOM     60  C   UNL A   1      49.222  29.263  28.715  1.00  0.00     0.012 A 
ATOM     61  C   UNL A   1      46.904  29.970  28.824  1.00  0.00     0.148 A 
ATOM     62  C   UNL A   1      49.482  30.235  27.746  1.00  0.00     0.002 A 
ATOM     63  C   UNL A   1      47.152  30.896  27.819  1.00  0.00     0.091 A 
ATOM     64  F   UNL A   1      45.684  29.819  29.360  1.00  0.00    -0.205 F 
ATOM     65  C   UNL A   1      48.442  31.038  27.284  1.00  0.00     0.022 A 
BRANCH  63  66
ATOM     66  S   UNL A   1      45.830  31.848  27.064  1.00  0.00     0.127 S 
ATOM     67  O   UNL A   1      46.556  32.669  26.099  1.00  0.00    -0.237 OA
ATOM     68  O   UNL A   1      44.993  30.802  26.472  1.00  0.00    -0.237 OA
ATOM     69  O   UNL A   1      45.188  32.579  28.149  1.00  0.00    -0.744 OA
ENDBRANCH  63  66
ENDBRANCH  36  59
ENDBRANCH  10  11
ENDBRANCH   3   5
ENDBRANCH   2   3
ENDBRANCH   1   2
BRANCH   1  70
ATOM     70  C   UNL A   1      36.229  34.767  33.612  1.00  0.00     0.275 C 
BRANCH  70  71
ATOM     71  O   UNL A   1      35.645  33.524  34.027  1.00  0.00    -0.457 OA
BRANCH  71  72
ATOM     72  C   UNL A   1      34.648  33.059  33.229  1.00  0.00     0.357 C 
ATOM     73  O   UNL A   1      33.453  33.261  33.339  1.00  0.00    -0.244 OA
BRANCH  72  74
ATOM     74  C   UNL A   1      35.243  32.080  32.301  1.00  0.00     0.149 A 
ATOM     75  C   UNL A   1      35.140  32.349  30.963  1.00  0.00     0.041 A 
ATOM     76  N   UNL A   1      35.984  31.084  32.794  1.00  0.00    -0.241 NA
ATOM     77  C   UNL A   1      35.902  31.602  30.037  1.00  0.00    -0.021 A 
ATOM     78  C   UNL A   1      36.653  30.306  31.932  1.00  0.00     0.072 A 
ATOM     79  C   UNL A   1      36.716  30.491  30.512  1.00  0.00     0.012 A 
ATOM     80  C   UNL A   1      37.345  29.289  32.550  1.00  0.00     0.029 A 
ATOM     81  C   UNL A   1      37.606  29.569  29.777  1.00  0.00    -0.009 A 
ATOM     82  C   UNL A   1      38.116  28.382  31.843  1.00  0.00     0.011 A 
ATOM     83  C   UNL A   1      38.256  28.508  30.472  1.00  0.00    -0.018 A 
ATOM     84  C   UNL A   1      37.918  29.612  28.398  1.00  0.00     0.009 A 
ATOM     85  C   UNL A   1      39.062  27.561  29.816  1.00  0.00     0.009 A 
ATOM     86  C   UNL A   1      38.736  28.682  27.744  1.00  0.00     0.001 A 
ATOM     87  C   UNL A   1      39.297  27.640  28.453  1.00  0.00     0.001 A 
BRANCH  77  88
ATOM     88  C   UNL A   1      35.839  32.234  28.669  1.00  0.00     0.115 C 
ATOM     89  C   UNL A   1      36.007  33.696  28.513  1.00  0.00     0.123 C 
ATOM     90  C   UNL A   1      34.644  32.038  27.787  1.00  0.00     0.083 C 
ATOM     91  N   UNL A   1      35.242  34.179  27.587  1.00  0.00    -0.162 NA
ATOM     92  N   UNL A   1      34.375  33.127  27.121  1.00  0.00    -0.154 NA
BRANCH  90  93
ATOM     93  C   UNL A   1      33.958  30.741  27.549  1.00  0.00    -0.001 A 
ATOM     94  C   UNL A   1      32.575  30.770  27.315  1.00  0.00     0.013 A 
ATOM     95  C   UNL A   1      34.615  29.505  27.538  1.00  0.00     0.013 A 
ATOM     96  C   UNL A   1      31.878  29.590  27.037  1.00  0.00     0.040 A 
ATOM     97  C   UNL A   1      33.920  28.325  27.253  1.00  0.00     0.040 A 
ATOM     98  C   UNL A   1      32.559  28.380  27.000  1.00  0.00     0.123 A 
ATOM     99  F   UNL A   1      31.892  27.252  26.722  1.00  0.00    -0.207 F 
ENDBRANCH  90  93
ENDBRANCH  77  88
ENDBRANCH  72  74
ENDBRANCH  71  72
ENDBRANCH  70  71
ENDBRANCH   1  70
TORSDOF 16
ENDMDL
MODEL 3
REMARK VINA RESULT:     -11.2      4.690     11.246
REMARK SMILES O=C(OCCOC(=O)c1cc([C@@H]2C=NN=C2c2ccc(F)cc2)c2c(ccc3ccccc32)n1)c1ccc(-c2c3nc(c(-c4cccc(S(=O)(=O)[O-])c4F)c4ccc([nH]4)c(-c4cccc(S(=O)(=O)[O-])c4F)c4nc(c(-c5cccc(S(=O)(=O)[O-])c5F)c5ccc2[nH]5)C=C4)C=C3)cc1
REMARK SMILES IDX 4 1 3 2 2 3 1 4 35 5 36 6 97 7 37 8 96 9 38 10 39 11 40 12
REMARK SMILES IDX 90 13 41 14 95 15 89 16 91 17 42 18 94 19 88 20 87 21 43 23
REMARK SMILES IDX 75 24 55 25 74 26 56 27 59 28 73 29 92 30 57 31 58 32 72 34
REMARK SMILES IDX 93 35 60 36 44 37 45 38 53 39 46 40 48 41 54 42 47 43 49 44
REMARK SMILES IDX 50 45 51 46 52 47 76 48 77 49 85 50 78 51 80 52 86 53 79 54
REMARK SMILES IDX 81 55 82 56 83 57 84 58 61 59 62 60 70 61 63 62 65 63 71 64
REMARK SMILES IDX 64 65 66 66 67 67 68 68 69 69 5 70 6 71 7 72 8 73 9 74 10 75
REMARK SMILES IDX 34 76 11 77 25 78 24 79 26 80 33 81 27 82 28 83 32 84 29 85
REMARK SMILES IDX 31 86 30 87 12 88 13 89 16 90 14 91 15 92 17 93 18 94 23 95
REMARK SMILES IDX 19 96 22 97 20 98 21 99
REMARK H PARENT 91 22 59 33
REMARK Flexibility Score: inf
ROOT
ATOM      1  C   UNL A   1      37.737  33.866  34.060  1.00  0.00     0.275 C 
ENDROOT
BRANCH   1   2
ATOM      2  O   UNL A   1      38.737  34.233  33.086  1.00  0.00    -0.458 OA
BRANCH   2   3
ATOM      3  C   UNL A   1      38.723  33.641  31.868  1.00  0.00     0.338 C 
ATOM      4  O   UNL A   1      38.021  34.005  30.942  1.00  0.00    -0.246 OA
BRANCH   3   5
ATOM      5  C   UNL A   1      39.800  32.624  31.752  1.00  0.00     0.060 A 
ATOM      6  C   UNL A   1      40.279  32.207  30.506  1.00  0.00     0.016 A 
ATOM      7  C   UNL A   1      40.340  32.083  32.926  1.00  0.00     0.016 A 
ATOM      8  C   UNL A   1      41.242  31.214  30.431  1.00  0.00     0.010 A 
ATOM      9  C   UNL A   1      41.308  31.084  32.851  1.00  0.00     0.010 A 
ATOM     10  C   UNL A   1      41.736  30.631  31.603  1.00  0.00    -0.014 A 
BRANCH  10  11
ATOM     11  C   UNL A   1      42.752  29.594  31.449  1.00  0.00     0.031 A 
ATOM     12  C   UNL A   1      43.891  29.935  30.555  1.00  0.00     0.074 A 
ATOM     13  C   UNL A   1      42.736  28.416  32.100  1.00  0.00     0.049 A 
ATOM     14  N   UNL A   1      44.156  29.460  29.381  1.00  0.00    -0.248 NA
ATOM     15  C   UNL A   1      44.786  31.014  30.979  1.00  0.00     0.031 C 
ATOM     16  C   UNL A   1      41.886  28.014  33.222  1.00  0.00     0.029 A 
ATOM     17  N   UNL A   1      43.576  27.352  31.947  1.00  0.00    -0.354 N 
ATOM     18  C   UNL A   1      45.384  30.017  29.015  1.00  0.00     0.074 A 
ATOM     19  C   UNL A   1      45.626  31.087  29.946  1.00  0.00     0.031 C 
ATOM     20  C   UNL A   1      42.403  26.902  33.793  1.00  0.00     0.029 A 
ATOM     21  C   UNL A   1      43.513  26.432  32.985  1.00  0.00     0.049 A 
ATOM     22  H   UNL A   1      44.173  27.245  31.171  1.00  0.00     0.167 HD
ATOM     23  C   UNL A   1      46.207  29.401  28.118  1.00  0.00     0.034 A 
ATOM     24  C   UNL A   1      44.353  25.389  33.185  1.00  0.00     0.034 A 
ATOM     25  C   UNL A   1      45.497  28.404  27.353  1.00  0.00     0.049 A 
ATOM     26  C   UNL A   1      44.965  25.058  31.880  1.00  0.00     0.074 A 
ATOM     27  C   UNL A   1      44.401  28.394  26.515  1.00  0.00     0.029 A 
ATOM     28  N   UNL A   1      45.737  27.092  27.675  1.00  0.00    -0.354 N 
ATOM     29  N   UNL A   1      44.302  24.568  30.870  1.00  0.00    -0.248 NA
ATOM     30  C   UNL A   1      46.284  25.583  31.570  1.00  0.00     0.031 C 
ATOM     31  C   UNL A   1      43.769  27.135  26.747  1.00  0.00     0.029 A 
ATOM     32  C   UNL A   1      44.537  26.440  27.684  1.00  0.00     0.049 A 
ATOM     33  H   UNL A   1      46.616  26.692  27.863  1.00  0.00     0.167 HD
ATOM     34  C   UNL A   1      44.917  25.116  29.756  1.00  0.00     0.074 A 
ATOM     35  C   UNL A   1      46.206  25.601  30.238  1.00  0.00     0.031 C 
ATOM     36  C   UNL A   1      44.205  25.387  28.622  1.00  0.00     0.034 A 
BRANCH  23  37
ATOM     37  C   UNL A   1      47.729  29.402  28.168  1.00  0.00     0.023 A 
ATOM     38  C   UNL A   1      48.408  29.720  26.964  1.00  0.00     0.012 A 
ATOM     39  C   UNL A   1      48.514  28.842  29.201  1.00  0.00     0.148 A 
ATOM     40  C   UNL A   1      49.755  29.400  26.761  1.00  0.00     0.002 A 
ATOM     41  C   UNL A   1      49.875  28.598  29.023  1.00  0.00     0.091 A 
ATOM     42  F   UNL A   1      47.945  28.421  30.331  1.00  0.00    -0.205 F 
ATOM     43  C   UNL A   1      50.490  28.835  27.793  1.00  0.00     0.022 A 
BRANCH  41  44
ATOM     44  S   UNL A   1      50.893  27.924  30.344  1.00  0.00     0.127 S 
ATOM     45  O   UNL A   1      50.683  28.909  31.402  1.00  0.00    -0.237 OA
ATOM     46  O   UNL A   1      50.262  26.624  30.573  1.00  0.00    -0.237 OA
ATOM     47  O   UNL A   1      52.243  27.843  29.800  1.00  0.00    -0.744 OA
ENDBRANCH  41  44
ENDBRANCH  23  37
BRANCH  24  48
ATOM     48  C   UNL A   1      44.848  24.798  34.449  1.00  0.00     0.023 A 
ATOM     49  C   UNL A   1      44.611  25.470  35.665  1.00  0.00     0.012 A 
ATOM     50  C   UNL A   1      45.273  23.452  34.501  1.00  0.00     0.148 A 
ATOM     51  C   UNL A   1      44.740  24.807  36.892  1.00  0.00     0.002 A 
ATOM     52  C   UNL A   1      45.404  22.800  35.722  1.00  0.00     0.091 A 
ATOM     53  F   UNL A   1      45.455  22.786  33.353  1.00  0.00    -0.205 F 
ATOM     54  C   UNL A   1      45.124  23.470  36.920  1.00  0.00     0.022 A 
BRANCH  52  55
ATOM     55  S   UNL A   1      45.860  21.064  35.835  1.00  0.00     0.127 S 
ATOM     56  O   UNL A   1      44.867  20.432  34.967  1.00  0.00    -0.237 OA
ATOM     57  O   UNL A   1      47.221  21.075  35.304  1.00  0.00    -0.237 OA
ATOM     58  O   UNL A   1      45.734  20.711  37.244  1.00  0.00    -0.744 OA
ENDBRANCH  52  55
ENDBRANCH  24  48
BRANCH  36  59
ATOM     59  C   UNL A   1      42.826  24.794  28.477  1.00  0.00     0.023 A 
ATOM     60  C   UNL A   1      41.659  25.547  28.722  1.00  0.00     0.012 A 
ATOM     61  C   UNL A   1      42.704  23.529  27.874  1.00  0.00     0.148 A 
ATOM     62  C   UNL A   1      40.400  25.048  28.382  1.00  0.00     0.002 A 
ATOM     63  C   UNL A   1      41.456  23.060  27.484  1.00  0.00     0.091 A 
ATOM     64  F   UNL A   1      43.825  22.826  27.647  1.00  0.00    -0.205 F 
ATOM     65  C   UNL A   1      40.300  23.813  27.746  1.00  0.00     0.022 A 
BRANCH  63  66
ATOM     66  S   UNL A   1      41.269  21.558  26.519  1.00  0.00     0.127 S 
ATOM     67  O   UNL A   1      42.150  21.814  25.382  1.00  0.00    -0.237 OA
ATOM     68  O   UNL A   1      41.750  20.532  27.446  1.00  0.00    -0.237 OA
ATOM     69  O   UNL A   1      39.851  21.456  26.201  1.00  0.00    -0.744 OA
ENDBRANCH  63  66
ENDBRANCH  36  59
ENDBRANCH  10  11
ENDBRANCH   3   5
ENDBRANCH   2   3
ENDBRANCH   1   2
BRANCH   1  70
ATOM     70  C   UNL A   1      36.321  34.394  33.848  1.00  0.00     0.275 C 
BRANCH  70  71
ATOM     71  O   UNL A   1      35.377  33.369  34.194  1.00  0.00    -0.457 OA
BRANCH  71  72
ATOM     72  C   UNL A   1      34.455  33.087  33.237  1.00  0.00     0.357 C 
ATOM     73  O   UNL A   1      33.266  33.346  33.253  1.00  0.00    -0.244 OA
BRANCH  72  74
ATOM     74  C   UNL A   1      35.102  32.216  32.240  1.00  0.00     0.149 A 
ATOM     75  C   UNL A   1      34.916  32.534  30.922  1.00  0.00     0.041 A 
ATOM     76  N   UNL A   1      35.958  31.277  32.654  1.00  0.00    -0.241 NA
ATOM     77  C   UNL A   1      35.708  31.910  29.932  1.00  0.00    -0.021 A 
ATOM     78  C   UNL A   1      36.662  30.610  31.730  1.00  0.00     0.072 A 
ATOM     79  C   UNL A   1      36.645  30.865  30.319  1.00  0.00     0.012 A 
ATOM     80  C   UNL A   1      37.476  29.640  32.270  1.00  0.00     0.029 A 
ATOM     81  C   UNL A   1      37.590  30.071  29.506  1.00  0.00    -0.009 A 
ATOM     82  C   UNL A   1      38.301  28.848  31.490  1.00  0.00     0.011 A 
ATOM     83  C   UNL A   1      38.369  29.050  30.122  1.00  0.00    -0.018 A 
ATOM     84  C   UNL A   1      37.836  30.208  28.120  1.00  0.00     0.009 A 
ATOM     85  C   UNL A   1      39.235  28.219  29.390  1.00  0.00     0.009 A 
ATOM     86  C   UNL A   1      38.712  29.395  27.389  1.00  0.00     0.001 A 
ATOM     87  C   UNL A   1      39.402  28.383  28.024  1.00  0.00     0.001 A 
BRANCH  77  88
ATOM     88  C   UNL A   1      35.524  32.594  28.600  1.00  0.00     0.115 C 
ATOM     89  C   UNL A   1      35.559  34.071  28.508  1.00  0.00     0.123 C 
ATOM     90  C   UNL A   1      34.310  32.334  27.763  1.00  0.00     0.083 C 
ATOM     91  N   UNL A   1      34.711  34.526  27.641  1.00  0.00    -0.162 NA
ATOM     92  N   UNL A   1      33.916  33.424  27.163  1.00  0.00    -0.154 NA
BRANCH  90  93
ATOM     93  C   UNL A   1      33.726  30.994  27.493  1.00  0.00    -0.001 A 
ATOM     94  C   UNL A   1      32.376  30.935  27.117  1.00  0.00     0.013 A 
ATOM     95  C   UNL A   1      34.450  29.798  27.585  1.00  0.00     0.013 A 
ATOM     96  C   UNL A   1      31.779  29.710  26.803  1.00  0.00     0.040 A 
ATOM     97  C   UNL A   1      33.856  28.574  27.265  1.00  0.00     0.040 A 
ATOM     98  C   UNL A   1      32.528  28.541  26.871  1.00  0.00     0.123 A 
ATOM     99  F   UNL A   1      31.959  27.370  26.558  1.00  0.00    -0.207 F 
ENDBRANCH  90  93
ENDBRANCH  77  88
ENDBRANCH  72  74
ENDBRANCH  71  72
ENDBRANCH  70  71
ENDBRANCH   1  70
TORSDOF 16
ENDMDL
