MODEL 1
REMARK VINA RESULT:     -11.4      0.000      0.000
REMARK SMILES O=C(OCCOC(=O)[C@@H]1CCc2[nH]ncc2C1)c1ccc(-c2c3nc(c(-c4cccc(S(=O)(=O)[O-])c4F)c4ccc([nH]4)c(-c4cccc(S(=O)(=O)[O-])c4F)c4nc(c(-c5cccc(S(=O)(=O)[O-])c5F)c5ccc2[nH]5)C=C4)C=C3)cc1
REMARK SMILES IDX 3 1 2 2 1 3 18 4 19 5 80 6 20 7 79 8 21 9 22 10 23 11 73 12
REMARK SMILES IDX 24 13 78 14 72 15 74 16 25 17 77 18 71 19 70 20 26 22 58 23
REMARK SMILES IDX 38 24 57 25 39 26 42 27 56 28 75 29 40 30 41 31 55 33 76 34
REMARK SMILES IDX 43 35 27 36 28 37 36 38 29 39 31 40 37 41 30 42 32 43 33 44
REMARK SMILES IDX 34 45 35 46 59 47 60 48 68 49 61 50 63 51 69 52 62 53 64 54
REMARK SMILES IDX 65 55 66 56 67 57 44 58 45 59 53 60 46 61 48 62 54 63 47 64
REMARK SMILES IDX 49 65 50 66 51 67 52 68 4 69 5 70 6 71 7 72 8 73 9 74 10 75
REMARK SMILES IDX 17 76 11 77 16 78 12 79 15 80 13 81 14 82
REMARK H PARENT 74 21 42 32 13 83
REMARK Flexibility Score: inf
ROOT
ATOM      1  O   UNL A   1      33.129  32.685  27.099  1.00  0.00    -0.458 OA
ENDROOT
BRANCH   1   2
ATOM      2  C   UNL A   1      33.590  31.433  27.332  1.00  0.00     0.338 C 
ATOM      3  O   UNL A   1      32.812  30.491  27.189  1.00  0.00    -0.246 OA
BRANCH   2   4
ATOM      4  C   UNL A   1      34.945  31.132  27.902  1.00  0.00     0.060 A 
ATOM      5  C   UNL A   1      36.040  31.997  27.959  1.00  0.00     0.016 A 
ATOM      6  C   UNL A   1      35.111  29.841  28.435  1.00  0.00     0.016 A 
ATOM      7  C   UNL A   1      37.225  31.625  28.606  1.00  0.00     0.010 A 
ATOM      8  C   UNL A   1      36.287  29.472  29.094  1.00  0.00     0.010 A 
ATOM      9  C   UNL A   1      37.356  30.367  29.197  1.00  0.00    -0.014 A 
BRANCH   9  10
ATOM     10  C   UNL A   1      38.652  29.965  29.796  1.00  0.00     0.031 A 
ATOM     11  C   UNL A   1      39.012  30.499  31.155  1.00  0.00     0.074 A 
ATOM     12  C   UNL A   1      39.476  29.107  29.158  1.00  0.00     0.049 A 
ATOM     13  N   UNL A   1      40.036  30.206  31.911  1.00  0.00    -0.248 NA
ATOM     14  C   UNL A   1      38.106  31.505  31.735  1.00  0.00     0.031 C 
ATOM     15  C   UNL A   1      39.265  28.565  27.815  1.00  0.00     0.029 A 
ATOM     16  N   UNL A   1      40.661  28.535  29.555  1.00  0.00    -0.354 N 
ATOM     17  C   UNL A   1      39.899  30.995  33.046  1.00  0.00     0.074 A 
ATOM     18  C   UNL A   1      38.739  31.831  32.850  1.00  0.00     0.031 C 
ATOM     19  C   UNL A   1      40.276  27.733  27.504  1.00  0.00     0.029 A 
ATOM     20  C   UNL A   1      41.205  27.674  28.627  1.00  0.00     0.049 A 
ATOM     21  H   UNL A   1      41.082  28.723  30.426  1.00  0.00     0.167 HD
ATOM     22  C   UNL A   1      40.636  30.987  34.181  1.00  0.00     0.034 A 
ATOM     23  C   UNL A   1      42.314  26.909  28.692  1.00  0.00     0.034 A 
ATOM     24  C   UNL A   1      41.769  30.135  34.387  1.00  0.00     0.049 A 
ATOM     25  C   UNL A   1      43.109  26.907  29.977  1.00  0.00     0.074 A 
ATOM     26  C   UNL A   1      42.583  30.035  35.498  1.00  0.00     0.029 A 
ATOM     27  N   UNL A   1      42.246  29.230  33.451  1.00  0.00    -0.354 N 
ATOM     28  N   UNL A   1      42.877  27.555  31.095  1.00  0.00    -0.248 NA
ATOM     29  C   UNL A   1      44.290  26.032  30.029  1.00  0.00     0.031 C 
ATOM     30  C   UNL A   1      43.560  29.068  35.232  1.00  0.00     0.029 A 
ATOM     31  C   UNL A   1      43.339  28.556  33.962  1.00  0.00     0.049 A 
ATOM     32  H   UNL A   1      41.863  29.088  32.555  1.00  0.00     0.167 HD
ATOM     33  C   UNL A   1      43.853  27.134  31.992  1.00  0.00     0.074 A 
ATOM     34  C   UNL A   1      44.662  26.156  31.296  1.00  0.00     0.031 C 
ATOM     35  C   UNL A   1      44.078  27.533  33.268  1.00  0.00     0.034 A 
BRANCH  22  36
ATOM     36  C   UNL A   1      40.175  31.895  35.288  1.00  0.00     0.023 A 
ATOM     37  C   UNL A   1      40.789  33.156  35.443  1.00  0.00     0.012 A 
ATOM     38  C   UNL A   1      39.175  31.495  36.192  1.00  0.00     0.148 A 
ATOM     39  C   UNL A   1      40.454  33.983  36.513  1.00  0.00     0.002 A 
ATOM     40  C   UNL A   1      38.816  32.345  37.233  1.00  0.00     0.091 A 
ATOM     41  F   UNL A   1      38.620  30.285  36.039  1.00  0.00    -0.205 F 
ATOM     42  C   UNL A   1      39.466  33.579  37.404  1.00  0.00     0.022 A 
BRANCH  40  43
ATOM     43  S   UNL A   1      37.520  31.947  38.409  1.00  0.00     0.127 S 
ATOM     44  O   UNL A   1      36.501  32.941  38.072  1.00  0.00    -0.237 OA
ATOM     45  O   UNL A   1      37.181  30.574  38.035  1.00  0.00    -0.237 OA
ATOM     46  O   UNL A   1      38.116  32.091  39.730  1.00  0.00    -0.744 OA
ENDBRANCH  40  43
ENDBRANCH  22  36
BRANCH  23  47
ATOM     47  C   UNL A   1      42.703  26.007  27.563  1.00  0.00     0.023 A 
ATOM     48  C   UNL A   1      43.522  26.510  26.530  1.00  0.00     0.012 A 
ATOM     49  C   UNL A   1      42.241  24.679  27.477  1.00  0.00     0.148 A 
ATOM     50  C   UNL A   1      43.827  25.732  25.411  1.00  0.00     0.002 A 
ATOM     51  C   UNL A   1      42.589  23.892  26.381  1.00  0.00     0.091 A 
ATOM     52  F   UNL A   1      41.452  24.217  28.456  1.00  0.00    -0.205 F 
ATOM     53  C   UNL A   1      43.363  24.423  25.339  1.00  0.00     0.022 A 
BRANCH  51  54
ATOM     54  S   UNL A   1      42.131  22.159  26.239  1.00  0.00     0.127 S 
ATOM     55  O   UNL A   1      40.682  22.247  26.075  1.00  0.00    -0.237 OA
ATOM     56  O   UNL A   1      42.862  21.751  25.038  1.00  0.00    -0.237 OA
ATOM     57  O   UNL A   1      42.596  21.531  27.465  1.00  0.00    -0.744 OA
ENDBRANCH  51  54
ENDBRANCH  23  47
BRANCH  35  58
ATOM     58  C   UNL A   1      45.214  26.887  34.016  1.00  0.00     0.023 A 
ATOM     59  C   UNL A   1      46.505  27.444  33.945  1.00  0.00     0.012 A 
ATOM     60  C   UNL A   1      44.975  25.792  34.868  1.00  0.00     0.148 A 
ATOM     61  C   UNL A   1      47.549  26.904  34.693  1.00  0.00     0.002 A 
ATOM     62  C   UNL A   1      46.008  25.293  35.651  1.00  0.00     0.091 A 
ATOM     63  F   UNL A   1      43.742  25.264  34.904  1.00  0.00    -0.205 F 
ATOM     64  C   UNL A   1      47.298  25.839  35.556  1.00  0.00     0.022 A 
BRANCH  62  65
ATOM     65  S   UNL A   1      45.745  24.000  36.870  1.00  0.00     0.127 S 
ATOM     66  O   UNL A   1      45.340  22.875  36.030  1.00  0.00    -0.237 OA
ATOM     67  O   UNL A   1      47.071  23.867  37.474  1.00  0.00    -0.237 OA
ATOM     68  O   UNL A   1      44.721  24.508  37.774  1.00  0.00    -0.744 OA
ENDBRANCH  62  65
ENDBRANCH  35  58
ENDBRANCH   9  10
ENDBRANCH   2   4
ENDBRANCH   1   2
BRANCH   1  69
ATOM     69  C   UNL A   1      32.953  33.783  28.011  1.00  0.00     0.275 C 
BRANCH  69  70
ATOM     70  C   UNL A   1      33.996  34.888  27.841  1.00  0.00     0.274 C 
BRANCH  70  71
ATOM     71  O   UNL A   1      34.314  35.536  29.080  1.00  0.00    -0.462 OA
BRANCH  71  72
ATOM     72  C   UNL A   1      33.261  35.950  29.851  1.00  0.00     0.309 C 
ATOM     73  O   UNL A   1      32.261  36.504  29.435  1.00  0.00    -0.252 OA
BRANCH  72  74
ATOM     74  C   UNL A   1      33.518  35.600  31.301  1.00  0.00     0.104 C 
ATOM     75  C   UNL A   1      34.038  36.826  32.090  1.00  0.00     0.022 C 
ATOM     76  C   UNL A   1      34.507  34.418  31.424  1.00  0.00     0.054 C 
ATOM     77  C   UNL A   1      34.071  36.534  33.605  1.00  0.00     0.057 C 
ATOM     78  C   UNL A   1      34.854  34.219  32.860  1.00  0.00    -0.006 A 
ATOM     79  C   UNL A   1      34.646  35.190  33.817  1.00  0.00     0.038 A 
ATOM     80  C   UNL A   1      35.405  33.143  33.577  1.00  0.00     0.138 A 
ATOM     81  N   UNL A   1      34.972  34.633  35.013  1.00  0.00    -0.282 N 
ATOM     82  N   UNL A   1      35.543  33.432  34.875  1.00  0.00    -0.184 NA
ATOM     83  H   UNL A   1      34.806  35.065  35.883  1.00  0.00     0.190 HD
ENDBRANCH  72  74
ENDBRANCH  71  72
ENDBRANCH  70  71
ENDBRANCH  69  70
ENDBRANCH   1  69
TORSDOF 14
ENDMDL
MODEL 2
REMARK VINA RESULT:     -11.2      5.494     12.844
REMARK SMILES O=C(OCCOC(=O)[C@@H]1CCc2[nH]ncc2C1)c1ccc(-c2c3nc(c(-c4cccc(S(=O)(=O)[O-])c4F)c4ccc([nH]4)c(-c4cccc(S(=O)(=O)[O-])c4F)c4nc(c(-c5cccc(S(=O)(=O)[O-])c5F)c5ccc2[nH]5)C=C4)C=C3)cc1
REMARK SMILES IDX 3 1 2 2 1 3 18 4 19 5 80 6 20 7 79 8 21 9 22 10 23 11 73 12
REMARK SMILES IDX 24 13 78 14 72 15 74 16 25 17 77 18 71 19 70 20 26 22 58 23
REMARK SMILES IDX 38 24 57 25 39 26 42 27 56 28 75 29 40 30 41 31 55 33 76 34
REMARK SMILES IDX 43 35 27 36 28 37 36 38 29 39 31 40 37 41 30 42 32 43 33 44
REMARK SMILES IDX 34 45 35 46 59 47 60 48 68 49 61 50 63 51 69 52 62 53 64 54
REMARK SMILES IDX 65 55 66 56 67 57 44 58 45 59 53 60 46 61 48 62 54 63 47 64
REMARK SMILES IDX 49 65 50 66 51 67 52 68 4 69 5 70 6 71 7 72 8 73 9 74 10 75
REMARK SMILES IDX 17 76 11 77 16 78 12 79 15 80 13 81 14 82
REMARK H PARENT 74 21 42 32 13 83
REMARK Flexibility Score: inf
ROOT
ATOM      1  O   UNL A   1      38.996  20.557  25.271  1.00  0.00    -0.458 OA
ENDROOT
BRANCH   1   2
ATOM      2  C   UNL A   1      38.391  21.588  25.908  1.00  0.00     0.338 C 
ATOM      3  O   UNL A   1      37.162  21.633  25.902  1.00  0.00    -0.246 OA
BRANCH   2   4
ATOM      4  C   UNL A   1      39.124  22.761  26.487  1.00  0.00     0.060 A 
ATOM      5  C   UNL A   1      40.234  22.720  27.334  1.00  0.00     0.016 A 
ATOM      6  C   UNL A   1      38.632  24.029  26.126  1.00  0.00     0.016 A 
ATOM      7  C   UNL A   1      40.887  23.893  27.730  1.00  0.00     0.010 A 
ATOM      8  C   UNL A   1      39.292  25.201  26.507  1.00  0.00     0.010 A 
ATOM      9  C   UNL A   1      40.437  25.145  27.307  1.00  0.00    -0.014 A 
BRANCH   9  10
ATOM     10  C   UNL A   1      41.092  26.376  27.814  1.00  0.00     0.031 A 
ATOM     11  C   UNL A   1      42.524  26.635  27.436  1.00  0.00     0.074 A 
ATOM     12  C   UNL A   1      40.410  27.266  28.565  1.00  0.00     0.049 A 
ATOM     13  N   UNL A   1      43.263  27.684  27.678  1.00  0.00    -0.248 NA
ATOM     14  C   UNL A   1      43.222  25.566  26.700  1.00  0.00     0.031 C 
ATOM     15  C   UNL A   1      39.037  27.101  29.044  1.00  0.00     0.029 A 
ATOM     16  N   UNL A   1      40.780  28.494  29.058  1.00  0.00    -0.354 N 
ATOM     17  C   UNL A   1      44.508  27.398  27.130  1.00  0.00     0.074 A 
ATOM     18  C   UNL A   1      44.448  26.052  26.613  1.00  0.00     0.031 C 
ATOM     19  C   UNL A   1      38.676  28.188  29.749  1.00  0.00     0.029 A 
ATOM     20  C   UNL A   1      39.787  29.133  29.770  1.00  0.00     0.049 A 
ATOM     21  H   UNL A   1      41.673  28.883  28.916  1.00  0.00     0.167 HD
ATOM     22  C   UNL A   1      45.590  28.201  27.013  1.00  0.00     0.034 A 
ATOM     23  C   UNL A   1      39.773  30.353  30.347  1.00  0.00     0.034 A 
ATOM     24  C   UNL A   1      45.637  29.547  27.500  1.00  0.00     0.049 A 
ATOM     25  C   UNL A   1      40.989  31.234  30.186  1.00  0.00     0.074 A 
ATOM     26  C   UNL A   1      46.676  30.456  27.428  1.00  0.00     0.029 A 
ATOM     27  N   UNL A   1      44.589  30.179  28.152  1.00  0.00    -0.354 N 
ATOM     28  N   UNL A   1      42.105  30.996  29.537  1.00  0.00    -0.248 NA
ATOM     29  C   UNL A   1      40.927  32.573  30.793  1.00  0.00     0.031 C 
ATOM     30  C   UNL A   1      46.256  31.640  28.043  1.00  0.00     0.029 A 
ATOM     31  C   UNL A   1      44.950  31.472  28.480  1.00  0.00     0.049 A 
ATOM     32  H   UNL A   1      43.717  29.768  28.351  1.00  0.00     0.167 HD
ATOM     33  C   UNL A   1      42.855  32.164  29.622  1.00  0.00     0.074 A 
ATOM     34  C   UNL A   1      42.056  33.118  30.361  1.00  0.00     0.031 C 
ATOM     35  C   UNL A   1      44.101  32.422  29.152  1.00  0.00     0.034 A 
BRANCH  22  36
ATOM     36  C   UNL A   1      46.770  27.634  26.273  1.00  0.00     0.023 A 
ATOM     37  C   UNL A   1      46.808  27.728  24.865  1.00  0.00     0.012 A 
ATOM     38  C   UNL A   1      47.814  26.981  26.952  1.00  0.00     0.148 A 
ATOM     39  C   UNL A   1      47.838  27.133  24.140  1.00  0.00     0.002 A 
ATOM     40  C   UNL A   1      48.861  26.426  26.223  1.00  0.00     0.091 A 
ATOM     41  F   UNL A   1      47.749  26.885  28.287  1.00  0.00    -0.205 F 
ATOM     42  C   UNL A   1      48.865  26.486  24.819  1.00  0.00     0.022 A 
BRANCH  40  43
ATOM     43  S   UNL A   1      50.262  25.615  26.999  1.00  0.00     0.127 S 
ATOM     44  O   UNL A   1      50.714  26.642  27.938  1.00  0.00    -0.237 OA
ATOM     45  O   UNL A   1      49.631  24.452  27.623  1.00  0.00    -0.237 OA
ATOM     46  O   UNL A   1      51.193  25.303  25.924  1.00  0.00    -0.744 OA
ENDBRANCH  40  43
ENDBRANCH  22  36
BRANCH  23  47
ATOM     47  C   UNL A   1      38.555  30.867  31.047  1.00  0.00     0.023 A 
ATOM     48  C   UNL A   1      38.429  30.677  32.440  1.00  0.00     0.012 A 
ATOM     49  C   UNL A   1      37.507  31.500  30.351  1.00  0.00     0.148 A 
ATOM     50  C   UNL A   1      37.266  31.054  33.113  1.00  0.00     0.002 A 
ATOM     51  C   UNL A   1      36.369  31.919  31.038  1.00  0.00     0.091 A 
ATOM     52  F   UNL A   1      37.632  31.663  29.026  1.00  0.00    -0.205 F 
ATOM     53  C   UNL A   1      36.239  31.678  32.413  1.00  0.00     0.022 A 
BRANCH  51  54
ATOM     54  S   UNL A   1      35.032  32.825  30.250  1.00  0.00     0.127 S 
ATOM     55  O   UNL A   1      34.118  33.040  31.369  1.00  0.00    -0.237 OA
ATOM     56  O   UNL A   1      35.719  34.029  29.778  1.00  0.00    -0.237 OA
ATOM     57  O   UNL A   1      34.546  31.959  29.188  1.00  0.00    -0.744 OA
ENDBRANCH  51  54
ENDBRANCH  23  47
BRANCH  35  58
ATOM     58  C   UNL A   1      44.666  33.799  29.380  1.00  0.00     0.023 A 
ATOM     59  C   UNL A   1      45.443  34.055  30.526  1.00  0.00     0.012 A 
ATOM     60  C   UNL A   1      44.512  34.803  28.406  1.00  0.00     0.148 A 
ATOM     61  C   UNL A   1      46.037  35.302  30.712  1.00  0.00     0.002 A 
ATOM     62  C   UNL A   1      45.151  36.025  28.572  1.00  0.00     0.091 A 
ATOM     63  F   UNL A   1      43.750  34.544  27.332  1.00  0.00    -0.205 F 
ATOM     64  C   UNL A   1      45.904  36.281  29.729  1.00  0.00     0.022 A 
BRANCH  62  65
ATOM     65  S   UNL A   1      45.125  37.298  27.304  1.00  0.00     0.127 S 
ATOM     66  O   UNL A   1      45.650  38.453  28.031  1.00  0.00    -0.237 OA
ATOM     67  O   UNL A   1      46.029  36.749  26.293  1.00  0.00    -0.237 OA
ATOM     68  O   UNL A   1      43.736  37.404  26.875  1.00  0.00    -0.744 OA
ENDBRANCH  62  65
ENDBRANCH  35  58
ENDBRANCH   9  10
ENDBRANCH   2   4
ENDBRANCH   1   2
BRANCH   1  69
ATOM     69  C   UNL A   1      39.315  19.240  25.751  1.00  0.00     0.275 C 
BRANCH  69  70
ATOM     70  C   UNL A   1      40.653  19.167  26.485  1.00  0.00     0.274 C 
BRANCH  70  71
ATOM     71  O   UNL A   1      41.726  19.744  25.728  1.00  0.00    -0.462 OA
BRANCH  71  72
ATOM     72  C   UNL A   1      42.895  19.032  25.669  1.00  0.00     0.309 C 
ATOM     73  O   UNL A   1      43.048  17.898  26.082  1.00  0.00    -0.252 OA
BRANCH  72  74
ATOM     74  C   UNL A   1      43.968  19.861  24.995  1.00  0.00     0.104 C 
ATOM     75  C   UNL A   1      45.382  19.382  25.402  1.00  0.00     0.022 C 
ATOM     76  C   UNL A   1      43.794  21.364  25.311  1.00  0.00     0.054 C 
ATOM     77  C   UNL A   1      46.465  20.065  24.539  1.00  0.00     0.057 C 
ATOM     78  C   UNL A   1      44.959  22.116  24.767  1.00  0.00    -0.006 A 
ATOM     79  C   UNL A   1      46.148  21.503  24.430  1.00  0.00     0.038 A 
ATOM     80  C   UNL A   1      45.175  23.472  24.465  1.00  0.00     0.138 A 
ATOM     81  N   UNL A   1      46.936  22.461  23.873  1.00  0.00    -0.282 N 
ATOM     82  N   UNL A   1      46.407  23.684  23.991  1.00  0.00    -0.184 NA
ATOM     83  H   UNL A   1      47.797  22.276  23.433  1.00  0.00     0.190 HD
ENDBRANCH  72  74
ENDBRANCH  71  72
ENDBRANCH  70  71
ENDBRANCH  69  70
ENDBRANCH   1  69
TORSDOF 14
ENDMDL
MODEL 3
REMARK VINA RESULT:     -11.1      3.109      5.342
REMARK SMILES O=C(OCCOC(=O)[C@@H]1CCc2[nH]ncc2C1)c1ccc(-c2c3nc(c(-c4cccc(S(=O)(=O)[O-])c4F)c4ccc([nH]4)c(-c4cccc(S(=O)(=O)[O-])c4F)c4nc(c(-c5cccc(S(=O)(=O)[O-])c5F)c5ccc2[nH]5)C=C4)C=C3)cc1
REMARK SMILES IDX 3 1 2 2 1 3 18 4 19 5 80 6 20 7 79 8 21 9 22 10 23 11 73 12
REMARK SMILES IDX 24 13 78 14 72 15 74 16 25 17 77 18 71 19 70 20 26 22 58 23
REMARK SMILES IDX 38 24 57 25 39 26 42 27 56 28 75 29 40 30 41 31 55 33 76 34
REMARK SMILES IDX 43 35 27 36 28 37 36 38 29 39 31 40 37 41 30 42 32 43 33 44
REMARK SMILES IDX 34 45 35 46 59 47 60 48 68 49 61 50 63 51 69 52 62 53 64 54
REMARK SMILES IDX 65 55 66 56 67 57 44 58 45 59 53 60 46 61 48 62 54 63 47 64
REMARK SMILES IDX 49 65 50 66 51 67 52 68 4 69 5 70 6 71 7 72 8 73 9 74 10 75
REMARK SMILES IDX 17 76 11 77 16 78 12 79 15 80 13 81 14 82
REMARK H PARENT 74 21 42 32 13 83
REMARK Flexibility Score: inf
ROOT
ATOM      1  O   UNL A   1      32.831  30.500  26.504  1.00  0.00    -0.458 OA
ENDROOT
BRANCH   1   2
ATOM      2  C   UNL A   1      33.496  31.365  27.306  1.00  0.00     0.338 C 
ATOM      3  O   UNL A   1      33.026  32.492  27.461  1.00  0.00    -0.246 OA
BRANCH   2   4
ATOM      4  C   UNL A   1      34.848  31.092  27.894  1.00  0.00     0.060 A 
ATOM      5  C   UNL A   1      35.910  31.992  28.006  1.00  0.00     0.016 A 
ATOM      6  C   UNL A   1      35.051  29.789  28.382  1.00  0.00     0.016 A 
ATOM      7  C   UNL A   1      37.095  31.639  28.664  1.00  0.00     0.010 A 
ATOM      8  C   UNL A   1      36.227  29.437  29.053  1.00  0.00     0.010 A 
ATOM      9  C   UNL A   1      37.260  30.366  29.211  1.00  0.00    -0.014 A 
BRANCH   9  10
ATOM     10  C   UNL A   1      38.558  29.988  29.823  1.00  0.00     0.031 A 
ATOM     11  C   UNL A   1      38.896  30.532  31.183  1.00  0.00     0.074 A 
ATOM     12  C   UNL A   1      39.402  29.143  29.195  1.00  0.00     0.049 A 
ATOM     13  N   UNL A   1      39.919  30.260  31.949  1.00  0.00    -0.248 NA
ATOM     14  C   UNL A   1      37.968  31.524  31.752  1.00  0.00     0.031 C 
ATOM     15  C   UNL A   1      39.212  28.594  27.852  1.00  0.00     0.029 A 
ATOM     16  N   UNL A   1      40.593  28.593  29.604  1.00  0.00    -0.354 N 
ATOM     17  C   UNL A   1      39.758  31.050  33.080  1.00  0.00     0.074 A 
ATOM     18  C   UNL A   1      38.585  31.865  32.871  1.00  0.00     0.031 C 
ATOM     19  C   UNL A   1      40.240  27.779  27.552  1.00  0.00     0.029 A 
ATOM     20  C   UNL A   1      41.160  27.739  28.683  1.00  0.00     0.049 A 
ATOM     21  H   UNL A   1      41.003  28.791  30.477  1.00  0.00     0.167 HD
ATOM     22  C   UNL A   1      40.485  31.059  34.221  1.00  0.00     0.034 A 
ATOM     23  C   UNL A   1      42.282  26.994  28.760  1.00  0.00     0.034 A 
ATOM     24  C   UNL A   1      41.631  30.227  34.440  1.00  0.00     0.049 A 
ATOM     25  C   UNL A   1      43.065  27.010  30.052  1.00  0.00     0.074 A 
ATOM     26  C   UNL A   1      42.437  30.144  35.559  1.00  0.00     0.029 A 
ATOM     27  N   UNL A   1      42.132  29.328  33.511  1.00  0.00    -0.354 N 
ATOM     28  N   UNL A   1      42.812  27.657  31.166  1.00  0.00    -0.248 NA
ATOM     29  C   UNL A   1      44.261  26.155  30.118  1.00  0.00     0.031 C 
ATOM     30  C   UNL A   1      43.432  29.194  35.304  1.00  0.00     0.029 A 
ATOM     31  C   UNL A   1      43.232  28.675  34.034  1.00  0.00     0.049 A 
ATOM     32  H   UNL A   1      41.759  29.176  32.612  1.00  0.00     0.167 HD
ATOM     33  C   UNL A   1      43.788  27.255  32.073  1.00  0.00     0.074 A 
ATOM     34  C   UNL A   1      44.620  26.290  31.387  1.00  0.00     0.031 C 
ATOM     35  C   UNL A   1      43.994  27.663  33.350  1.00  0.00     0.034 A 
BRANCH  22  36
ATOM     36  C   UNL A   1      39.998  31.961  35.322  1.00  0.00     0.023 A 
ATOM     37  C   UNL A   1      40.535  33.262  35.430  1.00  0.00     0.012 A 
ATOM     38  C   UNL A   1      39.052  31.521  36.264  1.00  0.00     0.148 A 
ATOM     39  C   UNL A   1      40.178  34.092  36.492  1.00  0.00     0.002 A 
ATOM     40  C   UNL A   1      38.669  32.371  37.296  1.00  0.00     0.091 A 
ATOM     41  F   UNL A   1      38.571  30.275  36.154  1.00  0.00    -0.205 F 
ATOM     42  C   UNL A   1      39.243  33.647  37.421  1.00  0.00     0.022 A 
BRANCH  40  43
ATOM     43  S   UNL A   1      37.435  31.920  38.519  1.00  0.00     0.127 S 
ATOM     44  O   UNL A   1      37.188  30.517  38.184  1.00  0.00    -0.237 OA
ATOM     45  O   UNL A   1      38.159  32.129  39.772  1.00  0.00    -0.237 OA
ATOM     46  O   UNL A   1      36.309  32.817  38.305  1.00  0.00    -0.744 OA
ENDBRANCH  40  43
ENDBRANCH  22  36
BRANCH  23  47
ATOM     47  C   UNL A   1      42.696  26.095  27.638  1.00  0.00     0.023 A 
ATOM     48  C   UNL A   1      43.541  26.601  26.626  1.00  0.00     0.012 A 
ATOM     49  C   UNL A   1      42.235  24.768  27.536  1.00  0.00     0.148 A 
ATOM     50  C   UNL A   1      43.870  25.827  25.512  1.00  0.00     0.002 A 
ATOM     51  C   UNL A   1      42.608  23.985  26.446  1.00  0.00     0.091 A 
ATOM     52  F   UNL A   1      41.422  24.304  28.495  1.00  0.00    -0.205 F 
ATOM     53  C   UNL A   1      43.407  24.518  25.424  1.00  0.00     0.022 A 
BRANCH  51  54
ATOM     54  S   UNL A   1      42.151  22.253  26.287  1.00  0.00     0.127 S 
ATOM     55  O   UNL A   1      40.700  22.340  26.145  1.00  0.00    -0.237 OA
ATOM     56  O   UNL A   1      42.865  21.862  25.070  1.00  0.00    -0.237 OA
ATOM     57  O   UNL A   1      42.635  21.609  27.497  1.00  0.00    -0.744 OA
ENDBRANCH  51  54
ENDBRANCH  23  47
BRANCH  35  58
ATOM     58  C   UNL A   1      45.135  27.039  34.109  1.00  0.00     0.023 A 
ATOM     59  C   UNL A   1      46.410  27.635  34.072  1.00  0.00     0.012 A 
ATOM     60  C   UNL A   1      44.913  25.923  34.939  1.00  0.00     0.148 A 
ATOM     61  C   UNL A   1      47.455  27.114  34.832  1.00  0.00     0.002 A 
ATOM     62  C   UNL A   1      45.946  25.442  35.734  1.00  0.00     0.091 A 
ATOM     63  F   UNL A   1      43.696  25.358  34.942  1.00  0.00    -0.205 F 
ATOM     64  C   UNL A   1      47.220  26.029  35.673  1.00  0.00     0.022 A 
BRANCH  62  65
ATOM     65  S   UNL A   1      45.699  24.122  36.928  1.00  0.00     0.127 S 
ATOM     66  O   UNL A   1      45.338  23.002  36.062  1.00  0.00    -0.237 OA
ATOM     67  O   UNL A   1      47.019  24.014  37.550  1.00  0.00    -0.237 OA
ATOM     68  O   UNL A   1      44.648  24.587  37.823  1.00  0.00    -0.744 OA
ENDBRANCH  62  65
ENDBRANCH  35  58
ENDBRANCH   9  10
ENDBRANCH   2   4
ENDBRANCH   1   2
BRANCH   1  69
ATOM     69  C   UNL A   1      31.733  29.623  26.808  1.00  0.00     0.275 C 
BRANCH  69  70
ATOM     70  C   UNL A   1      32.120  28.144  26.818  1.00  0.00     0.274 C 
BRANCH  70  71
ATOM     71  O   UNL A   1      30.993  27.284  27.038  1.00  0.00    -0.462 OA
BRANCH  71  72
ATOM     72  C   UNL A   1      30.957  26.116  26.325  1.00  0.00     0.309 C 
ATOM     73  O   UNL A   1      30.636  25.031  26.772  1.00  0.00    -0.252 OA
BRANCH  72  74
ATOM     74  C   UNL A   1      31.359  26.377  24.889  1.00  0.00     0.104 C 
ATOM     75  C   UNL A   1      30.139  26.798  24.034  1.00  0.00     0.022 C 
ATOM     76  C   UNL A   1      32.054  25.142  24.270  1.00  0.00     0.054 C 
ATOM     77  C   UNL A   1      30.586  27.290  22.641  1.00  0.00     0.057 C 
ATOM     78  C   UNL A   1      32.281  25.388  22.818  1.00  0.00    -0.006 A 
ATOM     79  C   UNL A   1      31.605  26.360  22.113  1.00  0.00     0.038 A 
ATOM     80  C   UNL A   1      33.131  24.800  21.864  1.00  0.00     0.138 A 
ATOM     81  N   UNL A   1      32.135  26.374  20.861  1.00  0.00    -0.282 N 
ATOM     82  N   UNL A   1      32.981  25.357  20.657  1.00  0.00    -0.184 NA
ATOM     83  H   UNL A   1      31.921  27.054  20.181  1.00  0.00     0.190 HD
ENDBRANCH  72  74
ENDBRANCH  71  72
ENDBRANCH  70  71
ENDBRANCH  69  70
ENDBRANCH   1  69
TORSDOF 14
ENDMDL
