MODEL 1
REMARK VINA RESULT:     -11.9      0.000      0.000
REMARK SMILES C[C@@H]([NH2+]C[C@H]1CCC[C@@H]1C(=O)OCCOC(=O)c1ccc(-c2c3nc(c(-c4cccc(S(=O)(=O)[O-])c4F)c4ccc([nH]4)c(-c4cccc(S(=O)(=O)[O-])c4F)c4nc(c(-c5cccc(S(=O)(=O)[O-])c5F)c5ccc2[nH]5)C=C4)C=C3)cc1)c1cc(F)ccc1O
REMARK SMILES IDX 13 1 12 2 10 3 11 4 9 5 5 6 6 7 7 8 8 9 4 10 3 11 2 14 1 15
REMARK SMILES IDX 81 16 82 17 87 18 83 19 86 20 84 21 85 22 88 23 14 25 15 26
REMARK SMILES IDX 16 27 17 28 18 29 19 30 80 31 20 32 79 33 21 34 22 35 23 36
REMARK SMILES IDX 73 37 24 38 78 39 72 40 74 41 25 42 77 43 71 44 70 45 26 47
REMARK SMILES IDX 58 48 38 49 57 50 39 51 42 52 56 53 75 54 40 55 41 56 55 58
REMARK SMILES IDX 76 59 43 60 27 61 28 62 36 63 29 64 31 65 37 66 30 67 32 68
REMARK SMILES IDX 33 69 34 70 35 71 59 72 60 73 68 74 61 75 63 76 69 77 62 78
REMARK SMILES IDX 64 79 65 80 66 81 67 82 44 83 45 84 53 85 46 86 48 87 54 88
REMARK SMILES IDX 47 89 49 90 50 91 51 92 52 93
REMARK H PARENT 3 12 3 13 88 24 74 46 42 57
REMARK Flexibility Score: inf
ROOT
ATOM      1  C   UNL A   1      34.880  20.170  25.202  1.00  0.00     0.274 C 
ENDROOT
BRANCH   1   2
ATOM      2  O   UNL A   1      34.153  21.356  25.587  1.00  0.00    -0.462 OA
BRANCH   2   3
ATOM      3  C   UNL A   1      32.841  21.384  25.225  1.00  0.00     0.309 C 
ATOM      4  O   UNL A   1      32.108  20.405  25.189  1.00  0.00    -0.252 OA
BRANCH   3   5
ATOM      5  C   UNL A   1      32.402  22.802  24.854  1.00  0.00     0.108 C 
ATOM      6  C   UNL A   1      31.623  22.803  23.538  1.00  0.00     0.058 C 
ATOM      7  C   UNL A   1      32.738  22.765  22.468  1.00  0.00     0.010 C 
ATOM      8  C   UNL A   1      33.971  23.411  23.101  1.00  0.00     0.001 C 
ATOM      9  C   UNL A   1      33.642  23.643  24.573  1.00  0.00     0.016 C 
BRANCH   6  10
ATOM     10  C   UNL A   1      30.579  23.885  23.176  1.00  0.00     0.265 C 
BRANCH  10  11
ATOM     11  N   UNL A   1      30.056  24.906  24.059  1.00  0.00    -0.340 N 
ATOM     12  H   UNL A   1      29.046  24.895  23.924  1.00  0.00     0.346 HD
ATOM     13  H   UNL A   1      30.475  24.623  24.945  1.00  0.00     0.346 HD
BRANCH  11  14
ATOM     14  C   UNL A   1      30.442  26.314  24.015  1.00  0.00     0.214 C 
ATOM     15  C   UNL A   1      30.962  26.591  25.452  1.00  0.00     0.081 C 
BRANCH  14  16
ATOM     16  C   UNL A   1      29.459  27.410  23.568  1.00  0.00     0.054 A 
ATOM     17  C   UNL A   1      30.023  28.542  22.927  1.00  0.00     0.053 A 
ATOM     18  C   UNL A   1      28.059  27.411  23.630  1.00  0.00     0.124 A 
ATOM     19  C   UNL A   1      29.246  29.591  22.432  1.00  0.00     0.123 A 
ATOM     20  C   UNL A   1      27.274  28.458  23.118  1.00  0.00     0.050 A 
ATOM     21  F   UNL A   1      29.847  30.638  21.854  1.00  0.00    -0.207 F 
ATOM     22  C   UNL A   1      27.868  29.558  22.519  1.00  0.00     0.043 A 
BRANCH  18  23
ATOM     23  O   UNL A   1      27.322  26.405  24.164  1.00  0.00    -0.507 OA
ATOM     24  H   UNL A   1      26.593  26.603  24.719  1.00  0.00     0.293 HD
ENDBRANCH  18  23
ENDBRANCH  14  16
ENDBRANCH  11  14
ENDBRANCH  10  11
ENDBRANCH   6  10
ENDBRANCH   3   5
ENDBRANCH   2   3
ENDBRANCH   1   2
BRANCH   1  25
ATOM     25  C   UNL A   1      36.248  20.545  24.643  1.00  0.00     0.275 C 
BRANCH  25  26
ATOM     26  O   UNL A   1      36.905  21.445  25.553  1.00  0.00    -0.458 OA
BRANCH  26  27
ATOM     27  C   UNL A   1      38.229  21.249  25.724  1.00  0.00     0.338 C 
ATOM     28  O   UNL A   1      38.883  20.281  25.344  1.00  0.00    -0.246 OA
BRANCH  27  29
ATOM     29  C   UNL A   1      38.841  22.399  26.415  1.00  0.00     0.060 A 
ATOM     30  C   UNL A   1      38.354  23.685  26.202  1.00  0.00     0.016 A 
ATOM     31  C   UNL A   1      40.004  22.220  27.161  1.00  0.00     0.016 A 
ATOM     32  C   UNL A   1      39.121  24.791  26.573  1.00  0.00     0.010 A 
ATOM     33  C   UNL A   1      40.679  23.333  27.676  1.00  0.00     0.010 A 
ATOM     34  C   UNL A   1      40.285  24.642  27.340  1.00  0.00    -0.014 A 
BRANCH  34  35
ATOM     35  C   UNL A   1      41.106  25.824  27.766  1.00  0.00     0.031 A 
ATOM     36  C   UNL A   1      40.502  26.902  28.639  1.00  0.00     0.074 A 
ATOM     37  C   UNL A   1      42.389  25.970  27.368  1.00  0.00     0.049 A 
ATOM     38  N   UNL A   1      40.930  28.119  28.867  1.00  0.00    -0.248 NA
ATOM     39  C   UNL A   1      39.235  26.582  29.316  1.00  0.00     0.031 C 
ATOM     40  C   UNL A   1      43.138  25.026  26.539  1.00  0.00     0.029 A 
ATOM     41  N   UNL A   1      43.293  26.982  27.605  1.00  0.00    -0.354 N 
ATOM     42  C   UNL A   1      39.934  28.741  29.612  1.00  0.00     0.074 A 
ATOM     43  C   UNL A   1      38.893  27.759  29.824  1.00  0.00     0.031 C 
ATOM     44  C   UNL A   1      44.393  25.469  26.381  1.00  0.00     0.029 A 
ATOM     45  C   UNL A   1      44.510  26.787  26.992  1.00  0.00     0.049 A 
ATOM     46  H   UNL A   1      43.088  27.769  28.159  1.00  0.00     0.167 HD
ATOM     47  C   UNL A   1      39.889  30.012  30.081  1.00  0.00     0.034 A 
ATOM     48  C   UNL A   1      45.587  27.591  26.873  1.00  0.00     0.034 A 
ATOM     49  C   UNL A   1      40.975  30.951  29.985  1.00  0.00     0.049 A 
ATOM     50  C   UNL A   1      45.547  28.969  27.465  1.00  0.00     0.074 A 
ATOM     51  C   UNL A   1      41.033  32.253  30.452  1.00  0.00     0.029 A 
ATOM     52  N   UNL A   1      42.211  30.676  29.420  1.00  0.00    -0.354 N 
ATOM     53  N   UNL A   1      44.585  29.549  28.137  1.00  0.00    -0.248 NA
ATOM     54  C   UNL A   1      46.740  29.808  27.275  1.00  0.00     0.031 C 
ATOM     55  C   UNL A   1      42.310  32.760  30.184  1.00  0.00     0.029 A 
ATOM     56  C   UNL A   1      43.045  31.774  29.546  1.00  0.00     0.049 A 
ATOM     57  H   UNL A   1      42.458  29.825  28.991  1.00  0.00     0.167 HD
ATOM     58  C   UNL A   1      45.050  30.820  28.448  1.00  0.00     0.074 A 
ATOM     59  C   UNL A   1      46.399  30.912  27.928  1.00  0.00     0.031 C 
ATOM     60  C   UNL A   1      44.403  31.835  29.072  1.00  0.00     0.034 A 
BRANCH  47  61
ATOM     61  C   UNL A   1      38.630  30.459  30.778  1.00  0.00     0.023 A 
ATOM     62  C   UNL A   1      38.474  30.231  32.159  1.00  0.00     0.012 A 
ATOM     63  C   UNL A   1      37.624  31.151  30.074  1.00  0.00     0.148 A 
ATOM     64  C   UNL A   1      37.324  30.659  32.823  1.00  0.00     0.002 A 
ATOM     65  C   UNL A   1      36.498  31.609  30.751  1.00  0.00     0.091 A 
ATOM     66  F   UNL A   1      37.774  31.339  28.755  1.00  0.00    -0.205 F 
ATOM     67  C   UNL A   1      36.342  31.356  32.122  1.00  0.00     0.022 A 
BRANCH  65  68
ATOM     68  S   UNL A   1      35.227  32.579  29.930  1.00  0.00     0.127 S 
ATOM     69  O   UNL A   1      35.989  33.734  29.461  1.00  0.00    -0.237 OA
ATOM     70  O   UNL A   1      34.774  31.678  28.868  1.00  0.00    -0.237 OA
ATOM     71  O   UNL A   1      34.224  32.849  30.951  1.00  0.00    -0.744 OA
ENDBRANCH  65  68
ENDBRANCH  47  61
BRANCH  48  72
ATOM     72  C   UNL A   1      46.793  27.090  26.153  1.00  0.00     0.023 A 
ATOM     73  C   UNL A   1      46.940  27.359  24.779  1.00  0.00     0.012 A 
ATOM     74  C   UNL A   1      47.834  26.433  26.838  1.00  0.00     0.148 A 
ATOM     75  C   UNL A   1      48.102  26.983  24.102  1.00  0.00     0.002 A 
ATOM     76  C   UNL A   1      49.018  26.128  26.175  1.00  0.00     0.091 A 
ATOM     77  F   UNL A   1      47.666  26.153  28.139  1.00  0.00    -0.205 F 
ATOM     78  C   UNL A   1      49.148  26.388  24.804  1.00  0.00     0.022 A 
BRANCH  76  79
ATOM     79  S   UNL A   1      50.466  25.538  27.060  1.00  0.00     0.127 S 
ATOM     80  O   UNL A   1      49.980  24.288  27.636  1.00  0.00    -0.237 OA
ATOM     81  O   UNL A   1      51.445  25.381  25.983  1.00  0.00    -0.237 OA
ATOM     82  O   UNL A   1      50.793  26.599  28.005  1.00  0.00    -0.744 OA
ENDBRANCH  76  79
ENDBRANCH  48  72
BRANCH  60  83
ATOM     83  C   UNL A   1      45.144  33.134  29.230  1.00  0.00     0.023 A 
ATOM     84  C   UNL A   1      45.997  33.308  30.337  1.00  0.00     0.012 A 
ATOM     85  C   UNL A   1      45.048  34.150  28.261  1.00  0.00     0.148 A 
ATOM     86  C   UNL A   1      46.728  34.485  30.490  1.00  0.00     0.002 A 
ATOM     87  C   UNL A   1      45.806  35.308  28.404  1.00  0.00     0.091 A 
ATOM     88  F   UNL A   1      44.211  33.977  27.228  1.00  0.00    -0.205 F 
ATOM     89  C   UNL A   1      46.641  35.480  29.519  1.00  0.00     0.022 A 
BRANCH  87  90
ATOM     90  S   UNL A   1      45.804  36.606  27.160  1.00  0.00     0.127 S 
ATOM     91  O   UNL A   1      46.469  35.946  26.038  1.00  0.00    -0.237 OA
ATOM     92  O   UNL A   1      44.374  36.853  26.961  1.00  0.00    -0.237 OA
ATOM     93  O   UNL A   1      46.526  37.722  27.756  1.00  0.00    -0.744 OA
ENDBRANCH  87  90
ENDBRANCH  60  83
ENDBRANCH  34  35
ENDBRANCH  27  29
ENDBRANCH  26  27
ENDBRANCH  25  26
ENDBRANCH   1  25
TORSDOF 19
ENDMDL
MODEL 2
REMARK VINA RESULT:     -11.8      4.909     10.072
REMARK SMILES C[C@@H]([NH2+]C[C@H]1CCC[C@@H]1C(=O)OCCOC(=O)c1ccc(-c2c3nc(c(-c4cccc(S(=O)(=O)[O-])c4F)c4ccc([nH]4)c(-c4cccc(S(=O)(=O)[O-])c4F)c4nc(c(-c5cccc(S(=O)(=O)[O-])c5F)c5ccc2[nH]5)C=C4)C=C3)cc1)c1cc(F)ccc1O
REMARK SMILES IDX 13 1 12 2 10 3 11 4 9 5 5 6 6 7 7 8 8 9 4 10 3 11 2 14 1 15
REMARK SMILES IDX 81 16 82 17 87 18 83 19 86 20 84 21 85 22 88 23 14 25 15 26
REMARK SMILES IDX 16 27 17 28 18 29 19 30 80 31 20 32 79 33 21 34 22 35 23 36
REMARK SMILES IDX 73 37 24 38 78 39 72 40 74 41 25 42 77 43 71 44 70 45 26 47
REMARK SMILES IDX 58 48 38 49 57 50 39 51 42 52 56 53 75 54 40 55 41 56 55 58
REMARK SMILES IDX 76 59 43 60 27 61 28 62 36 63 29 64 31 65 37 66 30 67 32 68
REMARK SMILES IDX 33 69 34 70 35 71 59 72 60 73 68 74 61 75 63 76 69 77 62 78
REMARK SMILES IDX 64 79 65 80 66 81 67 82 44 83 45 84 53 85 46 86 48 87 54 88
REMARK SMILES IDX 47 89 49 90 50 91 51 92 52 93
REMARK H PARENT 3 12 3 13 88 24 74 46 42 57
REMARK Flexibility Score: inf
ROOT
ATOM      1  C   UNL A   1      31.135  29.354  24.061  1.00  0.00     0.274 C 
ENDROOT
BRANCH   1   2
ATOM      2  O   UNL A   1      31.216  27.932  23.829  1.00  0.00    -0.462 OA
BRANCH   2   3
ATOM      3  C   UNL A   1      32.416  27.481  23.370  1.00  0.00     0.309 C 
ATOM      4  O   UNL A   1      33.192  28.136  22.688  1.00  0.00    -0.252 OA
BRANCH   3   5
ATOM      5  C   UNL A   1      32.665  26.036  23.808  1.00  0.00     0.108 C 
ATOM      6  C   UNL A   1      31.579  25.565  24.776  1.00  0.00     0.058 C 
ATOM      7  C   UNL A   1      32.034  26.156  26.130  1.00  0.00     0.010 C 
ATOM      8  C   UNL A   1      33.554  26.298  26.055  1.00  0.00     0.001 C 
ATOM      9  C   UNL A   1      33.957  25.983  24.617  1.00  0.00     0.016 C 
BRANCH   6  10
ATOM     10  C   UNL A   1      31.189  24.079  24.951  1.00  0.00     0.265 C 
BRANCH  10  11
ATOM     11  N   UNL A   1      31.973  23.056  25.610  1.00  0.00    -0.340 N 
ATOM     12  H   UNL A   1      32.469  23.533  26.363  1.00  0.00     0.346 HD
ATOM     13  H   UNL A   1      31.252  22.362  25.808  1.00  0.00     0.346 HD
BRANCH  11  14
ATOM     14  C   UNL A   1      32.974  22.225  24.946  1.00  0.00     0.214 C 
ATOM     15  C   UNL A   1      32.696  20.805  25.511  1.00  0.00     0.081 C 
BRANCH  14  16
ATOM     16  C   UNL A   1      34.475  22.555  25.014  1.00  0.00     0.054 A 
ATOM     17  C   UNL A   1      35.162  22.630  23.775  1.00  0.00     0.053 A 
ATOM     18  C   UNL A   1      35.253  22.880  26.133  1.00  0.00     0.124 A 
ATOM     19  C   UNL A   1      36.514  22.963  23.684  1.00  0.00     0.123 A 
ATOM     20  C   UNL A   1      36.611  23.231  26.042  1.00  0.00     0.050 A 
ATOM     21  F   UNL A   1      37.104  22.997  22.482  1.00  0.00    -0.207 F 
ATOM     22  C   UNL A   1      37.249  23.270  24.813  1.00  0.00     0.043 A 
BRANCH  18  23
ATOM     23  O   UNL A   1      34.779  22.910  27.404  1.00  0.00    -0.507 OA
ATOM     24  H   UNL A   1      35.358  22.750  28.123  1.00  0.00     0.293 HD
ENDBRANCH  18  23
ENDBRANCH  14  16
ENDBRANCH  11  14
ENDBRANCH  10  11
ENDBRANCH   6  10
ENDBRANCH   3   5
ENDBRANCH   2   3
ENDBRANCH   1   2
BRANCH   1  25
ATOM     25  C   UNL A   1      31.417  29.668  25.527  1.00  0.00     0.275 C 
BRANCH  25  26
ATOM     26  O   UNL A   1      32.775  30.122  25.665  1.00  0.00    -0.458 OA
BRANCH  26  27
ATOM     27  C   UNL A   1      33.022  30.933  26.715  1.00  0.00     0.338 C 
ATOM     28  O   UNL A   1      32.233  31.714  27.240  1.00  0.00    -0.246 OA
BRANCH  27  29
ATOM     29  C   UNL A   1      34.396  30.738  27.212  1.00  0.00     0.060 A 
ATOM     30  C   UNL A   1      34.911  29.454  27.365  1.00  0.00     0.016 A 
ATOM     31  C   UNL A   1      35.128  31.830  27.674  1.00  0.00     0.016 A 
ATOM     32  C   UNL A   1      36.056  29.249  28.137  1.00  0.00     0.010 A 
ATOM     33  C   UNL A   1      36.363  31.626  28.300  1.00  0.00     0.010 A 
ATOM     34  C   UNL A   1      36.822  30.329  28.599  1.00  0.00    -0.014 A 
BRANCH  34  35
ATOM     35  C   UNL A   1      38.069  30.124  29.409  1.00  0.00     0.031 A 
ATOM     36  C   UNL A   1      39.212  29.299  28.859  1.00  0.00     0.074 A 
ATOM     37  C   UNL A   1      38.195  30.644  30.649  1.00  0.00     0.049 A 
ATOM     38  N   UNL A   1      40.225  28.763  29.493  1.00  0.00    -0.248 NA
ATOM     39  C   UNL A   1      39.197  29.014  27.415  1.00  0.00     0.031 C 
ATOM     40  C   UNL A   1      37.203  31.474  31.332  1.00  0.00     0.029 A 
ATOM     41  N   UNL A   1      39.220  30.542  31.565  1.00  0.00    -0.354 N 
ATOM     42  C   UNL A   1      40.896  27.987  28.554  1.00  0.00     0.074 A 
ATOM     43  C   UNL A   1      40.193  28.145  27.299  1.00  0.00     0.031 C 
ATOM     44  C   UNL A   1      37.682  31.849  32.526  1.00  0.00     0.029 A 
ATOM     45  C   UNL A   1      38.963  31.190  32.751  1.00  0.00     0.049 A 
ATOM     46  H   UNL A   1      40.054  30.052  31.388  1.00  0.00     0.167 HD
ATOM     47  C   UNL A   1      41.998  27.216  28.717  1.00  0.00     0.034 A 
ATOM     48  C   UNL A   1      39.638  31.215  33.919  1.00  0.00     0.034 A 
ATOM     49  C   UNL A   1      42.775  27.156  29.927  1.00  0.00     0.049 A 
ATOM     50  C   UNL A   1      40.899  30.412  34.057  1.00  0.00     0.074 A 
ATOM     51  C   UNL A   1      43.921  26.422  30.181  1.00  0.00     0.029 A 
ATOM     52  N   UNL A   1      42.512  27.890  31.073  1.00  0.00    -0.354 N 
ATOM     53  N   UNL A   1      41.499  29.661  33.168  1.00  0.00    -0.248 NA
ATOM     54  C   UNL A   1      41.574  30.456  35.363  1.00  0.00     0.031 C 
ATOM     55  C   UNL A   1      44.361  26.726  31.475  1.00  0.00     0.029 A 
ATOM     56  C   UNL A   1      43.485  27.645  32.028  1.00  0.00     0.049 A 
ATOM     57  H   UNL A   1      41.745  28.496  31.191  1.00  0.00     0.167 HD
ATOM     58  C   UNL A   1      42.617  29.137  33.804  1.00  0.00     0.074 A 
ATOM     59  C   UNL A   1      42.637  29.692  35.142  1.00  0.00     0.031 C 
ATOM     60  C   UNL A   1      43.524  28.245  33.336  1.00  0.00     0.034 A 
BRANCH  47  61
ATOM     61  C   UNL A   1      42.458  26.390  27.543  1.00  0.00     0.023 A 
ATOM     62  C   UNL A   1      43.305  26.961  26.573  1.00  0.00     0.012 A 
ATOM     63  C   UNL A   1      42.092  25.034  27.428  1.00  0.00     0.148 A 
ATOM     64  C   UNL A   1      43.758  26.204  25.493  1.00  0.00     0.002 A 
ATOM     65  C   UNL A   1      42.578  24.275  26.368  1.00  0.00     0.091 A 
ATOM     66  F   UNL A   1      41.264  24.511  28.344  1.00  0.00    -0.205 F 
ATOM     67  C   UNL A   1      43.403  24.860  25.396  1.00  0.00     0.022 A 
BRANCH  65  68
ATOM     68  S   UNL A   1      42.225  22.519  26.219  1.00  0.00     0.127 S 
ATOM     69  O   UNL A   1      42.823  21.989  27.442  1.00  0.00    -0.237 OA
ATOM     70  O   UNL A   1      40.761  22.489  26.196  1.00  0.00    -0.237 OA
ATOM     71  O   UNL A   1      42.851  22.102  24.971  1.00  0.00    -0.744 OA
ENDBRANCH  65  68
ENDBRANCH  47  61
BRANCH  48  72
ATOM     72  C   UNL A   1      39.116  32.038  35.046  1.00  0.00     0.023 A 
ATOM     73  C   UNL A   1      38.220  31.462  35.967  1.00  0.00     0.012 A 
ATOM     74  C   UNL A   1      39.569  33.354  35.263  1.00  0.00     0.148 A 
ATOM     75  C   UNL A   1      37.788  32.181  37.083  1.00  0.00     0.002 A 
ATOM     76  C   UNL A   1      39.193  34.038  36.415  1.00  0.00     0.091 A 
ATOM     77  F   UNL A   1      40.395  33.903  34.360  1.00  0.00    -0.205 F 
ATOM     78  C   UNL A   1      38.290  33.459  37.318  1.00  0.00     0.022 A 
BRANCH  76  79
ATOM     79  S   UNL A   1      39.950  35.602  36.870  1.00  0.00     0.127 S 
ATOM     80  O   UNL A   1      39.279  35.907  38.130  1.00  0.00    -0.237 OA
ATOM     81  O   UNL A   1      41.362  35.239  36.996  1.00  0.00    -0.237 OA
ATOM     82  O   UNL A   1      39.669  36.499  35.756  1.00  0.00    -0.744 OA
ENDBRANCH  76  79
ENDBRANCH  48  72
BRANCH  60  83
ATOM     83  C   UNL A   1      44.615  27.812  34.274  1.00  0.00     0.023 A 
ATOM     84  C   UNL A   1      45.764  28.615  34.409  1.00  0.00     0.012 A 
ATOM     85  C   UNL A   1      44.482  26.653  35.063  1.00  0.00     0.148 A 
ATOM     86  C   UNL A   1      46.776  28.262  35.301  1.00  0.00     0.002 A 
ATOM     87  C   UNL A   1      45.481  26.325  35.974  1.00  0.00     0.091 A 
ATOM     88  F   UNL A   1      43.394  25.887  34.902  1.00  0.00    -0.205 F 
ATOM     89  C   UNL A   1      46.630  27.123  36.090  1.00  0.00     0.022 A 
BRANCH  87  90
ATOM     90  S   UNL A   1      45.335  24.914  37.078  1.00  0.00     0.127 S 
ATOM     91  O   UNL A   1      46.607  24.963  37.796  1.00  0.00    -0.237 OA
ATOM     92  O   UNL A   1      44.165  25.262  37.886  1.00  0.00    -0.237 OA
ATOM     93  O   UNL A   1      45.141  23.757  36.213  1.00  0.00    -0.744 OA
ENDBRANCH  87  90
ENDBRANCH  60  83
ENDBRANCH  34  35
ENDBRANCH  27  29
ENDBRANCH  26  27
ENDBRANCH  25  26
ENDBRANCH   1  25
TORSDOF 19
ENDMDL
MODEL 3
REMARK VINA RESULT:     -11.6      5.304     10.146
REMARK SMILES C[C@@H]([NH2+]C[C@H]1CCC[C@@H]1C(=O)OCCOC(=O)c1ccc(-c2c3nc(c(-c4cccc(S(=O)(=O)[O-])c4F)c4ccc([nH]4)c(-c4cccc(S(=O)(=O)[O-])c4F)c4nc(c(-c5cccc(S(=O)(=O)[O-])c5F)c5ccc2[nH]5)C=C4)C=C3)cc1)c1cc(F)ccc1O
REMARK SMILES IDX 13 1 12 2 10 3 11 4 9 5 5 6 6 7 7 8 8 9 4 10 3 11 2 14 1 15
REMARK SMILES IDX 81 16 82 17 87 18 83 19 86 20 84 21 85 22 88 23 14 25 15 26
REMARK SMILES IDX 16 27 17 28 18 29 19 30 80 31 20 32 79 33 21 34 22 35 23 36
REMARK SMILES IDX 73 37 24 38 78 39 72 40 74 41 25 42 77 43 71 44 70 45 26 47
REMARK SMILES IDX 58 48 38 49 57 50 39 51 42 52 56 53 75 54 40 55 41 56 55 58
REMARK SMILES IDX 76 59 43 60 27 61 28 62 36 63 29 64 31 65 37 66 30 67 32 68
REMARK SMILES IDX 33 69 34 70 35 71 59 72 60 73 68 74 61 75 63 76 69 77 62 78
REMARK SMILES IDX 64 79 65 80 66 81 67 82 44 83 45 84 53 85 46 86 48 87 54 88
REMARK SMILES IDX 47 89 49 90 50 91 51 92 52 93
REMARK H PARENT 3 12 3 13 88 24 74 46 42 57
REMARK Flexibility Score: inf
ROOT
ATOM      1  C   UNL A   1      31.257  30.183  25.146  1.00  0.00     0.274 C 
ENDROOT
BRANCH   1   2
ATOM      2  O   UNL A   1      31.028  28.771  24.954  1.00  0.00    -0.462 OA
BRANCH   2   3
ATOM      3  C   UNL A   1      31.647  28.218  23.875  1.00  0.00     0.309 C 
ATOM      4  O   UNL A   1      31.982  28.833  22.872  1.00  0.00    -0.252 OA
BRANCH   3   5
ATOM      5  C   UNL A   1      31.860  26.715  24.072  1.00  0.00     0.108 C 
ATOM      6  C   UNL A   1      31.670  26.326  25.539  1.00  0.00     0.058 C 
ATOM      7  C   UNL A   1      33.024  26.701  26.183  1.00  0.00     0.010 C 
ATOM      8  C   UNL A   1      34.073  26.611  25.074  1.00  0.00     0.001 C 
ATOM      9  C   UNL A   1      33.317  26.381  23.768  1.00  0.00     0.016 C 
BRANCH   6  10
ATOM     10  C   UNL A   1      31.244  24.909  25.989  1.00  0.00     0.265 C 
BRANCH  10  11
ATOM     11  N   UNL A   1      31.642  23.658  25.379  1.00  0.00    -0.340 N 
ATOM     12  H   UNL A   1      30.829  23.046  25.451  1.00  0.00     0.346 HD
ATOM     13  H   UNL A   1      31.978  23.986  24.474  1.00  0.00     0.346 HD
BRANCH  11  14
ATOM     14  C   UNL A   1      32.779  22.851  25.814  1.00  0.00     0.214 C 
ATOM     15  C   UNL A   1      32.803  23.062  27.353  1.00  0.00     0.081 C 
BRANCH  14  16
ATOM     16  C   UNL A   1      34.183  23.040  25.215  1.00  0.00     0.054 A 
ATOM     17  C   UNL A   1      35.244  23.228  26.137  1.00  0.00     0.053 A 
ATOM     18  C   UNL A   1      34.582  22.968  23.873  1.00  0.00     0.124 A 
ATOM     19  C   UNL A   1      36.574  23.369  25.735  1.00  0.00     0.123 A 
ATOM     20  C   UNL A   1      35.921  23.093  23.468  1.00  0.00     0.050 A 
ATOM     21  F   UNL A   1      37.523  23.561  26.660  1.00  0.00    -0.207 F 
ATOM     22  C   UNL A   1      36.925  23.299  24.401  1.00  0.00     0.043 A 
BRANCH  18  23
ATOM     23  O   UNL A   1      33.731  22.752  22.839  1.00  0.00    -0.507 OA
ATOM     24  H   UNL A   1      32.809  22.875  22.957  1.00  0.00     0.293 HD
ENDBRANCH  18  23
ENDBRANCH  14  16
ENDBRANCH  11  14
ENDBRANCH  10  11
ENDBRANCH   6  10
ENDBRANCH   3   5
ENDBRANCH   2   3
ENDBRANCH   1   2
BRANCH   1  25
ATOM     25  C   UNL A   1      31.699  30.457  26.580  1.00  0.00     0.275 C 
BRANCH  25  26
ATOM     26  O   UNL A   1      33.134  30.408  26.655  1.00  0.00    -0.458 OA
BRANCH  26  27
ATOM     27  C   UNL A   1      33.722  31.398  27.358  1.00  0.00     0.338 C 
ATOM     28  O   UNL A   1      33.215  32.469  27.683  1.00  0.00    -0.246 OA
BRANCH  27  29
ATOM     29  C   UNL A   1      35.092  31.018  27.748  1.00  0.00     0.060 A 
ATOM     30  C   UNL A   1      35.416  29.681  27.960  1.00  0.00     0.016 A 
ATOM     31  C   UNL A   1      36.025  32.007  28.054  1.00  0.00     0.016 A 
ATOM     32  C   UNL A   1      36.587  29.347  28.642  1.00  0.00     0.010 A 
ATOM     33  C   UNL A   1      37.270  31.649  28.584  1.00  0.00     0.010 A 
ATOM     34  C   UNL A   1      37.552  30.318  28.947  1.00  0.00    -0.014 A 
BRANCH  34  35
ATOM     35  C   UNL A   1      38.826  29.970  29.659  1.00  0.00     0.031 A 
ATOM     36  C   UNL A   1      39.813  29.008  29.035  1.00  0.00     0.074 A 
ATOM     37  C   UNL A   1      39.114  30.481  30.876  1.00  0.00     0.049 A 
ATOM     38  N   UNL A   1      40.802  28.358  29.596  1.00  0.00    -0.248 NA
ATOM     39  C   UNL A   1      39.648  28.715  27.603  1.00  0.00     0.031 C 
ATOM     40  C   UNL A   1      38.288  31.431  31.620  1.00  0.00     0.029 A 
ATOM     41  N   UNL A   1      40.189  30.263  31.709  1.00  0.00    -0.354 N 
ATOM     42  C   UNL A   1      41.297  27.499  28.621  1.00  0.00     0.074 A 
ATOM     43  C   UNL A   1      40.519  27.731  27.423  1.00  0.00     0.031 C 
ATOM     44  C   UNL A   1      38.903  31.755  32.766  1.00  0.00     0.029 A 
ATOM     45  C   UNL A   1      40.109  30.947  32.901  1.00  0.00     0.049 A 
ATOM     46  H   UNL A   1      40.942  29.674  31.475  1.00  0.00     0.167 HD
ATOM     47  C   UNL A   1      42.308  26.601  28.711  1.00  0.00     0.034 A 
ATOM     48  C   UNL A   1      40.874  30.899  34.010  1.00  0.00     0.034 A 
ATOM     49  C   UNL A   1      43.167  26.457  29.856  1.00  0.00     0.049 A 
ATOM     50  C   UNL A   1      42.037  29.950  34.063  1.00  0.00     0.074 A 
ATOM     51  C   UNL A   1      44.233  25.591  30.031  1.00  0.00     0.029 A 
ATOM     52  N   UNL A   1      43.087  27.227  31.006  1.00  0.00    -0.354 N 
ATOM     53  N   UNL A   1      42.467  29.125  33.142  1.00  0.00    -0.248 NA
ATOM     54  C   UNL A   1      42.814  29.922  35.310  1.00  0.00     0.031 C 
ATOM     55  C   UNL A   1      44.809  25.850  31.281  1.00  0.00     0.029 A 
ATOM     56  C   UNL A   1      44.098  26.874  31.885  1.00  0.00     0.049 A 
ATOM     57  H   UNL A   1      42.411  27.922  31.173  1.00  0.00     0.167 HD
ATOM     58  C   UNL A   1      43.562  28.474  33.697  1.00  0.00     0.074 A 
ATOM     59  C   UNL A   1      43.756  29.034  35.019  1.00  0.00     0.031 C 
ATOM     60  C   UNL A   1      44.314  27.475  33.175  1.00  0.00     0.034 A 
BRANCH  47  61
ATOM     61  C   UNL A   1      42.568  25.716  27.518  1.00  0.00     0.023 A 
ATOM     62  C   UNL A   1      43.367  26.186  26.458  1.00  0.00     0.012 A 
ATOM     63  C   UNL A   1      42.065  24.401  27.474  1.00  0.00     0.148 A 
ATOM     64  C   UNL A   1      43.636  25.371  25.358  1.00  0.00     0.002 A 
ATOM     65  C   UNL A   1      42.369  23.581  26.391  1.00  0.00     0.091 A 
ATOM     66  F   UNL A   1      41.284  23.975  28.478  1.00  0.00    -0.205 F 
ATOM     67  C   UNL A   1      43.147  24.067  25.329  1.00  0.00     0.022 A 
BRANCH  65  68
ATOM     68  S   UNL A   1      41.836  21.865  26.321  1.00  0.00     0.127 S 
ATOM     69  O   UNL A   1      42.649  21.345  25.224  1.00  0.00    -0.237 OA
ATOM     70  O   UNL A   1      42.208  21.362  27.645  1.00  0.00    -0.237 OA
ATOM     71  O   UNL A   1      40.400  21.916  26.083  1.00  0.00    -0.744 OA
ENDBRANCH  65  68
ENDBRANCH  47  61
BRANCH  48  72
ATOM     72  C   UNL A   1      40.548  31.789  35.161  1.00  0.00     0.023 A 
ATOM     73  C   UNL A   1      41.245  33.002  35.317  1.00  0.00     0.012 A 
ATOM     74  C   UNL A   1      39.492  31.487  36.044  1.00  0.00     0.148 A 
ATOM     75  C   UNL A   1      40.896  33.897  36.330  1.00  0.00     0.002 A 
ATOM     76  C   UNL A   1      39.102  32.415  37.003  1.00  0.00     0.091 A 
ATOM     77  F   UNL A   1      38.859  30.313  35.905  1.00  0.00    -0.205 F 
ATOM     78  C   UNL A   1      39.813  33.613  37.158  1.00  0.00     0.022 A 
BRANCH  76  79
ATOM     79  S   UNL A   1      37.604  32.195  37.970  1.00  0.00     0.127 S 
ATOM     80  O   UNL A   1      36.622  32.929  37.176  1.00  0.00    -0.237 OA
ATOM     81  O   UNL A   1      37.440  30.741  37.962  1.00  0.00    -0.237 OA
ATOM     82  O   UNL A   1      37.913  32.748  39.283  1.00  0.00    -0.744 OA
ENDBRANCH  76  79
ENDBRANCH  48  72
BRANCH  60  83
ATOM     83  C   UNL A   1      45.418  26.919  34.031  1.00  0.00     0.023 A 
ATOM     84  C   UNL A   1      46.693  27.515  33.979  1.00  0.00     0.012 A 
ATOM     85  C   UNL A   1      45.183  25.859  34.927  1.00  0.00     0.148 A 
ATOM     86  C   UNL A   1      47.727  27.049  34.791  1.00  0.00     0.002 A 
ATOM     87  C   UNL A   1      46.210  25.421  35.756  1.00  0.00     0.091 A 
ATOM     88  F   UNL A   1      43.970  25.288  34.943  1.00  0.00    -0.205 F 
ATOM     89  C   UNL A   1      47.483  26.010  35.686  1.00  0.00     0.022 A 
BRANCH  87  90
ATOM     90  S   UNL A   1      45.957  24.135  36.986  1.00  0.00     0.127 S 
ATOM     91  O   UNL A   1      45.884  22.936  36.154  1.00  0.00    -0.237 OA
ATOM     92  O   UNL A   1      47.167  24.236  37.805  1.00  0.00    -0.237 OA
ATOM     93  O   UNL A   1      44.731  24.497  37.685  1.00  0.00    -0.744 OA
ENDBRANCH  87  90
ENDBRANCH  60  83
ENDBRANCH  34  35
ENDBRANCH  27  29
ENDBRANCH  26  27
ENDBRANCH  25  26
ENDBRANCH   1  25
TORSDOF 19
ENDMDL
