MODEL 1
REMARK VINA RESULT:     -11.4      0.000      0.000
REMARK SMILES O=C(Cc1ccccc1Nc1c(Cl)cccc1Cl)OCCOC(=O)c1ccc(-c2c3nc(c(-c4cccc(S(=O)(=O)[O-])c4F)c4ccc([nH]4)c(-c4cccc(S(=O)(=O)[O-])c4F)c4nc(c(-c5cccc(S(=O)(=O)[O-])c5F)c5ccc2[nH]5)C=C4)C=C3)cc1
REMARK SMILES IDX 20 1 19 2 2 3 1 4 3 5 4 6 5 7 9 8 6 9 8 10 7 11 10 12 11 14
REMARK SMILES IDX 12 15 17 16 13 17 14 18 16 19 18 20 15 21 21 22 22 23 23 24
REMARK SMILES IDX 24 25 25 26 26 27 87 28 27 29 86 30 28 31 29 32 30 33 80 34
REMARK SMILES IDX 31 35 85 36 79 37 81 38 32 39 84 40 78 41 77 42 33 44 65 45
REMARK SMILES IDX 45 46 64 47 46 48 49 49 63 50 82 51 47 52 48 53 62 55 83 56
REMARK SMILES IDX 50 57 34 58 35 59 43 60 36 61 38 62 44 63 37 64 39 65 40 66
REMARK SMILES IDX 41 67 42 68 66 69 67 70 75 71 68 72 70 73 76 74 69 75 71 76
REMARK SMILES IDX 72 77 73 78 74 79 51 80 52 81 60 82 53 83 55 84 61 85 54 86
REMARK SMILES IDX 56 87 57 88 58 89 59 90
REMARK H PARENT 10 13 81 43 49 54
REMARK Flexibility Score: inf
ROOT
ATOM      1  C   UNL A   1      37.569  20.263  24.936  1.00  0.00     0.274 C 
ENDROOT
BRANCH   1   2
ATOM      2  O   UNL A   1      37.778  21.624  24.498  1.00  0.00    -0.462 OA
BRANCH   2   3
ATOM      3  C   UNL A   1      36.799  22.539  24.292  1.00  0.00     0.310 C 
ATOM      4  O   UNL A   1      36.220  22.581  23.207  1.00  0.00    -0.252 OA
BRANCH   3   5
ATOM      5  C   UNL A   1      36.429  23.478  25.409  1.00  0.00     0.160 C 
BRANCH   5   6
ATOM      6  C   UNL A   1      35.040  23.360  25.998  1.00  0.00    -0.013 A 
ATOM      7  C   UNL A   1      34.728  22.367  26.944  1.00  0.00     0.006 A 
ATOM      8  C   UNL A   1      34.025  24.249  25.568  1.00  0.00     0.042 A 
ATOM      9  C   UNL A   1      33.445  22.268  27.480  1.00  0.00     0.000 A 
ATOM     10  C   UNL A   1      32.746  24.140  26.135  1.00  0.00     0.026 A 
ATOM     11  C   UNL A   1      32.454  23.153  27.075  1.00  0.00     0.002 A 
BRANCH   8  12
ATOM     12  N   UNL A   1      34.314  25.282  24.650  1.00  0.00    -0.353 N 
ATOM     13  H   UNL A   1      35.265  25.518  24.542  1.00  0.00     0.167 HD
BRANCH  12  14
ATOM     14  C   UNL A   1      33.389  26.017  23.868  1.00  0.00     0.076 A 
ATOM     15  C   UNL A   1      32.977  27.303  24.266  1.00  0.00     0.066 A 
ATOM     16  C   UNL A   1      32.781  25.445  22.734  1.00  0.00     0.066 A 
ATOM     17  Cl  UNL A   1      33.716  28.095  25.620  1.00  0.00    -0.082 Cl
ATOM     18  C   UNL A   1      31.974  27.976  23.573  1.00  0.00     0.023 A 
ATOM     19  C   UNL A   1      31.785  26.128  22.031  1.00  0.00     0.023 A 
ATOM     20  Cl  UNL A   1      33.254  23.882  22.158  1.00  0.00    -0.082 Cl
ATOM     21  C   UNL A   1      31.370  27.383  22.465  1.00  0.00     0.003 A 
ENDBRANCH  12  14
ENDBRANCH   8  12
ENDBRANCH   5   6
ENDBRANCH   3   5
ENDBRANCH   2   3
ENDBRANCH   1   2
BRANCH   1  22
ATOM     22  C   UNL A   1      38.850  19.662  25.518  1.00  0.00     0.275 C 
BRANCH  22  23
ATOM     23  O   UNL A   1      39.849  20.680  25.704  1.00  0.00    -0.458 OA
BRANCH  23  24
ATOM     24  C   UNL A   1      40.427  20.733  26.929  1.00  0.00     0.338 C 
ATOM     25  O   UNL A   1      40.818  19.781  27.585  1.00  0.00    -0.246 OA
BRANCH  24  26
ATOM     26  C   UNL A   1      40.693  22.145  27.293  1.00  0.00     0.060 A 
ATOM     27  C   UNL A   1      40.094  23.149  26.519  1.00  0.00     0.016 A 
ATOM     28  C   UNL A   1      41.500  22.493  28.380  1.00  0.00     0.016 A 
ATOM     29  C   UNL A   1      40.336  24.497  26.802  1.00  0.00     0.010 A 
ATOM     30  C   UNL A   1      41.737  23.842  28.664  1.00  0.00     0.010 A 
ATOM     31  C   UNL A   1      41.184  24.854  27.858  1.00  0.00    -0.014 A 
BRANCH  31  32
ATOM     32  C   UNL A   1      41.598  26.266  28.061  1.00  0.00     0.031 A 
ATOM     33  C   UNL A   1      43.013  26.669  27.751  1.00  0.00     0.074 A 
ATOM     34  C   UNL A   1      40.743  27.187  28.543  1.00  0.00     0.049 A 
ATOM     35  N   UNL A   1      43.585  27.836  27.891  1.00  0.00    -0.248 NA
ATOM     36  C   UNL A   1      43.891  25.630  27.191  1.00  0.00     0.031 C 
ATOM     37  C   UNL A   1      39.330  26.962  28.829  1.00  0.00     0.029 A 
ATOM     38  N   UNL A   1      40.953  28.494  28.915  1.00  0.00    -0.354 N 
ATOM     39  C   UNL A   1      44.880  27.682  27.417  1.00  0.00     0.074 A 
ATOM     40  C   UNL A   1      45.028  26.294  27.035  1.00  0.00     0.031 C 
ATOM     41  C   UNL A   1      38.819  28.062  29.406  1.00  0.00     0.029 A 
ATOM     42  C   UNL A   1      39.871  29.062  29.544  1.00  0.00     0.049 A 
ATOM     43  H   UNL A   1      41.795  28.975  28.747  1.00  0.00     0.167 HD
ATOM     44  C   UNL A   1      45.845  28.619  27.271  1.00  0.00     0.034 A 
ATOM     45  C   UNL A   1      39.743  30.243  30.181  1.00  0.00     0.034 A 
ATOM     46  C   UNL A   1      45.703  29.999  27.651  1.00  0.00     0.049 A 
ATOM     47  C   UNL A   1      40.878  31.224  30.144  1.00  0.00     0.074 A 
ATOM     48  C   UNL A   1      46.605  31.035  27.482  1.00  0.00     0.029 A 
ATOM     49  N   UNL A   1      44.602  30.531  28.301  1.00  0.00    -0.354 N 
ATOM     50  N   UNL A   1      42.049  31.102  29.574  1.00  0.00    -0.248 NA
ATOM     51  C   UNL A   1      40.645  32.533  30.773  1.00  0.00     0.031 C 
ATOM     52  C   UNL A   1      46.062  32.187  28.062  1.00  0.00     0.029 A 
ATOM     53  C   UNL A   1      44.810  31.876  28.563  1.00  0.00     0.049 A 
ATOM     54  H   UNL A   1      43.789  30.028  28.542  1.00  0.00     0.167 HD
ATOM     55  C   UNL A   1      42.665  32.340  29.706  1.00  0.00     0.074 A 
ATOM     56  C   UNL A   1      41.745  33.191  30.433  1.00  0.00     0.031 C 
ATOM     57  C   UNL A   1      43.877  32.736  29.246  1.00  0.00     0.034 A 
BRANCH  44  58
ATOM     58  C   UNL A   1      47.133  28.188  26.626  1.00  0.00     0.023 A 
ATOM     59  C   UNL A   1      48.225  27.820  27.441  1.00  0.00     0.012 A 
ATOM     60  C   UNL A   1      47.249  28.095  25.228  1.00  0.00     0.148 A 
ATOM     61  C   UNL A   1      49.423  27.394  26.871  1.00  0.00     0.002 A 
ATOM     62  C   UNL A   1      48.433  27.634  24.667  1.00  0.00     0.091 A 
ATOM     63  F   UNL A   1      46.206  28.472  24.474  1.00  0.00    -0.205 F 
ATOM     64  C   UNL A   1      49.524  27.292  25.486  1.00  0.00     0.022 A 
BRANCH  62  65
ATOM     65  S   UNL A   1      48.641  27.404  22.898  1.00  0.00     0.127 S 
ATOM     66  O   UNL A   1      47.532  28.195  22.368  1.00  0.00    -0.237 OA
ATOM     67  O   UNL A   1      49.967  27.980  22.668  1.00  0.00    -0.237 OA
ATOM     68  O   UNL A   1      48.552  25.970  22.667  1.00  0.00    -0.744 OA
ENDBRANCH  62  65
ENDBRANCH  44  58
BRANCH  45  69
ATOM     69  C   UNL A   1      38.476  30.587  30.881  1.00  0.00     0.023 A 
ATOM     70  C   UNL A   1      38.255  30.128  32.192  1.00  0.00     0.012 A 
ATOM     71  C   UNL A   1      37.485  31.355  30.241  1.00  0.00     0.148 A 
ATOM     72  C   UNL A   1      37.057  30.414  32.849  1.00  0.00     0.002 A 
ATOM     73  C   UNL A   1      36.309  31.666  30.914  1.00  0.00     0.091 A 
ATOM     74  F   UNL A   1      37.718  31.771  28.989  1.00  0.00    -0.205 F 
ATOM     75  C   UNL A   1      36.088  31.186  32.214  1.00  0.00     0.022 A 
BRANCH  73  76
ATOM     76  S   UNL A   1      35.033  32.719  30.212  1.00  0.00     0.127 S 
ATOM     77  O   UNL A   1      34.512  31.887  29.131  1.00  0.00    -0.237 OA
ATOM     78  O   UNL A   1      34.136  32.892  31.353  1.00  0.00    -0.237 OA
ATOM     79  O   UNL A   1      35.715  33.934  29.786  1.00  0.00    -0.744 OA
ENDBRANCH  73  76
ENDBRANCH  45  69
BRANCH  57  80
ATOM     80  C   UNL A   1      44.266  34.175  29.450  1.00  0.00     0.023 A 
ATOM     81  C   UNL A   1      44.845  34.588  30.666  1.00  0.00     0.012 A 
ATOM     82  C   UNL A   1      44.111  35.107  28.404  1.00  0.00     0.148 A 
ATOM     83  C   UNL A   1      45.236  35.914  30.846  1.00  0.00     0.002 A 
ATOM     84  C   UNL A   1      44.549  36.413  28.574  1.00  0.00     0.091 A 
ATOM     85  F   UNL A   1      43.535  34.699  27.264  1.00  0.00    -0.205 F 
ATOM     86  C   UNL A   1      45.101  36.822  29.799  1.00  0.00     0.022 A 
BRANCH  84  87
ATOM     87  S   UNL A   1      44.503  37.624  27.248  1.00  0.00     0.127 S 
ATOM     88  O   UNL A   1      44.774  38.867  27.969  1.00  0.00    -0.237 OA
ATOM     89  O   UNL A   1      45.591  37.174  26.379  1.00  0.00    -0.237 OA
ATOM     90  O   UNL A   1      43.177  37.521  26.655  1.00  0.00    -0.744 OA
ENDBRANCH  84  87
ENDBRANCH  57  80
ENDBRANCH  31  32
ENDBRANCH  24  26
ENDBRANCH  23  24
ENDBRANCH  22  23
ENDBRANCH   1  22
TORSDOF 17
ENDMDL
MODEL 2
REMARK VINA RESULT:     -11.3      5.137     10.443
REMARK SMILES O=C(Cc1ccccc1Nc1c(Cl)cccc1Cl)OCCOC(=O)c1ccc(-c2c3nc(c(-c4cccc(S(=O)(=O)[O-])c4F)c4ccc([nH]4)c(-c4cccc(S(=O)(=O)[O-])c4F)c4nc(c(-c5cccc(S(=O)(=O)[O-])c5F)c5ccc2[nH]5)C=C4)C=C3)cc1
REMARK SMILES IDX 20 1 19 2 2 3 1 4 3 5 4 6 5 7 9 8 6 9 8 10 7 11 10 12 11 14
REMARK SMILES IDX 12 15 17 16 13 17 14 18 16 19 18 20 15 21 21 22 22 23 23 24
REMARK SMILES IDX 24 25 25 26 26 27 87 28 27 29 86 30 28 31 29 32 30 33 80 34
REMARK SMILES IDX 31 35 85 36 79 37 81 38 32 39 84 40 78 41 77 42 33 44 65 45
REMARK SMILES IDX 45 46 64 47 46 48 49 49 63 50 82 51 47 52 48 53 62 55 83 56
REMARK SMILES IDX 50 57 34 58 35 59 43 60 36 61 38 62 44 63 37 64 39 65 40 66
REMARK SMILES IDX 41 67 42 68 66 69 67 70 75 71 68 72 70 73 76 74 69 75 71 76
REMARK SMILES IDX 72 77 73 78 74 79 51 80 52 81 60 82 53 83 55 84 61 85 54 86
REMARK SMILES IDX 56 87 57 88 58 89 59 90
REMARK H PARENT 10 13 81 43 49 54
REMARK Flexibility Score: inf
ROOT
ATOM      1  C   UNL A   1      31.572  29.484  25.939  1.00  0.00     0.274 C 
ENDROOT
BRANCH   1   2
ATOM      2  O   UNL A   1      31.692  28.405  26.893  1.00  0.00    -0.462 OA
BRANCH   2   3
ATOM      3  C   UNL A   1      32.130  27.155  26.609  1.00  0.00     0.310 C 
ATOM      4  O   UNL A   1      31.453  26.181  26.936  1.00  0.00    -0.252 OA
BRANCH   3   5
ATOM      5  C   UNL A   1      33.437  26.985  25.879  1.00  0.00     0.160 C 
BRANCH   5   6
ATOM      6  C   UNL A   1      33.388  26.472  24.457  1.00  0.00    -0.013 A 
ATOM      7  C   UNL A   1      33.339  27.354  23.363  1.00  0.00     0.006 A 
ATOM      8  C   UNL A   1      33.362  25.077  24.222  1.00  0.00     0.042 A 
ATOM      9  C   UNL A   1      33.295  26.871  22.056  1.00  0.00     0.000 A 
ATOM     10  C   UNL A   1      33.335  24.614  22.897  1.00  0.00     0.026 A 
ATOM     11  C   UNL A   1      33.292  25.502  21.823  1.00  0.00     0.002 A 
BRANCH   8  12
ATOM     12  N   UNL A   1      33.450  24.164  25.295  1.00  0.00    -0.353 N 
ATOM     13  H   UNL A   1      33.483  24.554  26.200  1.00  0.00     0.167 HD
BRANCH  12  14
ATOM     14  C   UNL A   1      33.496  22.749  25.217  1.00  0.00     0.076 A 
ATOM     15  C   UNL A   1      34.718  22.084  25.002  1.00  0.00     0.066 A 
ATOM     16  C   UNL A   1      32.315  21.982  25.246  1.00  0.00     0.066 A 
ATOM     17  Cl  UNL A   1      36.218  22.953  25.004  1.00  0.00    -0.082 Cl
ATOM     18  C   UNL A   1      34.751  20.707  24.794  1.00  0.00     0.023 A 
ATOM     19  C   UNL A   1      32.353  20.598  25.052  1.00  0.00     0.023 A 
ATOM     20  Cl  UNL A   1      30.776  22.718  25.538  1.00  0.00    -0.082 Cl
ATOM     21  C   UNL A   1      33.569  19.968  24.807  1.00  0.00     0.003 A 
ENDBRANCH  12  14
ENDBRANCH   8  12
ENDBRANCH   5   6
ENDBRANCH   3   5
ENDBRANCH   2   3
ENDBRANCH   1   2
BRANCH   1  22
ATOM     22  C   UNL A   1      31.837  30.841  26.593  1.00  0.00     0.275 C 
BRANCH  22  23
ATOM     23  O   UNL A   1      33.227  31.195  26.480  1.00  0.00    -0.458 OA
BRANCH  23  24
ATOM     24  C   UNL A   1      33.714  32.018  27.440  1.00  0.00     0.338 C 
ATOM     25  O   UNL A   1      33.145  32.986  27.918  1.00  0.00    -0.246 OA
BRANCH  24  26
ATOM     26  C   UNL A   1      34.982  31.466  27.973  1.00  0.00     0.060 A 
ATOM     27  C   UNL A   1      35.039  30.093  28.247  1.00  0.00     0.016 A 
ATOM     28  C   UNL A   1      36.108  32.267  28.189  1.00  0.00     0.016 A 
ATOM     29  C   UNL A   1      36.203  29.526  28.778  1.00  0.00     0.010 A 
ATOM     30  C   UNL A   1      37.272  31.697  28.718  1.00  0.00     0.010 A 
ATOM     31  C   UNL A   1      37.318  30.331  29.046  1.00  0.00    -0.014 A 
BRANCH  31  32
ATOM     32  C   UNL A   1      38.493  29.788  29.776  1.00  0.00     0.031 A 
ATOM     33  C   UNL A   1      38.881  30.393  31.097  1.00  0.00     0.074 A 
ATOM     34  C   UNL A   1      39.234  28.786  29.269  1.00  0.00     0.049 A 
ATOM     35  N   UNL A   1      39.887  30.092  31.875  1.00  0.00    -0.248 NA
ATOM     36  C   UNL A   1      38.011  31.458  31.620  1.00  0.00     0.031 C 
ATOM     37  C   UNL A   1      38.946  28.061  28.037  1.00  0.00     0.029 A 
ATOM     38  N   UNL A   1      40.410  28.230  29.714  1.00  0.00    -0.354 N 
ATOM     39  C   UNL A   1      39.763  30.912  32.988  1.00  0.00     0.074 A 
ATOM     40  C   UNL A   1      38.613  31.761  32.761  1.00  0.00     0.031 C 
ATOM     41  C   UNL A   1      39.957  27.214  27.780  1.00  0.00     0.029 A 
ATOM     42  C   UNL A   1      40.969  27.348  28.820  1.00  0.00     0.049 A 
ATOM     43  H   UNL A   1      40.812  28.442  30.588  1.00  0.00     0.167 HD
ATOM     44  C   UNL A   1      40.511  30.926  34.116  1.00  0.00     0.034 A 
ATOM     45  C   UNL A   1      42.169  26.735  28.823  1.00  0.00     0.034 A 
ATOM     46  C   UNL A   1      41.655  30.085  34.345  1.00  0.00     0.049 A 
ATOM     47  C   UNL A   1      43.064  26.875  30.019  1.00  0.00     0.074 A 
ATOM     48  C   UNL A   1      42.435  29.985  35.483  1.00  0.00     0.029 A 
ATOM     49  N   UNL A   1      42.200  29.220  33.410  1.00  0.00    -0.354 N 
ATOM     50  N   UNL A   1      42.862  27.556  31.119  1.00  0.00    -0.248 NA
ATOM     51  C   UNL A   1      44.317  26.106  30.005  1.00  0.00     0.031 C 
ATOM     52  C   UNL A   1      43.474  29.085  35.224  1.00  0.00     0.029 A 
ATOM     53  C   UNL A   1      43.322  28.600  33.935  1.00  0.00     0.049 A 
ATOM     54  H   UNL A   1      41.843  29.068  32.504  1.00  0.00     0.167 HD
ATOM     55  C   UNL A   1      43.921  27.238  31.960  1.00  0.00     0.074 A 
ATOM     56  C   UNL A   1      44.775  26.322  31.232  1.00  0.00     0.031 C 
ATOM     57  C   UNL A   1      44.148  27.655  33.229  1.00  0.00     0.034 A 
BRANCH  44  58
ATOM     58  C   UNL A   1      40.080  31.856  35.216  1.00  0.00     0.023 A 
ATOM     59  C   UNL A   1      40.577  33.176  35.240  1.00  0.00     0.012 A 
ATOM     60  C   UNL A   1      39.151  31.448  36.190  1.00  0.00     0.148 A 
ATOM     61  C   UNL A   1      40.178  34.067  36.234  1.00  0.00     0.002 A 
ATOM     62  C   UNL A   1      38.728  32.352  37.155  1.00  0.00     0.091 A 
ATOM     63  F   UNL A   1      38.710  30.182  36.161  1.00  0.00    -0.205 F 
ATOM     64  C   UNL A   1      39.247  33.658  37.185  1.00  0.00     0.022 A 
BRANCH  62  65
ATOM     65  S   UNL A   1      37.483  31.944  38.384  1.00  0.00     0.127 S 
ATOM     66  O   UNL A   1      38.219  32.159  39.629  1.00  0.00    -0.237 OA
ATOM     67  O   UNL A   1      36.444  32.937  38.111  1.00  0.00    -0.237 OA
ATOM     68  O   UNL A   1      37.094  30.567  38.119  1.00  0.00    -0.744 OA
ENDBRANCH  62  65
ENDBRANCH  44  58
BRANCH  45  69
ATOM     69  C   UNL A   1      42.586  25.894  27.668  1.00  0.00     0.023 A 
ATOM     70  C   UNL A   1      43.418  26.437  26.672  1.00  0.00     0.012 A 
ATOM     71  C   UNL A   1      42.146  24.562  27.550  1.00  0.00     0.148 A 
ATOM     72  C   UNL A   1      43.790  25.671  25.566  1.00  0.00     0.002 A 
ATOM     73  C   UNL A   1      42.548  23.794  26.464  1.00  0.00     0.091 A 
ATOM     74  F   UNL A   1      41.346  24.073  28.508  1.00  0.00    -0.205 F 
ATOM     75  C   UNL A   1      43.361  24.350  25.464  1.00  0.00     0.022 A 
BRANCH  73  76
ATOM     76  S   UNL A   1      42.113  22.060  26.281  1.00  0.00     0.127 S 
ATOM     77  O   UNL A   1      40.672  22.129  26.059  1.00  0.00    -0.237 OA
ATOM     78  O   UNL A   1      42.907  21.681  25.113  1.00  0.00    -0.237 OA
ATOM     79  O   UNL A   1      42.519  21.418  27.525  1.00  0.00    -0.744 OA
ENDBRANCH  73  76
ENDBRANCH  45  69
BRANCH  57  80
ATOM     80  C   UNL A   1      45.335  27.078  33.952  1.00  0.00     0.023 A 
ATOM     81  C   UNL A   1      46.590  27.711  33.872  1.00  0.00     0.012 A 
ATOM     82  C   UNL A   1      45.184  25.936  34.765  1.00  0.00     0.148 A 
ATOM     83  C   UNL A   1      47.685  27.198  34.568  1.00  0.00     0.002 A 
ATOM     84  C   UNL A   1      46.266  25.460  35.493  1.00  0.00     0.091 A 
ATOM     85  F   UNL A   1      43.987  25.334  34.807  1.00  0.00    -0.205 F 
ATOM     86  C   UNL A   1      47.521  26.082  35.386  1.00  0.00     0.022 A 
BRANCH  84  87
ATOM     87  S   UNL A   1      46.124  24.090  36.646  1.00  0.00     0.127 S 
ATOM     88  O   UNL A   1      45.208  24.636  37.646  1.00  0.00    -0.237 OA
ATOM     89  O   UNL A   1      45.551  23.037  35.806  1.00  0.00    -0.237 OA
ATOM     90  O   UNL A   1      47.475  23.819  37.116  1.00  0.00    -0.744 OA
ENDBRANCH  84  87
ENDBRANCH  57  80
ENDBRANCH  31  32
ENDBRANCH  24  26
ENDBRANCH  23  24
ENDBRANCH  22  23
ENDBRANCH   1  22
TORSDOF 17
ENDMDL
MODEL 3
REMARK VINA RESULT:     -11.2      1.063      7.683
REMARK SMILES O=C(Cc1ccccc1Nc1c(Cl)cccc1Cl)OCCOC(=O)c1ccc(-c2c3nc(c(-c4cccc(S(=O)(=O)[O-])c4F)c4ccc([nH]4)c(-c4cccc(S(=O)(=O)[O-])c4F)c4nc(c(-c5cccc(S(=O)(=O)[O-])c5F)c5ccc2[nH]5)C=C4)C=C3)cc1
REMARK SMILES IDX 20 1 19 2 2 3 1 4 3 5 4 6 5 7 9 8 6 9 8 10 7 11 10 12 11 14
REMARK SMILES IDX 12 15 17 16 13 17 14 18 16 19 18 20 15 21 21 22 22 23 23 24
REMARK SMILES IDX 24 25 25 26 26 27 87 28 27 29 86 30 28 31 29 32 30 33 80 34
REMARK SMILES IDX 31 35 85 36 79 37 81 38 32 39 84 40 78 41 77 42 33 44 65 45
REMARK SMILES IDX 45 46 64 47 46 48 49 49 63 50 82 51 47 52 48 53 62 55 83 56
REMARK SMILES IDX 50 57 34 58 35 59 43 60 36 61 38 62 44 63 37 64 39 65 40 66
REMARK SMILES IDX 41 67 42 68 66 69 67 70 75 71 68 72 70 73 76 74 69 75 71 76
REMARK SMILES IDX 72 77 73 78 74 79 51 80 52 81 60 82 53 83 55 84 61 85 54 86
REMARK SMILES IDX 56 87 57 88 58 89 59 90
REMARK H PARENT 10 13 81 43 49 54
REMARK Flexibility Score: inf
ROOT
ATOM      1  C   UNL A   1      36.254  20.135  24.743  1.00  0.00     0.274 C 
ENDROOT
BRANCH   1   2
ATOM      2  O   UNL A   1      35.750  21.152  25.638  1.00  0.00    -0.462 OA
BRANCH   2   3
ATOM      3  C   UNL A   1      34.715  21.984  25.373  1.00  0.00     0.310 C 
ATOM      4  O   UNL A   1      34.093  21.871  24.317  1.00  0.00    -0.252 OA
BRANCH   3   5
ATOM      5  C   UNL A   1      34.334  23.026  26.392  1.00  0.00     0.160 C 
BRANCH   5   6
ATOM      6  C   UNL A   1      32.897  23.499  26.413  1.00  0.00    -0.013 A 
ATOM      7  C   UNL A   1      31.841  22.620  26.712  1.00  0.00     0.006 A 
ATOM      8  C   UNL A   1      32.605  24.848  26.097  1.00  0.00     0.042 A 
ATOM      9  C   UNL A   1      30.521  23.068  26.728  1.00  0.00     0.000 A 
ATOM     10  C   UNL A   1      31.270  25.279  26.138  1.00  0.00     0.026 A 
ATOM     11  C   UNL A   1      30.235  24.396  26.440  1.00  0.00     0.002 A 
BRANCH   8  12
ATOM     12  N   UNL A   1      33.645  25.767  25.832  1.00  0.00    -0.353 N 
ATOM     13  H   UNL A   1      34.481  25.638  26.336  1.00  0.00     0.167 HD
BRANCH  12  14
ATOM     14  C   UNL A   1      33.619  26.852  24.921  1.00  0.00     0.076 A 
ATOM     15  C   UNL A   1      33.435  28.169  25.381  1.00  0.00     0.066 A 
ATOM     16  C   UNL A   1      33.670  26.634  23.530  1.00  0.00     0.066 A 
ATOM     17  Cl  UNL A   1      33.412  28.524  27.078  1.00  0.00    -0.082 Cl
ATOM     18  C   UNL A   1      33.278  29.222  24.483  1.00  0.00     0.023 A 
ATOM     19  C   UNL A   1      33.527  27.694  22.631  1.00  0.00     0.023 A 
ATOM     20  Cl  UNL A   1      33.927  25.048  22.882  1.00  0.00    -0.082 Cl
ATOM     21  C   UNL A   1      33.311  28.982  23.110  1.00  0.00     0.003 A 
ENDBRANCH  12  14
ENDBRANCH   8  12
ENDBRANCH   5   6
ENDBRANCH   3   5
ENDBRANCH   2   3
ENDBRANCH   1   2
BRANCH   1  22
ATOM     22  C   UNL A   1      37.682  19.727  25.109  1.00  0.00     0.275 C 
BRANCH  22  23
ATOM     23  O   UNL A   1      38.474  20.886  25.427  1.00  0.00    -0.458 OA
BRANCH  23  24
ATOM     24  C   UNL A   1      39.565  20.668  26.203  1.00  0.00     0.338 C 
ATOM     25  O   UNL A   1      40.141  19.603  26.358  1.00  0.00    -0.246 OA
BRANCH  24  26
ATOM     26  C   UNL A   1      40.084  21.963  26.706  1.00  0.00     0.060 A 
ATOM     27  C   UNL A   1      39.524  23.141  26.192  1.00  0.00     0.016 A 
ATOM     28  C   UNL A   1      41.089  22.034  27.674  1.00  0.00     0.016 A 
ATOM     29  C   UNL A   1      39.998  24.388  26.611  1.00  0.00     0.010 A 
ATOM     30  C   UNL A   1      41.559  23.283  28.095  1.00  0.00     0.010 A 
ATOM     31  C   UNL A   1      41.041  24.469  27.543  1.00  0.00    -0.014 A 
BRANCH  31  32
ATOM     32  C   UNL A   1      41.680  25.771  27.863  1.00  0.00     0.031 A 
ATOM     33  C   UNL A   1      40.857  26.856  28.501  1.00  0.00     0.074 A 
ATOM     34  C   UNL A   1      42.971  26.012  27.570  1.00  0.00     0.049 A 
ATOM     35  N   UNL A   1      41.210  28.071  28.828  1.00  0.00    -0.248 NA
ATOM     36  C   UNL A   1      39.463  26.523  28.834  1.00  0.00     0.031 C 
ATOM     37  C   UNL A   1      43.906  25.041  27.012  1.00  0.00     0.029 A 
ATOM     38  N   UNL A   1      43.709  27.167  27.667  1.00  0.00    -0.354 N 
ATOM     39  C   UNL A   1      40.095  28.643  29.424  1.00  0.00     0.074 A 
ATOM     40  C   UNL A   1      39.034  27.659  29.366  1.00  0.00     0.031 C 
ATOM     41  C   UNL A   1      45.068  25.660  26.740  1.00  0.00     0.029 A 
ATOM     42  C   UNL A   1      44.953  27.070  27.090  1.00  0.00     0.049 A 
ATOM     43  H   UNL A   1      43.380  27.984  28.108  1.00  0.00     0.167 HD
ATOM     44  C   UNL A   1      39.976  29.858  30.007  1.00  0.00     0.034 A 
ATOM     45  C   UNL A   1      45.886  28.010  26.847  1.00  0.00     0.034 A 
ATOM     46  C   UNL A   1      41.026  30.839  30.065  1.00  0.00     0.049 A 
ATOM     47  C   UNL A   1      45.680  29.403  27.368  1.00  0.00     0.074 A 
ATOM     48  C   UNL A   1      41.016  32.073  30.690  1.00  0.00     0.029 A 
ATOM     49  N   UNL A   1      42.262  30.711  29.453  1.00  0.00    -0.354 N 
ATOM     50  N   UNL A   1      44.668  29.883  28.045  1.00  0.00    -0.248 NA
ATOM     51  C   UNL A   1      46.776  30.361  27.156  1.00  0.00     0.031 C 
ATOM     52  C   UNL A   1      42.236  32.707  30.427  1.00  0.00     0.029 A 
ATOM     53  C   UNL A   1      43.016  31.854  29.665  1.00  0.00     0.049 A 
ATOM     54  H   UNL A   1      42.562  29.924  28.943  1.00  0.00     0.167 HD
ATOM     55  C   UNL A   1      45.035  31.173  28.408  1.00  0.00     0.074 A 
ATOM     56  C   UNL A   1      46.353  31.406  27.854  1.00  0.00     0.031 C 
ATOM     57  C   UNL A   1      44.344  32.071  29.152  1.00  0.00     0.034 A 
BRANCH  44  58
ATOM     58  C   UNL A   1      38.666  30.177  30.674  1.00  0.00     0.023 A 
ATOM     59  C   UNL A   1      38.426  29.709  31.984  1.00  0.00     0.012 A 
ATOM     60  C   UNL A   1      37.701  30.976  30.035  1.00  0.00     0.148 A 
ATOM     61  C   UNL A   1      37.232  30.008  32.635  1.00  0.00     0.002 A 
ATOM     62  C   UNL A   1      36.529  31.302  30.706  1.00  0.00     0.091 A 
ATOM     63  F   UNL A   1      37.942  31.389  28.783  1.00  0.00    -0.205 F 
ATOM     64  C   UNL A   1      36.288  30.812  32.001  1.00  0.00     0.022 A 
BRANCH  62  65
ATOM     65  S   UNL A   1      35.281  32.384  30.001  1.00  0.00     0.127 S 
ATOM     66  O   UNL A   1      36.080  33.550  29.627  1.00  0.00    -0.237 OA
ATOM     67  O   UNL A   1      34.791  31.592  28.872  1.00  0.00    -0.237 OA
ATOM     68  O   UNL A   1      34.303  32.609  31.055  1.00  0.00    -0.744 OA
ENDBRANCH  62  65
ENDBRANCH  44  58
BRANCH  45  69
ATOM     69  C   UNL A   1      47.128  27.665  26.103  1.00  0.00     0.023 A 
ATOM     70  C   UNL A   1      48.260  27.212  26.804  1.00  0.00     0.012 A 
ATOM     71  C   UNL A   1      47.190  27.800  24.703  1.00  0.00     0.148 A 
ATOM     72  C   UNL A   1      49.442  26.917  26.124  1.00  0.00     0.002 A 
ATOM     73  C   UNL A   1      48.360  27.471  24.027  1.00  0.00     0.091 A 
ATOM     74  F   UNL A   1      46.100  28.243  24.061  1.00  0.00    -0.205 F 
ATOM     75  C   UNL A   1      49.491  27.040  24.738  1.00  0.00     0.022 A 
BRANCH  73  76
ATOM     76  S   UNL A   1      48.499  27.521  22.237  1.00  0.00     0.127 S 
ATOM     77  O   UNL A   1      49.734  28.277  22.048  1.00  0.00    -0.237 OA
ATOM     78  O   UNL A   1      48.584  26.098  21.911  1.00  0.00    -0.237 OA
ATOM     79  O   UNL A   1      47.289  28.181  21.765  1.00  0.00    -0.744 OA
ENDBRANCH  73  76
ENDBRANCH  45  69
BRANCH  57  80
ATOM     80  C   UNL A   1      45.020  33.376  29.477  1.00  0.00     0.023 A 
ATOM     81  C   UNL A   1      45.803  33.499  30.641  1.00  0.00     0.012 A 
ATOM     82  C   UNL A   1      44.926  34.464  28.587  1.00  0.00     0.148 A 
ATOM     83  C   UNL A   1      46.458  34.696  30.928  1.00  0.00     0.002 A 
ATOM     84  C   UNL A   1      45.621  35.636  28.854  1.00  0.00     0.091 A 
ATOM     85  F   UNL A   1      44.155  34.335  27.497  1.00  0.00    -0.205 F 
ATOM     86  C   UNL A   1      46.378  35.759  30.031  1.00  0.00     0.022 A 
BRANCH  84  87
ATOM     87  S   UNL A   1      45.653  37.019  27.708  1.00  0.00     0.127 S 
ATOM     88  O   UNL A   1      46.188  36.393  26.500  1.00  0.00    -0.237 OA
ATOM     89  O   UNL A   1      44.239  37.388  27.629  1.00  0.00    -0.237 OA
ATOM     90  O   UNL A   1      46.507  38.028  28.320  1.00  0.00    -0.744 OA
ENDBRANCH  84  87
ENDBRANCH  57  80
ENDBRANCH  31  32
ENDBRANCH  24  26
ENDBRANCH  23  24
ENDBRANCH  22  23
ENDBRANCH   1  22
TORSDOF 17
ENDMDL
