MODEL 1
REMARK VINA RESULT:     -12.4      0.000      0.000
REMARK SMILES Cc1ccc(/[NH+]=C2/S[C@@H](CC(=O)Nc3ccc(C(=O)OCCOC(=O)c4ccc(-c5c6nc(c(-c7cccc(S(=O)(=O)[O-])c7F)c7ccc([nH]7)c(-c7cccc(S(=O)(=O)[O-])c7F)c7nc(c(-c8cccc(S(=O)(=O)[O-])c8F)c8ccc5[nH]8)C=C7)C=C6)cc4)cc3)C(=O)N2C)cc1
REMARK SMILES IDX 21 1 20 2 18 3 19 4 17 5 14 6 15 7 90 8 16 9 89 10 13 11
REMARK SMILES IDX 11 12 12 13 10 15 9 16 6 17 7 18 8 20 93 21 91 22 94 23
REMARK SMILES IDX 92 24 5 25 1 26 2 27 3 28 96 29 4 30 95 31 22 32 23 33 24 34
REMARK SMILES IDX 25 35 26 36 27 37 88 38 28 39 87 40 29 41 30 42 31 43 81 44
REMARK SMILES IDX 32 45 86 46 80 47 82 48 33 49 85 50 79 51 78 52 34 54 66 55
REMARK SMILES IDX 46 56 65 57 47 58 50 59 64 60 83 61 48 62 49 63 63 65 84 66
REMARK SMILES IDX 51 67 35 68 36 69 44 70 37 71 39 72 45 73 38 74 40 75 41 76
REMARK SMILES IDX 42 77 43 78 67 79 68 80 76 81 69 82 71 83 77 84 70 85 72 86
REMARK SMILES IDX 73 87 74 88 75 89 52 90 53 91 61 92 54 93 56 94 62 95 55 96
REMARK SMILES IDX 57 97 58 98 59 99 60 100
REMARK H PARENT 13 14 6 19 82 53 50 64
REMARK Flexibility Score: inf
ROOT
ATOM      1  C   UNL A   1      33.910  33.857  28.001  1.00  0.00     0.275 C 
ENDROOT
BRANCH   1   2
ATOM      2  O   UNL A   1      33.515  32.490  28.002  1.00  0.00    -0.458 OA
BRANCH   2   3
ATOM      3  C   UNL A   1      34.383  31.482  27.760  1.00  0.00     0.338 C 
ATOM      4  O   UNL A   1      35.516  31.404  28.157  1.00  0.00    -0.246 OA
BRANCH   3   5
ATOM      5  C   UNL A   1      33.641  30.453  26.963  1.00  0.00     0.060 A 
ATOM      6  C   UNL A   1      32.482  28.809  25.011  1.00  0.00     0.041 A 
ATOM      7  C   UNL A   1      33.708  28.475  25.553  1.00  0.00     0.027 A 
ATOM      8  C   UNL A   1      31.730  29.820  25.638  1.00  0.00     0.027 A 
ATOM      9  C   UNL A   1      34.296  29.304  26.500  1.00  0.00     0.018 A 
ATOM     10  C   UNL A   1      32.313  30.655  26.604  1.00  0.00     0.018 A 
BRANCH   6  11
ATOM     11  N   UNL A   1      31.992  28.312  23.790  1.00  0.00    -0.326 N 
ATOM     12  C   UNL A   1      31.064  27.361  23.469  1.00  0.00     0.226 C 
ATOM     13  O   UNL A   1      31.050  26.966  22.295  1.00  0.00    -0.275 OA
ATOM     14  H   UNL A   1      32.402  28.738  23.002  1.00  0.00     0.169 HD
BRANCH  12  15
ATOM     15  C   UNL A   1      30.084  26.747  24.455  1.00  0.00     0.128 C 
BRANCH  15  16
ATOM     16  C   UNL A   1      30.471  25.374  25.010  1.00  0.00     0.183 C 
ATOM     17  N   UNL A   1      33.825  23.856  26.172  1.00  0.00    -0.235 N 
ATOM     18  C   UNL A   1      32.803  24.261  25.495  1.00  0.00     0.319 C 
ATOM     19  H   UNL A   1      33.934  24.298  27.045  1.00  0.00     0.313 HD
ATOM     20  S   UNL A   1      31.792  25.488  26.254  1.00  0.00    -0.022 SA
ATOM     21  N   UNL A   1      32.286  23.953  24.263  1.00  0.00    -0.193 N 
ATOM     22  C   UNL A   1      30.983  24.360  24.014  1.00  0.00     0.324 C 
ATOM     23  C   UNL A   1      32.941  23.205  23.214  1.00  0.00     0.301 C 
ATOM     24  O   UNL A   1      30.278  23.885  23.126  1.00  0.00    -0.245 OA
BRANCH  17  25
ATOM     25  C   UNL A   1      34.803  22.899  25.886  1.00  0.00     0.125 A 
ATOM     26  C   UNL A   1      37.927  20.167  24.628  1.00  0.00     0.044 C 
ATOM     27  C   UNL A   1      36.877  21.112  25.124  1.00  0.00    -0.051 A 
ATOM     28  C   UNL A   1      37.160  22.453  25.394  1.00  0.00     0.008 A 
ATOM     29  C   UNL A   1      35.585  20.649  25.374  1.00  0.00     0.008 A 
ATOM     30  C   UNL A   1      36.126  23.335  25.747  1.00  0.00     0.052 A 
ATOM     31  C   UNL A   1      34.594  21.524  25.832  1.00  0.00     0.052 A 
ENDBRANCH  17  25
ENDBRANCH  15  16
ENDBRANCH  12  15
ENDBRANCH   6  11
ENDBRANCH   3   5
ENDBRANCH   2   3
ENDBRANCH   1   2
BRANCH   1  32
ATOM     32  C   UNL A   1      33.278  34.857  28.984  1.00  0.00     0.275 C 
BRANCH  32  33
ATOM     33  O   UNL A   1      33.776  35.162  30.320  1.00  0.00    -0.458 OA
BRANCH  33  34
ATOM     34  C   UNL A   1      34.039  34.420  31.416  1.00  0.00     0.338 C 
ATOM     35  O   UNL A   1      33.276  34.356  32.370  1.00  0.00    -0.246 OA
BRANCH  34  36
ATOM     36  C   UNL A   1      35.310  33.707  31.434  1.00  0.00     0.060 A 
ATOM     37  C   UNL A   1      36.325  34.069  30.531  1.00  0.00     0.016 A 
ATOM     38  C   UNL A   1      35.501  32.751  32.424  1.00  0.00     0.016 A 
ATOM     39  C   UNL A   1      37.590  33.522  30.680  1.00  0.00     0.010 A 
ATOM     40  C   UNL A   1      36.772  32.301  32.651  1.00  0.00     0.010 A 
ATOM     41  C   UNL A   1      37.790  32.643  31.742  1.00  0.00    -0.014 A 
BRANCH  41  42
ATOM     42  C   UNL A   1      38.831  31.639  31.713  1.00  0.00     0.031 A 
ATOM     43  C   UNL A   1      38.680  30.365  31.014  1.00  0.00     0.074 A 
ATOM     44  C   UNL A   1      39.990  32.195  32.140  1.00  0.00     0.049 A 
ATOM     45  N   UNL A   1      39.442  29.363  31.259  1.00  0.00    -0.248 NA
ATOM     46  C   UNL A   1      37.649  30.070  30.019  1.00  0.00     0.031 C 
ATOM     47  C   UNL A   1      41.368  31.884  31.839  1.00  0.00     0.029 A 
ATOM     48  N   UNL A   1      40.083  33.259  33.056  1.00  0.00    -0.354 N 
ATOM     49  C   UNL A   1      39.254  28.459  30.234  1.00  0.00     0.074 A 
ATOM     50  C   UNL A   1      38.015  28.845  29.606  1.00  0.00     0.031 C 
ATOM     51  C   UNL A   1      42.150  32.535  32.726  1.00  0.00     0.029 A 
ATOM     52  C   UNL A   1      41.278  33.107  33.748  1.00  0.00     0.049 A 
ATOM     53  H   UNL A   1      39.424  33.978  33.183  1.00  0.00     0.167 HD
ATOM     54  C   UNL A   1      40.296  27.649  29.895  1.00  0.00     0.034 A 
ATOM     55  C   UNL A   1      41.256  32.818  35.087  1.00  0.00     0.034 A 
ATOM     56  C   UNL A   1      41.475  28.013  30.700  1.00  0.00     0.049 A 
ATOM     57  C   UNL A   1      41.801  31.416  35.338  1.00  0.00     0.074 A 
ATOM     58  C   UNL A   1      42.588  28.805  30.461  1.00  0.00     0.029 A 
ATOM     59  N   UNL A   1      41.429  27.830  32.067  1.00  0.00    -0.354 N 
ATOM     60  N   UNL A   1      42.156  30.586  34.396  1.00  0.00    -0.248 NA
ATOM     61  C   UNL A   1      41.885  30.810  36.663  1.00  0.00     0.031 C 
ATOM     62  C   UNL A   1      43.225  29.060  31.713  1.00  0.00     0.029 A 
ATOM     63  C   UNL A   1      42.507  28.415  32.704  1.00  0.00     0.049 A 
ATOM     64  H   UNL A   1      40.714  27.341  32.534  1.00  0.00     0.167 HD
ATOM     65  C   UNL A   1      42.367  29.343  34.922  1.00  0.00     0.074 A 
ATOM     66  C   UNL A   1      42.194  29.539  36.353  1.00  0.00     0.031 C 
ATOM     67  C   UNL A   1      42.609  28.241  34.145  1.00  0.00     0.034 A 
BRANCH  54  68
ATOM     68  C   UNL A   1      40.408  26.751  28.675  1.00  0.00     0.023 A 
ATOM     69  C   UNL A   1      39.306  25.897  28.424  1.00  0.00     0.012 A 
ATOM     70  C   UNL A   1      41.475  26.675  27.748  1.00  0.00     0.148 A 
ATOM     71  C   UNL A   1      39.279  24.970  27.382  1.00  0.00     0.002 A 
ATOM     72  C   UNL A   1      41.461  25.724  26.714  1.00  0.00     0.091 A 
ATOM     73  F   UNL A   1      42.485  27.549  27.829  1.00  0.00    -0.205 F 
ATOM     74  C   UNL A   1      40.367  24.869  26.536  1.00  0.00     0.022 A 
BRANCH  72  75
ATOM     75  S   UNL A   1      42.827  25.472  25.564  1.00  0.00     0.127 S 
ATOM     76  O   UNL A   1      42.512  24.156  25.004  1.00  0.00    -0.237 OA
ATOM     77  O   UNL A   1      42.661  26.580  24.625  1.00  0.00    -0.237 OA
ATOM     78  O   UNL A   1      44.044  25.508  26.363  1.00  0.00    -0.744 OA
ENDBRANCH  72  75
ENDBRANCH  54  68
BRANCH  55  79
ATOM     79  C   UNL A   1      40.078  33.420  35.828  1.00  0.00     0.023 A 
ATOM     80  C   UNL A   1      38.883  32.656  35.918  1.00  0.00     0.012 A 
ATOM     81  C   UNL A   1      40.230  34.494  36.723  1.00  0.00     0.148 A 
ATOM     82  C   UNL A   1      37.952  32.872  36.943  1.00  0.00     0.002 A 
ATOM     83  C   UNL A   1      39.302  34.700  37.746  1.00  0.00     0.091 A 
ATOM     84  F   UNL A   1      41.311  35.277  36.628  1.00  0.00    -0.205 F 
ATOM     85  C   UNL A   1      38.174  33.879  37.874  1.00  0.00     0.022 A 
BRANCH  83  86
ATOM     86  S   UNL A   1      39.661  35.892  39.047  1.00  0.00     0.127 S 
ATOM     87  O   UNL A   1      41.008  35.515  39.476  1.00  0.00    -0.237 OA
ATOM     88  O   UNL A   1      39.602  37.176  38.363  1.00  0.00    -0.237 OA
ATOM     89  O   UNL A   1      38.604  35.609  40.012  1.00  0.00    -0.744 OA
ENDBRANCH  83  86
ENDBRANCH  55  79
BRANCH  67  90
ATOM     90  C   UNL A   1      42.920  26.861  34.695  1.00  0.00     0.023 A 
ATOM     91  C   UNL A   1      41.896  26.043  35.202  1.00  0.00     0.012 A 
ATOM     92  C   UNL A   1      44.249  26.378  34.846  1.00  0.00     0.148 A 
ATOM     93  C   UNL A   1      42.158  24.769  35.715  1.00  0.00     0.002 A 
ATOM     94  C   UNL A   1      44.514  25.140  35.413  1.00  0.00     0.091 A 
ATOM     95  F   UNL A   1      45.290  27.113  34.456  1.00  0.00    -0.205 F 
ATOM     96  C   UNL A   1      43.465  24.314  35.816  1.00  0.00     0.022 A 
BRANCH  94  97
ATOM     97  S   UNL A   1      46.191  24.564  35.722  1.00  0.00     0.127 S 
ATOM     98  O   UNL A   1      45.938  23.270  36.357  1.00  0.00    -0.237 OA
ATOM     99  O   UNL A   1      46.731  24.487  34.366  1.00  0.00    -0.237 OA
ATOM    100  O   UNL A   1      46.820  25.556  36.581  1.00  0.00    -0.744 OA
ENDBRANCH  94  97
ENDBRANCH  67  90
ENDBRANCH  41  42
ENDBRANCH  34  36
ENDBRANCH  33  34
ENDBRANCH  32  33
ENDBRANCH   1  32
TORSDOF 18
ENDMDL
MODEL 2
REMARK VINA RESULT:     -12.3      4.435      9.182
REMARK SMILES Cc1ccc(/[NH+]=C2/S[C@@H](CC(=O)Nc3ccc(C(=O)OCCOC(=O)c4ccc(-c5c6nc(c(-c7cccc(S(=O)(=O)[O-])c7F)c7ccc([nH]7)c(-c7cccc(S(=O)(=O)[O-])c7F)c7nc(c(-c8cccc(S(=O)(=O)[O-])c8F)c8ccc5[nH]8)C=C7)C=C6)cc4)cc3)C(=O)N2C)cc1
REMARK SMILES IDX 21 1 20 2 18 3 19 4 17 5 14 6 15 7 90 8 16 9 89 10 13 11
REMARK SMILES IDX 11 12 12 13 10 15 9 16 6 17 7 18 8 20 93 21 91 22 94 23
REMARK SMILES IDX 92 24 5 25 1 26 2 27 3 28 96 29 4 30 95 31 22 32 23 33 24 34
REMARK SMILES IDX 25 35 26 36 27 37 88 38 28 39 87 40 29 41 30 42 31 43 81 44
REMARK SMILES IDX 32 45 86 46 80 47 82 48 33 49 85 50 79 51 78 52 34 54 66 55
REMARK SMILES IDX 46 56 65 57 47 58 50 59 64 60 83 61 48 62 49 63 63 65 84 66
REMARK SMILES IDX 51 67 35 68 36 69 44 70 37 71 39 72 45 73 38 74 40 75 41 76
REMARK SMILES IDX 42 77 43 78 67 79 68 80 76 81 69 82 71 83 77 84 70 85 72 86
REMARK SMILES IDX 73 87 74 88 75 89 52 90 53 91 61 92 54 93 56 94 62 95 55 96
REMARK SMILES IDX 57 97 58 98 59 99 60 100
REMARK H PARENT 13 14 6 19 82 53 50 64
REMARK Flexibility Score: inf
ROOT
ATOM      1  C   UNL A   1      34.840  32.976  29.828  1.00  0.00     0.275 C 
ENDROOT
BRANCH   1   2
ATOM      2  O   UNL A   1      35.057  32.449  31.132  1.00  0.00    -0.458 OA
BRANCH   2   3
ATOM      3  C   UNL A   1      36.071  31.599  31.412  1.00  0.00     0.338 C 
ATOM      4  O   UNL A   1      35.982  30.412  31.585  1.00  0.00    -0.246 OA
BRANCH   3   5
ATOM      5  C   UNL A   1      37.332  32.409  31.397  1.00  0.00     0.060 A 
ATOM      6  C   UNL A   1      39.888  33.509  31.731  1.00  0.00     0.041 A 
ATOM      7  C   UNL A   1      39.645  32.636  30.687  1.00  0.00     0.027 A 
ATOM      8  C   UNL A   1      38.787  34.023  32.439  1.00  0.00     0.027 A 
ATOM      9  C   UNL A   1      38.385  32.069  30.538  1.00  0.00     0.018 A 
ATOM     10  C   UNL A   1      37.509  33.464  32.285  1.00  0.00     0.018 A 
BRANCH   6  11
ATOM     11  N   UNL A   1      41.167  33.809  32.232  1.00  0.00    -0.326 N 
ATOM     12  C   UNL A   1      42.426  33.716  31.706  1.00  0.00     0.226 C 
ATOM     13  O   UNL A   1      43.373  33.810  32.500  1.00  0.00    -0.275 OA
ATOM     14  H   UNL A   1      41.154  34.160  33.152  1.00  0.00     0.169 HD
BRANCH  12  15
ATOM     15  C   UNL A   1      42.730  33.478  30.236  1.00  0.00     0.128 C 
BRANCH  15  16
ATOM     16  C   UNL A   1      43.608  34.533  29.560  1.00  0.00     0.183 C 
ATOM     17  N   UNL A   1      43.021  38.227  28.605  1.00  0.00    -0.235 N 
ATOM     18  C   UNL A   1      43.083  36.938  28.637  1.00  0.00     0.319 C 
ATOM     19  H   UNL A   1      43.090  38.658  29.487  1.00  0.00     0.313 HD
ATOM     20  S   UNL A   1      43.305  36.199  30.221  1.00  0.00    -0.022 SA
ATOM     21  N   UNL A   1      43.012  35.951  27.687  1.00  0.00    -0.193 N 
ATOM     22  C   UNL A   1      43.450  34.690  28.065  1.00  0.00     0.324 C 
ATOM     23  C   UNL A   1      42.574  36.099  26.318  1.00  0.00     0.301 C 
ATOM     24  O   UNL A   1      43.764  33.809  27.267  1.00  0.00    -0.245 OA
BRANCH  17  25
ATOM     25  C   UNL A   1      42.873  39.119  27.539  1.00  0.00     0.125 A 
ATOM     26  C   UNL A   1      42.660  42.176  24.470  1.00  0.00     0.044 C 
ATOM     27  C   UNL A   1      42.753  41.076  25.482  1.00  0.00    -0.051 A 
ATOM     28  C   UNL A   1      43.980  40.547  25.886  1.00  0.00     0.008 A 
ATOM     29  C   UNL A   1      41.589  40.519  26.013  1.00  0.00     0.008 A 
ATOM     30  C   UNL A   1      44.035  39.598  26.919  1.00  0.00     0.052 A 
ATOM     31  C   UNL A   1      41.663  39.494  26.964  1.00  0.00     0.052 A 
ENDBRANCH  17  25
ENDBRANCH  15  16
ENDBRANCH  12  15
ENDBRANCH   6  11
ENDBRANCH   3   5
ENDBRANCH   2   3
ENDBRANCH   1   2
BRANCH   1  32
ATOM     32  C   UNL A   1      34.717  32.039  28.614  1.00  0.00     0.275 C 
BRANCH  32  33
ATOM     33  O   UNL A   1      35.806  31.269  28.024  1.00  0.00    -0.458 OA
BRANCH  33  34
ATOM     34  C   UNL A   1      35.994  29.958  27.762  1.00  0.00     0.338 C 
ATOM     35  O   UNL A   1      35.107  29.237  27.328  1.00  0.00    -0.246 OA
BRANCH  34  36
ATOM     36  C   UNL A   1      37.315  29.416  28.055  1.00  0.00     0.060 A 
ATOM     37  C   UNL A   1      38.387  29.684  27.185  1.00  0.00     0.016 A 
ATOM     38  C   UNL A   1      37.482  28.729  29.251  1.00  0.00     0.016 A 
ATOM     39  C   UNL A   1      39.673  29.330  27.565  1.00  0.00     0.010 A 
ATOM     40  C   UNL A   1      38.755  28.487  29.685  1.00  0.00     0.010 A 
ATOM     41  C   UNL A   1      39.833  28.734  28.814  1.00  0.00    -0.014 A 
BRANCH  41  42
ATOM     42  C   UNL A   1      40.957  27.874  29.108  1.00  0.00     0.031 A 
ATOM     43  C   UNL A   1      41.079  26.522  28.567  1.00  0.00     0.074 A 
ATOM     44  C   UNL A   1      41.945  28.615  29.662  1.00  0.00     0.049 A 
ATOM     45  N   UNL A   1      41.878  25.657  29.076  1.00  0.00    -0.248 NA
ATOM     46  C   UNL A   1      40.300  25.991  27.448  1.00  0.00     0.031 C 
ATOM     47  C   UNL A   1      43.381  28.451  29.660  1.00  0.00     0.029 A 
ATOM     48  N   UNL A   1      41.746  29.776  30.432  1.00  0.00    -0.354 N 
ATOM     49  C   UNL A   1      41.990  24.630  28.162  1.00  0.00     0.074 A 
ATOM     50  C   UNL A   1      40.865  24.785  27.273  1.00  0.00     0.031 C 
ATOM     51  C   UNL A   1      43.901  29.288  30.582  1.00  0.00     0.029 A 
ATOM     52  C   UNL A   1      42.791  29.854  31.344  1.00  0.00     0.049 A 
ATOM     53  H   UNL A   1      41.004  30.416  30.340  1.00  0.00     0.167 HD
ATOM     54  C   UNL A   1      43.156  23.926  28.128  1.00  0.00     0.034 A 
ATOM     55  C   UNL A   1      42.537  29.712  32.682  1.00  0.00     0.034 A 
ATOM     56  C   UNL A   1      44.110  24.523  29.080  1.00  0.00     0.049 A 
ATOM     57  C   UNL A   1      43.164  28.427  33.211  1.00  0.00     0.074 A 
ATOM     58  C   UNL A   1      45.159  25.419  28.946  1.00  0.00     0.029 A 
ATOM     59  N   UNL A   1      43.815  24.487  30.428  1.00  0.00    -0.354 N 
ATOM     60  N   UNL A   1      43.781  27.550  32.467  1.00  0.00    -0.248 NA
ATOM     61  C   UNL A   1      43.048  27.985  34.597  1.00  0.00     0.031 C 
ATOM     62  C   UNL A   1      45.509  25.888  30.249  1.00  0.00     0.029 A 
ATOM     63  C   UNL A   1      44.681  25.270  31.168  1.00  0.00     0.049 A 
ATOM     64  H   UNL A   1      43.077  23.965  30.816  1.00  0.00     0.167 HD
ATOM     65  C   UNL A   1      44.012  26.409  33.182  1.00  0.00     0.074 A 
ATOM     66  C   UNL A   1      43.543  26.738  34.518  1.00  0.00     0.031 C 
ATOM     67  C   UNL A   1      44.515  25.269  32.613  1.00  0.00     0.034 A 
BRANCH  54  68
ATOM     68  C   UNL A   1      43.598  22.922  27.078  1.00  0.00     0.023 A 
ATOM     69  C   UNL A   1      44.581  23.369  26.161  1.00  0.00     0.012 A 
ATOM     70  C   UNL A   1      43.159  21.586  26.915  1.00  0.00     0.148 A 
ATOM     71  C   UNL A   1      45.048  22.591  25.102  1.00  0.00     0.002 A 
ATOM     72  C   UNL A   1      43.608  20.811  25.832  1.00  0.00     0.091 A 
ATOM     73  F   UNL A   1      42.345  21.042  27.825  1.00  0.00    -0.205 F 
ATOM     74  C   UNL A   1      44.546  21.316  24.924  1.00  0.00     0.022 A 
BRANCH  72  75
ATOM     75  S   UNL A   1      43.012  19.147  25.475  1.00  0.00     0.127 S 
ATOM     76  O   UNL A   1      43.683  18.852  24.206  1.00  0.00    -0.237 OA
ATOM     77  O   UNL A   1      43.512  18.378  26.612  1.00  0.00    -0.237 OA
ATOM     78  O   UNL A   1      41.562  19.246  25.377  1.00  0.00    -0.744 OA
ENDBRANCH  72  75
ENDBRANCH  54  68
BRANCH  55  79
ATOM     79  C   UNL A   1      41.180  30.237  33.111  1.00  0.00     0.023 A 
ATOM     80  C   UNL A   1      40.024  29.515  32.705  1.00  0.00     0.012 A 
ATOM     81  C   UNL A   1      41.035  31.154  34.168  1.00  0.00     0.148 A 
ATOM     82  C   UNL A   1      38.820  29.606  33.414  1.00  0.00     0.002 A 
ATOM     83  C   UNL A   1      39.833  31.235  34.874  1.00  0.00     0.091 A 
ATOM     84  F   UNL A   1      42.083  31.900  34.536  1.00  0.00    -0.205 F 
ATOM     85  C   UNL A   1      38.730  30.448  34.517  1.00  0.00     0.022 A 
BRANCH  83  86
ATOM     86  S   UNL A   1      39.757  32.197  36.395  1.00  0.00     0.127 S 
ATOM     87  O   UNL A   1      38.417  31.904  36.904  1.00  0.00    -0.237 OA
ATOM     88  O   UNL A   1      40.828  31.637  37.209  1.00  0.00    -0.237 OA
ATOM     89  O   UNL A   1      39.947  33.555  35.899  1.00  0.00    -0.744 OA
ENDBRANCH  83  86
ENDBRANCH  55  79
BRANCH  67  90
ATOM     90  C   UNL A   1      44.854  24.008  33.388  1.00  0.00     0.023 A 
ATOM     91  C   UNL A   1      43.866  23.045  33.658  1.00  0.00     0.012 A 
ATOM     92  C   UNL A   1      46.127  23.793  33.984  1.00  0.00     0.148 A 
ATOM     93  C   UNL A   1      44.153  21.877  34.370  1.00  0.00     0.002 A 
ATOM     94  C   UNL A   1      46.394  22.664  34.744  1.00  0.00     0.091 A 
ATOM     95  F   UNL A   1      47.106  24.685  33.839  1.00  0.00    -0.205 F 
ATOM     96  C   UNL A   1      45.418  21.682  34.908  1.00  0.00     0.022 A 
BRANCH  94  97
ATOM     97  S   UNL A   1      47.958  22.433  35.603  1.00  0.00     0.127 S 
ATOM     98  O   UNL A   1      48.899  22.399  34.482  1.00  0.00    -0.237 OA
ATOM     99  O   UNL A   1      48.025  23.640  36.424  1.00  0.00    -0.237 OA
ATOM    100  O   UNL A   1      47.845  21.187  36.346  1.00  0.00    -0.744 OA
ENDBRANCH  94  97
ENDBRANCH  67  90
ENDBRANCH  41  42
ENDBRANCH  34  36
ENDBRANCH  33  34
ENDBRANCH  32  33
ENDBRANCH   1  32
TORSDOF 18
ENDMDL
MODEL 3
REMARK VINA RESULT:     -12.2      2.184      2.901
REMARK SMILES Cc1ccc(/[NH+]=C2/S[C@@H](CC(=O)Nc3ccc(C(=O)OCCOC(=O)c4ccc(-c5c6nc(c(-c7cccc(S(=O)(=O)[O-])c7F)c7ccc([nH]7)c(-c7cccc(S(=O)(=O)[O-])c7F)c7nc(c(-c8cccc(S(=O)(=O)[O-])c8F)c8ccc5[nH]8)C=C7)C=C6)cc4)cc3)C(=O)N2C)cc1
REMARK SMILES IDX 21 1 20 2 18 3 19 4 17 5 14 6 15 7 90 8 16 9 89 10 13 11
REMARK SMILES IDX 11 12 12 13 10 15 9 16 6 17 7 18 8 20 93 21 91 22 94 23
REMARK SMILES IDX 92 24 5 25 1 26 2 27 3 28 96 29 4 30 95 31 22 32 23 33 24 34
REMARK SMILES IDX 25 35 26 36 27 37 88 38 28 39 87 40 29 41 30 42 31 43 81 44
REMARK SMILES IDX 32 45 86 46 80 47 82 48 33 49 85 50 79 51 78 52 34 54 66 55
REMARK SMILES IDX 46 56 65 57 47 58 50 59 64 60 83 61 48 62 49 63 63 65 84 66
REMARK SMILES IDX 51 67 35 68 36 69 44 70 37 71 39 72 45 73 38 74 40 75 41 76
REMARK SMILES IDX 42 77 43 78 67 79 68 80 76 81 69 82 71 83 77 84 70 85 72 86
REMARK SMILES IDX 73 87 74 88 75 89 52 90 53 91 61 92 54 93 56 94 62 95 55 96
REMARK SMILES IDX 57 97 58 98 59 99 60 100
REMARK H PARENT 13 14 6 19 82 53 50 64
REMARK Flexibility Score: inf
ROOT
ATOM      1  C   UNL A   1      33.938  30.892  27.549  1.00  0.00     0.275 C 
ENDROOT
BRANCH   1   2
ATOM      2  O   UNL A   1      32.601  30.499  27.260  1.00  0.00    -0.458 OA
BRANCH   2   3
ATOM      3  C   UNL A   1      32.257  29.213  27.028  1.00  0.00     0.338 C 
ATOM      4  O   UNL A   1      31.917  28.403  27.851  1.00  0.00    -0.246 OA
BRANCH   3   5
ATOM      5  C   UNL A   1      32.313  29.010  25.544  1.00  0.00     0.060 A 
ATOM      6  C   UNL A   1      32.372  28.063  22.907  1.00  0.00     0.041 A 
ATOM      7  C   UNL A   1      31.167  28.412  23.486  1.00  0.00     0.027 A 
ATOM      8  C   UNL A   1      33.559  28.437  23.563  1.00  0.00     0.027 A 
ATOM      9  C   UNL A   1      31.134  28.855  24.802  1.00  0.00     0.018 A 
ATOM     10  C   UNL A   1      33.533  28.897  24.889  1.00  0.00     0.018 A 
BRANCH   6  11
ATOM     11  N   UNL A   1      32.499  27.232  21.780  1.00  0.00    -0.326 N 
ATOM     12  C   UNL A   1      32.899  25.935  21.611  1.00  0.00     0.226 C 
ATOM     13  O   UNL A   1      33.155  25.574  20.454  1.00  0.00    -0.275 OA
ATOM     14  H   UNL A   1      32.249  27.675  20.937  1.00  0.00     0.169 HD
BRANCH  12  15
ATOM     15  C   UNL A   1      33.073  24.934  22.741  1.00  0.00     0.128 C 
BRANCH  15  16
ATOM     16  C   UNL A   1      33.509  23.527  22.322  1.00  0.00     0.183 C 
ATOM     17  N   UNL A   1      32.249  19.998  23.248  1.00  0.00    -0.235 N 
ATOM     18  C   UNL A   1      32.848  21.140  23.204  1.00  0.00     0.319 C 
ATOM     19  H   UNL A   1      31.419  19.955  22.722  1.00  0.00     0.313 HD
ATOM     20  S   UNL A   1      32.101  22.384  22.205  1.00  0.00    -0.022 SA
ATOM     21  N   UNL A   1      33.985  21.650  23.778  1.00  0.00    -0.193 N 
ATOM     22  C   UNL A   1      34.488  22.822  23.232  1.00  0.00     0.324 C 
ATOM     23  C   UNL A   1      34.742  21.065  24.862  1.00  0.00     0.301 C 
ATOM     24  O   UNL A   1      35.642  23.211  23.397  1.00  0.00    -0.245 OA
BRANCH  17  25
ATOM     25  C   UNL A   1      32.571  18.810  23.912  1.00  0.00     0.125 A 
ATOM     26  C   UNL A   1      33.331  14.913  25.657  1.00  0.00     0.044 C 
ATOM     27  C   UNL A   1      33.136  16.272  25.057  1.00  0.00    -0.051 A 
ATOM     28  C   UNL A   1      33.546  16.569  23.756  1.00  0.00     0.008 A 
ATOM     29  C   UNL A   1      32.571  17.295  25.819  1.00  0.00     0.008 A 
ATOM     30  C   UNL A   1      33.244  17.817  23.188  1.00  0.00     0.052 A 
ATOM     31  C   UNL A   1      32.377  18.567  25.268  1.00  0.00     0.052 A 
ENDBRANCH  17  25
ENDBRANCH  15  16
ENDBRANCH  12  15
ENDBRANCH   6  11
ENDBRANCH   3   5
ENDBRANCH   2   3
ENDBRANCH   1   2
BRANCH   1  32
ATOM     32  C   UNL A   1      34.240  32.298  28.097  1.00  0.00     0.275 C 
BRANCH  32  33
ATOM     33  O   UNL A   1      34.052  32.729  29.477  1.00  0.00    -0.458 OA
BRANCH  33  34
ATOM     34  C   UNL A   1      34.875  33.224  30.426  1.00  0.00     0.338 C 
ATOM     35  O   UNL A   1      34.564  34.163  31.145  1.00  0.00    -0.246 OA
BRANCH  34  36
ATOM     36  C   UNL A   1      36.189  32.604  30.541  1.00  0.00     0.060 A 
ATOM     37  C   UNL A   1      37.269  33.117  29.801  1.00  0.00     0.016 A 
ATOM     38  C   UNL A   1      36.341  31.578  31.465  1.00  0.00     0.016 A 
ATOM     39  C   UNL A   1      38.549  32.650  30.058  1.00  0.00     0.010 A 
ATOM     40  C   UNL A   1      37.610  31.201  31.807  1.00  0.00     0.010 A 
ATOM     41  C   UNL A   1      38.695  31.695  31.060  1.00  0.00    -0.014 A 
BRANCH  41  42
ATOM     42  C   UNL A   1      39.810  30.774  31.077  1.00  0.00     0.031 A 
ATOM     43  C   UNL A   1      39.864  29.585  30.229  1.00  0.00     0.074 A 
ATOM     44  C   UNL A   1      40.848  31.351  31.729  1.00  0.00     0.049 A 
ATOM     45  N   UNL A   1      40.666  28.614  30.473  1.00  0.00    -0.248 NA
ATOM     46  C   UNL A   1      39.011  29.342  29.066  1.00  0.00     0.031 C 
ATOM     47  C   UNL A   1      42.276  31.171  31.602  1.00  0.00     0.029 A 
ATOM     48  N   UNL A   1      40.723  32.301  32.758  1.00  0.00    -0.354 N 
ATOM     49  C   UNL A   1      40.699  27.829  29.340  1.00  0.00     0.074 A 
ATOM     50  C   UNL A   1      39.531  28.203  28.581  1.00  0.00     0.031 C 
ATOM     51  C   UNL A   1      42.869  31.762  32.661  1.00  0.00     0.029 A 
ATOM     52  C   UNL A   1      41.818  32.148  33.599  1.00  0.00     0.049 A 
ATOM     53  H   UNL A   1      39.995  32.954  32.864  1.00  0.00     0.167 HD
ATOM     54  C   UNL A   1      41.842  27.136  29.072  1.00  0.00     0.034 A 
ATOM     55  C   UNL A   1      41.635  31.700  34.880  1.00  0.00     0.034 A 
ATOM     56  C   UNL A   1      42.863  27.480  30.078  1.00  0.00     0.049 A 
ATOM     57  C   UNL A   1      42.255  30.318  35.055  1.00  0.00     0.074 A 
ATOM     58  C   UNL A   1      43.928  28.367  30.093  1.00  0.00     0.029 A 
ATOM     59  N   UNL A   1      42.643  27.132  31.395  1.00  0.00    -0.354 N 
ATOM     60  N   UNL A   1      42.806  29.632  34.091  1.00  0.00    -0.248 NA
ATOM     61  C   UNL A   1      42.204  29.565  36.304  1.00  0.00     0.031 C 
ATOM     62  C   UNL A   1      44.362  28.513  31.446  1.00  0.00     0.029 A 
ATOM     63  C   UNL A   1      43.569  27.708  32.244  1.00  0.00     0.049 A 
ATOM     64  H   UNL A   1      41.913  26.544  31.695  1.00  0.00     0.167 HD
ATOM     65  C   UNL A   1      43.044  28.352  34.505  1.00  0.00     0.074 A 
ATOM     66  C   UNL A   1      42.659  28.364  35.907  1.00  0.00     0.031 C 
ATOM     67  C   UNL A   1      43.484  27.370  33.656  1.00  0.00     0.034 A 
BRANCH  54  68
ATOM     68  C   UNL A   1      42.197  26.400  27.792  1.00  0.00     0.023 A 
ATOM     69  C   UNL A   1      42.501  27.210  26.670  1.00  0.00     0.012 A 
ATOM     70  C   UNL A   1      42.279  25.002  27.588  1.00  0.00     0.148 A 
ATOM     71  C   UNL A   1      42.787  26.690  25.407  1.00  0.00     0.002 A 
ATOM     72  C   UNL A   1      42.540  24.477  26.312  1.00  0.00     0.091 A 
ATOM     73  F   UNL A   1      42.151  24.174  28.631  1.00  0.00    -0.205 F 
ATOM     74  C   UNL A   1      42.787  25.321  25.222  1.00  0.00     0.022 A 
BRANCH  72  75
ATOM     75  S   UNL A   1      42.541  22.714  25.933  1.00  0.00     0.127 S 
ATOM     76  O   UNL A   1      43.060  22.700  24.563  1.00  0.00    -0.237 OA
ATOM     77  O   UNL A   1      43.461  22.174  26.931  1.00  0.00    -0.237 OA
ATOM     78  O   UNL A   1      41.158  22.271  26.054  1.00  0.00    -0.744 OA
ENDBRANCH  72  75
ENDBRANCH  54  68
BRANCH  55  79
ATOM     79  C   UNL A   1      40.319  32.129  35.500  1.00  0.00     0.023 A 
ATOM     80  C   UNL A   1      39.192  31.279  35.332  1.00  0.00     0.012 A 
ATOM     81  C   UNL A   1      40.255  33.099  36.516  1.00  0.00     0.148 A 
ATOM     82  C   UNL A   1      38.114  31.309  36.226  1.00  0.00     0.002 A 
ATOM     83  C   UNL A   1      39.180  33.119  37.408  1.00  0.00     0.091 A 
ATOM     84  F   UNL A   1      41.268  33.960  36.665  1.00  0.00    -0.205 F 
ATOM     85  C   UNL A   1      38.119  32.213  37.281  1.00  0.00     0.022 A 
BRANCH  83  86
ATOM     86  S   UNL A   1      39.253  34.172  38.867  1.00  0.00     0.127 S 
ATOM     87  O   UNL A   1      38.065  33.774  39.621  1.00  0.00    -0.237 OA
ATOM     88  O   UNL A   1      40.506  33.790  39.504  1.00  0.00    -0.237 OA
ATOM     89  O   UNL A   1      39.193  35.505  38.278  1.00  0.00    -0.744 OA
ENDBRANCH  83  86
ENDBRANCH  55  79
BRANCH  67  90
ATOM     90  C   UNL A   1      43.830  25.958  34.093  1.00  0.00     0.023 A 
ATOM     91  C   UNL A   1      42.817  25.035  34.402  1.00  0.00     0.012 A 
ATOM     92  C   UNL A   1      45.166  25.536  34.336  1.00  0.00     0.148 A 
ATOM     93  C   UNL A   1      43.110  23.729  34.808  1.00  0.00     0.002 A 
ATOM     94  C   UNL A   1      45.455  24.261  34.799  1.00  0.00     0.091 A 
ATOM     95  F   UNL A   1      46.189  26.367  34.135  1.00  0.00    -0.205 F 
ATOM     96  C   UNL A   1      44.428  23.340  35.001  1.00  0.00     0.022 A 
BRANCH  94  97
ATOM     97  S   UNL A   1      47.127  23.750  35.224  1.00  0.00     0.127 S 
ATOM     98  O   UNL A   1      46.938  22.317  35.458  1.00  0.00    -0.237 OA
ATOM     99  O   UNL A   1      47.857  24.081  34.002  1.00  0.00    -0.237 OA
ATOM    100  O   UNL A   1      47.510  24.517  36.400  1.00  0.00    -0.744 OA
ENDBRANCH  94  97
ENDBRANCH  67  90
ENDBRANCH  41  42
ENDBRANCH  34  36
ENDBRANCH  33  34
ENDBRANCH  32  33
ENDBRANCH   1  32
TORSDOF 18
ENDMDL
