MODEL 1
REMARK VINA RESULT:     -11.5      0.000      0.000
REMARK SMILES CCC[N@@H+]1CC2(CC[NH+](C(=O)Cn3nnnc3C)CC2)C[C@H]1C(=O)OCCOC(=O)c1ccc(-c2c3nc(c(-c4cccc(S(=O)(=O)[O-])c4F)c4ccc([nH]4)c(-c4cccc(S(=O)(=O)[O-])c4F)c4nc(c(-c5cccc(S(=O)(=O)[O-])c5F)c5ccc2[nH]5)C=C4)C=C3)cc1
REMARK SMILES IDX 26 1 25 2 23 3 24 4 22 5 4 6 5 7 6 9 21 10 7 11 20 12 8 13
REMARK SMILES IDX 19 14 9 15 3 17 2 18 1 19 10 20 11 21 12 22 13 23 14 24
REMARK SMILES IDX 17 25 15 26 16 27 18 28 27 29 28 30 29 31 30 32 31 33 32 34
REMARK SMILES IDX 93 35 33 36 92 37 34 38 35 39 36 40 86 41 37 42 91 43 85 44
REMARK SMILES IDX 87 45 38 46 90 47 84 48 83 49 39 51 71 52 51 53 70 54 52 55
REMARK SMILES IDX 55 56 69 57 88 58 53 59 54 60 68 62 89 63 56 64 40 65 41 66
REMARK SMILES IDX 49 67 42 68 44 69 50 70 43 71 45 72 46 73 47 74 48 75 72 76
REMARK SMILES IDX 73 77 81 78 74 79 76 80 82 81 75 82 77 83 78 84 79 85 80 86
REMARK SMILES IDX 57 87 58 88 66 89 59 90 61 91 67 92 60 93 62 94 63 95 64 96
REMARK SMILES IDX 65 97
REMARK H PARENT 4 8 9 16 87 50 55 61
REMARK Flexibility Score: inf
ROOT
ATOM      1  C   UNL A   1      32.054  30.156  27.118  1.00  0.00     0.274 C 
ENDROOT
BRANCH   1   2
ATOM      2  O   UNL A   1      32.315  28.982  26.330  1.00  0.00    -0.458 OA
BRANCH   2   3
ATOM      3  C   UNL A   1      31.550  27.887  26.590  1.00  0.00     0.365 C 
ATOM      4  O   UNL A   1      31.362  27.435  27.718  1.00  0.00    -0.245 OA
BRANCH   3   5
ATOM      5  C   UNL A   1      31.048  27.156  25.337  1.00  0.00     0.295 C 
ATOM      6  N   UNL A   1      31.687  27.535  24.044  1.00  0.00    -0.323 N 
ATOM      7  C   UNL A   1      32.926  26.773  23.976  1.00  0.00     0.270 C 
ATOM      8  H   UNL A   1      31.925  28.525  23.978  1.00  0.00     0.348 HD
ATOM      9  C   UNL A   1      32.688  25.457  24.746  1.00  0.00     0.036 C 
ATOM     10  C   UNL A   1      31.358  25.676  25.496  1.00  0.00     0.091 C 
ATOM     11  C   UNL A   1      33.852  25.185  25.723  1.00  0.00     0.075 C 
ATOM     12  C   UNL A   1      32.546  24.240  23.814  1.00  0.00     0.075 C 
ATOM     13  C   UNL A   1      35.148  24.858  24.985  1.00  0.00     0.271 C 
ATOM     14  C   UNL A   1      33.850  23.892  23.110  1.00  0.00     0.271 C 
ATOM     15  N   UNL A   1      34.951  23.740  24.057  1.00  0.00    -0.270 N 
ATOM     16  H   UNL A   1      34.026  23.471  24.263  1.00  0.00     0.356 HD
BRANCH   6  17
ATOM     17  C   UNL A   1      30.746  27.359  22.924  1.00  0.00     0.262 C 
BRANCH  17  18
ATOM     18  C   UNL A   1      29.613  28.394  22.767  1.00  0.00     0.058 C 
ATOM     19  C   UNL A   1      29.907  29.743  23.415  1.00  0.00     0.010 C 
ENDBRANCH  17  18
ENDBRANCH   6  17
BRANCH  15  20
ATOM     20  C   UNL A   1      35.780  22.637  23.934  1.00  0.00     0.333 C 
ATOM     21  O   UNL A   1      36.681  22.589  23.091  1.00  0.00    -0.229 OA
BRANCH  20  22
ATOM     22  C   UNL A   1      35.586  21.462  24.857  1.00  0.00     0.293 C 
BRANCH  22  23
ATOM     23  N   UNL A   1      34.200  21.114  25.055  1.00  0.00    -0.216 N 
ATOM     24  N   UNL A   1      33.541  20.486  24.063  1.00  0.00    -0.044 NA
ATOM     25  C   UNL A   1      33.362  21.281  26.127  1.00  0.00     0.149 A 
ATOM     26  N   UNL A   1      32.310  20.308  24.514  1.00  0.00    -0.024 NA
ATOM     27  N   UNL A   1      32.184  20.792  25.789  1.00  0.00    -0.114 NA
ATOM     28  C   UNL A   1      33.693  21.909  27.423  1.00  0.00     0.091 C 
ENDBRANCH  22  23
ENDBRANCH  20  22
ENDBRANCH  15  20
ENDBRANCH   3   5
ENDBRANCH   2   3
ENDBRANCH   1   2
BRANCH   1  29
ATOM     29  C   UNL A   1      33.154  31.189  26.939  1.00  0.00     0.275 C 
BRANCH  29  30
ATOM     30  O   UNL A   1      34.409  30.661  27.356  1.00  0.00    -0.458 OA
BRANCH  30  31
ATOM     31  C   UNL A   1      35.257  31.584  27.865  1.00  0.00     0.338 C 
ATOM     32  O   UNL A   1      35.278  32.778  27.631  1.00  0.00    -0.246 OA
BRANCH  31  33
ATOM     33  C   UNL A   1      36.307  30.914  28.626  1.00  0.00     0.060 A 
ATOM     34  C   UNL A   1      37.330  31.716  29.145  1.00  0.00     0.016 A 
ATOM     35  C   UNL A   1      36.417  29.523  28.530  1.00  0.00     0.016 A 
ATOM     36  C   UNL A   1      38.547  31.129  29.411  1.00  0.00     0.010 A 
ATOM     37  C   UNL A   1      37.635  28.945  28.774  1.00  0.00     0.010 A 
ATOM     38  C   UNL A   1      38.699  29.767  29.141  1.00  0.00    -0.014 A 
BRANCH  38  39
ATOM     39  C   UNL A   1      40.010  29.181  29.286  1.00  0.00     0.031 A 
ATOM     40  C   UNL A   1      40.442  29.008  30.686  1.00  0.00     0.074 A 
ATOM     41  C   UNL A   1      40.680  28.692  28.227  1.00  0.00     0.049 A 
ATOM     42  N   UNL A   1      41.452  29.560  31.268  1.00  0.00    -0.248 NA
ATOM     43  C   UNL A   1      39.567  28.239  31.583  1.00  0.00     0.031 C 
ATOM     44  C   UNL A   1      40.190  28.539  26.854  1.00  0.00     0.029 A 
ATOM     45  N   UNL A   1      41.887  28.066  28.203  1.00  0.00    -0.354 N 
ATOM     46  C   UNL A   1      41.469  29.023  32.550  1.00  0.00     0.074 A 
ATOM     47  C   UNL A   1      40.196  28.383  32.749  1.00  0.00     0.031 C 
ATOM     48  C   UNL A   1      40.968  27.642  26.211  1.00  0.00     0.029 A 
ATOM     49  C   UNL A   1      42.063  27.259  27.087  1.00  0.00     0.049 A 
ATOM     50  H   UNL A   1      42.567  28.174  28.908  1.00  0.00     0.167 HD
ATOM     51  C   UNL A   1      42.621  28.920  33.260  1.00  0.00     0.034 A 
ATOM     52  C   UNL A   1      42.981  26.273  26.951  1.00  0.00     0.034 A 
ATOM     53  C   UNL A   1      43.676  29.720  32.698  1.00  0.00     0.049 A 
ATOM     54  C   UNL A   1      44.046  26.511  27.956  1.00  0.00     0.074 A 
ATOM     55  C   UNL A   1      43.846  31.062  32.425  1.00  0.00     0.029 A 
ATOM     56  N   UNL A   1      44.642  29.057  31.981  1.00  0.00    -0.354 N 
ATOM     57  N   UNL A   1      44.872  27.519  27.909  1.00  0.00    -0.248 NA
ATOM     58  C   UNL A   1      43.948  25.848  29.247  1.00  0.00     0.031 C 
ATOM     59  C   UNL A   1      44.614  31.102  31.226  1.00  0.00     0.029 A 
ATOM     60  C   UNL A   1      44.896  29.787  30.851  1.00  0.00     0.049 A 
ATOM     61  H   UNL A   1      45.075  28.209  32.234  1.00  0.00     0.167 HD
ATOM     62  C   UNL A   1      45.035  27.896  29.236  1.00  0.00     0.074 A 
ATOM     63  C   UNL A   1      44.566  26.753  30.012  1.00  0.00     0.031 C 
ATOM     64  C   UNL A   1      45.248  29.203  29.573  1.00  0.00     0.034 A 
BRANCH  51  65
ATOM     65  C   UNL A   1      42.904  27.827  34.254  1.00  0.00     0.023 A 
ATOM     66  C   UNL A   1      42.889  28.171  35.622  1.00  0.00     0.012 A 
ATOM     67  C   UNL A   1      43.434  26.562  33.912  1.00  0.00     0.148 A 
ATOM     68  C   UNL A   1      43.405  27.312  36.596  1.00  0.00     0.002 A 
ATOM     69  C   UNL A   1      43.860  25.675  34.892  1.00  0.00     0.091 A 
ATOM     70  F   UNL A   1      43.667  26.255  32.631  1.00  0.00    -0.205 F 
ATOM     71  C   UNL A   1      43.878  26.057  36.234  1.00  0.00     0.022 A 
BRANCH  69  72
ATOM     72  S   UNL A   1      44.410  24.018  34.470  1.00  0.00     0.127 S 
ATOM     73  O   UNL A   1      44.739  23.474  35.784  1.00  0.00    -0.237 OA
ATOM     74  O   UNL A   1      43.214  23.452  33.845  1.00  0.00    -0.237 OA
ATOM     75  O   UNL A   1      45.525  24.210  33.551  1.00  0.00    -0.744 OA
ENDBRANCH  69  72
ENDBRANCH  51  65
BRANCH  52  76
ATOM     76  C   UNL A   1      42.889  25.013  26.182  1.00  0.00     0.023 A 
ATOM     77  C   UNL A   1      43.850  24.733  25.191  1.00  0.00     0.012 A 
ATOM     78  C   UNL A   1      42.020  23.971  26.579  1.00  0.00     0.148 A 
ATOM     79  C   UNL A   1      43.961  23.453  24.636  1.00  0.00     0.002 A 
ATOM     80  C   UNL A   1      42.122  22.705  26.011  1.00  0.00     0.091 A 
ATOM     81  F   UNL A   1      41.157  24.190  27.580  1.00  0.00    -0.205 F 
ATOM     82  C   UNL A   1      43.101  22.439  25.048  1.00  0.00     0.022 A 
BRANCH  80  83
ATOM     83  S   UNL A   1      41.048  21.351  26.509  1.00  0.00     0.127 S 
ATOM     84  O   UNL A   1      41.597  20.228  25.747  1.00  0.00    -0.237 OA
ATOM     85  O   UNL A   1      41.287  21.288  27.948  1.00  0.00    -0.237 OA
ATOM     86  O   UNL A   1      39.704  21.744  26.104  1.00  0.00    -0.744 OA
ENDBRANCH  80  83
ENDBRANCH  52  76
BRANCH  64  87
ATOM     87  C   UNL A   1      45.579  30.175  28.465  1.00  0.00     0.023 A 
ATOM     88  C   UNL A   1      44.580  30.920  27.803  1.00  0.00     0.012 A 
ATOM     89  C   UNL A   1      46.927  30.470  28.198  1.00  0.00     0.148 A 
ATOM     90  C   UNL A   1      44.913  31.907  26.873  1.00  0.00     0.002 A 
ATOM     91  C   UNL A   1      47.256  31.488  27.308  1.00  0.00     0.091 A 
ATOM     92  F   UNL A   1      47.872  29.765  28.839  1.00  0.00    -0.205 F 
ATOM     93  C   UNL A   1      46.252  32.199  26.634  1.00  0.00     0.022 A 
BRANCH  91  94
ATOM     94  S   UNL A   1      48.958  32.003  27.063  1.00  0.00     0.127 S 
ATOM     95  O   UNL A   1      49.576  30.785  26.543  1.00  0.00    -0.237 OA
ATOM     96  O   UNL A   1      48.825  33.086  26.087  1.00  0.00    -0.237 OA
ATOM     97  O   UNL A   1      49.430  32.443  28.371  1.00  0.00    -0.744 OA
ENDBRANCH  91  94
ENDBRANCH  64  87
ENDBRANCH  38  39
ENDBRANCH  31  33
ENDBRANCH  30  31
ENDBRANCH  29  30
ENDBRANCH   1  29
TORSDOF 19
ENDMDL
MODEL 2
REMARK VINA RESULT:     -11.4      2.510      3.222
REMARK SMILES CCC[N@@H+]1CC2(CC[NH+](C(=O)Cn3nnnc3C)CC2)C[C@H]1C(=O)OCCOC(=O)c1ccc(-c2c3nc(c(-c4cccc(S(=O)(=O)[O-])c4F)c4ccc([nH]4)c(-c4cccc(S(=O)(=O)[O-])c4F)c4nc(c(-c5cccc(S(=O)(=O)[O-])c5F)c5ccc2[nH]5)C=C4)C=C3)cc1
REMARK SMILES IDX 26 1 25 2 23 3 24 4 22 5 4 6 5 7 6 9 21 10 7 11 20 12 8 13
REMARK SMILES IDX 19 14 9 15 3 17 2 18 1 19 10 20 11 21 12 22 13 23 14 24
REMARK SMILES IDX 17 25 15 26 16 27 18 28 27 29 28 30 29 31 30 32 31 33 32 34
REMARK SMILES IDX 93 35 33 36 92 37 34 38 35 39 36 40 86 41 37 42 91 43 85 44
REMARK SMILES IDX 87 45 38 46 90 47 84 48 83 49 39 51 71 52 51 53 70 54 52 55
REMARK SMILES IDX 55 56 69 57 88 58 53 59 54 60 68 62 89 63 56 64 40 65 41 66
REMARK SMILES IDX 49 67 42 68 44 69 50 70 43 71 45 72 46 73 47 74 48 75 72 76
REMARK SMILES IDX 73 77 81 78 74 79 76 80 82 81 75 82 77 83 78 84 79 85 80 86
REMARK SMILES IDX 57 87 58 88 66 89 59 90 61 91 67 92 60 93 62 94 63 95 64 96
REMARK SMILES IDX 65 97
REMARK H PARENT 4 8 9 16 87 50 55 61
REMARK Flexibility Score: inf
ROOT
ATOM      1  C   UNL A   1      33.281  28.073  26.830  1.00  0.00     0.274 C 
ENDROOT
BRANCH   1   2
ATOM      2  O   UNL A   1      32.309  28.058  25.771  1.00  0.00    -0.458 OA
BRANCH   2   3
ATOM      3  C   UNL A   1      31.391  27.053  25.795  1.00  0.00     0.365 C 
ATOM      4  O   UNL A   1      30.881  26.617  26.825  1.00  0.00    -0.245 OA
BRANCH   3   5
ATOM      5  C   UNL A   1      31.146  26.391  24.433  1.00  0.00     0.295 C 
ATOM      6  N   UNL A   1      32.340  26.191  23.563  1.00  0.00    -0.323 N 
ATOM      7  C   UNL A   1      32.971  24.965  24.031  1.00  0.00     0.270 C 
ATOM      8  H   UNL A   1      33.029  26.941  23.632  1.00  0.00     0.348 HD
ATOM      9  C   UNL A   1      31.847  24.065  24.586  1.00  0.00     0.036 C 
ATOM     10  C   UNL A   1      30.614  24.987  24.677  1.00  0.00     0.091 C 
ATOM     11  C   UNL A   1      32.238  23.502  25.969  1.00  0.00     0.075 C 
ATOM     12  C   UNL A   1      31.520  22.880  23.658  1.00  0.00     0.075 C 
ATOM     13  C   UNL A   1      33.388  22.502  25.870  1.00  0.00     0.271 C 
ATOM     14  C   UNL A   1      32.653  21.864  23.593  1.00  0.00     0.271 C 
ATOM     15  N   UNL A   1      33.064  21.429  24.925  1.00  0.00    -0.270 N 
ATOM     16  H   UNL A   1      32.130  21.640  24.696  1.00  0.00     0.356 HD
BRANCH   6  17
ATOM     17  C   UNL A   1      31.965  26.235  22.139  1.00  0.00     0.262 C 
BRANCH  17  18
ATOM     18  C   UNL A   1      32.661  25.249  21.180  1.00  0.00     0.058 C 
ATOM     19  C   UNL A   1      32.493  25.591  19.703  1.00  0.00     0.010 C 
ENDBRANCH  17  18
ENDBRANCH   6  17
BRANCH  15  20
ATOM     20  C   UNL A   1      33.231  20.073  25.154  1.00  0.00     0.333 C 
ATOM     21  O   UNL A   1      32.399  19.409  25.779  1.00  0.00    -0.229 OA
BRANCH  20  22
ATOM     22  C   UNL A   1      34.459  19.381  24.621  1.00  0.00     0.293 C 
BRANCH  22  23
ATOM     23  N   UNL A   1      34.214  18.019  24.212  1.00  0.00    -0.216 N 
ATOM     24  N   UNL A   1      34.864  17.025  24.847  1.00  0.00    -0.044 NA
ATOM     25  C   UNL A   1      33.383  17.487  23.261  1.00  0.00     0.149 A 
ATOM     26  N   UNL A   1      34.458  15.909  24.264  1.00  0.00    -0.024 NA
ATOM     27  N   UNL A   1      33.541  16.178  23.282  1.00  0.00    -0.114 NA
ATOM     28  C   UNL A   1      32.482  18.230  22.355  1.00  0.00     0.091 C 
ENDBRANCH  22  23
ENDBRANCH  20  22
ENDBRANCH  15  20
ENDBRANCH   3   5
ENDBRANCH   2   3
ENDBRANCH   1   2
BRANCH   1  29
ATOM     29  C   UNL A   1      34.286  29.195  26.633  1.00  0.00     0.275 C 
BRANCH  29  30
ATOM     30  O   UNL A   1      35.431  28.992  27.455  1.00  0.00    -0.458 OA
BRANCH  30  31
ATOM     31  C   UNL A   1      36.016  30.134  27.882  1.00  0.00     0.338 C 
ATOM     32  O   UNL A   1      35.635  31.275  27.696  1.00  0.00    -0.246 OA
BRANCH  31  33
ATOM     33  C   UNL A   1      37.318  29.827  28.467  1.00  0.00     0.060 A 
ATOM     34  C   UNL A   1      38.451  30.180  27.726  1.00  0.00     0.016 A 
ATOM     35  C   UNL A   1      37.371  28.937  29.546  1.00  0.00     0.016 A 
ATOM     36  C   UNL A   1      39.623  29.497  27.962  1.00  0.00     0.010 A 
ATOM     37  C   UNL A   1      38.532  28.242  29.764  1.00  0.00     0.010 A 
ATOM     38  C   UNL A   1      39.617  28.482  28.922  1.00  0.00    -0.014 A 
BRANCH  38  39
ATOM     39  C   UNL A   1      40.802  27.673  29.072  1.00  0.00     0.031 A 
ATOM     40  C   UNL A   1      41.512  27.873  30.351  1.00  0.00     0.074 A 
ATOM     41  C   UNL A   1      41.111  26.711  28.184  1.00  0.00     0.049 A 
ATOM     42  N   UNL A   1      42.710  28.319  30.521  1.00  0.00    -0.248 NA
ATOM     43  C   UNL A   1      40.748  27.686  31.594  1.00  0.00     0.031 C 
ATOM     44  C   UNL A   1      40.297  26.237  27.062  1.00  0.00     0.029 A 
ATOM     45  N   UNL A   1      42.152  25.835  28.212  1.00  0.00    -0.354 N 
ATOM     46  C   UNL A   1      42.929  28.250  31.891  1.00  0.00     0.074 A 
ATOM     47  C   UNL A   1      41.646  28.048  32.509  1.00  0.00     0.031 C 
ATOM     48  C   UNL A   1      40.735  25.015  26.690  1.00  0.00     0.029 A 
ATOM     49  C   UNL A   1      41.919  24.687  27.466  1.00  0.00     0.049 A 
ATOM     50  H   UNL A   1      42.985  25.998  28.711  1.00  0.00     0.167 HD
ATOM     51  C   UNL A   1      44.180  28.108  32.402  1.00  0.00     0.034 A 
ATOM     52  C   UNL A   1      42.594  23.517  27.570  1.00  0.00     0.034 A 
ATOM     53  C   UNL A   1      45.198  28.388  31.426  1.00  0.00     0.049 A 
ATOM     54  C   UNL A   1      43.887  23.803  28.235  1.00  0.00     0.074 A 
ATOM     55  C   UNL A   1      45.532  29.479  30.648  1.00  0.00     0.029 A 
ATOM     56  N   UNL A   1      45.840  27.309  30.871  1.00  0.00    -0.354 N 
ATOM     57  N   UNL A   1      44.843  24.502  27.688  1.00  0.00    -0.248 NA
ATOM     58  C   UNL A   1      43.978  23.652  29.679  1.00  0.00     0.031 C 
ATOM     59  C   UNL A   1      45.994  28.928  29.418  1.00  0.00     0.029 A 
ATOM     60  C   UNL A   1      45.948  27.536  29.525  1.00  0.00     0.049 A 
ATOM     61  H   UNL A   1      46.164  26.514  31.353  1.00  0.00     0.167 HD
ATOM     62  C   UNL A   1      45.374  25.245  28.735  1.00  0.00     0.074 A 
ATOM     63  C   UNL A   1      44.905  24.577  29.945  1.00  0.00     0.031 C 
ATOM     64  C   UNL A   1      45.885  26.494  28.520  1.00  0.00     0.034 A 
BRANCH  51  65
ATOM     65  C   UNL A   1      44.491  27.372  33.677  1.00  0.00     0.023 A 
ATOM     66  C   UNL A   1      45.244  28.054  34.655  1.00  0.00     0.012 A 
ATOM     67  C   UNL A   1      44.310  25.981  33.854  1.00  0.00     0.148 A 
ATOM     68  C   UNL A   1      45.817  27.379  35.736  1.00  0.00     0.002 A 
ATOM     69  C   UNL A   1      44.803  25.332  34.978  1.00  0.00     0.091 A 
ATOM     70  F   UNL A   1      43.787  25.241  32.870  1.00  0.00    -0.205 F 
ATOM     71  C   UNL A   1      45.584  26.020  35.907  1.00  0.00     0.022 A 
BRANCH  69  72
ATOM     72  S   UNL A   1      44.463  23.593  35.272  1.00  0.00     0.127 S 
ATOM     73  O   UNL A   1      43.026  23.529  35.028  1.00  0.00    -0.237 OA
ATOM     74  O   UNL A   1      45.295  22.946  34.257  1.00  0.00    -0.237 OA
ATOM     75  O   UNL A   1      44.899  23.347  36.641  1.00  0.00    -0.744 OA
ENDBRANCH  69  72
ENDBRANCH  51  65
BRANCH  52  76
ATOM     76  C   UNL A   1      42.106  22.137  27.353  1.00  0.00     0.023 A 
ATOM     77  C   UNL A   1      40.740  21.848  27.531  1.00  0.00     0.012 A 
ATOM     78  C   UNL A   1      42.917  21.160  26.731  1.00  0.00     0.148 A 
ATOM     79  C   UNL A   1      40.193  20.642  27.080  1.00  0.00     0.002 A 
ATOM     80  C   UNL A   1      42.373  19.954  26.300  1.00  0.00     0.091 A 
ATOM     81  F   UNL A   1      44.199  21.448  26.472  1.00  0.00    -0.205 F 
ATOM     82  C   UNL A   1      41.008  19.697  26.462  1.00  0.00     0.022 A 
BRANCH  80  83
ATOM     83  S   UNL A   1      43.370  18.699  25.485  1.00  0.00     0.127 S 
ATOM     84  O   UNL A   1      42.533  17.507  25.620  1.00  0.00    -0.237 OA
ATOM     85  O   UNL A   1      43.470  19.226  24.127  1.00  0.00    -0.237 OA
ATOM     86  O   UNL A   1      44.618  18.638  26.236  1.00  0.00    -0.744 OA
ENDBRANCH  80  83
ENDBRANCH  52  76
BRANCH  64  87
ATOM     87  C   UNL A   1      46.113  26.930  27.092  1.00  0.00     0.023 A 
ATOM     88  C   UNL A   1      45.098  27.543  26.328  1.00  0.00     0.012 A 
ATOM     89  C   UNL A   1      47.415  26.878  26.564  1.00  0.00     0.148 A 
ATOM     90  C   UNL A   1      45.362  28.056  25.057  1.00  0.00     0.002 A 
ATOM     91  C   UNL A   1      47.686  27.434  25.319  1.00  0.00     0.091 A 
ATOM     92  F   UNL A   1      48.378  26.303  27.302  1.00  0.00    -0.205 F 
ATOM     93  C   UNL A   1      46.660  28.013  24.557  1.00  0.00     0.022 A 
BRANCH  91  94
ATOM     94  S   UNL A   1      49.361  27.531  24.682  1.00  0.00     0.127 S 
ATOM     95  O   UNL A   1      49.969  28.526  25.563  1.00  0.00    -0.237 OA
ATOM     96  O   UNL A   1      49.854  26.165  24.870  1.00  0.00    -0.237 OA
ATOM     97  O   UNL A   1      49.230  27.923  23.283  1.00  0.00    -0.744 OA
ENDBRANCH  91  94
ENDBRANCH  64  87
ENDBRANCH  38  39
ENDBRANCH  31  33
ENDBRANCH  30  31
ENDBRANCH  29  30
ENDBRANCH   1  29
TORSDOF 19
ENDMDL
MODEL 3
REMARK VINA RESULT:     -11.3      3.202      8.807
REMARK SMILES CCC[N@@H+]1CC2(CC[NH+](C(=O)Cn3nnnc3C)CC2)C[C@H]1C(=O)OCCOC(=O)c1ccc(-c2c3nc(c(-c4cccc(S(=O)(=O)[O-])c4F)c4ccc([nH]4)c(-c4cccc(S(=O)(=O)[O-])c4F)c4nc(c(-c5cccc(S(=O)(=O)[O-])c5F)c5ccc2[nH]5)C=C4)C=C3)cc1
REMARK SMILES IDX 26 1 25 2 23 3 24 4 22 5 4 6 5 7 6 9 21 10 7 11 20 12 8 13
REMARK SMILES IDX 19 14 9 15 3 17 2 18 1 19 10 20 11 21 12 22 13 23 14 24
REMARK SMILES IDX 17 25 15 26 16 27 18 28 27 29 28 30 29 31 30 32 31 33 32 34
REMARK SMILES IDX 93 35 33 36 92 37 34 38 35 39 36 40 86 41 37 42 91 43 85 44
REMARK SMILES IDX 87 45 38 46 90 47 84 48 83 49 39 51 71 52 51 53 70 54 52 55
REMARK SMILES IDX 55 56 69 57 88 58 53 59 54 60 68 62 89 63 56 64 40 65 41 66
REMARK SMILES IDX 49 67 42 68 44 69 50 70 43 71 45 72 46 73 47 74 48 75 72 76
REMARK SMILES IDX 73 77 81 78 74 79 76 80 82 81 75 82 77 83 78 84 79 85 80 86
REMARK SMILES IDX 57 87 58 88 66 89 59 90 61 91 67 92 60 93 62 94 63 95 64 96
REMARK SMILES IDX 65 97
REMARK H PARENT 4 8 9 16 87 50 55 61
REMARK Flexibility Score: inf
ROOT
ATOM      1  C   UNL A   1      39.385  21.523  26.106  1.00  0.00     0.274 C 
ENDROOT
BRANCH   1   2
ATOM      2  O   UNL A   1      38.020  21.929  26.300  1.00  0.00    -0.458 OA
BRANCH   2   3
ATOM      3  C   UNL A   1      37.432  22.609  25.277  1.00  0.00     0.365 C 
ATOM      4  O   UNL A   1      37.677  23.783  25.006  1.00  0.00    -0.245 OA
BRANCH   3   5
ATOM      5  C   UNL A   1      36.313  21.835  24.567  1.00  0.00     0.295 C 
ATOM      6  N   UNL A   1      35.309  21.162  25.440  1.00  0.00    -0.323 N 
ATOM      7  C   UNL A   1      34.348  22.192  25.806  1.00  0.00     0.270 C 
ATOM      8  H   UNL A   1      35.704  20.783  26.302  1.00  0.00     0.348 HD
ATOM      9  C   UNL A   1      34.295  23.194  24.634  1.00  0.00     0.036 C 
ATOM     10  C   UNL A   1      35.500  22.825  23.746  1.00  0.00     0.091 C 
ATOM     11  C   UNL A   1      34.398  24.643  25.157  1.00  0.00     0.075 C 
ATOM     12  C   UNL A   1      33.003  23.073  23.804  1.00  0.00     0.075 C 
ATOM     13  C   UNL A   1      33.156  25.052  25.945  1.00  0.00     0.271 C 
ATOM     14  C   UNL A   1      31.771  23.519  24.580  1.00  0.00     0.271 C 
ATOM     15  N   UNL A   1      31.943  24.855  25.143  1.00  0.00    -0.270 N 
ATOM     16  H   UNL A   1      32.321  24.589  24.274  1.00  0.00     0.356 HD
BRANCH   6  17
ATOM     17  C   UNL A   1      34.767  19.959  24.784  1.00  0.00     0.262 C 
BRANCH  17  18
ATOM     18  C   UNL A   1      33.276  19.631  25.001  1.00  0.00     0.058 C 
ATOM     19  C   UNL A   1      32.553  19.155  23.745  1.00  0.00     0.010 C 
ENDBRANCH  17  18
ENDBRANCH   6  17
BRANCH  15  20
ATOM     20  C   UNL A   1      30.920  25.775  24.988  1.00  0.00     0.333 C 
ATOM     21  O   UNL A   1      29.855  25.678  25.606  1.00  0.00    -0.229 OA
BRANCH  20  22
ATOM     22  C   UNL A   1      31.108  26.934  24.044  1.00  0.00     0.293 C 
BRANCH  22  23
ATOM     23  N   UNL A   1      32.025  26.650  22.967  1.00  0.00    -0.216 N 
ATOM     24  N   UNL A   1      31.650  25.784  22.006  1.00  0.00    -0.044 NA
ATOM     25  C   UNL A   1      33.278  27.129  22.686  1.00  0.00     0.149 A 
ATOM     26  N   UNL A   1      32.676  25.713  21.175  1.00  0.00    -0.024 NA
ATOM     27  N   UNL A   1      33.690  26.540  21.579  1.00  0.00    -0.114 NA
ATOM     28  C   UNL A   1      34.050  28.112  23.475  1.00  0.00     0.091 C 
ENDBRANCH  22  23
ENDBRANCH  20  22
ENDBRANCH  15  20
ENDBRANCH   3   5
ENDBRANCH   2   3
ENDBRANCH   1   2
BRANCH   1  29
ATOM     29  C   UNL A   1      40.254  21.950  27.278  1.00  0.00     0.275 C 
BRANCH  29  30
ATOM     30  O   UNL A   1      40.582  23.333  27.180  1.00  0.00    -0.458 OA
BRANCH  30  31
ATOM     31  C   UNL A   1      41.807  23.576  26.663  1.00  0.00     0.338 C 
ATOM     32  O   UNL A   1      42.545  22.785  26.104  1.00  0.00    -0.246 OA
BRANCH  31  33
ATOM     33  C   UNL A   1      42.235  24.922  27.032  1.00  0.00     0.060 A 
ATOM     34  C   UNL A   1      42.965  25.057  28.218  1.00  0.00     0.016 A 
ATOM     35  C   UNL A   1      41.642  26.012  26.385  1.00  0.00     0.016 A 
ATOM     36  C   UNL A   1      42.954  26.278  28.855  1.00  0.00     0.010 A 
ATOM     37  C   UNL A   1      41.613  27.219  27.032  1.00  0.00     0.010 A 
ATOM     38  C   UNL A   1      42.208  27.314  28.289  1.00  0.00    -0.014 A 
BRANCH  38  39
ATOM     39  C   UNL A   1      42.080  28.549  29.025  1.00  0.00     0.031 A 
ATOM     40  C   UNL A   1      43.047  29.590  28.628  1.00  0.00     0.074 A 
ATOM     41  C   UNL A   1      41.054  28.759  29.869  1.00  0.00     0.049 A 
ATOM     42  N   UNL A   1      43.963  30.129  29.359  1.00  0.00    -0.248 NA
ATOM     43  C   UNL A   1      43.090  29.980  27.210  1.00  0.00     0.031 C 
ATOM     44  C   UNL A   1      39.883  27.903  30.081  1.00  0.00     0.029 A 
ATOM     45  N   UNL A   1      40.763  29.876  30.588  1.00  0.00    -0.354 N 
ATOM     46  C   UNL A   1      44.551  31.094  28.550  1.00  0.00     0.074 A 
ATOM     47  C   UNL A   1      44.119  30.827  27.203  1.00  0.00     0.031 C 
ATOM     48  C   UNL A   1      38.905  28.637  30.654  1.00  0.00     0.029 A 
ATOM     49  C   UNL A   1      39.425  29.962  30.948  1.00  0.00     0.049 A 
ATOM     50  H   UNL A   1      41.435  30.556  30.829  1.00  0.00     0.167 HD
ATOM     51  C   UNL A   1      45.143  32.196  29.078  1.00  0.00     0.034 A 
ATOM     52  C   UNL A   1      38.778  31.080  31.354  1.00  0.00     0.034 A 
ATOM     53  C   UNL A   1      45.387  32.056  30.488  1.00  0.00     0.049 A 
ATOM     54  C   UNL A   1      39.802  32.053  31.804  1.00  0.00     0.074 A 
ATOM     55  C   UNL A   1      46.101  31.173  31.273  1.00  0.00     0.029 A 
ATOM     56  N   UNL A   1      44.533  32.719  31.335  1.00  0.00    -0.354 N 
ATOM     57  N   UNL A   1      40.538  31.888  32.868  1.00  0.00    -0.248 NA
ATOM     58  C   UNL A   1      40.299  33.034  30.851  1.00  0.00     0.031 C 
ATOM     59  C   UNL A   1      45.336  31.037  32.468  1.00  0.00     0.029 A 
ATOM     60  C   UNL A   1      44.218  31.867  32.359  1.00  0.00     0.049 A 
ATOM     61  H   UNL A   1      44.206  33.641  31.225  1.00  0.00     0.167 HD
ATOM     62  C   UNL A   1      41.785  32.381  32.508  1.00  0.00     0.074 A 
ATOM     63  C   UNL A   1      41.539  33.197  31.323  1.00  0.00     0.031 C 
ATOM     64  C   UNL A   1      42.930  31.839  33.022  1.00  0.00     0.034 A 
BRANCH  51  65
ATOM     65  C   UNL A   1      45.180  33.539  28.400  1.00  0.00     0.023 A 
ATOM     66  C   UNL A   1      46.437  34.161  28.258  1.00  0.00     0.012 A 
ATOM     67  C   UNL A   1      44.035  34.326  28.137  1.00  0.00     0.148 A 
ATOM     68  C   UNL A   1      46.548  35.509  27.904  1.00  0.00     0.002 A 
ATOM     69  C   UNL A   1      44.154  35.637  27.696  1.00  0.00     0.091 A 
ATOM     70  F   UNL A   1      42.818  33.866  28.447  1.00  0.00    -0.205 F 
ATOM     71  C   UNL A   1      45.407  36.244  27.608  1.00  0.00     0.022 A 
BRANCH  69  72
ATOM     72  S   UNL A   1      42.708  36.597  27.235  1.00  0.00     0.127 S 
ATOM     73  O   UNL A   1      43.306  37.885  26.896  1.00  0.00    -0.237 OA
ATOM     74  O   UNL A   1      42.188  35.835  26.099  1.00  0.00    -0.237 OA
ATOM     75  O   UNL A   1      41.845  36.573  28.410  1.00  0.00    -0.744 OA
ENDBRANCH  69  72
ENDBRANCH  51  65
BRANCH  52  76
ATOM     76  C   UNL A   1      37.360  31.459  31.161  1.00  0.00     0.023 A 
ATOM     77  C   UNL A   1      36.569  31.778  32.280  1.00  0.00     0.012 A 
ATOM     78  C   UNL A   1      36.847  31.753  29.877  1.00  0.00     0.148 A 
ATOM     79  C   UNL A   1      35.322  32.395  32.129  1.00  0.00     0.002 A 
ATOM     80  C   UNL A   1      35.599  32.351  29.730  1.00  0.00     0.091 A 
ATOM     81  F   UNL A   1      37.618  31.538  28.803  1.00  0.00    -0.205 F 
ATOM     82  C   UNL A   1      34.839  32.685  30.856  1.00  0.00     0.022 A 
BRANCH  80  83
ATOM     83  S   UNL A   1      34.925  32.759  28.114  1.00  0.00     0.127 S 
ATOM     84  O   UNL A   1      34.779  31.439  27.500  1.00  0.00    -0.237 OA
ATOM     85  O   UNL A   1      33.667  33.412  28.467  1.00  0.00    -0.237 OA
ATOM     86  O   UNL A   1      35.922  33.607  27.473  1.00  0.00    -0.744 OA
ENDBRANCH  80  83
ENDBRANCH  52  76
BRANCH  64  87
ATOM     87  C   UNL A   1      42.801  30.890  34.189  1.00  0.00     0.023 A 
ATOM     88  C   UNL A   1      42.796  31.345  35.525  1.00  0.00     0.012 A 
ATOM     89  C   UNL A   1      42.513  29.537  33.938  1.00  0.00     0.148 A 
ATOM     90  C   UNL A   1      42.547  30.471  36.584  1.00  0.00     0.002 A 
ATOM     91  C   UNL A   1      42.216  28.679  34.992  1.00  0.00     0.091 A 
ATOM     92  F   UNL A   1      42.509  29.113  32.664  1.00  0.00    -0.205 F 
ATOM     93  C   UNL A   1      42.245  29.139  36.317  1.00  0.00     0.022 A 
BRANCH  91  94
ATOM     94  S   UNL A   1      41.686  26.989  34.702  1.00  0.00     0.127 S 
ATOM     95  O   UNL A   1      40.579  27.170  33.765  1.00  0.00    -0.237 OA
ATOM     96  O   UNL A   1      42.883  26.374  34.123  1.00  0.00    -0.237 OA
ATOM     97  O   UNL A   1      41.325  26.458  36.011  1.00  0.00    -0.744 OA
ENDBRANCH  91  94
ENDBRANCH  64  87
ENDBRANCH  38  39
ENDBRANCH  31  33
ENDBRANCH  30  31
ENDBRANCH  29  30
ENDBRANCH   1  29
TORSDOF 19
ENDMDL
