MODEL 1
REMARK VINA RESULT:     -12.9      0.000      0.000
REMARK SMILES O=C(N[C@]1(C(=O)OCCOC(=O)c2ccc(-c3c4nc(c(-c5cccc(S(=O)(=O)[O-])c5F)c5ccc([nH]5)c(-c5cccc(S(=O)(=O)[O-])c5F)c5nc(c(-c6cccc(S(=O)(=O)[O-])c6F)c6ccc3[nH]6)C=C5)C=C4)cc2)CC[C@H](c2ccccc2)CC1)OCC1c2ccccc2-c2ccccc21
REMARK SMILES IDX 8 1 7 2 5 3 6 4 4 5 76 6 86 7 77 8 85 9 78 10 3 11 1 12 2 13
REMARK SMILES IDX 87 15 88 16 89 17 90 18 101 19 91 20 95 21 96 22 100 23
REMARK SMILES IDX 92 24 94 25 97 26 99 27 93 28 98 29 79 30 80 31 84 32 81 33
REMARK SMILES IDX 83 34 82 35 9 36 10 37 11 38 12 39 13 40 14 41 75 42 15 43
REMARK SMILES IDX 74 44 16 45 17 46 18 47 68 48 19 49 73 50 67 51 69 52 20 53
REMARK SMILES IDX 72 54 66 55 65 56 21 58 53 59 33 60 52 61 34 62 37 63 51 64
REMARK SMILES IDX 70 65 35 66 36 67 50 69 71 70 38 71 22 72 23 73 31 74 24 75
REMARK SMILES IDX 26 76 32 77 25 78 27 79 28 80 29 81 30 82 54 83 55 84 63 85
REMARK SMILES IDX 56 86 58 87 64 88 57 89 59 90 60 91 61 92 62 93 39 94 40 95
REMARK SMILES IDX 48 96 41 97 43 98 49 99 42 100 44 101 45 102 46 103 47 104
REMARK H PARENT 3 14 69 57 37 68
REMARK Flexibility Score: inf
ROOT
ATOM      1  C   UNL A   1      31.038  30.250  24.607  1.00  0.00     0.274 C 
ENDROOT
BRANCH   1   2
ATOM      2  O   UNL A   1      30.923  28.939  24.007  1.00  0.00    -0.460 OA
BRANCH   2   3
ATOM      3  C   UNL A   1      32.056  28.434  23.446  1.00  0.00     0.332 C 
ATOM      4  O   UNL A   1      32.750  29.067  22.654  1.00  0.00    -0.249 OA
BRANCH   3   5
ATOM      5  C   UNL A   1      32.375  26.953  23.843  1.00  0.00     0.141 C 
ATOM      6  C   UNL A   1      31.003  26.222  23.882  1.00  0.00     0.041 C 
ATOM      7  C   UNL A   1      33.069  26.786  25.212  1.00  0.00     0.041 C 
ATOM      8  C   UNL A   1      30.212  26.458  25.179  1.00  0.00     0.011 C 
ATOM      9  C   UNL A   1      32.224  26.976  26.457  1.00  0.00     0.011 C 
ATOM     10  C   UNL A   1      31.002  26.062  26.446  1.00  0.00     0.019 C 
BRANCH   5  11
ATOM     11  N   UNL A   1      33.218  26.297  22.786  1.00  0.00    -0.305 N 
ATOM     12  O   UNL A   1      33.645  24.495  21.431  1.00  0.00    -0.225 OA
ATOM     13  C   UNL A   1      33.187  24.960  22.466  1.00  0.00     0.408 C 
ATOM     14  H   UNL A   1      33.843  26.870  22.284  1.00  0.00     0.168 HD
BRANCH  13  15
ATOM     15  O   UNL A   1      32.529  24.283  23.402  1.00  0.00    -0.449 OA
BRANCH  15  16
ATOM     16  C   UNL A   1      31.993  22.932  23.311  1.00  0.00     0.248 C 
BRANCH  16  17
ATOM     17  C   UNL A   1      33.228  22.054  23.583  1.00  0.00     0.088 C 
ATOM     18  C   UNL A   1      34.433  22.439  24.444  1.00  0.00    -0.029 A 
ATOM     19  C   UNL A   1      33.103  20.562  23.833  1.00  0.00    -0.029 A 
ATOM     20  C   UNL A   1      35.013  23.683  24.629  1.00  0.00     0.005 A 
ATOM     21  C   UNL A   1      35.161  21.249  24.690  1.00  0.00    -0.014 A 
ATOM     22  C   UNL A   1      34.301  20.107  24.429  1.00  0.00    -0.014 A 
ATOM     23  C   UNL A   1      32.151  19.672  23.359  1.00  0.00     0.005 A 
ATOM     24  C   UNL A   1      36.390  23.734  24.862  1.00  0.00     0.000 A 
ATOM     25  C   UNL A   1      36.525  21.303  24.924  1.00  0.00     0.009 A 
ATOM     26  C   UNL A   1      34.520  18.754  24.618  1.00  0.00     0.009 A 
ATOM     27  C   UNL A   1      32.397  18.307  23.503  1.00  0.00     0.000 A 
ATOM     28  C   UNL A   1      37.146  22.555  24.964  1.00  0.00     0.001 A 
ATOM     29  C   UNL A   1      33.560  17.853  24.146  1.00  0.00     0.001 A 
ENDBRANCH  16  17
ENDBRANCH  15  16
ENDBRANCH  13  15
ENDBRANCH   5  11
BRANCH  10  30
ATOM     30  C   UNL A   1      31.338  24.575  26.598  1.00  0.00    -0.045 A 
ATOM     31  C   UNL A   1      30.439  23.575  26.200  1.00  0.00     0.004 A 
ATOM     32  C   UNL A   1      32.550  24.151  27.182  1.00  0.00     0.004 A 
ATOM     33  C   UNL A   1      30.757  22.219  26.313  1.00  0.00     0.000 A 
ATOM     34  C   UNL A   1      32.869  22.794  27.297  1.00  0.00     0.000 A 
ATOM     35  C   UNL A   1      31.975  21.828  26.855  1.00  0.00     0.000 A 
ENDBRANCH  10  30
ENDBRANCH   3   5
ENDBRANCH   2   3
ENDBRANCH   1   2
BRANCH   1  36
ATOM     36  C   UNL A   1      31.564  30.242  26.046  1.00  0.00     0.275 C 
BRANCH  36  37
ATOM     37  O   UNL A   1      32.992  30.443  26.089  1.00  0.00    -0.458 OA
BRANCH  37  38
ATOM     38  C   UNL A   1      33.344  31.341  27.026  1.00  0.00     0.338 C 
ATOM     39  O   UNL A   1      32.756  32.376  27.275  1.00  0.00    -0.246 OA
BRANCH  38  40
ATOM     40  C   UNL A   1      34.494  31.035  27.856  1.00  0.00     0.060 A 
ATOM     41  C   UNL A   1      35.467  32.017  28.000  1.00  0.00     0.016 A 
ATOM     42  C   UNL A   1      34.786  29.688  28.090  1.00  0.00     0.016 A 
ATOM     43  C   UNL A   1      36.759  31.649  28.343  1.00  0.00     0.010 A 
ATOM     44  C   UNL A   1      36.054  29.334  28.541  1.00  0.00     0.010 A 
ATOM     45  C   UNL A   1      37.044  30.316  28.680  1.00  0.00    -0.014 A 
BRANCH  45  46
ATOM     46  C   UNL A   1      38.310  30.008  29.377  1.00  0.00     0.031 A 
ATOM     47  C   UNL A   1      39.329  29.075  28.802  1.00  0.00     0.074 A 
ATOM     48  C   UNL A   1      38.458  30.542  30.605  1.00  0.00     0.049 A 
ATOM     49  N   UNL A   1      40.389  28.573  29.379  1.00  0.00    -0.248 NA
ATOM     50  C   UNL A   1      39.130  28.629  27.414  1.00  0.00     0.031 C 
ATOM     51  C   UNL A   1      37.487  31.431  31.255  1.00  0.00     0.029 A 
ATOM     52  N   UNL A   1      39.451  30.404  31.536  1.00  0.00    -0.354 N 
ATOM     53  C   UNL A   1      40.956  27.708  28.452  1.00  0.00     0.074 A 
ATOM     54  C   UNL A   1      40.129  27.764  27.264  1.00  0.00     0.031 C 
ATOM     55  C   UNL A   1      37.938  31.775  32.465  1.00  0.00     0.029 A 
ATOM     56  C   UNL A   1      39.174  31.053  32.716  1.00  0.00     0.049 A 
ATOM     57  H   UNL A   1      40.278  29.895  31.376  1.00  0.00     0.167 HD
ATOM     58  C   UNL A   1      42.066  26.943  28.595  1.00  0.00     0.034 A 
ATOM     59  C   UNL A   1      39.808  31.025  33.900  1.00  0.00     0.034 A 
ATOM     60  C   UNL A   1      42.885  26.942  29.783  1.00  0.00     0.049 A 
ATOM     61  C   UNL A   1      41.044  30.192  34.014  1.00  0.00     0.074 A 
ATOM     62  C   UNL A   1      44.059  26.248  30.020  1.00  0.00     0.029 A 
ATOM     63  N   UNL A   1      42.617  27.672  30.934  1.00  0.00    -0.354 N 
ATOM     64  N   UNL A   1      41.607  29.434  33.105  1.00  0.00    -0.248 NA
ATOM     65  C   UNL A   1      41.742  30.223  35.301  1.00  0.00     0.031 C 
ATOM     66  C   UNL A   1      44.486  26.540  31.321  1.00  0.00     0.029 A 
ATOM     67  C   UNL A   1      43.598  27.441  31.886  1.00  0.00     0.049 A 
ATOM     68  H   UNL A   1      41.842  28.266  31.057  1.00  0.00     0.167 HD
ATOM     69  C   UNL A   1      42.742  28.910  33.703  1.00  0.00     0.074 A 
ATOM     70  C   UNL A   1      42.798  29.464  35.043  1.00  0.00     0.031 C 
ATOM     71  C   UNL A   1      43.646  28.034  33.199  1.00  0.00     0.034 A 
BRANCH  58  72
ATOM     72  C   UNL A   1      42.479  26.056  27.446  1.00  0.00     0.023 A 
ATOM     73  C   UNL A   1      43.356  26.549  26.459  1.00  0.00     0.012 A 
ATOM     74  C   UNL A   1      42.067  24.707  27.387  1.00  0.00     0.148 A 
ATOM     75  C   UNL A   1      43.795  25.725  25.420  1.00  0.00     0.002 A 
ATOM     76  C   UNL A   1      42.541  23.882  26.372  1.00  0.00     0.091 A 
ATOM     77  F   UNL A   1      41.221  24.256  28.324  1.00  0.00    -0.205 F 
ATOM     78  C   UNL A   1      43.396  24.392  25.383  1.00  0.00     0.022 A 
BRANCH  76  79
ATOM     79  S   UNL A   1      42.150  22.130  26.280  1.00  0.00     0.127 S 
ATOM     80  O   UNL A   1      40.694  22.158  26.142  1.00  0.00    -0.237 OA
ATOM     81  O   UNL A   1      42.867  21.716  25.073  1.00  0.00    -0.237 OA
ATOM     82  O   UNL A   1      42.648  21.539  27.514  1.00  0.00    -0.744 OA
ENDBRANCH  76  79
ENDBRANCH  58  72
BRANCH  59  83
ATOM     83  C   UNL A   1      39.274  31.826  35.034  1.00  0.00     0.023 A 
ATOM     84  C   UNL A   1      38.434  31.210  35.979  1.00  0.00     0.012 A 
ATOM     85  C   UNL A   1      39.676  33.163  35.237  1.00  0.00     0.148 A 
ATOM     86  C   UNL A   1      37.986  31.916  37.095  1.00  0.00     0.002 A 
ATOM     87  C   UNL A   1      39.280  33.838  36.384  1.00  0.00     0.091 A 
ATOM     88  F   UNL A   1      40.472  33.734  34.323  1.00  0.00    -0.205 F 
ATOM     89  C   UNL A   1      38.421  33.223  37.306  1.00  0.00     0.022 A 
BRANCH  87  90
ATOM     90  S   UNL A   1      39.932  35.456  36.813  1.00  0.00     0.127 S 
ATOM     91  O   UNL A   1      39.198  35.758  38.039  1.00  0.00    -0.237 OA
ATOM     92  O   UNL A   1      41.356  35.173  37.003  1.00  0.00    -0.237 OA
ATOM     93  O   UNL A   1      39.643  36.310  35.669  1.00  0.00    -0.744 OA
ENDBRANCH  87  90
ENDBRANCH  59  83
BRANCH  71  94
ATOM     94  C   UNL A   1      44.787  27.651  34.100  1.00  0.00     0.023 A 
ATOM     95  C   UNL A   1      45.966  28.421  34.102  1.00  0.00     0.012 A 
ATOM     96  C   UNL A   1      44.673  26.548  34.967  1.00  0.00     0.148 A 
ATOM     97  C   UNL A   1      47.034  28.075  34.929  1.00  0.00     0.002 A 
ATOM     98  C   UNL A   1      45.721  26.241  35.825  1.00  0.00     0.091 A 
ATOM     99  F   UNL A   1      43.550  25.817  34.929  1.00  0.00    -0.205 F 
ATOM    100  C   UNL A   1      46.907  26.993  35.797  1.00  0.00     0.022 A 
BRANCH  98 101
ATOM    101  S   UNL A   1      45.612  24.922  37.039  1.00  0.00     0.127 S 
ATOM    102  O   UNL A   1      44.275  25.135  37.591  1.00  0.00    -0.237 OA
ATOM    103  O   UNL A   1      45.746  23.726  36.208  1.00  0.00    -0.237 OA
ATOM    104  O   UNL A   1      46.714  25.140  37.967  1.00  0.00    -0.744 OA
ENDBRANCH  98 101
ENDBRANCH  71  94
ENDBRANCH  45  46
ENDBRANCH  38  40
ENDBRANCH  37  38
ENDBRANCH  36  37
ENDBRANCH   1  36
TORSDOF 19
ENDMDL
MODEL 2
REMARK VINA RESULT:     -12.4      1.753      2.727
REMARK SMILES O=C(N[C@]1(C(=O)OCCOC(=O)c2ccc(-c3c4nc(c(-c5cccc(S(=O)(=O)[O-])c5F)c5ccc([nH]5)c(-c5cccc(S(=O)(=O)[O-])c5F)c5nc(c(-c6cccc(S(=O)(=O)[O-])c6F)c6ccc3[nH]6)C=C5)C=C4)cc2)CC[C@H](c2ccccc2)CC1)OCC1c2ccccc2-c2ccccc21
REMARK SMILES IDX 8 1 7 2 5 3 6 4 4 5 76 6 86 7 77 8 85 9 78 10 3 11 1 12 2 13
REMARK SMILES IDX 87 15 88 16 89 17 90 18 101 19 91 20 95 21 96 22 100 23
REMARK SMILES IDX 92 24 94 25 97 26 99 27 93 28 98 29 79 30 80 31 84 32 81 33
REMARK SMILES IDX 83 34 82 35 9 36 10 37 11 38 12 39 13 40 14 41 75 42 15 43
REMARK SMILES IDX 74 44 16 45 17 46 18 47 68 48 19 49 73 50 67 51 69 52 20 53
REMARK SMILES IDX 72 54 66 55 65 56 21 58 53 59 33 60 52 61 34 62 37 63 51 64
REMARK SMILES IDX 70 65 35 66 36 67 50 69 71 70 38 71 22 72 23 73 31 74 24 75
REMARK SMILES IDX 26 76 32 77 25 78 27 79 28 80 29 81 30 82 54 83 55 84 63 85
REMARK SMILES IDX 56 86 58 87 64 88 57 89 59 90 60 91 61 92 62 93 39 94 40 95
REMARK SMILES IDX 48 96 41 97 43 98 49 99 42 100 44 101 45 102 46 103 47 104
REMARK H PARENT 3 14 69 57 37 68
REMARK Flexibility Score: inf
ROOT
ATOM      1  C   UNL A   1      30.983  32.156  25.785  1.00  0.00     0.274 C 
ENDROOT
BRANCH   1   2
ATOM      2  O   UNL A   1      30.947  30.710  25.771  1.00  0.00    -0.460 OA
BRANCH   2   3
ATOM      3  C   UNL A   1      30.611  30.130  24.586  1.00  0.00     0.332 C 
ATOM      4  O   UNL A   1      29.671  30.517  23.895  1.00  0.00    -0.249 OA
BRANCH   3   5
ATOM      5  C   UNL A   1      31.481  28.886  24.200  1.00  0.00     0.141 C 
ATOM      6  C   UNL A   1      31.063  28.513  22.749  1.00  0.00     0.041 C 
ATOM      7  C   UNL A   1      31.286  27.654  25.110  1.00  0.00     0.041 C 
ATOM      8  C   UNL A   1      29.762  27.697  22.671  1.00  0.00     0.011 C 
ATOM      9  C   UNL A   1      30.008  26.854  24.947  1.00  0.00     0.011 C 
ATOM     10  C   UNL A   1      29.816  26.397  23.504  1.00  0.00     0.019 C 
BRANCH   5  11
ATOM     11  N   UNL A   1      32.939  29.252  24.181  1.00  0.00    -0.305 N 
ATOM     12  O   UNL A   1      35.139  28.608  24.110  1.00  0.00    -0.225 OA
ATOM     13  C   UNL A   1      33.976  28.380  24.412  1.00  0.00     0.408 C 
ATOM     14  H   UNL A   1      33.169  30.191  23.989  1.00  0.00     0.168 HD
BRANCH  13  15
ATOM     15  O   UNL A   1      33.512  27.249  24.933  1.00  0.00    -0.449 OA
BRANCH  15  16
ATOM     16  C   UNL A   1      34.039  26.513  26.075  1.00  0.00     0.248 C 
BRANCH  16  17
ATOM     17  C   UNL A   1      33.860  25.045  25.650  1.00  0.00     0.088 C 
ATOM     18  C   UNL A   1      34.979  24.018  25.466  1.00  0.00    -0.029 A 
ATOM     19  C   UNL A   1      32.715  24.199  26.176  1.00  0.00    -0.029 A 
ATOM     20  C   UNL A   1      36.277  24.210  25.021  1.00  0.00     0.005 A 
ATOM     21  C   UNL A   1      34.363  22.745  25.396  1.00  0.00    -0.014 A 
ATOM     22  C   UNL A   1      33.021  22.839  25.943  1.00  0.00    -0.014 A 
ATOM     23  C   UNL A   1      31.447  24.594  26.577  1.00  0.00     0.005 A 
ATOM     24  C   UNL A   1      36.886  23.169  24.314  1.00  0.00     0.000 A 
ATOM     25  C   UNL A   1      34.971  21.714  24.698  1.00  0.00     0.009 A 
ATOM     26  C   UNL A   1      32.074  21.857  26.182  1.00  0.00     0.009 A 
ATOM     27  C   UNL A   1      30.480  23.608  26.767  1.00  0.00     0.000 A 
ATOM     28  C   UNL A   1      36.220  21.949  24.117  1.00  0.00     0.001 A 
ATOM     29  C   UNL A   1      30.796  22.251  26.592  1.00  0.00     0.001 A 
ENDBRANCH  16  17
ENDBRANCH  15  16
ENDBRANCH  13  15
ENDBRANCH   5  11
BRANCH  10  30
ATOM     30  C   UNL A   1      30.829  25.341  23.049  1.00  0.00    -0.045 A 
ATOM     31  C   UNL A   1      32.029  25.700  22.417  1.00  0.00     0.004 A 
ATOM     32  C   UNL A   1      30.577  23.964  23.210  1.00  0.00     0.004 A 
ATOM     33  C   UNL A   1      32.965  24.739  22.027  1.00  0.00     0.000 A 
ATOM     34  C   UNL A   1      31.512  23.000  22.819  1.00  0.00     0.000 A 
ATOM     35  C   UNL A   1      32.711  23.388  22.234  1.00  0.00     0.000 A 
ENDBRANCH  10  30
ENDBRANCH   3   5
ENDBRANCH   2   3
ENDBRANCH   1   2
BRANCH   1  36
ATOM     36  C   UNL A   1      31.710  32.759  26.992  1.00  0.00     0.275 C 
BRANCH  36  37
ATOM     37  O   UNL A   1      32.938  32.057  27.274  1.00  0.00    -0.458 OA
BRANCH  37  38
ATOM     38  C   UNL A   1      33.892  32.884  27.738  1.00  0.00     0.338 C 
ATOM     39  O   UNL A   1      33.776  34.083  27.902  1.00  0.00    -0.246 OA
BRANCH  38  40
ATOM     40  C   UNL A   1      35.160  32.298  28.132  1.00  0.00     0.060 A 
ATOM     41  C   UNL A   1      35.127  31.105  28.845  1.00  0.00     0.016 A 
ATOM     42  C   UNL A   1      36.277  33.136  28.178  1.00  0.00     0.016 A 
ATOM     43  C   UNL A   1      36.204  30.761  29.647  1.00  0.00     0.010 A 
ATOM     44  C   UNL A   1      37.401  32.736  28.894  1.00  0.00     0.010 A 
ATOM     45  C   UNL A   1      37.373  31.539  29.624  1.00  0.00    -0.014 A 
BRANCH  45  46
ATOM     46  C   UNL A   1      38.617  30.981  30.191  1.00  0.00     0.031 A 
ATOM     47  C   UNL A   1      39.421  29.939  29.479  1.00  0.00     0.074 A 
ATOM     48  C   UNL A   1      38.942  31.394  31.432  1.00  0.00     0.049 A 
ATOM     49  N   UNL A   1      40.422  29.232  29.934  1.00  0.00    -0.248 NA
ATOM     50  C   UNL A   1      39.050  29.633  28.089  1.00  0.00     0.031 C 
ATOM     51  C   UNL A   1      38.184  32.380  32.213  1.00  0.00     0.029 A 
ATOM     52  N   UNL A   1      39.964  31.032  32.267  1.00  0.00    -0.354 N 
ATOM     53  C   UNL A   1      40.768  28.356  28.913  1.00  0.00     0.074 A 
ATOM     54  C   UNL A   1      39.877  28.631  27.805  1.00  0.00     0.031 C 
ATOM     55  C   UNL A   1      38.773  32.558  33.398  1.00  0.00     0.029 A 
ATOM     56  C   UNL A   1      39.886  31.630  33.502  1.00  0.00     0.049 A 
ATOM     57  H   UNL A   1      40.680  30.408  32.008  1.00  0.00     0.167 HD
ATOM     58  C   UNL A   1      41.742  27.413  28.917  1.00  0.00     0.034 A 
ATOM     59  C   UNL A   1      40.592  31.415  34.625  1.00  0.00     0.034 A 
ATOM     60  C   UNL A   1      42.635  27.195  30.030  1.00  0.00     0.049 A 
ATOM     61  C   UNL A   1      41.677  30.387  34.585  1.00  0.00     0.074 A 
ATOM     62  C   UNL A   1      43.691  26.306  30.126  1.00  0.00     0.029 A 
ATOM     63  N   UNL A   1      42.577  27.874  31.240  1.00  0.00    -0.354 N 
ATOM     64  N   UNL A   1      42.038  29.615  33.589  1.00  0.00    -0.248 NA
ATOM     65  C   UNL A   1      42.463  30.212  35.808  1.00  0.00     0.031 C 
ATOM     66  C   UNL A   1      44.255  26.430  31.401  1.00  0.00     0.029 A 
ATOM     67  C   UNL A   1      43.573  27.420  32.091  1.00  0.00     0.049 A 
ATOM     68  H   UNL A   1      41.923  28.575  31.462  1.00  0.00     0.167 HD
ATOM     69  C   UNL A   1      43.110  28.873  34.057  1.00  0.00     0.074 A 
ATOM     70  C   UNL A   1      43.355  29.312  35.418  1.00  0.00     0.031 C 
ATOM     71  C   UNL A   1      43.816  27.901  33.428  1.00  0.00     0.034 A 
BRANCH  58  72
ATOM     72  C   UNL A   1      41.916  26.557  27.687  1.00  0.00     0.023 A 
ATOM     73  C   UNL A   1      42.572  27.080  26.554  1.00  0.00     0.012 A 
ATOM     74  C   UNL A   1      41.507  25.206  27.680  1.00  0.00     0.148 A 
ATOM     75  C   UNL A   1      42.793  26.283  25.428  1.00  0.00     0.002 A 
ATOM     76  C   UNL A   1      41.767  24.408  26.571  1.00  0.00     0.091 A 
ATOM     77  F   UNL A   1      40.870  24.727  28.759  1.00  0.00    -0.205 F 
ATOM     78  C   UNL A   1      42.401  24.949  25.441  1.00  0.00     0.022 A 
BRANCH  76  79
ATOM     79  S   UNL A   1      41.372  22.655  26.518  1.00  0.00     0.127 S 
ATOM     80  O   UNL A   1      42.087  22.227  25.317  1.00  0.00    -0.237 OA
ATOM     81  O   UNL A   1      41.949  22.171  27.773  1.00  0.00    -0.237 OA
ATOM     82  O   UNL A   1      39.921  22.570  26.444  1.00  0.00    -0.744 OA
ENDBRANCH  76  79
ENDBRANCH  58  72
BRANCH  59  83
ATOM     83  C   UNL A   1      40.284  32.208  35.845  1.00  0.00     0.023 A 
ATOM     84  C   UNL A   1      41.036  33.363  36.126  1.00  0.00     0.012 A 
ATOM     85  C   UNL A   1      39.186  31.883  36.668  1.00  0.00     0.148 A 
ATOM     86  C   UNL A   1      40.714  34.168  37.218  1.00  0.00     0.002 A 
ATOM     87  C   UNL A   1      38.831  32.726  37.714  1.00  0.00     0.091 A 
ATOM     88  F   UNL A   1      38.485  30.775  36.387  1.00  0.00    -0.205 F 
ATOM     89  C   UNL A   1      39.604  33.860  38.001  1.00  0.00     0.022 A 
BRANCH  87  90
ATOM     90  S   UNL A   1      37.321  32.492  38.658  1.00  0.00     0.127 S 
ATOM     91  O   UNL A   1      37.362  31.059  38.937  1.00  0.00    -0.237 OA
ATOM     92  O   UNL A   1      37.550  33.352  39.821  1.00  0.00    -0.237 OA
ATOM     93  O   UNL A   1      36.242  32.942  37.790  1.00  0.00    -0.744 OA
ENDBRANCH  87  90
ENDBRANCH  59  83
BRANCH  71  94
ATOM     94  C   UNL A   1      44.939  27.275  34.205  1.00  0.00     0.023 A 
ATOM     95  C   UNL A   1      46.235  27.823  34.128  1.00  0.00     0.012 A 
ATOM     96  C   UNL A   1      44.701  26.165  35.037  1.00  0.00     0.148 A 
ATOM     97  C   UNL A   1      47.288  27.250  34.840  1.00  0.00     0.002 A 
ATOM     98  C   UNL A   1      45.744  25.632  35.783  1.00  0.00     0.091 A 
ATOM     99  F   UNL A   1      43.465  25.647  35.075  1.00  0.00    -0.205 F 
ATOM    100  C   UNL A   1      47.040  26.163  35.675  1.00  0.00     0.022 A 
BRANCH  98 101
ATOM    101  S   UNL A   1      45.500  24.291  36.952  1.00  0.00     0.127 S 
ATOM    102  O   UNL A   1      45.083  23.201  36.072  1.00  0.00    -0.237 OA
ATOM    103  O   UNL A   1      46.837  24.134  37.526  1.00  0.00    -0.237 OA
ATOM    104  O   UNL A   1      44.490  24.756  37.893  1.00  0.00    -0.744 OA
ENDBRANCH  98 101
ENDBRANCH  71  94
ENDBRANCH  45  46
ENDBRANCH  38  40
ENDBRANCH  37  38
ENDBRANCH  36  37
ENDBRANCH   1  36
TORSDOF 19
ENDMDL
MODEL 3
REMARK VINA RESULT:     -11.7      2.230      3.782
REMARK SMILES O=C(N[C@]1(C(=O)OCCOC(=O)c2ccc(-c3c4nc(c(-c5cccc(S(=O)(=O)[O-])c5F)c5ccc([nH]5)c(-c5cccc(S(=O)(=O)[O-])c5F)c5nc(c(-c6cccc(S(=O)(=O)[O-])c6F)c6ccc3[nH]6)C=C5)C=C4)cc2)CC[C@H](c2ccccc2)CC1)OCC1c2ccccc2-c2ccccc21
REMARK SMILES IDX 8 1 7 2 5 3 6 4 4 5 76 6 86 7 77 8 85 9 78 10 3 11 1 12 2 13
REMARK SMILES IDX 87 15 88 16 89 17 90 18 101 19 91 20 95 21 96 22 100 23
REMARK SMILES IDX 92 24 94 25 97 26 99 27 93 28 98 29 79 30 80 31 84 32 81 33
REMARK SMILES IDX 83 34 82 35 9 36 10 37 11 38 12 39 13 40 14 41 75 42 15 43
REMARK SMILES IDX 74 44 16 45 17 46 18 47 68 48 19 49 73 50 67 51 69 52 20 53
REMARK SMILES IDX 72 54 66 55 65 56 21 58 53 59 33 60 52 61 34 62 37 63 51 64
REMARK SMILES IDX 70 65 35 66 36 67 50 69 71 70 38 71 22 72 23 73 31 74 24 75
REMARK SMILES IDX 26 76 32 77 25 78 27 79 28 80 29 81 30 82 54 83 55 84 63 85
REMARK SMILES IDX 56 86 58 87 64 88 57 89 59 90 60 91 61 92 62 93 39 94 40 95
REMARK SMILES IDX 48 96 41 97 43 98 49 99 42 100 44 101 45 102 46 103 47 104
REMARK H PARENT 3 14 69 57 37 68
REMARK Flexibility Score: inf
ROOT
ATOM      1  C   UNL A   1      34.674  28.605  26.526  1.00  0.00     0.274 C 
ENDROOT
BRANCH   1   2
ATOM      2  O   UNL A   1      34.135  27.263  26.492  1.00  0.00    -0.460 OA
BRANCH   2   3
ATOM      3  C   UNL A   1      33.571  26.872  25.316  1.00  0.00     0.332 C 
ATOM      4  O   UNL A   1      34.230  26.475  24.358  1.00  0.00    -0.249 OA
BRANCH   3   5
ATOM      5  C   UNL A   1      32.014  27.027  25.257  1.00  0.00     0.141 C 
ATOM      6  C   UNL A   1      31.608  26.657  23.802  1.00  0.00     0.041 C 
ATOM      7  C   UNL A   1      31.493  28.446  25.576  1.00  0.00     0.041 C 
ATOM      8  C   UNL A   1      31.816  27.798  22.792  1.00  0.00     0.011 C 
ATOM      9  C   UNL A   1      31.675  29.517  24.518  1.00  0.00     0.011 C 
ATOM     10  C   UNL A   1      31.068  29.092  23.184  1.00  0.00     0.019 C 
BRANCH   5  11
ATOM     11  N   UNL A   1      31.354  26.046  26.185  1.00  0.00    -0.305 N 
ATOM     12  O   UNL A   1      31.428  24.077  27.359  1.00  0.00    -0.225 OA
ATOM     13  C   UNL A   1      31.779  24.757  26.405  1.00  0.00     0.408 C 
ATOM     14  H   UNL A   1      30.555  26.350  26.673  1.00  0.00     0.168 HD
BRANCH  13  15
ATOM     15  O   UNL A   1      32.668  24.407  25.481  1.00  0.00    -0.449 OA
BRANCH  15  16
ATOM     16  C   UNL A   1      32.497  23.444  24.401  1.00  0.00     0.248 C 
BRANCH  16  17
ATOM     17  C   UNL A   1      33.498  22.334  24.769  1.00  0.00     0.088 C 
ATOM     18  C   UNL A   1      33.447  20.882  24.290  1.00  0.00    -0.029 A 
ATOM     19  C   UNL A   1      34.989  22.605  24.855  1.00  0.00    -0.029 A 
ATOM     20  C   UNL A   1      32.344  20.090  24.017  1.00  0.00     0.005 A 
ATOM     21  C   UNL A   1      34.705  20.305  24.589  1.00  0.00    -0.014 A 
ATOM     22  C   UNL A   1      35.670  21.368  24.815  1.00  0.00    -0.014 A 
ATOM     23  C   UNL A   1      35.647  23.780  25.185  1.00  0.00     0.005 A 
ATOM     24  C   UNL A   1      32.454  18.715  24.247  1.00  0.00     0.000 A 
ATOM     25  C   UNL A   1      34.812  18.942  24.813  1.00  0.00     0.009 A 
ATOM     26  C   UNL A   1      37.035  21.312  25.037  1.00  0.00     0.009 A 
ATOM     27  C   UNL A   1      37.012  23.715  25.459  1.00  0.00     0.000 A 
ATOM     28  C   UNL A   1      33.664  18.155  24.684  1.00  0.00     0.001 A 
ATOM     29  C   UNL A   1      37.704  22.496  25.365  1.00  0.00     0.001 A 
ENDBRANCH  16  17
ENDBRANCH  15  16
ENDBRANCH  13  15
ENDBRANCH   5  11
BRANCH  10  30
ATOM     30  C   UNL A   1      29.538  29.014  23.197  1.00  0.00    -0.045 A 
ATOM     31  C   UNL A   1      28.867  27.786  23.299  1.00  0.00     0.004 A 
ATOM     32  C   UNL A   1      28.741  30.169  23.066  1.00  0.00     0.004 A 
ATOM     33  C   UNL A   1      27.472  27.717  23.339  1.00  0.00     0.000 A 
ATOM     34  C   UNL A   1      27.345  30.102  23.104  1.00  0.00     0.000 A 
ATOM     35  C   UNL A   1      26.710  28.876  23.249  1.00  0.00     0.000 A 
ENDBRANCH  10  30
ENDBRANCH   3   5
ENDBRANCH   2   3
ENDBRANCH   1   2
BRANCH   1  36
ATOM     36  C   UNL A   1      34.168  29.459  27.693  1.00  0.00     0.275 C 
BRANCH  36  37
ATOM     37  O   UNL A   1      34.593  30.832  27.567  1.00  0.00    -0.458 OA
BRANCH  37  38
ATOM     38  C   UNL A   1      35.012  31.337  28.741  1.00  0.00     0.338 C 
ATOM     39  O   UNL A   1      34.381  32.092  29.456  1.00  0.00    -0.246 OA
BRANCH  38  40
ATOM     40  C   UNL A   1      36.306  30.909  29.237  1.00  0.00     0.060 A 
ATOM     41  C   UNL A   1      37.437  31.360  28.566  1.00  0.00     0.016 A 
ATOM     42  C   UNL A   1      36.350  29.762  30.035  1.00  0.00     0.016 A 
ATOM     43  C   UNL A   1      38.617  30.638  28.659  1.00  0.00     0.010 A 
ATOM     44  C   UNL A   1      37.561  29.102  30.216  1.00  0.00     0.010 A 
ATOM     45  C   UNL A   1      38.704  29.545  29.536  1.00  0.00    -0.014 A 
BRANCH  45  46
ATOM     46  C   UNL A   1      40.037  29.015  29.891  1.00  0.00     0.031 A 
ATOM     47  C   UNL A   1      40.660  27.869  29.158  1.00  0.00     0.074 A 
ATOM     48  C   UNL A   1      40.624  29.561  30.975  1.00  0.00     0.049 A 
ATOM     49  N   UNL A   1      41.730  27.187  29.474  1.00  0.00    -0.248 NA
ATOM     50  C   UNL A   1      39.997  27.413  27.927  1.00  0.00     0.031 C 
ATOM     51  C   UNL A   1      40.059  30.657  31.772  1.00  0.00     0.029 A 
ATOM     52  N   UNL A   1      41.797  29.265  31.612  1.00  0.00    -0.354 N 
ATOM     53  C   UNL A   1      41.841  26.185  28.519  1.00  0.00     0.074 A 
ATOM     54  C   UNL A   1      40.735  26.357  27.599  1.00  0.00     0.031 C 
ATOM     55  C   UNL A   1      40.890  30.955  32.773  1.00  0.00     0.029 A 
ATOM     56  C   UNL A   1      41.992  30.007  32.752  1.00  0.00     0.049 A 
ATOM     57  H   UNL A   1      42.437  28.590  31.286  1.00  0.00     0.167 HD
ATOM     58  C   UNL A   1      42.786  25.216  28.432  1.00  0.00     0.034 A 
ATOM     59  C   UNL A   1      42.921  29.903  33.718  1.00  0.00     0.034 A 
ATOM     60  C   UNL A   1      43.895  25.101  29.349  1.00  0.00     0.049 A 
ATOM     61  C   UNL A   1      43.963  28.840  33.576  1.00  0.00     0.074 A 
ATOM     62  C   UNL A   1      44.939  24.193  29.328  1.00  0.00     0.029 A 
ATOM     63  N   UNL A   1      44.104  25.920  30.451  1.00  0.00    -0.354 N 
ATOM     64  N   UNL A   1      44.095  27.944  32.628  1.00  0.00    -0.248 NA
ATOM     65  C   UNL A   1      44.991  28.785  34.616  1.00  0.00     0.031 C 
ATOM     66  C   UNL A   1      45.764  24.448  30.429  1.00  0.00     0.029 A 
ATOM     67  C   UNL A   1      45.255  25.536  31.120  1.00  0.00     0.049 A 
ATOM     68  H   UNL A   1      43.518  26.665  30.719  1.00  0.00     0.167 HD
ATOM     69  C   UNL A   1      45.236  27.226  32.946  1.00  0.00     0.074 A 
ATOM     70  C   UNL A   1      45.772  27.815  34.159  1.00  0.00     0.031 C 
ATOM     71  C   UNL A   1      45.783  26.163  32.306  1.00  0.00     0.034 A 
BRANCH  58  72
ATOM     72  C   UNL A   1      42.684  24.215  27.308  1.00  0.00     0.023 A 
ATOM     73  C   UNL A   1      43.248  24.511  26.051  1.00  0.00     0.012 A 
ATOM     74  C   UNL A   1      42.106  22.945  27.519  1.00  0.00     0.148 A 
ATOM     75  C   UNL A   1      43.215  23.573  25.016  1.00  0.00     0.002 A 
ATOM     76  C   UNL A   1      42.113  22.001  26.497  1.00  0.00     0.091 A 
ATOM     77  F   UNL A   1      41.559  22.683  28.715  1.00  0.00    -0.205 F 
ATOM     78  C   UNL A   1      42.658  22.318  25.242  1.00  0.00     0.022 A 
BRANCH  76  79
ATOM     79  S   UNL A   1      41.491  20.328  26.711  1.00  0.00     0.127 S 
ATOM     80  O   UNL A   1      40.081  20.573  27.011  1.00  0.00    -0.237 OA
ATOM     81  O   UNL A   1      41.738  19.736  25.396  1.00  0.00    -0.237 OA
ATOM     82  O   UNL A   1      42.268  19.745  27.796  1.00  0.00    -0.744 OA
ENDBRANCH  76  79
ENDBRANCH  58  72
BRANCH  59  83
ATOM     83  C   UNL A   1      42.888  30.844  34.868  1.00  0.00     0.023 A 
ATOM     84  C   UNL A   1      42.267  30.448  36.067  1.00  0.00     0.012 A 
ATOM     85  C   UNL A   1      43.555  32.085  34.815  1.00  0.00     0.148 A 
ATOM     86  C   UNL A   1      42.294  31.280  37.186  1.00  0.00     0.002 A 
ATOM     87  C   UNL A   1      43.635  32.878  35.953  1.00  0.00     0.091 A 
ATOM     88  F   UNL A   1      44.136  32.447  33.662  1.00  0.00    -0.205 F 
ATOM     89  C   UNL A   1      42.990  32.486  37.135  1.00  0.00     0.022 A 
BRANCH  87  90
ATOM     90  S   UNL A   1      44.653  34.357  36.017  1.00  0.00     0.127 S 
ATOM     91  O   UNL A   1      44.497  34.766  37.411  1.00  0.00    -0.237 OA
ATOM     92  O   UNL A   1      45.977  33.834  35.674  1.00  0.00    -0.237 OA
ATOM     93  O   UNL A   1      44.094  35.260  35.021  1.00  0.00    -0.744 OA
ENDBRANCH  87  90
ENDBRANCH  59  83
BRANCH  71  94
ATOM     94  C   UNL A   1      47.042  25.595  32.899  1.00  0.00     0.023 A 
ATOM     95  C   UNL A   1      48.293  26.119  32.519  1.00  0.00     0.012 A 
ATOM     96  C   UNL A   1      46.980  24.565  33.856  1.00  0.00     0.148 A 
ATOM     97  C   UNL A   1      49.470  25.600  33.057  1.00  0.00     0.002 A 
ATOM     98  C   UNL A   1      48.152  24.088  34.426  1.00  0.00     0.091 A 
ATOM     99  F   UNL A   1      45.779  24.066  34.183  1.00  0.00    -0.205 F 
ATOM    100  C   UNL A   1      49.398  24.593  34.017  1.00  0.00     0.022 A 
BRANCH  98 101
ATOM    101  S   UNL A   1      48.153  22.858  35.733  1.00  0.00     0.127 S 
ATOM    102  O   UNL A   1      47.360  23.521  36.767  1.00  0.00    -0.237 OA
ATOM    103  O   UNL A   1      47.492  21.723  35.090  1.00  0.00    -0.237 OA
ATOM    104  O   UNL A   1      49.553  22.630  36.069  1.00  0.00    -0.744 OA
ENDBRANCH  98 101
ENDBRANCH  71  94
ENDBRANCH  45  46
ENDBRANCH  38  40
ENDBRANCH  37  38
ENDBRANCH  36  37
ENDBRANCH   1  36
TORSDOF 19
ENDMDL
