MODEL 1
REMARK VINA RESULT:     -11.2      0.000      0.000
REMARK SMILES C[C@](NC(=O)/C=C/c1ccco1)(C(=O)OCCOC(=O)c1ccc(-c2c3nc(c(-c4cccc(S(=O)(=O)[O-])c4F)c4ccc([nH]4)c(-c4cccc(S(=O)(=O)[O-])c4F)c4nc(c(-c5cccc(S(=O)(=O)[O-])c5F)c5ccc2[nH]5)C=C4)C=C3)cc1)C(F)(F)F
REMARK SMILES IDX 16 1 15 2 13 3 14 4 2 5 1 6 84 7 85 8 86 9 87 10 3 11 4 12
REMARK SMILES IDX 5 14 6 15 7 16 8 17 9 18 12 19 10 20 11 21 17 22 18 23 19 24
REMARK SMILES IDX 20 25 21 26 22 27 83 28 23 29 82 30 24 31 25 32 26 33 76 34
REMARK SMILES IDX 27 35 81 36 75 37 77 38 28 39 80 40 74 41 73 42 29 44 61 45
REMARK SMILES IDX 41 46 60 47 42 48 45 49 59 50 78 51 43 52 44 53 58 55 79 56
REMARK SMILES IDX 46 57 30 58 31 59 39 60 32 61 34 62 40 63 33 64 35 65 36 66
REMARK SMILES IDX 37 67 38 68 62 69 63 70 71 71 64 72 66 73 72 74 65 75 67 76
REMARK SMILES IDX 68 77 69 78 70 79 47 80 48 81 56 82 49 83 51 84 57 85 50 86
REMARK SMILES IDX 52 87 53 88 54 89 55 90
REMARK H PARENT 3 13 77 43 45 54
REMARK Flexibility Score: inf
ROOT
ATOM      1  C   UNL A   1      30.929  31.169  25.425  1.00  0.00     0.274 C 
ENDROOT
BRANCH   1   2
ATOM      2  O   UNL A   1      31.516  29.849  25.465  1.00  0.00    -0.460 OA
BRANCH   2   3
ATOM      3  C   UNL A   1      31.200  29.029  24.411  1.00  0.00     0.341 C 
ATOM      4  O   UNL A   1      30.296  29.276  23.623  1.00  0.00    -0.249 OA
BRANCH   3   5
ATOM      5  C   UNL A   1      31.919  27.678  24.512  1.00  0.00     0.231 C 
ATOM      6  C   UNL A   1      31.652  26.961  23.167  1.00  0.00     0.058 C 
BRANCH   5   7
ATOM      7  C   UNL A   1      33.425  27.983  24.569  1.00  0.00     0.422 C 
ATOM      8  F   UNL A   1      33.893  28.085  25.827  1.00  0.00    -0.168 F 
ATOM      9  F   UNL A   1      34.128  27.008  23.936  1.00  0.00    -0.168 F 
ATOM     10  F   UNL A   1      33.737  29.132  23.920  1.00  0.00    -0.168 F 
ENDBRANCH   5   7
BRANCH   5  11
ATOM     11  N   UNL A   1      31.318  26.777  25.556  1.00  0.00    -0.329 N 
ATOM     12  C   UNL A   1      31.528  25.507  25.979  1.00  0.00     0.245 C 
ATOM     13  H   UNL A   1      30.596  27.221  26.055  1.00  0.00     0.165 HD
ATOM     14  O   UNL A   1      30.865  25.083  26.922  1.00  0.00    -0.270 OA
BRANCH  12  15
ATOM     15  C   UNL A   1      32.528  24.642  25.350  1.00  0.00     0.075 C 
ATOM     16  C   UNL A   1      33.676  24.337  25.971  1.00  0.00     0.053 C 
BRANCH  16  17
ATOM     17  C   UNL A   1      34.655  23.555  25.298  1.00  0.00     0.126 A 
ATOM     18  C   UNL A   1      35.708  23.970  24.493  1.00  0.00     0.050 A 
ATOM     19  O   UNL A   1      34.703  22.180  25.358  1.00  0.00    -0.465 OA
ATOM     20  C   UNL A   1      36.386  22.816  24.031  1.00  0.00     0.042 A 
ATOM     21  C   UNL A   1      35.738  21.748  24.597  1.00  0.00     0.195 A 
ENDBRANCH  16  17
ENDBRANCH  12  15
ENDBRANCH   5  11
ENDBRANCH   3   5
ENDBRANCH   2   3
ENDBRANCH   1   2
BRANCH   1  22
ATOM     22  C   UNL A   1      31.363  32.051  26.593  1.00  0.00     0.275 C 
BRANCH  22  23
ATOM     23  O   UNL A   1      32.570  31.567  27.199  1.00  0.00    -0.458 OA
BRANCH  23  24
ATOM     24  C   UNL A   1      33.404  32.547  27.606  1.00  0.00     0.338 C 
ATOM     25  O   UNL A   1      33.107  33.703  27.880  1.00  0.00    -0.246 OA
BRANCH  24  26
ATOM     26  C   UNL A   1      34.759  32.026  27.794  1.00  0.00     0.060 A 
ATOM     27  C   UNL A   1      34.908  30.649  27.911  1.00  0.00     0.016 A 
ATOM     28  C   UNL A   1      35.823  32.882  28.080  1.00  0.00     0.016 A 
ATOM     29  C   UNL A   1      36.083  30.125  28.439  1.00  0.00     0.010 A 
ATOM     30  C   UNL A   1      37.027  32.343  28.553  1.00  0.00     0.010 A 
ATOM     31  C   UNL A   1      37.143  30.965  28.807  1.00  0.00    -0.014 A 
BRANCH  31  32
ATOM     32  C   UNL A   1      38.292  30.405  29.576  1.00  0.00     0.031 A 
ATOM     33  C   UNL A   1      38.444  30.727  31.043  1.00  0.00     0.074 A 
ATOM     34  C   UNL A   1      39.166  29.559  28.995  1.00  0.00     0.049 A 
ATOM     35  N   UNL A   1      39.412  30.408  31.865  1.00  0.00    -0.248 NA
ATOM     36  C   UNL A   1      37.374  31.524  31.668  1.00  0.00     0.031 C 
ATOM     37  C   UNL A   1      39.125  29.127  27.598  1.00  0.00     0.029 A 
ATOM     38  N   UNL A   1      40.251  28.895  29.515  1.00  0.00    -0.354 N 
ATOM     39  C   UNL A   1      39.116  31.040  33.068  1.00  0.00     0.074 A 
ATOM     40  C   UNL A   1      37.865  31.742  32.879  1.00  0.00     0.031 C 
ATOM     41  C   UNL A   1      40.107  28.237  27.385  1.00  0.00     0.029 A 
ATOM     42  C   UNL A   1      40.883  28.074  28.611  1.00  0.00     0.049 A 
ATOM     43  H   UNL A   1      40.548  28.996  30.449  1.00  0.00     0.167 HD
ATOM     44  C   UNL A   1      39.814  31.033  34.229  1.00  0.00     0.034 A 
ATOM     45  C   UNL A   1      41.967  27.284  28.750  1.00  0.00     0.034 A 
ATOM     46  C   UNL A   1      40.995  30.248  34.461  1.00  0.00     0.049 A 
ATOM     47  C   UNL A   1      42.681  27.235  30.074  1.00  0.00     0.074 A 
ATOM     48  C   UNL A   1      41.759  30.161  35.613  1.00  0.00     0.029 A 
ATOM     49  N   UNL A   1      41.565  29.387  33.538  1.00  0.00    -0.354 N 
ATOM     50  N   UNL A   1      42.368  27.820  31.204  1.00  0.00    -0.248 NA
ATOM     51  C   UNL A   1      43.893  26.404  30.143  1.00  0.00     0.031 C 
ATOM     52  C   UNL A   1      42.788  29.238  35.387  1.00  0.00     0.029 A 
ATOM     53  C   UNL A   1      42.662  28.753  34.095  1.00  0.00     0.049 A 
ATOM     54  H   UNL A   1      41.239  29.247  32.620  1.00  0.00     0.167 HD
ATOM     55  C   UNL A   1      43.334  27.417  32.122  1.00  0.00     0.074 A 
ATOM     56  C   UNL A   1      44.220  26.509  31.425  1.00  0.00     0.031 C 
ATOM     57  C   UNL A   1      43.491  27.794  33.414  1.00  0.00     0.034 A 
BRANCH  44  58
ATOM     58  C   UNL A   1      39.304  31.891  35.355  1.00  0.00     0.023 A 
ATOM     59  C   UNL A   1      38.401  31.355  36.295  1.00  0.00     0.012 A 
ATOM     60  C   UNL A   1      39.759  33.215  35.509  1.00  0.00     0.148 A 
ATOM     61  C   UNL A   1      37.938  32.134  37.355  1.00  0.00     0.002 A 
ATOM     62  C   UNL A   1      39.321  33.974  36.590  1.00  0.00     0.091 A 
ATOM     63  F   UNL A   1      40.594  33.719  34.590  1.00  0.00    -0.205 F 
ATOM     64  C   UNL A   1      38.405  33.437  37.509  1.00  0.00     0.022 A 
BRANCH  62  65
ATOM     65  S   UNL A   1      39.936  35.635  36.893  1.00  0.00     0.127 S 
ATOM     66  O   UNL A   1      39.268  35.975  38.148  1.00  0.00    -0.237 OA
ATOM     67  O   UNL A   1      41.379  35.423  37.010  1.00  0.00    -0.237 OA
ATOM     68  O   UNL A   1      39.539  36.416  35.730  1.00  0.00    -0.744 OA
ENDBRANCH  62  65
ENDBRANCH  44  58
BRANCH  45  69
ATOM     69  C   UNL A   1      42.403  26.415  27.620  1.00  0.00     0.023 A 
ATOM     70  C   UNL A   1      43.308  26.932  26.672  1.00  0.00     0.012 A 
ATOM     71  C   UNL A   1      41.963  25.084  27.492  1.00  0.00     0.148 A 
ATOM     72  C   UNL A   1      43.753  26.145  25.610  1.00  0.00     0.002 A 
ATOM     73  C   UNL A   1      42.457  24.287  26.465  1.00  0.00     0.091 A 
ATOM     74  F   UNL A   1      41.076  24.616  28.381  1.00  0.00    -0.205 F 
ATOM     75  C   UNL A   1      43.341  24.819  25.514  1.00  0.00     0.022 A 
BRANCH  73  76
ATOM     76  S   UNL A   1      42.081  22.533  26.369  1.00  0.00     0.127 S 
ATOM     77  O   UNL A   1      42.688  22.028  27.597  1.00  0.00    -0.237 OA
ATOM     78  O   UNL A   1      40.617  22.526  26.358  1.00  0.00    -0.237 OA
ATOM     79  O   UNL A   1      42.685  22.084  25.121  1.00  0.00    -0.744 OA
ENDBRANCH  73  76
ENDBRANCH  45  69
BRANCH  57  80
ATOM     80  C   UNL A   1      44.654  27.212  34.174  1.00  0.00     0.023 A 
ATOM     81  C   UNL A   1      45.902  27.862  34.129  1.00  0.00     0.012 A 
ATOM     82  C   UNL A   1      44.495  26.073  34.987  1.00  0.00     0.148 A 
ATOM     83  C   UNL A   1      46.983  27.371  34.862  1.00  0.00     0.002 A 
ATOM     84  C   UNL A   1      45.567  25.613  35.744  1.00  0.00     0.091 A 
ATOM     85  F   UNL A   1      43.306  25.451  35.000  1.00  0.00    -0.205 F 
ATOM     86  C   UNL A   1      46.814  26.256  35.677  1.00  0.00     0.022 A 
BRANCH  84  87
ATOM     87  S   UNL A   1      45.394  24.230  36.879  1.00  0.00     0.127 S 
ATOM     88  O   UNL A   1      46.744  24.119  37.427  1.00  0.00    -0.237 OA
ATOM     89  O   UNL A   1      44.389  24.715  37.826  1.00  0.00    -0.237 OA
ATOM     90  O   UNL A   1      44.947  23.111  36.058  1.00  0.00    -0.744 OA
ENDBRANCH  84  87
ENDBRANCH  57  80
ENDBRANCH  31  32
ENDBRANCH  24  26
ENDBRANCH  23  24
ENDBRANCH  22  23
ENDBRANCH   1  22
TORSDOF 18
ENDMDL
MODEL 2
REMARK VINA RESULT:     -11.2      5.147      8.110
REMARK SMILES C[C@](NC(=O)/C=C/c1ccco1)(C(=O)OCCOC(=O)c1ccc(-c2c3nc(c(-c4cccc(S(=O)(=O)[O-])c4F)c4ccc([nH]4)c(-c4cccc(S(=O)(=O)[O-])c4F)c4nc(c(-c5cccc(S(=O)(=O)[O-])c5F)c5ccc2[nH]5)C=C4)C=C3)cc1)C(F)(F)F
REMARK SMILES IDX 16 1 15 2 13 3 14 4 2 5 1 6 84 7 85 8 86 9 87 10 3 11 4 12
REMARK SMILES IDX 5 14 6 15 7 16 8 17 9 18 12 19 10 20 11 21 17 22 18 23 19 24
REMARK SMILES IDX 20 25 21 26 22 27 83 28 23 29 82 30 24 31 25 32 26 33 76 34
REMARK SMILES IDX 27 35 81 36 75 37 77 38 28 39 80 40 74 41 73 42 29 44 61 45
REMARK SMILES IDX 41 46 60 47 42 48 45 49 59 50 78 51 43 52 44 53 58 55 79 56
REMARK SMILES IDX 46 57 30 58 31 59 39 60 32 61 34 62 40 63 33 64 35 65 36 66
REMARK SMILES IDX 37 67 38 68 62 69 63 70 71 71 64 72 66 73 72 74 65 75 67 76
REMARK SMILES IDX 68 77 69 78 70 79 47 80 48 81 56 82 49 83 51 84 57 85 50 86
REMARK SMILES IDX 52 87 53 88 54 89 55 90
REMARK H PARENT 3 13 77 43 45 54
REMARK Flexibility Score: inf
ROOT
ATOM      1  C   UNL A   1      35.992  19.884  25.051  1.00  0.00     0.274 C 
ENDROOT
BRANCH   1   2
ATOM      2  O   UNL A   1      35.433  21.148  25.470  1.00  0.00    -0.460 OA
BRANCH   2   3
ATOM      3  C   UNL A   1      34.116  21.350  25.143  1.00  0.00     0.341 C 
ATOM      4  O   UNL A   1      33.435  20.508  24.572  1.00  0.00    -0.249 OA
BRANCH   3   5
ATOM      5  C   UNL A   1      33.706  22.817  25.332  1.00  0.00     0.231 C 
ATOM      6  C   UNL A   1      34.881  23.486  26.083  1.00  0.00     0.058 C 
BRANCH   5   7
ATOM      7  C   UNL A   1      33.651  23.444  23.929  1.00  0.00     0.422 C 
ATOM      8  F   UNL A   1      34.491  22.854  23.058  1.00  0.00    -0.168 F 
ATOM      9  F   UNL A   1      32.394  23.360  23.424  1.00  0.00    -0.168 F 
ATOM     10  F   UNL A   1      33.945  24.767  23.951  1.00  0.00    -0.168 F 
ENDBRANCH   5   7
BRANCH   5  11
ATOM     11  N   UNL A   1      32.523  22.974  26.247  1.00  0.00    -0.329 N 
ATOM     12  C   UNL A   1      31.701  23.991  26.604  1.00  0.00     0.245 C 
ATOM     13  H   UNL A   1      32.287  22.131  26.696  1.00  0.00     0.165 HD
ATOM     14  O   UNL A   1      30.769  23.755  27.369  1.00  0.00    -0.270 OA
BRANCH  12  15
ATOM     15  C   UNL A   1      31.889  25.349  26.091  1.00  0.00     0.075 C 
ATOM     16  C   UNL A   1      31.057  25.873  25.180  1.00  0.00     0.053 C 
BRANCH  16  17
ATOM     17  C   UNL A   1      31.316  27.167  24.651  1.00  0.00     0.126 A 
ATOM     18  C   UNL A   1      30.424  28.096  24.129  1.00  0.00     0.050 A 
ATOM     19  O   UNL A   1      32.574  27.723  24.580  1.00  0.00    -0.465 OA
ATOM     20  C   UNL A   1      31.167  29.225  23.705  1.00  0.00     0.042 A 
ATOM     21  C   UNL A   1      32.475  28.950  24.012  1.00  0.00     0.195 A 
ENDBRANCH  16  17
ENDBRANCH  12  15
ENDBRANCH   5  11
ENDBRANCH   3   5
ENDBRANCH   2   3
ENDBRANCH   1   2
BRANCH   1  22
ATOM     22  C   UNL A   1      37.480  19.968  24.722  1.00  0.00     0.275 C 
BRANCH  22  23
ATOM     23  O   UNL A   1      38.061  21.184  25.217  1.00  0.00    -0.458 OA
BRANCH  23  24
ATOM     24  C   UNL A   1      39.168  20.991  25.965  1.00  0.00     0.338 C 
ATOM     25  O   UNL A   1      39.868  19.987  26.002  1.00  0.00    -0.246 OA
BRANCH  24  26
ATOM     26  C   UNL A   1      39.521  22.213  26.689  1.00  0.00     0.060 A 
ATOM     27  C   UNL A   1      38.910  23.396  26.289  1.00  0.00     0.016 A 
ATOM     28  C   UNL A   1      40.594  22.234  27.580  1.00  0.00     0.016 A 
ATOM     29  C   UNL A   1      39.451  24.617  26.678  1.00  0.00     0.010 A 
ATOM     30  C   UNL A   1      41.095  23.467  28.019  1.00  0.00     0.010 A 
ATOM     31  C   UNL A   1      40.575  24.672  27.513  1.00  0.00    -0.014 A 
BRANCH  31  32
ATOM     32  C   UNL A   1      41.268  25.975  27.729  1.00  0.00     0.031 A 
ATOM     33  C   UNL A   1      40.628  27.034  28.594  1.00  0.00     0.074 A 
ATOM     34  C   UNL A   1      42.494  26.199  27.215  1.00  0.00     0.049 A 
ATOM     35  N   UNL A   1      41.027  28.256  28.838  1.00  0.00    -0.248 NA
ATOM     36  C   UNL A   1      39.364  26.678  29.262  1.00  0.00     0.031 C 
ATOM     37  C   UNL A   1      43.253  25.257  26.393  1.00  0.00     0.029 A 
ATOM     38  N   UNL A   1      43.327  27.287  27.327  1.00  0.00    -0.354 N 
ATOM     39  C   UNL A   1      40.024  28.840  29.605  1.00  0.00     0.074 A 
ATOM     40  C   UNL A   1      39.007  27.832  29.807  1.00  0.00     0.031 C 
ATOM     41  C   UNL A   1      44.455  25.786  26.114  1.00  0.00     0.029 A 
ATOM     42  C   UNL A   1      44.535  27.126  26.688  1.00  0.00     0.049 A 
ATOM     43  H   UNL A   1      43.082  28.105  27.818  1.00  0.00     0.167 HD
ATOM     44  C   UNL A   1      39.956  30.098  30.104  1.00  0.00     0.034 A 
ATOM     45  C   UNL A   1      45.585  27.963  26.574  1.00  0.00     0.034 A 
ATOM     46  C   UNL A   1      41.010  31.069  30.004  1.00  0.00     0.049 A 
ATOM     47  C   UNL A   1      45.514  29.330  27.203  1.00  0.00     0.074 A 
ATOM     48  C   UNL A   1      41.039  32.362  30.497  1.00  0.00     0.029 A 
ATOM     49  N   UNL A   1      42.237  30.844  29.402  1.00  0.00    -0.354 N 
ATOM     50  N   UNL A   1      44.568  29.850  27.944  1.00  0.00    -0.248 NA
ATOM     51  C   UNL A   1      46.666  30.219  26.987  1.00  0.00     0.031 C 
ATOM     52  C   UNL A   1      42.289  32.917  30.199  1.00  0.00     0.029 A 
ATOM     53  C   UNL A   1      43.037  31.967  29.521  1.00  0.00     0.049 A 
ATOM     54  H   UNL A   1      42.501  30.008  28.954  1.00  0.00     0.167 HD
ATOM     55  C   UNL A   1      45.015  31.119  28.297  1.00  0.00     0.074 A 
ATOM     56  C   UNL A   1      46.333  31.275  27.719  1.00  0.00     0.031 C 
ATOM     57  C   UNL A   1      44.375  32.082  29.006  1.00  0.00     0.034 A 
BRANCH  44  58
ATOM     58  C   UNL A   1      38.696  30.494  30.826  1.00  0.00     0.023 A 
ATOM     59  C   UNL A   1      38.564  30.234  32.204  1.00  0.00     0.012 A 
ATOM     60  C   UNL A   1      37.663  31.169  30.147  1.00  0.00     0.148 A 
ATOM     61  C   UNL A   1      37.411  30.616  32.889  1.00  0.00     0.002 A 
ATOM     62  C   UNL A   1      36.531  31.579  30.844  1.00  0.00     0.091 A 
ATOM     63  F   UNL A   1      37.791  31.381  28.829  1.00  0.00    -0.205 F 
ATOM     64  C   UNL A   1      36.401  31.297  32.213  1.00  0.00     0.022 A 
BRANCH  62  65
ATOM     65  S   UNL A   1      35.222  32.524  30.056  1.00  0.00     0.127 S 
ATOM     66  O   UNL A   1      34.281  32.707  31.159  1.00  0.00    -0.237 OA
ATOM     67  O   UNL A   1      35.917  33.744  29.641  1.00  0.00    -0.237 OA
ATOM     68  O   UNL A   1      34.756  31.698  28.951  1.00  0.00    -0.744 OA
ENDBRANCH  62  65
ENDBRANCH  44  58
BRANCH  45  69
ATOM     69  C   UNL A   1      46.829  27.506  25.891  1.00  0.00     0.023 A 
ATOM     70  C   UNL A   1      47.750  26.716  26.609  1.00  0.00     0.012 A 
ATOM     71  C   UNL A   1      47.093  27.810  24.543  1.00  0.00     0.148 A 
ATOM     72  C   UNL A   1      48.916  26.253  26.001  1.00  0.00     0.002 A 
ATOM     73  C   UNL A   1      48.229  27.296  23.927  1.00  0.00     0.091 A 
ATOM     74  F   UNL A   1      46.227  28.590  23.882  1.00  0.00    -0.205 F 
ATOM     75  C   UNL A   1      49.149  26.529  24.657  1.00  0.00     0.022 A 
BRANCH  73  76
ATOM     76  S   UNL A   1      48.514  27.491  22.163  1.00  0.00     0.127 S 
ATOM     77  O   UNL A   1      49.716  28.320  22.142  1.00  0.00    -0.237 OA
ATOM     78  O   UNL A   1      48.713  26.109  21.724  1.00  0.00    -0.237 OA
ATOM     79  O   UNL A   1      47.298  28.107  21.649  1.00  0.00    -0.744 OA
ENDBRANCH  73  76
ENDBRANCH  45  69
BRANCH  57  80
ATOM     80  C   UNL A   1      45.096  33.387  29.218  1.00  0.00     0.023 A 
ATOM     81  C   UNL A   1      45.865  33.569  30.384  1.00  0.00     0.012 A 
ATOM     82  C   UNL A   1      45.074  34.398  28.238  1.00  0.00     0.148 A 
ATOM     83  C   UNL A   1      46.582  34.749  30.583  1.00  0.00     0.002 A 
ATOM     84  C   UNL A   1      45.821  35.556  28.428  1.00  0.00     0.091 A 
ATOM     85  F   UNL A   1      44.316  34.220  27.146  1.00  0.00    -0.205 F 
ATOM     86  C   UNL A   1      46.569  35.737  29.602  1.00  0.00     0.022 A 
BRANCH  84  87
ATOM     87  S   UNL A   1      45.914  36.833  27.166  1.00  0.00     0.127 S 
ATOM     88  O   UNL A   1      44.532  37.301  27.108  1.00  0.00    -0.237 OA
ATOM     89  O   UNL A   1      46.858  37.790  27.747  1.00  0.00    -0.237 OA
ATOM     90  O   UNL A   1      46.409  36.160  25.972  1.00  0.00    -0.744 OA
ENDBRANCH  84  87
ENDBRANCH  57  80
ENDBRANCH  31  32
ENDBRANCH  24  26
ENDBRANCH  23  24
ENDBRANCH  22  23
ENDBRANCH   1  22
TORSDOF 18
ENDMDL
MODEL 3
REMARK VINA RESULT:     -11.2      0.839      7.880
REMARK SMILES C[C@](NC(=O)/C=C/c1ccco1)(C(=O)OCCOC(=O)c1ccc(-c2c3nc(c(-c4cccc(S(=O)(=O)[O-])c4F)c4ccc([nH]4)c(-c4cccc(S(=O)(=O)[O-])c4F)c4nc(c(-c5cccc(S(=O)(=O)[O-])c5F)c5ccc2[nH]5)C=C4)C=C3)cc1)C(F)(F)F
REMARK SMILES IDX 16 1 15 2 13 3 14 4 2 5 1 6 84 7 85 8 86 9 87 10 3 11 4 12
REMARK SMILES IDX 5 14 6 15 7 16 8 17 9 18 12 19 10 20 11 21 17 22 18 23 19 24
REMARK SMILES IDX 20 25 21 26 22 27 83 28 23 29 82 30 24 31 25 32 26 33 76 34
REMARK SMILES IDX 27 35 81 36 75 37 77 38 28 39 80 40 74 41 73 42 29 44 61 45
REMARK SMILES IDX 41 46 60 47 42 48 45 49 59 50 78 51 43 52 44 53 58 55 79 56
REMARK SMILES IDX 46 57 30 58 31 59 39 60 32 61 34 62 40 63 33 64 35 65 36 66
REMARK SMILES IDX 37 67 38 68 62 69 63 70 71 71 64 72 66 73 72 74 65 75 67 76
REMARK SMILES IDX 68 77 69 78 70 79 47 80 48 81 56 82 49 83 51 84 57 85 50 86
REMARK SMILES IDX 52 87 53 88 54 89 55 90
REMARK H PARENT 3 13 77 43 45 54
REMARK Flexibility Score: inf
ROOT
ATOM      1  C   UNL A   1      32.203  29.280  24.974  1.00  0.00     0.274 C 
ENDROOT
BRANCH   1   2
ATOM      2  O   UNL A   1      31.292  28.165  24.855  1.00  0.00    -0.460 OA
BRANCH   2   3
ATOM      3  C   UNL A   1      31.483  27.359  23.761  1.00  0.00     0.341 C 
ATOM      4  O   UNL A   1      30.961  27.575  22.675  1.00  0.00    -0.249 OA
BRANCH   3   5
ATOM      5  C   UNL A   1      32.188  26.050  24.140  1.00  0.00     0.231 C 
ATOM      6  C   UNL A   1      31.741  25.014  23.083  1.00  0.00     0.058 C 
BRANCH   5   7
ATOM      7  C   UNL A   1      33.693  26.285  23.934  1.00  0.00     0.422 C 
ATOM      8  F   UNL A   1      34.302  25.264  23.302  1.00  0.00    -0.168 F 
ATOM      9  F   UNL A   1      33.899  27.413  23.208  1.00  0.00    -0.168 F 
ATOM     10  F   UNL A   1      34.343  26.486  25.107  1.00  0.00    -0.168 F 
ENDBRANCH   5   7
BRANCH   5  11
ATOM     11  N   UNL A   1      31.710  25.493  25.453  1.00  0.00    -0.329 N 
ATOM     12  C   UNL A   1      32.026  24.428  26.228  1.00  0.00     0.245 C 
ATOM     13  H   UNL A   1      30.991  26.038  25.847  1.00  0.00     0.165 HD
ATOM     14  O   UNL A   1      31.450  24.289  27.304  1.00  0.00    -0.270 OA
BRANCH  12  15
ATOM     15  C   UNL A   1      33.041  23.454  25.820  1.00  0.00     0.075 C 
ATOM     16  C   UNL A   1      34.284  23.489  26.323  1.00  0.00     0.053 C 
BRANCH  16  17
ATOM     17  C   UNL A   1      35.262  22.573  25.847  1.00  0.00     0.126 A 
ATOM     18  C   UNL A   1      36.614  22.781  25.606  1.00  0.00     0.050 A 
ATOM     19  O   UNL A   1      34.989  21.259  25.541  1.00  0.00    -0.465 OA
ATOM     20  C   UNL A   1      37.161  21.571  25.113  1.00  0.00     0.042 A 
ATOM     21  C   UNL A   1      36.128  20.669  25.102  1.00  0.00     0.195 A 
ENDBRANCH  16  17
ENDBRANCH  12  15
ENDBRANCH   5  11
ENDBRANCH   3   5
ENDBRANCH   2   3
ENDBRANCH   1   2
BRANCH   1  22
ATOM     22  C   UNL A   1      31.646  30.418  25.825  1.00  0.00     0.275 C 
BRANCH  22  23
ATOM     23  O   UNL A   1      32.280  30.475  27.111  1.00  0.00    -0.458 OA
BRANCH  23  24
ATOM     24  C   UNL A   1      33.001  31.598  27.311  1.00  0.00     0.338 C 
ATOM     25  O   UNL A   1      32.582  32.748  27.348  1.00  0.00    -0.246 OA
BRANCH  24  26
ATOM     26  C   UNL A   1      34.399  31.270  27.597  1.00  0.00     0.060 A 
ATOM     27  C   UNL A   1      34.729  29.926  27.732  1.00  0.00     0.016 A 
ATOM     28  C   UNL A   1      35.311  32.264  27.952  1.00  0.00     0.016 A 
ATOM     29  C   UNL A   1      35.925  29.568  28.344  1.00  0.00     0.010 A 
ATOM     30  C   UNL A   1      36.542  31.896  28.510  1.00  0.00     0.010 A 
ATOM     31  C   UNL A   1      36.830  30.546  28.780  1.00  0.00    -0.014 A 
BRANCH  31  32
ATOM     32  C   UNL A   1      37.989  30.148  29.631  1.00  0.00     0.031 A 
ATOM     33  C   UNL A   1      39.091  29.295  29.050  1.00  0.00     0.074 A 
ATOM     34  C   UNL A   1      38.103  30.595  30.898  1.00  0.00     0.049 A 
ATOM     35  N   UNL A   1      40.137  28.777  29.643  1.00  0.00    -0.248 NA
ATOM     36  C   UNL A   1      39.000  28.968  27.616  1.00  0.00     0.031 C 
ATOM     37  C   UNL A   1      37.138  31.456  31.582  1.00  0.00     0.029 A 
ATOM     38  N   UNL A   1      39.092  30.400  31.831  1.00  0.00    -0.354 N 
ATOM     39  C   UNL A   1      40.771  27.993  28.685  1.00  0.00     0.074 A 
ATOM     40  C   UNL A   1      40.008  28.121  27.463  1.00  0.00     0.031 C 
ATOM     41  C   UNL A   1      37.603  31.753  32.805  1.00  0.00     0.029 A 
ATOM     42  C   UNL A   1      38.872  31.062  33.017  1.00  0.00     0.049 A 
ATOM     43  H   UNL A   1      39.886  29.841  31.666  1.00  0.00     0.167 HD
ATOM     44  C   UNL A   1      41.891  27.241  28.804  1.00  0.00     0.034 A 
ATOM     45  C   UNL A   1      39.605  31.104  34.148  1.00  0.00     0.034 A 
ATOM     46  C   UNL A   1      42.719  27.198  29.978  1.00  0.00     0.049 A 
ATOM     47  C   UNL A   1      40.886  30.318  34.229  1.00  0.00     0.074 A 
ATOM     48  C   UNL A   1      43.884  26.479  30.184  1.00  0.00     0.029 A 
ATOM     49  N   UNL A   1      42.490  27.928  31.133  1.00  0.00    -0.354 N 
ATOM     50  N   UNL A   1      41.479  29.606  33.302  1.00  0.00    -0.248 NA
ATOM     51  C   UNL A   1      41.606  30.354  35.511  1.00  0.00     0.031 C 
ATOM     52  C   UNL A   1      44.365  26.783  31.464  1.00  0.00     0.029 A 
ATOM     53  C   UNL A   1      43.499  27.691  32.051  1.00  0.00     0.049 A 
ATOM     54  H   UNL A   1      41.723  28.527  31.279  1.00  0.00     0.167 HD
ATOM     55  C   UNL A   1      42.647  29.122  33.883  1.00  0.00     0.074 A 
ATOM     56  C   UNL A   1      42.697  29.653  35.229  1.00  0.00     0.031 C 
ATOM     57  C   UNL A   1      43.576  28.284  33.359  1.00  0.00     0.034 A 
BRANCH  44  58
ATOM     58  C   UNL A   1      42.303  26.411  27.619  1.00  0.00     0.023 A 
ATOM     59  C   UNL A   1      43.084  26.984  26.596  1.00  0.00     0.012 A 
ATOM     60  C   UNL A   1      41.956  25.047  27.543  1.00  0.00     0.148 A 
ATOM     61  C   UNL A   1      43.491  26.219  25.503  1.00  0.00     0.002 A 
ATOM     62  C   UNL A   1      42.396  24.282  26.468  1.00  0.00     0.091 A 
ATOM     63  F   UNL A   1      41.188  24.525  28.509  1.00  0.00    -0.205 F 
ATOM     64  C   UNL A   1      43.157  24.867  25.444  1.00  0.00     0.022 A 
BRANCH  62  65
ATOM     65  S   UNL A   1      42.066  22.518  26.362  1.00  0.00     0.127 S 
ATOM     66  O   UNL A   1      42.638  22.033  27.617  1.00  0.00    -0.237 OA
ATOM     67  O   UNL A   1      40.605  22.472  26.302  1.00  0.00    -0.237 OA
ATOM     68  O   UNL A   1      42.730  22.070  25.146  1.00  0.00    -0.744 OA
ENDBRANCH  62  65
ENDBRANCH  44  58
BRANCH  45  69
ATOM     69  C   UNL A   1      39.179  31.981  35.276  1.00  0.00     0.023 A 
ATOM     70  C   UNL A   1      38.290  31.467  36.241  1.00  0.00     0.012 A 
ATOM     71  C   UNL A   1      39.667  33.293  35.423  1.00  0.00     0.148 A 
ATOM     72  C   UNL A   1      37.883  32.250  37.321  1.00  0.00     0.002 A 
ATOM     73  C   UNL A   1      39.302  34.047  36.534  1.00  0.00     0.091 A 
ATOM     74  F   UNL A   1      40.485  33.781  34.480  1.00  0.00    -0.205 F 
ATOM     75  C   UNL A   1      38.400  33.533  37.477  1.00  0.00     0.022 A 
BRANCH  73  76
ATOM     76  S   UNL A   1      40.044  35.648  36.871  1.00  0.00     0.127 S 
ATOM     77  O   UNL A   1      39.609  36.430  35.717  1.00  0.00    -0.237 OA
ATOM     78  O   UNL A   1      39.418  36.023  38.140  1.00  0.00    -0.237 OA
ATOM     79  O   UNL A   1      41.474  35.388  36.971  1.00  0.00    -0.744 OA
ENDBRANCH  73  76
ENDBRANCH  45  69
BRANCH  57  80
ATOM     80  C   UNL A   1      44.741  27.901  34.232  1.00  0.00     0.023 A 
ATOM     81  C   UNL A   1      45.895  28.710  34.237  1.00  0.00     0.012 A 
ATOM     82  C   UNL A   1      44.669  26.793  35.098  1.00  0.00     0.148 A 
ATOM     83  C   UNL A   1      46.969  28.405  35.072  1.00  0.00     0.002 A 
ATOM     84  C   UNL A   1      45.730  26.518  35.954  1.00  0.00     0.091 A 
ATOM     85  F   UNL A   1      43.574  26.018  35.063  1.00  0.00    -0.205 F 
ATOM     86  C   UNL A   1      46.884  27.318  35.938  1.00  0.00     0.022 A 
BRANCH  84  87
ATOM     87  S   UNL A   1      45.650  25.181  37.153  1.00  0.00     0.127 S 
ATOM     88  O   UNL A   1      45.852  24.006  36.308  1.00  0.00    -0.237 OA
ATOM     89  O   UNL A   1      46.767  25.486  38.049  1.00  0.00    -0.237 OA
ATOM     90  O   UNL A   1      44.338  25.300  37.777  1.00  0.00    -0.744 OA
ENDBRANCH  84  87
ENDBRANCH  57  80
ENDBRANCH  31  32
ENDBRANCH  24  26
ENDBRANCH  23  24
ENDBRANCH  22  23
ENDBRANCH   1  22
TORSDOF 18
ENDMDL
