MODEL 1
REMARK VINA RESULT:     -13.0      0.000      0.000
REMARK SMILES [NH2+]=C1S[C@@H](C(=O)Nc2ccc(C(=O)OCCOC(=O)c3ccc(-c4c5nc(c(-c6cccc(S(=O)(=O)[O-])c6F)c6ccc([nH]6)c(-c6cccc(S(=O)(=O)[O-])c6F)c6nc(c(-c7cccc(S(=O)(=O)[O-])c7F)c7ccc4[nH]7)C=C6)C=C5)cc3)cc2)CC(=O)N1/N=C/c1ccc(Cl)cc1
REMARK SMILES IDX 15 1 14 2 12 3 13 4 11 5 8 6 9 7 84 8 10 9 83 10 7 11 5 12
REMARK SMILES IDX 6 13 4 15 1 16 2 17 3 20 88 21 86 22 85 23 87 24 89 25 90 26
REMARK SMILES IDX 91 27 92 28 97 29 93 30 96 31 94 32 95 33 16 34 17 35 18 36
REMARK SMILES IDX 19 37 20 38 21 39 82 40 22 41 81 42 23 43 24 44 25 45 75 46
REMARK SMILES IDX 26 47 80 48 74 49 76 50 27 51 79 52 73 53 72 54 28 56 60 57
REMARK SMILES IDX 40 58 59 59 41 60 44 61 58 62 77 63 42 64 43 65 57 67 78 68
REMARK SMILES IDX 45 69 29 70 30 71 38 72 31 73 33 74 39 75 32 76 34 77 35 78
REMARK SMILES IDX 36 79 37 80 61 81 62 82 70 83 63 84 65 85 71 86 64 87 66 88
REMARK SMILES IDX 67 89 68 90 69 91 46 92 47 93 55 94 48 95 50 96 56 97 49 98
REMARK SMILES IDX 51 99 52 100 53 101 54 102
REMARK H PARENT 7 14 1 18 1 19 76 55 44 66
REMARK Flexibility Score: inf
ROOT
ATOM      1  C   UNL A   1      31.772  27.866  25.865  1.00  0.00     0.275 C 
ENDROOT
BRANCH   1   2
ATOM      2  O   UNL A   1      32.741  26.871  26.257  1.00  0.00    -0.458 OA
BRANCH   2   3
ATOM      3  C   UNL A   1      33.570  26.554  25.239  1.00  0.00     0.338 C 
ATOM      4  O   UNL A   1      33.669  27.175  24.197  1.00  0.00    -0.246 OA
BRANCH   3   5
ATOM      5  C   UNL A   1      34.343  25.315  25.376  1.00  0.00     0.060 A 
ATOM      6  C   UNL A   1      34.843  22.621  25.143  1.00  0.00     0.041 A 
ATOM      7  C   UNL A   1      35.204  23.449  24.092  1.00  0.00     0.027 A 
ATOM      8  C   UNL A   1      34.462  23.152  26.379  1.00  0.00     0.027 A 
ATOM      9  C   UNL A   1      34.924  24.801  24.203  1.00  0.00     0.018 A 
ATOM     10  C   UNL A   1      34.198  24.514  26.501  1.00  0.00     0.018 A 
BRANCH   6  11
ATOM     11  N   UNL A   1      34.841  21.253  24.926  1.00  0.00    -0.325 N 
ATOM     12  C   UNL A   1      33.778  20.407  24.825  1.00  0.00     0.238 C 
ATOM     13  O   UNL A   1      34.039  19.195  24.818  1.00  0.00    -0.273 OA
ATOM     14  H   UNL A   1      35.729  20.835  24.831  1.00  0.00     0.169 HD
BRANCH  12  15
ATOM     15  C   UNL A   1      32.329  20.861  24.529  1.00  0.00     0.160 C 
ATOM     16  N   UNL A   1      32.903  23.123  21.528  1.00  0.00    -0.279 N 
ATOM     17  C   UNL A   1      32.242  22.749  22.568  1.00  0.00     0.338 C 
ATOM     18  H   UNL A   1      33.316  22.451  20.939  1.00  0.00     0.302 HD
ATOM     19  H   UNL A   1      32.996  24.082  21.322  1.00  0.00     0.302 HD
ATOM     20  S   UNL A   1      32.069  21.038  22.760  1.00  0.00    -0.022 SA
ATOM     21  N   UNL A   1      31.617  23.606  23.473  1.00  0.00    -0.057 N 
ATOM     22  C   UNL A   1      31.308  23.280  24.800  1.00  0.00     0.337 C 
ATOM     23  C   UNL A   1      31.582  21.884  25.340  1.00  0.00     0.155 C 
ATOM     24  O   UNL A   1      30.782  24.074  25.597  1.00  0.00    -0.244 OA
BRANCH  21  25
ATOM     25  N   UNL A   1      31.261  24.938  23.132  1.00  0.00    -0.082 NA
ATOM     26  C   UNL A   1      30.104  25.429  23.451  1.00  0.00     0.167 C 
BRANCH  26  27
ATOM     27  C   UNL A   1      29.752  26.849  23.200  1.00  0.00    -0.003 A 
ATOM     28  C   UNL A   1      28.451  27.261  23.501  1.00  0.00     0.011 A 
ATOM     29  C   UNL A   1      30.636  27.752  22.607  1.00  0.00     0.011 A 
ATOM     30  C   UNL A   1      28.057  28.580  23.245  1.00  0.00     0.021 A 
ATOM     31  C   UNL A   1      30.249  29.073  22.362  1.00  0.00     0.021 A 
ATOM     32  C   UNL A   1      28.961  29.484  22.686  1.00  0.00     0.041 A 
ATOM     33  Cl  UNL A   1      28.478  31.108  22.392  1.00  0.00    -0.084 Cl
ENDBRANCH  26  27
ENDBRANCH  21  25
ENDBRANCH  12  15
ENDBRANCH   6  11
ENDBRANCH   3   5
ENDBRANCH   2   3
ENDBRANCH   1   2
BRANCH   1  34
ATOM     34  C   UNL A   1      31.821  29.149  26.710  1.00  0.00     0.275 C 
BRANCH  34  35
ATOM     35  O   UNL A   1      32.524  30.230  26.064  1.00  0.00    -0.458 OA
BRANCH  35  36
ATOM     36  C   UNL A   1      33.003  31.188  26.895  1.00  0.00     0.338 C 
ATOM     37  O   UNL A   1      32.412  32.197  27.251  1.00  0.00    -0.246 OA
BRANCH  36  38
ATOM     38  C   UNL A   1      34.377  30.890  27.361  1.00  0.00     0.060 A 
ATOM     39  C   UNL A   1      34.791  29.586  27.625  1.00  0.00     0.016 A 
ATOM     40  C   UNL A   1      35.210  31.952  27.716  1.00  0.00     0.016 A 
ATOM     41  C   UNL A   1      35.956  29.341  28.348  1.00  0.00     0.010 A 
ATOM     42  C   UNL A   1      36.438  31.699  28.339  1.00  0.00     0.010 A 
ATOM     43  C   UNL A   1      36.805  30.392  28.706  1.00  0.00    -0.014 A 
BRANCH  43  44
ATOM     44  C   UNL A   1      38.053  30.139  29.478  1.00  0.00     0.031 A 
ATOM     45  C   UNL A   1      39.123  29.238  28.911  1.00  0.00     0.074 A 
ATOM     46  C   UNL A   1      38.227  30.693  30.695  1.00  0.00     0.049 A 
ATOM     47  N   UNL A   1      40.162  28.714  29.504  1.00  0.00    -0.248 NA
ATOM     48  C   UNL A   1      38.998  28.871  27.489  1.00  0.00     0.031 C 
ATOM     49  C   UNL A   1      37.293  31.612  31.351  1.00  0.00     0.029 A 
ATOM     50  N   UNL A   1      39.241  30.549  31.612  1.00  0.00    -0.354 N 
ATOM     51  C   UNL A   1      40.771  27.895  28.557  1.00  0.00     0.074 A 
ATOM     52  C   UNL A   1      39.992  28.005  27.343  1.00  0.00     0.031 C 
ATOM     53  C   UNL A   1      37.778  31.952  32.555  1.00  0.00     0.029 A 
ATOM     54  C   UNL A   1      39.005  31.206  32.799  1.00  0.00     0.049 A 
ATOM     55  H   UNL A   1      40.057  30.026  31.437  1.00  0.00     0.167 HD
ATOM     56  C   UNL A   1      41.879  27.127  28.689  1.00  0.00     0.034 A 
ATOM     57  C   UNL A   1      39.662  31.168  33.974  1.00  0.00     0.034 A 
ATOM     58  C   UNL A   1      42.686  27.078  29.879  1.00  0.00     0.049 A 
ATOM     59  C   UNL A   1      40.876  30.291  34.099  1.00  0.00     0.074 A 
ATOM     60  C   UNL A   1      43.846  26.355  30.101  1.00  0.00     0.029 A 
ATOM     61  N   UNL A   1      42.427  27.787  31.041  1.00  0.00    -0.354 N 
ATOM     62  N   UNL A   1      41.455  29.548  33.186  1.00  0.00    -0.248 NA
ATOM     63  C   UNL A   1      41.531  30.247  35.413  1.00  0.00     0.031 C 
ATOM     64  C   UNL A   1      44.282  26.619  31.404  1.00  0.00     0.029 A 
ATOM     65  C   UNL A   1      43.403  27.518  31.985  1.00  0.00     0.049 A 
ATOM     66  H   UNL A   1      41.664  28.392  31.175  1.00  0.00     0.167 HD
ATOM     67  C   UNL A   1      42.549  28.964  33.811  1.00  0.00     0.074 A 
ATOM     68  C   UNL A   1      42.573  29.465  35.169  1.00  0.00     0.031 C 
ATOM     69  C   UNL A   1      43.439  28.069  33.315  1.00  0.00     0.034 A 
BRANCH  56  70
ATOM     70  C   UNL A   1      42.309  26.293  27.510  1.00  0.00     0.023 A 
ATOM     71  C   UNL A   1      43.168  26.844  26.539  1.00  0.00     0.012 A 
ATOM     72  C   UNL A   1      41.932  24.938  27.411  1.00  0.00     0.148 A 
ATOM     73  C   UNL A   1      43.628  26.068  25.475  1.00  0.00     0.002 A 
ATOM     74  C   UNL A   1      42.425  24.160  26.369  1.00  0.00     0.091 A 
ATOM     75  F   UNL A   1      41.101  24.437  28.336  1.00  0.00    -0.205 F 
ATOM     76  C   UNL A   1      43.265  24.725  25.397  1.00  0.00     0.022 A 
BRANCH  74  77
ATOM     77  S   UNL A   1      42.078  22.403  26.218  1.00  0.00     0.127 S 
ATOM     78  O   UNL A   1      42.817  22.060  25.003  1.00  0.00    -0.237 OA
ATOM     79  O   UNL A   1      42.654  21.869  27.452  1.00  0.00    -0.237 OA
ATOM     80  O   UNL A   1      40.630  22.284  26.120  1.00  0.00    -0.744 OA
ENDBRANCH  74  77
ENDBRANCH  56  70
BRANCH  57  81
ATOM     81  C   UNL A   1      39.175  31.974  35.130  1.00  0.00     0.023 A 
ATOM     82  C   UNL A   1      38.240  31.415  36.021  1.00  0.00     0.012 A 
ATOM     83  C   UNL A   1      39.651  33.279  35.367  1.00  0.00     0.148 A 
ATOM     84  C   UNL A   1      37.772  32.148  37.113  1.00  0.00     0.002 A 
ATOM     85  C   UNL A   1      39.230  33.979  36.493  1.00  0.00     0.091 A 
ATOM     86  F   UNL A   1      40.517  33.812  34.494  1.00  0.00    -0.205 F 
ATOM     87  C   UNL A   1      38.276  33.422  37.357  1.00  0.00     0.022 A 
BRANCH  85  88
ATOM     88  S   UNL A   1      39.954  35.556  36.953  1.00  0.00     0.127 S 
ATOM     89  O   UNL A   1      39.278  35.841  38.214  1.00  0.00    -0.237 OA
ATOM     90  O   UNL A   1      41.374  35.221  37.076  1.00  0.00    -0.237 OA
ATOM     91  O   UNL A   1      39.652  36.453  35.845  1.00  0.00    -0.744 OA
ENDBRANCH  85  88
ENDBRANCH  57  81
BRANCH  69  92
ATOM     92  C   UNL A   1      44.528  27.594  34.238  1.00  0.00     0.023 A 
ATOM     93  C   UNL A   1      45.747  28.296  34.293  1.00  0.00     0.012 A 
ATOM     94  C   UNL A   1      44.318  26.496  35.095  1.00  0.00     0.148 A 
ATOM     95  C   UNL A   1      46.755  27.896  35.168  1.00  0.00     0.002 A 
ATOM     96  C   UNL A   1      45.309  26.131  35.997  1.00  0.00     0.091 A 
ATOM     97  F   UNL A   1      43.156  25.832  35.013  1.00  0.00    -0.205 F 
ATOM     98  C   UNL A   1      46.532  26.822  36.027  1.00  0.00     0.022 A 
BRANCH  96  99
ATOM     99  S   UNL A   1      45.080  24.818  37.202  1.00  0.00     0.127 S 
ATOM    100  O   UNL A   1      44.996  23.638  36.343  1.00  0.00    -0.237 OA
ATOM    101  O   UNL A   1      46.304  24.908  37.996  1.00  0.00    -0.237 OA
ATOM    102  O   UNL A   1      43.861  25.150  37.928  1.00  0.00    -0.744 OA
ENDBRANCH  96  99
ENDBRANCH  69  92
ENDBRANCH  43  44
ENDBRANCH  36  38
ENDBRANCH  35  36
ENDBRANCH  34  35
ENDBRANCH   1  34
TORSDOF 18
ENDMDL
MODEL 2
REMARK VINA RESULT:     -11.8      2.087      7.787
REMARK SMILES [NH2+]=C1S[C@@H](C(=O)Nc2ccc(C(=O)OCCOC(=O)c3ccc(-c4c5nc(c(-c6cccc(S(=O)(=O)[O-])c6F)c6ccc([nH]6)c(-c6cccc(S(=O)(=O)[O-])c6F)c6nc(c(-c7cccc(S(=O)(=O)[O-])c7F)c7ccc4[nH]7)C=C6)C=C5)cc3)cc2)CC(=O)N1/N=C/c1ccc(Cl)cc1
REMARK SMILES IDX 15 1 14 2 12 3 13 4 11 5 8 6 9 7 84 8 10 9 83 10 7 11 5 12
REMARK SMILES IDX 6 13 4 15 1 16 2 17 3 20 88 21 86 22 85 23 87 24 89 25 90 26
REMARK SMILES IDX 91 27 92 28 97 29 93 30 96 31 94 32 95 33 16 34 17 35 18 36
REMARK SMILES IDX 19 37 20 38 21 39 82 40 22 41 81 42 23 43 24 44 25 45 75 46
REMARK SMILES IDX 26 47 80 48 74 49 76 50 27 51 79 52 73 53 72 54 28 56 60 57
REMARK SMILES IDX 40 58 59 59 41 60 44 61 58 62 77 63 42 64 43 65 57 67 78 68
REMARK SMILES IDX 45 69 29 70 30 71 38 72 31 73 33 74 39 75 32 76 34 77 35 78
REMARK SMILES IDX 36 79 37 80 61 81 62 82 70 83 63 84 65 85 71 86 64 87 66 88
REMARK SMILES IDX 67 89 68 90 69 91 46 92 47 93 55 94 48 95 50 96 56 97 49 98
REMARK SMILES IDX 51 99 52 100 53 101 54 102
REMARK H PARENT 7 14 1 18 1 19 76 55 44 66
REMARK Flexibility Score: inf
ROOT
ATOM      1  C   UNL A   1      33.193  28.452  25.532  1.00  0.00     0.275 C 
ENDROOT
BRANCH   1   2
ATOM      2  O   UNL A   1      33.571  27.270  24.795  1.00  0.00    -0.458 OA
BRANCH   2   3
ATOM      3  C   UNL A   1      33.623  26.181  25.591  1.00  0.00     0.338 C 
ATOM      4  O   UNL A   1      32.949  26.012  26.591  1.00  0.00    -0.246 OA
BRANCH   3   5
ATOM      5  C   UNL A   1      34.632  25.169  25.266  1.00  0.00     0.060 A 
ATOM      6  C   UNL A   1      35.581  22.648  24.706  1.00  0.00     0.041 A 
ATOM      7  C   UNL A   1      35.152  23.438  23.650  1.00  0.00     0.027 A 
ATOM      8  C   UNL A   1      35.758  23.189  25.983  1.00  0.00     0.027 A 
ATOM      9  C   UNL A   1      34.649  24.696  23.942  1.00  0.00     0.018 A 
ATOM     10  C   UNL A   1      35.272  24.460  26.276  1.00  0.00     0.018 A 
BRANCH   6  11
ATOM     11  N   UNL A   1      35.801  21.302  24.466  1.00  0.00    -0.325 N 
ATOM     12  C   UNL A   1      35.058  20.232  24.867  1.00  0.00     0.238 C 
ATOM     13  O   UNL A   1      35.564  19.115  24.688  1.00  0.00    -0.273 OA
ATOM     14  H   UNL A   1      36.602  21.089  23.933  1.00  0.00     0.169 HD
BRANCH  12  15
ATOM     15  C   UNL A   1      33.587  20.320  25.336  1.00  0.00     0.160 C 
ATOM     16  N   UNL A   1      32.009  22.086  22.362  1.00  0.00    -0.279 N 
ATOM     17  C   UNL A   1      32.061  21.774  23.610  1.00  0.00     0.338 C 
ATOM     18  H   UNL A   1      32.246  21.420  21.677  1.00  0.00     0.302 HD
ATOM     19  H   UNL A   1      31.731  22.992  22.092  1.00  0.00     0.302 HD
ATOM     20  S   UNL A   1      32.466  20.125  23.945  1.00  0.00    -0.022 SA
ATOM     21  N   UNL A   1      31.751  22.630  24.665  1.00  0.00    -0.057 N 
ATOM     22  C   UNL A   1      32.223  22.488  25.977  1.00  0.00     0.337 C 
ATOM     23  C   UNL A   1      33.085  21.296  26.366  1.00  0.00     0.155 C 
ATOM     24  O   UNL A   1      31.960  23.286  26.891  1.00  0.00    -0.244 OA
BRANCH  21  25
ATOM     25  N   UNL A   1      30.934  23.780  24.492  1.00  0.00    -0.082 NA
ATOM     26  C   UNL A   1      31.306  24.761  23.731  1.00  0.00     0.167 C 
BRANCH  26  27
ATOM     27  C   UNL A   1      30.423  25.922  23.451  1.00  0.00    -0.003 A 
ATOM     28  C   UNL A   1      30.936  26.954  22.660  1.00  0.00     0.011 A 
ATOM     29  C   UNL A   1      29.151  26.053  24.008  1.00  0.00     0.011 A 
ATOM     30  C   UNL A   1      30.158  28.089  22.399  1.00  0.00     0.021 A 
ATOM     31  C   UNL A   1      28.367  27.181  23.740  1.00  0.00     0.021 A 
ATOM     32  C   UNL A   1      28.873  28.193  22.932  1.00  0.00     0.041 A 
ATOM     33  Cl  UNL A   1      27.914  29.580  22.594  1.00  0.00    -0.084 Cl
ENDBRANCH  26  27
ENDBRANCH  21  25
ENDBRANCH  12  15
ENDBRANCH   6  11
ENDBRANCH   3   5
ENDBRANCH   2   3
ENDBRANCH   1   2
BRANCH   1  34
ATOM     34  C   UNL A   1      34.355  29.106  26.298  1.00  0.00     0.275 C 
BRANCH  34  35
ATOM     35  O   UNL A   1      33.921  29.897  27.424  1.00  0.00    -0.458 OA
BRANCH  35  36
ATOM     36  C   UNL A   1      34.693  30.975  27.707  1.00  0.00     0.338 C 
ATOM     37  O   UNL A   1      34.439  32.137  27.429  1.00  0.00    -0.246 OA
BRANCH  36  38
ATOM     38  C   UNL A   1      35.935  30.603  28.422  1.00  0.00     0.060 A 
ATOM     39  C   UNL A   1      37.186  31.030  27.980  1.00  0.00     0.016 A 
ATOM     40  C   UNL A   1      35.862  29.660  29.447  1.00  0.00     0.016 A 
ATOM     41  C   UNL A   1      38.351  30.434  28.459  1.00  0.00     0.010 A 
ATOM     42  C   UNL A   1      37.036  29.147  30.010  1.00  0.00     0.010 A 
ATOM     43  C   UNL A   1      38.297  29.492  29.490  1.00  0.00    -0.014 A 
BRANCH  43  44
ATOM     44  C   UNL A   1      39.537  28.851  30.008  1.00  0.00     0.031 A 
ATOM     45  C   UNL A   1      40.202  29.389  31.252  1.00  0.00     0.074 A 
ATOM     46  C   UNL A   1      40.086  27.804  29.360  1.00  0.00     0.049 A 
ATOM     47  N   UNL A   1      41.389  29.129  31.733  1.00  0.00    -0.248 NA
ATOM     48  C   UNL A   1      39.432  30.356  32.053  1.00  0.00     0.031 C 
ATOM     49  C   UNL A   1      39.532  27.158  28.167  1.00  0.00     0.029 A 
ATOM     50  N   UNL A   1      41.248  27.107  29.598  1.00  0.00    -0.354 N 
ATOM     51  C   UNL A   1      41.540  29.953  32.844  1.00  0.00     0.074 A 
ATOM     52  C   UNL A   1      40.316  30.711  32.976  1.00  0.00     0.031 C 
ATOM     53  C   UNL A   1      40.345  26.162  27.783  1.00  0.00     0.029 A 
ATOM     54  C   UNL A   1      41.523  26.157  28.641  1.00  0.00     0.049 A 
ATOM     55  H   UNL A   1      41.825  27.273  30.378  1.00  0.00     0.167 HD
ATOM     56  C   UNL A   1      42.602  30.062  33.678  1.00  0.00     0.034 A 
ATOM     57  C   UNL A   1      42.623  25.407  28.434  1.00  0.00     0.034 A 
ATOM     58  C   UNL A   1      43.789  29.254  33.580  1.00  0.00     0.049 A 
ATOM     59  C   UNL A   1      43.794  25.564  29.361  1.00  0.00     0.074 A 
ATOM     60  C   UNL A   1      44.907  29.266  34.397  1.00  0.00     0.029 A 
ATOM     61  N   UNL A   1      44.007  28.282  32.617  1.00  0.00    -0.354 N 
ATOM     62  N   UNL A   1      43.909  26.325  30.424  1.00  0.00    -0.248 NA
ATOM     63  C   UNL A   1      44.987  24.759  29.067  1.00  0.00     0.031 C 
ATOM     64  C   UNL A   1      45.807  28.308  33.919  1.00  0.00     0.029 A 
ATOM     65  C   UNL A   1      45.242  27.689  32.816  1.00  0.00     0.049 A 
ATOM     66  H   UNL A   1      43.377  28.047  31.899  1.00  0.00     0.167 HD
ATOM     67  C   UNL A   1      45.178  26.076  30.932  1.00  0.00     0.074 A 
ATOM     68  C   UNL A   1      45.780  25.071  30.083  1.00  0.00     0.031 C 
ATOM     69  C   UNL A   1      45.801  26.650  31.990  1.00  0.00     0.034 A 
BRANCH  56  70
ATOM     70  C   UNL A   1      42.528  31.072  34.794  1.00  0.00     0.023 A 
ATOM     71  C   UNL A   1      42.142  30.662  36.085  1.00  0.00     0.012 A 
ATOM     72  C   UNL A   1      42.923  32.409  34.581  1.00  0.00     0.148 A 
ATOM     73  C   UNL A   1      42.128  31.570  37.144  1.00  0.00     0.002 A 
ATOM     74  C   UNL A   1      42.944  33.299  35.650  1.00  0.00     0.091 A 
ATOM     75  F   UNL A   1      43.271  32.783  33.342  1.00  0.00    -0.205 F 
ATOM     76  C   UNL A   1      42.540  32.884  36.929  1.00  0.00     0.022 A 
BRANCH  74  77
ATOM     77  S   UNL A   1      43.526  34.992  35.495  1.00  0.00     0.127 S 
ATOM     78  O   UNL A   1      42.535  35.563  34.583  1.00  0.00    -0.237 OA
ATOM     79  O   UNL A   1      43.436  35.475  36.873  1.00  0.00    -0.237 OA
ATOM     80  O   UNL A   1      44.880  34.907  34.967  1.00  0.00    -0.744 OA
ENDBRANCH  74  77
ENDBRANCH  56  70
BRANCH  57  81
ATOM     81  C   UNL A   1      42.672  24.452  27.290  1.00  0.00     0.023 A 
ATOM     82  C   UNL A   1      43.304  24.836  26.092  1.00  0.00     0.012 A 
ATOM     83  C   UNL A   1      42.122  23.159  27.388  1.00  0.00     0.148 A 
ATOM     84  C   UNL A   1      43.367  23.959  25.007  1.00  0.00     0.002 A 
ATOM     85  C   UNL A   1      42.246  22.267  26.328  1.00  0.00     0.091 A 
ATOM     86  F   UNL A   1      41.496  22.816  28.523  1.00  0.00    -0.205 F 
ATOM     87  C   UNL A   1      42.851  22.672  25.130  1.00  0.00     0.022 A 
BRANCH  85  88
ATOM     88  S   UNL A   1      41.747  20.549  26.473  1.00  0.00     0.127 S 
ATOM     89  O   UNL A   1      42.251  20.200  27.798  1.00  0.00    -0.237 OA
ATOM     90  O   UNL A   1      40.289  20.640  26.372  1.00  0.00    -0.237 OA
ATOM     91  O   UNL A   1      42.377  19.871  25.348  1.00  0.00    -0.744 OA
ENDBRANCH  85  88
ENDBRANCH  57  81
BRANCH  69  92
ATOM     92  C   UNL A   1      47.198  26.187  32.303  1.00  0.00     0.023 A 
ATOM     93  C   UNL A   1      48.292  26.798  31.660  1.00  0.00     0.012 A 
ATOM     94  C   UNL A   1      47.428  25.198  33.280  1.00  0.00     0.148 A 
ATOM     95  C   UNL A   1      49.596  26.411  31.963  1.00  0.00     0.002 A 
ATOM     96  C   UNL A   1      48.732  24.850  33.609  1.00  0.00     0.091 A 
ATOM     97  F   UNL A   1      46.371  24.618  33.866  1.00  0.00    -0.205 F 
ATOM     98  C   UNL A   1      49.816  25.446  32.944  1.00  0.00     0.022 A 
BRANCH  96  99
ATOM     99  S   UNL A   1      49.115  23.683  34.919  1.00  0.00     0.127 S 
ATOM    100  O   UNL A   1      50.574  23.618  34.842  1.00  0.00    -0.237 OA
ATOM    101  O   UNL A   1      48.597  24.365  36.104  1.00  0.00    -0.237 OA
ATOM    102  O   UNL A   1      48.416  22.451  34.576  1.00  0.00    -0.744 OA
ENDBRANCH  96  99
ENDBRANCH  69  92
ENDBRANCH  43  44
ENDBRANCH  36  38
ENDBRANCH  35  36
ENDBRANCH  34  35
ENDBRANCH   1  34
TORSDOF 18
ENDMDL
MODEL 3
REMARK VINA RESULT:     -11.7      2.834      4.822
REMARK SMILES [NH2+]=C1S[C@@H](C(=O)Nc2ccc(C(=O)OCCOC(=O)c3ccc(-c4c5nc(c(-c6cccc(S(=O)(=O)[O-])c6F)c6ccc([nH]6)c(-c6cccc(S(=O)(=O)[O-])c6F)c6nc(c(-c7cccc(S(=O)(=O)[O-])c7F)c7ccc4[nH]7)C=C6)C=C5)cc3)cc2)CC(=O)N1/N=C/c1ccc(Cl)cc1
REMARK SMILES IDX 15 1 14 2 12 3 13 4 11 5 8 6 9 7 84 8 10 9 83 10 7 11 5 12
REMARK SMILES IDX 6 13 4 15 1 16 2 17 3 20 88 21 86 22 85 23 87 24 89 25 90 26
REMARK SMILES IDX 91 27 92 28 97 29 93 30 96 31 94 32 95 33 16 34 17 35 18 36
REMARK SMILES IDX 19 37 20 38 21 39 82 40 22 41 81 42 23 43 24 44 25 45 75 46
REMARK SMILES IDX 26 47 80 48 74 49 76 50 27 51 79 52 73 53 72 54 28 56 60 57
REMARK SMILES IDX 40 58 59 59 41 60 44 61 58 62 77 63 42 64 43 65 57 67 78 68
REMARK SMILES IDX 45 69 29 70 30 71 38 72 31 73 33 74 39 75 32 76 34 77 35 78
REMARK SMILES IDX 36 79 37 80 61 81 62 82 70 83 63 84 65 85 71 86 64 87 66 88
REMARK SMILES IDX 67 89 68 90 69 91 46 92 47 93 55 94 48 95 50 96 56 97 49 98
REMARK SMILES IDX 51 99 52 100 53 101 54 102
REMARK H PARENT 7 14 1 18 1 19 76 55 44 66
REMARK Flexibility Score: inf
ROOT
ATOM      1  C   UNL A   1      32.472  30.035  25.061  1.00  0.00     0.275 C 
ENDROOT
BRANCH   1   2
ATOM      2  O   UNL A   1      32.634  29.109  23.964  1.00  0.00    -0.458 OA
BRANCH   2   3
ATOM      3  C   UNL A   1      31.444  28.740  23.443  1.00  0.00     0.338 C 
ATOM      4  O   UNL A   1      30.950  29.203  22.431  1.00  0.00    -0.246 OA
BRANCH   3   5
ATOM      5  C   UNL A   1      30.658  27.769  24.209  1.00  0.00     0.060 A 
ATOM      6  C   UNL A   1      30.111  25.349  25.398  1.00  0.00     0.041 A 
ATOM      7  C   UNL A   1      30.778  26.311  26.141  1.00  0.00     0.027 A 
ATOM      8  C   UNL A   1      29.520  25.670  24.173  1.00  0.00     0.027 A 
ATOM      9  C   UNL A   1      31.075  27.517  25.528  1.00  0.00     0.018 A 
ATOM     10  C   UNL A   1      29.799  26.889  23.561  1.00  0.00     0.018 A 
BRANCH   6  11
ATOM     11  N   UNL A   1      30.075  24.055  25.889  1.00  0.00    -0.325 N 
ATOM     12  C   UNL A   1      30.759  22.959  25.455  1.00  0.00     0.238 C 
ATOM     13  O   UNL A   1      30.413  21.870  25.936  1.00  0.00    -0.273 OA
ATOM     14  H   UNL A   1      29.473  23.906  26.654  1.00  0.00     0.169 HD
BRANCH  12  15
ATOM     15  C   UNL A   1      32.030  23.018  24.575  1.00  0.00     0.160 C 
ATOM     16  N   UNL A   1      33.738  19.778  25.597  1.00  0.00    -0.279 N 
ATOM     17  C   UNL A   1      33.751  20.986  25.150  1.00  0.00     0.338 C 
ATOM     18  H   UNL A   1      33.014  19.165  25.338  1.00  0.00     0.302 HD
ATOM     19  H   UNL A   1      34.453  19.469  26.200  1.00  0.00     0.302 HD
ATOM     20  S   UNL A   1      32.495  21.372  24.024  1.00  0.00    -0.022 SA
ATOM     21  N   UNL A   1      34.721  21.942  25.448  1.00  0.00    -0.057 N 
ATOM     22  C   UNL A   1      34.529  23.328  25.369  1.00  0.00     0.337 C 
ATOM     23  C   UNL A   1      33.214  23.901  24.860  1.00  0.00     0.155 C 
ATOM     24  O   UNL A   1      35.399  24.159  25.674  1.00  0.00    -0.244 OA
BRANCH  21  25
ATOM     25  N   UNL A   1      36.017  21.587  25.909  1.00  0.00    -0.082 NA
ATOM     26  C   UNL A   1      36.981  21.335  25.080  1.00  0.00     0.167 C 
BRANCH  26  27
ATOM     27  C   UNL A   1      38.368  21.067  25.538  1.00  0.00    -0.003 A 
ATOM     28  C   UNL A   1      38.862  19.768  25.395  1.00  0.00     0.011 A 
ATOM     29  C   UNL A   1      39.152  22.033  26.170  1.00  0.00     0.011 A 
ATOM     30  C   UNL A   1      40.150  19.455  25.848  1.00  0.00     0.021 A 
ATOM     31  C   UNL A   1      40.443  21.726  26.613  1.00  0.00     0.021 A 
ATOM     32  C   UNL A   1      40.939  20.438  26.446  1.00  0.00     0.041 A 
ATOM     33  Cl  UNL A   1      42.527  20.054  26.983  1.00  0.00    -0.084 Cl
ENDBRANCH  26  27
ENDBRANCH  21  25
ENDBRANCH  12  15
ENDBRANCH   6  11
ENDBRANCH   3   5
ENDBRANCH   2   3
ENDBRANCH   1   2
BRANCH   1  34
ATOM     34  C   UNL A   1      33.406  29.760  26.250  1.00  0.00     0.275 C 
BRANCH  34  35
ATOM     35  O   UNL A   1      33.068  30.522  27.428  1.00  0.00    -0.458 OA
BRANCH  35  36
ATOM     36  C   UNL A   1      33.854  31.599  27.667  1.00  0.00     0.338 C 
ATOM     37  O   UNL A   1      33.559  32.768  27.468  1.00  0.00    -0.246 OA
BRANCH  36  38
ATOM     38  C   UNL A   1      35.173  31.218  28.224  1.00  0.00     0.060 A 
ATOM     39  C   UNL A   1      35.370  29.993  28.857  1.00  0.00     0.016 A 
ATOM     40  C   UNL A   1      36.183  32.179  28.273  1.00  0.00     0.016 A 
ATOM     41  C   UNL A   1      36.501  29.770  29.641  1.00  0.00     0.010 A 
ATOM     42  C   UNL A   1      37.370  31.910  28.965  1.00  0.00     0.010 A 
ATOM     43  C   UNL A   1      37.525  30.719  29.697  1.00  0.00    -0.014 A 
BRANCH  43  44
ATOM     44  C   UNL A   1      38.737  30.489  30.532  1.00  0.00     0.031 A 
ATOM     45  C   UNL A   1      39.806  29.534  30.062  1.00  0.00     0.074 A 
ATOM     46  C   UNL A   1      38.877  31.114  31.719  1.00  0.00     0.049 A 
ATOM     47  N   UNL A   1      40.811  29.026  30.726  1.00  0.00    -0.248 NA
ATOM     48  C   UNL A   1      39.727  29.082  28.662  1.00  0.00     0.031 C 
ATOM     49  C   UNL A   1      37.940  32.090  32.281  1.00  0.00     0.029 A 
ATOM     50  N   UNL A   1      39.852  31.005  32.682  1.00  0.00    -0.354 N 
ATOM     51  C   UNL A   1      41.436  28.139  29.855  1.00  0.00     0.074 A 
ATOM     52  C   UNL A   1      40.707  28.189  28.607  1.00  0.00     0.031 C 
ATOM     53  C   UNL A   1      38.386  32.494  33.480  1.00  0.00     0.029 A 
ATOM     54  C   UNL A   1      39.586  31.739  33.816  1.00  0.00     0.049 A 
ATOM     55  H   UNL A   1      40.662  30.456  32.570  1.00  0.00     0.167 HD
ATOM     56  C   UNL A   1      42.521  27.358  30.077  1.00  0.00     0.034 A 
ATOM     57  C   UNL A   1      40.198  31.760  35.016  1.00  0.00     0.034 A 
ATOM     58  C   UNL A   1      43.281  27.365  31.298  1.00  0.00     0.049 A 
ATOM     59  C   UNL A   1      41.385  30.868  35.242  1.00  0.00     0.074 A 
ATOM     60  C   UNL A   1      44.415  26.635  31.609  1.00  0.00     0.029 A 
ATOM     61  N   UNL A   1      42.994  28.150  32.405  1.00  0.00    -0.354 N 
ATOM     62  N   UNL A   1      41.981  30.059  34.399  1.00  0.00    -0.248 NA
ATOM     63  C   UNL A   1      41.989  30.892  36.581  1.00  0.00     0.031 C 
ATOM     64  C   UNL A   1      44.808  26.969  32.910  1.00  0.00     0.029 A 
ATOM     65  C   UNL A   1      43.928  27.920  33.401  1.00  0.00     0.049 A 
ATOM     66  H   UNL A   1      42.240  28.777  32.471  1.00  0.00     0.167 HD
ATOM     67  C   UNL A   1      43.038  29.492  35.100  1.00  0.00     0.074 A 
ATOM     68  C   UNL A   1      43.022  30.075  36.426  1.00  0.00     0.031 C 
ATOM     69  C   UNL A   1      43.925  28.551  34.694  1.00  0.00     0.034 A 
BRANCH  56  70
ATOM     70  C   UNL A   1      42.976  26.445  28.969  1.00  0.00     0.023 A 
ATOM     71  C   UNL A   1      42.389  25.172  28.825  1.00  0.00     0.012 A 
ATOM     72  C   UNL A   1      43.923  26.881  28.019  1.00  0.00     0.148 A 
ATOM     73  C   UNL A   1      42.753  24.338  27.768  1.00  0.00     0.002 A 
ATOM     74  C   UNL A   1      44.252  26.060  26.946  1.00  0.00     0.091 A 
ATOM     75  F   UNL A   1      44.481  28.089  28.183  1.00  0.00    -0.205 F 
ATOM     76  C   UNL A   1      43.675  24.786  26.824  1.00  0.00     0.022 A 
BRANCH  74  77
ATOM     77  S   UNL A   1      45.372  26.571  25.637  1.00  0.00     0.127 S 
ATOM     78  O   UNL A   1      46.619  26.766  26.374  1.00  0.00    -0.237 OA
ATOM     79  O   UNL A   1      45.362  25.406  24.752  1.00  0.00    -0.237 OA
ATOM     80  O   UNL A   1      44.795  27.778  25.061  1.00  0.00    -0.744 OA
ENDBRANCH  74  77
ENDBRANCH  56  70
BRANCH  57  81
ATOM     81  C   UNL A   1      39.686  32.645  36.101  1.00  0.00     0.023 A 
ATOM     82  C   UNL A   1      38.762  32.137  37.034  1.00  0.00     0.012 A 
ATOM     83  C   UNL A   1      40.126  33.978  36.231  1.00  0.00     0.148 A 
ATOM     84  C   UNL A   1      38.271  32.945  38.062  1.00  0.00     0.002 A 
ATOM     85  C   UNL A   1      39.683  34.756  37.295  1.00  0.00     0.091 A 
ATOM     86  F   UNL A   1      40.981  34.460  35.318  1.00  0.00    -0.205 F 
ATOM     87  C   UNL A   1      38.741  34.247  38.200  1.00  0.00     0.022 A 
BRANCH  85  88
ATOM     88  S   UNL A   1      40.364  36.385  37.624  1.00  0.00     0.127 S 
ATOM     89  O   UNL A   1      40.434  36.958  36.283  1.00  0.00    -0.237 OA
ATOM     90  O   UNL A   1      39.346  36.976  38.495  1.00  0.00    -0.237 OA
ATOM     91  O   UNL A   1      41.639  36.140  38.285  1.00  0.00    -0.744 OA
ENDBRANCH  85  88
ENDBRANCH  57  81
BRANCH  69  92
ATOM     92  C   UNL A   1      44.967  28.111  35.687  1.00  0.00     0.023 A 
ATOM     93  C   UNL A   1      46.247  28.698  35.656  1.00  0.00     0.012 A 
ATOM     94  C   UNL A   1      44.659  27.169  36.687  1.00  0.00     0.148 A 
ATOM     95  C   UNL A   1      47.215  28.334  36.589  1.00  0.00     0.002 A 
ATOM     96  C   UNL A   1      45.614  26.844  37.642  1.00  0.00     0.091 A 
ATOM     97  F   UNL A   1      43.440  26.610  36.686  1.00  0.00    -0.205 F 
ATOM     98  C   UNL A   1      46.896  27.417  37.588  1.00  0.00     0.022 A 
BRANCH  96  99
ATOM     99  S   UNL A   1      45.267  25.740  39.016  1.00  0.00     0.127 S 
ATOM    100  O   UNL A   1      46.553  25.717  39.711  1.00  0.00    -0.237 OA
ATOM    101  O   UNL A   1      44.203  26.451  39.724  1.00  0.00    -0.237 OA
ATOM    102  O   UNL A   1      44.856  24.475  38.419  1.00  0.00    -0.744 OA
ENDBRANCH  96  99
ENDBRANCH  69  92
ENDBRANCH  43  44
ENDBRANCH  36  38
ENDBRANCH  35  36
ENDBRANCH  34  35
ENDBRANCH   1  34
TORSDOF 18
ENDMDL
