MODEL 1
REMARK VINA RESULT:     -11.0      0.000      0.000
REMARK SMILES C[C@H]([NH2+][C@@H]1CC(=O)N(C)C1=O)[C@H](C)C(=O)OCCOC(=O)c1ccc(-c2c3nc(c(-c4cccc(S(=O)(=O)[O-])c4F)c4ccc([nH]4)c(-c4cccc(S(=O)(=O)[O-])c4F)c4nc(c(-c5cccc(S(=O)(=O)[O-])c5F)c5ccc2[nH]5)C=C4)C=C3)cc1
REMARK SMILES IDX 17 1 16 2 14 3 15 4 12 5 13 6 2 7 1 8 3 9 4 12 5 13 10 14
REMARK SMILES IDX 6 15 8 16 11 17 7 18 9 19 18 20 19 21 20 22 21 23 22 24
REMARK SMILES IDX 23 25 84 26 24 27 83 28 25 29 26 30 27 31 77 32 28 33 82 34
REMARK SMILES IDX 76 35 78 36 29 37 81 38 75 39 74 40 30 42 62 43 42 44 61 45
REMARK SMILES IDX 43 46 46 47 60 48 79 49 44 50 45 51 59 53 80 54 47 55 31 56
REMARK SMILES IDX 32 57 40 58 33 59 35 60 41 61 34 62 36 63 37 64 38 65 39 66
REMARK SMILES IDX 63 67 64 68 72 69 65 70 67 71 73 72 66 73 68 74 69 75 70 76
REMARK SMILES IDX 71 77 48 78 49 79 57 80 50 81 52 82 58 83 51 84 53 85 54 86
REMARK SMILES IDX 55 87 56 88
REMARK H PARENT 3 10 3 11 78 41 46 52
REMARK Flexibility Score: inf
ROOT
ATOM      1  C   UNL A   1      35.345  21.876  25.957  1.00  0.00     0.274 C 
ENDROOT
BRANCH   1   2
ATOM      2  O   UNL A   1      33.973  21.535  25.669  1.00  0.00    -0.462 OA
BRANCH   2   3
ATOM      3  C   UNL A   1      33.041  22.302  26.294  1.00  0.00     0.314 C 
ATOM      4  O   UNL A   1      33.148  22.719  27.442  1.00  0.00    -0.252 OA
BRANCH   3   5
ATOM      5  C   UNL A   1      31.797  22.548  25.455  1.00  0.00     0.154 C 
ATOM      6  C   UNL A   1      30.508  22.581  26.280  1.00  0.00     0.026 C 
BRANCH   5   7
ATOM      7  C   UNL A   1      31.957  23.748  24.487  1.00  0.00     0.194 C 
ATOM      8  C   UNL A   1      30.823  23.789  23.451  1.00  0.00     0.076 C 
BRANCH   7   9
ATOM      9  N   UNL A   1      33.309  23.792  23.903  1.00  0.00    -0.333 N 
ATOM     10  H   UNL A   1      33.234  23.519  22.924  1.00  0.00     0.347 HD
ATOM     11  H   UNL A   1      33.872  23.162  24.474  1.00  0.00     0.347 HD
BRANCH   9  12
ATOM     12  C   UNL A   1      33.996  25.087  23.955  1.00  0.00     0.282 C 
ATOM     13  C   UNL A   1      33.536  25.873  25.180  1.00  0.00     0.176 C 
ATOM     14  C   UNL A   1      33.707  26.069  22.822  1.00  0.00     0.287 C 
ATOM     15  C   UNL A   1      33.653  27.299  24.732  1.00  0.00     0.235 C 
ATOM     16  N   UNL A   1      33.654  27.324  23.369  1.00  0.00    -0.280 N 
ATOM     17  O   UNL A   1      33.650  25.826  21.625  1.00  0.00    -0.267 OA
ATOM     18  O   UNL A   1      33.684  28.261  25.485  1.00  0.00    -0.274 OA
ATOM     19  C   UNL A   1      33.638  28.519  22.564  1.00  0.00     0.156 C 
ENDBRANCH   9  12
ENDBRANCH   7   9
ENDBRANCH   5   7
ENDBRANCH   3   5
ENDBRANCH   2   3
ENDBRANCH   1   2
BRANCH   1  20
ATOM     20  C   UNL A   1      36.340  20.884  25.344  1.00  0.00     0.275 C 
BRANCH  20  21
ATOM     21  O   UNL A   1      37.587  21.510  24.996  1.00  0.00    -0.458 OA
BRANCH  21  22
ATOM     22  C   UNL A   1      38.644  21.134  25.758  1.00  0.00     0.338 C 
ATOM     23  O   UNL A   1      39.111  20.013  25.858  1.00  0.00    -0.246 OA
BRANCH  22  24
ATOM     24  C   UNL A   1      39.271  22.317  26.369  1.00  0.00     0.060 A 
ATOM     25  C   UNL A   1      38.751  23.574  26.049  1.00  0.00     0.016 A 
ATOM     26  C   UNL A   1      40.412  22.204  27.161  1.00  0.00     0.016 A 
ATOM     27  C   UNL A   1      39.372  24.732  26.506  1.00  0.00     0.010 A 
ATOM     28  C   UNL A   1      41.042  23.367  27.615  1.00  0.00     0.010 A 
ATOM     29  C   UNL A   1      40.535  24.635  27.273  1.00  0.00    -0.014 A 
BRANCH  29  30
ATOM     30  C   UNL A   1      41.276  25.863  27.635  1.00  0.00     0.031 A 
ATOM     31  C   UNL A   1      40.583  26.928  28.432  1.00  0.00     0.074 A 
ATOM     32  C   UNL A   1      42.557  26.018  27.251  1.00  0.00     0.049 A 
ATOM     33  N   UNL A   1      41.001  28.121  28.758  1.00  0.00    -0.248 NA
ATOM     34  C   UNL A   1      39.233  26.605  28.928  1.00  0.00     0.031 C 
ATOM     35  C   UNL A   1      43.340  25.030  26.508  1.00  0.00     0.029 A 
ATOM     36  N   UNL A   1      43.414  27.075  27.414  1.00  0.00    -0.354 N 
ATOM     37  C   UNL A   1      39.954  28.711  29.453  1.00  0.00     0.074 A 
ATOM     38  C   UNL A   1      38.881  27.742  29.512  1.00  0.00     0.031 C 
ATOM     39  C   UNL A   1      44.556  25.542  26.253  1.00  0.00     0.029 A 
ATOM     40  C   UNL A   1      44.621  26.902  26.780  1.00  0.00     0.049 A 
ATOM     41  H   UNL A   1      43.187  27.880  27.934  1.00  0.00     0.167 HD
ATOM     42  C   UNL A   1      39.897  29.948  30.002  1.00  0.00     0.034 A 
ATOM     43  C   UNL A   1      45.649  27.759  26.615  1.00  0.00     0.034 A 
ATOM     44  C   UNL A   1      40.983  30.889  29.972  1.00  0.00     0.049 A 
ATOM     45  C   UNL A   1      45.553  29.134  27.222  1.00  0.00     0.074 A 
ATOM     46  C   UNL A   1      41.035  32.161  30.514  1.00  0.00     0.029 A 
ATOM     47  N   UNL A   1      42.210  30.659  29.369  1.00  0.00    -0.354 N 
ATOM     48  N   UNL A   1      44.584  29.655  27.937  1.00  0.00    -0.248 NA
ATOM     49  C   UNL A   1      46.701  30.031  27.023  1.00  0.00     0.031 C 
ATOM     50  C   UNL A   1      42.293  32.703  30.230  1.00  0.00     0.029 A 
ATOM     51  C   UNL A   1      43.028  31.763  29.525  1.00  0.00     0.049 A 
ATOM     52  H   UNL A   1      42.462  29.831  28.898  1.00  0.00     0.167 HD
ATOM     53  C   UNL A   1      45.018  30.925  28.300  1.00  0.00     0.074 A 
ATOM     54  C   UNL A   1      46.345  31.088  27.741  1.00  0.00     0.031 C 
ATOM     55  C   UNL A   1      44.371  31.876  29.018  1.00  0.00     0.034 A 
BRANCH  42  56
ATOM     56  C   UNL A   1      38.624  30.345  30.698  1.00  0.00     0.023 A 
ATOM     57  C   UNL A   1      38.425  29.983  32.045  1.00  0.00     0.012 A 
ATOM     58  C   UNL A   1      37.647  31.112  30.035  1.00  0.00     0.148 A 
ATOM     59  C   UNL A   1      37.261  30.358  32.715  1.00  0.00     0.002 A 
ATOM     60  C   UNL A   1      36.506  31.514  30.720  1.00  0.00     0.091 A 
ATOM     61  F   UNL A   1      37.842  31.421  28.745  1.00  0.00    -0.205 F 
ATOM     62  C   UNL A   1      36.308  31.132  32.058  1.00  0.00     0.022 A 
BRANCH  60  63
ATOM     63  S   UNL A   1      35.255  32.568  29.976  1.00  0.00     0.127 S 
ATOM     64  O   UNL A   1      34.715  31.694  28.936  1.00  0.00    -0.237 OA
ATOM     65  O   UNL A   1      34.348  32.814  31.097  1.00  0.00    -0.237 OA
ATOM     66  O   UNL A   1      35.961  33.749  29.500  1.00  0.00    -0.744 OA
ENDBRANCH  60  63
ENDBRANCH  42  56
BRANCH  43  67
ATOM     67  C   UNL A   1      46.864  27.328  25.870  1.00  0.00     0.023 A 
ATOM     68  C   UNL A   1      46.960  27.591  24.490  1.00  0.00     0.012 A 
ATOM     69  C   UNL A   1      47.938  26.691  26.523  1.00  0.00     0.148 A 
ATOM     70  C   UNL A   1      48.092  27.206  23.769  1.00  0.00     0.002 A 
ATOM     71  C   UNL A   1      49.084  26.359  25.810  1.00  0.00     0.091 A 
ATOM     72  F   UNL A   1      47.821  26.426  27.832  1.00  0.00    -0.205 F 
ATOM     73  C   UNL A   1      49.158  26.603  24.430  1.00  0.00     0.022 A 
BRANCH  71  74
ATOM     74  S   UNL A   1      50.551  25.698  26.612  1.00  0.00     0.127 S 
ATOM     75  O   UNL A   1      51.467  25.549  25.483  1.00  0.00    -0.237 OA
ATOM     76  O   UNL A   1      50.898  26.768  27.548  1.00  0.00    -0.237 OA
ATOM     77  O   UNL A   1      50.120  24.463  27.252  1.00  0.00    -0.744 OA
ENDBRANCH  71  74
ENDBRANCH  43  67
BRANCH  55  78
ATOM     78  C   UNL A   1      45.098  33.168  29.281  1.00  0.00     0.023 A 
ATOM     79  C   UNL A   1      45.921  33.287  30.418  1.00  0.00     0.012 A 
ATOM     80  C   UNL A   1      45.039  34.226  28.353  1.00  0.00     0.148 A 
ATOM     81  C   UNL A   1      46.659  34.449  30.638  1.00  0.00     0.002 A 
ATOM     82  C   UNL A   1      45.810  35.364  28.557  1.00  0.00     0.091 A 
ATOM     83  F   UNL A   1      44.233  34.100  27.288  1.00  0.00    -0.205 F 
ATOM     84  C   UNL A   1      46.613  35.481  29.704  1.00  0.00     0.022 A 
BRANCH  82  85
ATOM     85  S   UNL A   1      45.884  36.699  27.357  1.00  0.00     0.127 S 
ATOM     86  O   UNL A   1      44.502  37.174  27.354  1.00  0.00    -0.237 OA
ATOM     87  O   UNL A   1      46.843  37.618  27.971  1.00  0.00    -0.237 OA
ATOM     88  O   UNL A   1      46.342  36.093  26.115  1.00  0.00    -0.744 OA
ENDBRANCH  82  85
ENDBRANCH  55  78
ENDBRANCH  29  30
ENDBRANCH  22  24
ENDBRANCH  21  22
ENDBRANCH  20  21
ENDBRANCH   1  20
TORSDOF 17
ENDMDL
MODEL 2
REMARK VINA RESULT:     -10.5      5.237     10.088
REMARK SMILES C[C@H]([NH2+][C@@H]1CC(=O)N(C)C1=O)[C@H](C)C(=O)OCCOC(=O)c1ccc(-c2c3nc(c(-c4cccc(S(=O)(=O)[O-])c4F)c4ccc([nH]4)c(-c4cccc(S(=O)(=O)[O-])c4F)c4nc(c(-c5cccc(S(=O)(=O)[O-])c5F)c5ccc2[nH]5)C=C4)C=C3)cc1
REMARK SMILES IDX 17 1 16 2 14 3 15 4 12 5 13 6 2 7 1 8 3 9 4 12 5 13 10 14
REMARK SMILES IDX 6 15 8 16 11 17 7 18 9 19 18 20 19 21 20 22 21 23 22 24
REMARK SMILES IDX 23 25 84 26 24 27 83 28 25 29 26 30 27 31 77 32 28 33 82 34
REMARK SMILES IDX 76 35 78 36 29 37 81 38 75 39 74 40 30 42 62 43 42 44 61 45
REMARK SMILES IDX 43 46 46 47 60 48 79 49 44 50 45 51 59 53 80 54 47 55 31 56
REMARK SMILES IDX 32 57 40 58 33 59 35 60 41 61 34 62 36 63 37 64 38 65 39 66
REMARK SMILES IDX 63 67 64 68 72 69 65 70 67 71 73 72 66 73 68 74 69 75 70 76
REMARK SMILES IDX 71 77 48 78 49 79 57 80 50 81 52 82 58 83 51 84 53 85 54 86
REMARK SMILES IDX 55 87 56 88
REMARK H PARENT 3 10 3 11 78 41 46 52
REMARK Flexibility Score: inf
ROOT
ATOM      1  C   UNL A   1      31.293  30.096  25.110  1.00  0.00     0.274 C 
ENDROOT
BRANCH   1   2
ATOM      2  O   UNL A   1      32.076  29.249  24.244  1.00  0.00    -0.462 OA
BRANCH   2   3
ATOM      3  C   UNL A   1      32.012  27.919  24.520  1.00  0.00     0.314 C 
ATOM      4  O   UNL A   1      30.971  27.310  24.743  1.00  0.00    -0.252 OA
BRANCH   3   5
ATOM      5  C   UNL A   1      33.375  27.250  24.600  1.00  0.00     0.154 C 
ATOM      6  C   UNL A   1      33.794  26.899  26.030  1.00  0.00     0.026 C 
BRANCH   5   7
ATOM      7  C   UNL A   1      33.525  26.080  23.593  1.00  0.00     0.194 C 
ATOM      8  C   UNL A   1      33.317  26.554  22.146  1.00  0.00     0.076 C 
BRANCH   7   9
ATOM      9  N   UNL A   1      32.690  24.929  23.977  1.00  0.00    -0.333 N 
ATOM     10  H   UNL A   1      31.792  25.024  23.503  1.00  0.00     0.347 HD
ATOM     11  H   UNL A   1      32.633  24.962  24.995  1.00  0.00     0.347 HD
BRANCH   9  12
ATOM     12  C   UNL A   1      33.226  23.602  23.657  1.00  0.00     0.282 C 
ATOM     13  C   UNL A   1      32.167  22.770  22.939  1.00  0.00     0.176 C 
ATOM     14  C   UNL A   1      33.591  22.701  24.835  1.00  0.00     0.287 C 
ATOM     15  C   UNL A   1      32.495  21.369  23.356  1.00  0.00     0.235 C 
ATOM     16  N   UNL A   1      33.238  21.421  24.498  1.00  0.00    -0.280 N 
ATOM     17  O   UNL A   1      34.197  23.014  25.849  1.00  0.00    -0.267 OA
ATOM     18  O   UNL A   1      32.103  20.365  22.780  1.00  0.00    -0.274 OA
ATOM     19  C   UNL A   1      33.652  20.276  25.269  1.00  0.00     0.156 C 
ENDBRANCH   9  12
ENDBRANCH   7   9
ENDBRANCH   5   7
ENDBRANCH   3   5
ENDBRANCH   2   3
ENDBRANCH   1   2
BRANCH   1  20
ATOM     20  C   UNL A   1      31.915  30.250  26.503  1.00  0.00     0.275 C 
BRANCH  20  21
ATOM     21  O   UNL A   1      33.333  30.479  26.444  1.00  0.00    -0.458 OA
BRANCH  21  22
ATOM     22  C   UNL A   1      33.789  31.442  27.282  1.00  0.00     0.338 C 
ATOM     23  O   UNL A   1      33.169  32.409  27.690  1.00  0.00    -0.246 OA
BRANCH  22  24
ATOM     24  C   UNL A   1      35.133  31.092  27.768  1.00  0.00     0.060 A 
ATOM     25  C   UNL A   1      35.392  29.754  28.076  1.00  0.00     0.016 A 
ATOM     26  C   UNL A   1      36.091  32.074  28.016  1.00  0.00     0.016 A 
ATOM     27  C   UNL A   1      36.605  29.383  28.645  1.00  0.00     0.010 A 
ATOM     28  C   UNL A   1      37.309  31.703  28.595  1.00  0.00     0.010 A 
ATOM     29  C   UNL A   1      37.563  30.359  28.929  1.00  0.00    -0.014 A 
BRANCH  29  30
ATOM     30  C   UNL A   1      38.790  29.987  29.667  1.00  0.00     0.031 A 
ATOM     31  C   UNL A   1      39.727  28.981  29.066  1.00  0.00     0.074 A 
ATOM     32  C   UNL A   1      39.057  30.547  30.860  1.00  0.00     0.049 A 
ATOM     33  N   UNL A   1      40.790  28.429  29.585  1.00  0.00    -0.248 NA
ATOM     34  C   UNL A   1      39.423  28.534  27.695  1.00  0.00     0.031 C 
ATOM     35  C   UNL A   1      38.236  31.564  31.518  1.00  0.00     0.029 A 
ATOM     36  N   UNL A   1      40.083  30.320  31.741  1.00  0.00    -0.354 N 
ATOM     37  C   UNL A   1      41.257  27.536  28.630  1.00  0.00     0.074 A 
ATOM     38  C   UNL A   1      40.367  27.625  27.493  1.00  0.00     0.031 C 
ATOM     39  C   UNL A   1      38.777  31.852  32.714  1.00  0.00     0.029 A 
ATOM     40  C   UNL A   1      39.955  31.014  32.920  1.00  0.00     0.049 A 
ATOM     41  H   UNL A   1      40.838  29.718  31.548  1.00  0.00     0.167 HD
ATOM     42  C   UNL A   1      42.337  26.722  28.692  1.00  0.00     0.034 A 
ATOM     43  C   UNL A   1      40.686  30.954  34.051  1.00  0.00     0.034 A 
ATOM     44  C   UNL A   1      43.237  26.669  29.812  1.00  0.00     0.049 A 
ATOM     45  C   UNL A   1      41.873  30.028  34.100  1.00  0.00     0.074 A 
ATOM     46  C   UNL A   1      44.372  25.894  29.968  1.00  0.00     0.029 A 
ATOM     47  N   UNL A   1      43.107  27.427  30.965  1.00  0.00    -0.354 N 
ATOM     48  N   UNL A   1      42.344  29.239  33.163  1.00  0.00    -0.248 NA
ATOM     49  C   UNL A   1      42.645  30.001  35.350  1.00  0.00     0.031 C 
ATOM     50  C   UNL A   1      44.923  26.177  31.222  1.00  0.00     0.029 A 
ATOM     51  C   UNL A   1      44.139  27.139  31.839  1.00  0.00     0.049 A 
ATOM     52  H   UNL A   1      42.385  28.074  31.138  1.00  0.00     0.167 HD
ATOM     53  C   UNL A   1      43.484  28.649  33.697  1.00  0.00     0.074 A 
ATOM     54  C   UNL A   1      43.643  29.185  35.034  1.00  0.00     0.031 C 
ATOM     55  C   UNL A   1      44.315  27.735  33.139  1.00  0.00     0.034 A 
BRANCH  42  56
ATOM     56  C   UNL A   1      42.613  25.837  27.508  1.00  0.00     0.023 A 
ATOM     57  C   UNL A   1      43.394  26.325  26.441  1.00  0.00     0.012 A 
ATOM     58  C   UNL A   1      42.141  24.510  27.471  1.00  0.00     0.148 A 
ATOM     59  C   UNL A   1      43.679  25.514  25.343  1.00  0.00     0.002 A 
ATOM     60  C   UNL A   1      42.460  23.696  26.391  1.00  0.00     0.091 A 
ATOM     61  F   UNL A   1      41.376  24.074  28.483  1.00  0.00    -0.205 F 
ATOM     62  C   UNL A   1      43.222  24.198  25.323  1.00  0.00     0.022 A 
BRANCH  60  63
ATOM     63  S   UNL A   1      41.973  21.969  26.308  1.00  0.00     0.127 S 
ATOM     64  O   UNL A   1      42.826  21.473  25.229  1.00  0.00    -0.237 OA
ATOM     65  O   UNL A   1      42.330  21.480  27.640  1.00  0.00    -0.237 OA
ATOM     66  O   UNL A   1      40.544  21.970  26.028  1.00  0.00    -0.744 OA
ENDBRANCH  60  63
ENDBRANCH  42  56
BRANCH  43  67
ATOM     67  C   UNL A   1      40.333  31.816  35.212  1.00  0.00     0.023 A 
ATOM     68  C   UNL A   1      41.014  33.034  35.403  1.00  0.00     0.012 A 
ATOM     69  C   UNL A   1      39.308  31.456  36.109  1.00  0.00     0.148 A 
ATOM     70  C   UNL A   1      40.697  33.866  36.478  1.00  0.00     0.002 A 
ATOM     71  C   UNL A   1      38.960  32.314  37.146  1.00  0.00     0.091 A 
ATOM     72  F   UNL A   1      38.686  30.282  35.928  1.00  0.00    -0.205 F 
ATOM     73  C   UNL A   1      39.663  33.513  37.341  1.00  0.00     0.022 A 
BRANCH  71  74
ATOM     74  S   UNL A   1      37.557  31.995  38.223  1.00  0.00     0.127 S 
ATOM     75  O   UNL A   1      37.308  30.577  37.977  1.00  0.00    -0.237 OA
ATOM     76  O   UNL A   1      38.107  32.303  39.543  1.00  0.00    -0.237 OA
ATOM     77  O   UNL A   1      36.514  32.912  37.783  1.00  0.00    -0.744 OA
ENDBRANCH  71  74
ENDBRANCH  43  67
BRANCH  55  78
ATOM     78  C   UNL A   1      45.499  27.280  33.949  1.00  0.00     0.023 A 
ATOM     79  C   UNL A   1      46.704  28.008  33.894  1.00  0.00     0.012 A 
ATOM     80  C   UNL A   1      45.387  26.190  34.834  1.00  0.00     0.148 A 
ATOM     81  C   UNL A   1      47.787  27.644  34.693  1.00  0.00     0.002 A 
ATOM     82  C   UNL A   1      46.455  25.860  35.659  1.00  0.00     0.091 A 
ATOM     83  F   UNL A   1      44.237  25.499  34.856  1.00  0.00    -0.205 F 
ATOM     84  C   UNL A   1      47.659  26.580  35.582  1.00  0.00     0.022 A 
BRANCH  82  85
ATOM     85  S   UNL A   1      46.344  24.566  36.899  1.00  0.00     0.127 S 
ATOM     86  O   UNL A   1      46.191  23.371  36.072  1.00  0.00    -0.237 OA
ATOM     87  O   UNL A   1      47.634  24.674  37.581  1.00  0.00    -0.237 OA
ATOM     88  O   UNL A   1      45.196  24.907  37.728  1.00  0.00    -0.744 OA
ENDBRANCH  82  85
ENDBRANCH  55  78
ENDBRANCH  29  30
ENDBRANCH  22  24
ENDBRANCH  21  22
ENDBRANCH  20  21
ENDBRANCH   1  20
TORSDOF 17
ENDMDL
MODEL 3
REMARK VINA RESULT:     -10.4      5.361     10.113
REMARK SMILES C[C@H]([NH2+][C@@H]1CC(=O)N(C)C1=O)[C@H](C)C(=O)OCCOC(=O)c1ccc(-c2c3nc(c(-c4cccc(S(=O)(=O)[O-])c4F)c4ccc([nH]4)c(-c4cccc(S(=O)(=O)[O-])c4F)c4nc(c(-c5cccc(S(=O)(=O)[O-])c5F)c5ccc2[nH]5)C=C4)C=C3)cc1
REMARK SMILES IDX 17 1 16 2 14 3 15 4 12 5 13 6 2 7 1 8 3 9 4 12 5 13 10 14
REMARK SMILES IDX 6 15 8 16 11 17 7 18 9 19 18 20 19 21 20 22 21 23 22 24
REMARK SMILES IDX 23 25 84 26 24 27 83 28 25 29 26 30 27 31 77 32 28 33 82 34
REMARK SMILES IDX 76 35 78 36 29 37 81 38 75 39 74 40 30 42 62 43 42 44 61 45
REMARK SMILES IDX 43 46 46 47 60 48 79 49 44 50 45 51 59 53 80 54 47 55 31 56
REMARK SMILES IDX 32 57 40 58 33 59 35 60 41 61 34 62 36 63 37 64 38 65 39 66
REMARK SMILES IDX 63 67 64 68 72 69 65 70 67 71 73 72 66 73 68 74 69 75 70 76
REMARK SMILES IDX 71 77 48 78 49 79 57 80 50 81 52 82 58 83 51 84 53 85 54 86
REMARK SMILES IDX 55 87 56 88
REMARK H PARENT 3 10 3 11 78 41 46 52
REMARK Flexibility Score: inf
ROOT
ATOM      1  C   UNL A   1      31.368  29.745  25.824  1.00  0.00     0.274 C 
ENDROOT
BRANCH   1   2
ATOM      2  O   UNL A   1      32.376  28.713  25.797  1.00  0.00    -0.462 OA
BRANCH   2   3
ATOM      3  C   UNL A   1      31.929  27.459  26.068  1.00  0.00     0.314 C 
ATOM      4  O   UNL A   1      31.096  27.194  26.929  1.00  0.00    -0.252 OA
BRANCH   3   5
ATOM      5  C   UNL A   1      32.612  26.380  25.244  1.00  0.00     0.154 C 
ATOM      6  C   UNL A   1      32.793  25.062  26.003  1.00  0.00     0.026 C 
BRANCH   5   7
ATOM      7  C   UNL A   1      31.984  26.216  23.837  1.00  0.00     0.194 C 
ATOM      8  C   UNL A   1      32.605  25.031  23.079  1.00  0.00     0.076 C 
BRANCH   7   9
ATOM      9  N   UNL A   1      32.001  27.485  23.089  1.00  0.00    -0.333 N 
ATOM     10  H   UNL A   1      32.746  27.428  22.395  1.00  0.00     0.347 HD
ATOM     11  H   UNL A   1      32.134  28.212  23.791  1.00  0.00     0.347 HD
BRANCH   9  12
ATOM     12  C   UNL A   1      30.763  27.841  22.386  1.00  0.00     0.282 C 
ATOM     13  C   UNL A   1      30.775  29.324  22.027  1.00  0.00     0.176 C 
ATOM     14  C   UNL A   1      29.461  27.716  23.174  1.00  0.00     0.287 C 
ATOM     15  C   UNL A   1      29.323  29.694  22.064  1.00  0.00     0.235 C 
ATOM     16  N   UNL A   1      28.661  28.768  22.814  1.00  0.00    -0.280 N 
ATOM     17  O   UNL A   1      29.119  26.796  23.903  1.00  0.00    -0.267 OA
ATOM     18  O   UNL A   1      28.849  30.694  21.545  1.00  0.00    -0.274 OA
ATOM     19  C   UNL A   1      27.268  28.840  23.178  1.00  0.00     0.156 C 
ENDBRANCH   9  12
ENDBRANCH   7   9
ENDBRANCH   5   7
ENDBRANCH   3   5
ENDBRANCH   2   3
ENDBRANCH   1   2
BRANCH   1  20
ATOM     20  C   UNL A   1      31.875  31.048  26.455  1.00  0.00     0.275 C 
BRANCH  20  21
ATOM     21  O   UNL A   1      32.971  30.823  27.359  1.00  0.00    -0.458 OA
BRANCH  21  22
ATOM     22  C   UNL A   1      33.735  31.915  27.608  1.00  0.00     0.338 C 
ATOM     23  O   UNL A   1      33.377  33.080  27.583  1.00  0.00    -0.246 OA
BRANCH  22  24
ATOM     24  C   UNL A   1      35.071  31.501  28.065  1.00  0.00     0.060 A 
ATOM     25  C   UNL A   1      35.251  30.169  28.448  1.00  0.00     0.016 A 
ATOM     26  C   UNL A   1      36.105  32.425  28.211  1.00  0.00     0.016 A 
ATOM     27  C   UNL A   1      36.459  29.748  28.993  1.00  0.00     0.010 A 
ATOM     28  C   UNL A   1      37.318  32.005  28.767  1.00  0.00     0.010 A 
ATOM     29  C   UNL A   1      37.492  30.670  29.177  1.00  0.00    -0.014 A 
BRANCH  29  30
ATOM     30  C   UNL A   1      38.721  30.257  29.890  1.00  0.00     0.031 A 
ATOM     31  C   UNL A   1      39.631  29.248  29.255  1.00  0.00     0.074 A 
ATOM     32  C   UNL A   1      39.014  30.784  31.093  1.00  0.00     0.049 A 
ATOM     33  N   UNL A   1      40.690  28.664  29.747  1.00  0.00    -0.248 NA
ATOM     34  C   UNL A   1      39.302  28.838  27.878  1.00  0.00     0.031 C 
ATOM     35  C   UNL A   1      38.221  31.801  31.784  1.00  0.00     0.029 A 
ATOM     36  N   UNL A   1      40.047  30.517  31.955  1.00  0.00    -0.354 N 
ATOM     37  C   UNL A   1      41.127  27.784  28.766  1.00  0.00     0.074 A 
ATOM     38  C   UNL A   1      40.225  27.916  27.643  1.00  0.00     0.031 C 
ATOM     39  C   UNL A   1      38.782  32.052  32.979  1.00  0.00     0.029 A 
ATOM     40  C   UNL A   1      39.946  31.187  33.151  1.00  0.00     0.049 A 
ATOM     41  H   UNL A   1      40.787  29.906  31.738  1.00  0.00     0.167 HD
ATOM     42  C   UNL A   1      42.192  26.948  28.796  1.00  0.00     0.034 A 
ATOM     43  C   UNL A   1      40.690  31.086  34.270  1.00  0.00     0.034 A 
ATOM     44  C   UNL A   1      43.105  26.853  29.902  1.00  0.00     0.049 A 
ATOM     45  C   UNL A   1      41.860  30.138  34.283  1.00  0.00     0.074 A 
ATOM     46  C   UNL A   1      44.227  26.053  30.025  1.00  0.00     0.029 A 
ATOM     47  N   UNL A   1      43.004  27.586  31.074  1.00  0.00    -0.354 N 
ATOM     48  N   UNL A   1      42.304  29.362  33.322  1.00  0.00    -0.248 NA
ATOM     49  C   UNL A   1      42.647  30.067  35.522  1.00  0.00     0.031 C 
ATOM     50  C   UNL A   1      44.799  26.297  31.279  1.00  0.00     0.029 A 
ATOM     51  C   UNL A   1      44.041  27.258  31.928  1.00  0.00     0.049 A 
ATOM     52  H   UNL A   1      42.297  28.243  31.271  1.00  0.00     0.167 HD
ATOM     53  C   UNL A   1      43.439  28.738  33.828  1.00  0.00     0.074 A 
ATOM     54  C   UNL A   1      43.624  29.239  35.175  1.00  0.00     0.031 C 
ATOM     55  C   UNL A   1      44.245  27.822  33.238  1.00  0.00     0.034 A 
BRANCH  42  56
ATOM     56  C   UNL A   1      42.437  26.086  27.588  1.00  0.00     0.023 A 
ATOM     57  C   UNL A   1      43.163  26.604  26.498  1.00  0.00     0.012 A 
ATOM     58  C   UNL A   1      41.989  24.751  27.551  1.00  0.00     0.148 A 
ATOM     59  C   UNL A   1      43.418  25.815  25.377  1.00  0.00     0.002 A 
ATOM     60  C   UNL A   1      42.279  23.959  26.446  1.00  0.00     0.091 A 
ATOM     61  F   UNL A   1      41.274  24.286  28.586  1.00  0.00    -0.205 F 
ATOM     62  C   UNL A   1      42.987  24.491  25.356  1.00  0.00     0.022 A 
BRANCH  60  63
ATOM     63  S   UNL A   1      41.822  22.223  26.358  1.00  0.00     0.127 S 
ATOM     64  O   UNL A   1      42.526  21.795  25.151  1.00  0.00    -0.237 OA
ATOM     65  O   UNL A   1      42.372  21.692  27.605  1.00  0.00    -0.237 OA
ATOM     66  O   UNL A   1      40.368  22.197  26.279  1.00  0.00    -0.744 OA
ENDBRANCH  60  63
ENDBRANCH  42  56
BRANCH  43  67
ATOM     67  C   UNL A   1      40.368  31.928  35.455  1.00  0.00     0.023 A 
ATOM     68  C   UNL A   1      41.163  33.056  35.741  1.00  0.00     0.012 A 
ATOM     69  C   UNL A   1      39.264  31.641  36.282  1.00  0.00     0.148 A 
ATOM     70  C   UNL A   1      40.878  33.867  36.840  1.00  0.00     0.002 A 
ATOM     71  C   UNL A   1      38.954  32.484  37.343  1.00  0.00     0.091 A 
ATOM     72  F   UNL A   1      38.533  30.550  36.012  1.00  0.00    -0.205 F 
ATOM     73  C   UNL A   1      39.768  33.590  37.633  1.00  0.00     0.022 A 
BRANCH  71  74
ATOM     74  S   UNL A   1      37.469  32.269  38.333  1.00  0.00     0.127 S 
ATOM     75  O   UNL A   1      37.863  32.882  39.599  1.00  0.00    -0.237 OA
ATOM     76  O   UNL A   1      36.478  33.026  37.566  1.00  0.00    -0.237 OA
ATOM     77  O   UNL A   1      37.228  30.833  38.365  1.00  0.00    -0.744 OA
ENDBRANCH  71  74
ENDBRANCH  43  67
BRANCH  55  78
ATOM     78  C   UNL A   1      45.430  27.325  34.022  1.00  0.00     0.023 A 
ATOM     79  C   UNL A   1      46.646  28.034  33.972  1.00  0.00     0.012 A 
ATOM     80  C   UNL A   1      45.309  26.215  34.880  1.00  0.00     0.148 A 
ATOM     81  C   UNL A   1      47.732  27.631  34.749  1.00  0.00     0.002 A 
ATOM     82  C   UNL A   1      46.380  25.846  35.683  1.00  0.00     0.091 A 
ATOM     83  F   UNL A   1      44.148  25.543  34.897  1.00  0.00    -0.205 F 
ATOM     84  C   UNL A   1      47.596  26.547  35.612  1.00  0.00     0.022 A 
BRANCH  82  85
ATOM     85  S   UNL A   1      46.261  24.521  36.891  1.00  0.00     0.127 S 
ATOM     86  O   UNL A   1      46.142  23.344  36.033  1.00  0.00    -0.237 OA
ATOM     87  O   UNL A   1      47.535  24.630  37.603  1.00  0.00    -0.237 OA
ATOM     88  O   UNL A   1      45.091  24.827  37.703  1.00  0.00    -0.744 OA
ENDBRANCH  82  85
ENDBRANCH  55  78
ENDBRANCH  29  30
ENDBRANCH  22  24
ENDBRANCH  21  22
ENDBRANCH  20  21
ENDBRANCH   1  20
TORSDOF 17
ENDMDL
