MODEL 1
REMARK VINA RESULT:     -12.4      0.000      0.000
REMARK SMILES Cc1cc(C(=O)OCCOC(=O)c2ccc(-c3c4nc(c(-c5cccc(S(=O)(=O)[O-])c5F)c5ccc([nH]5)c(-c5cccc(S(=O)(=O)[O-])c5F)c5nc(c(-c6cccc(S(=O)(=O)[O-])c6F)c6ccc3[nH]6)C=C5)C=C4)cc2)ccc1NS(=O)(=O)c1ccc(C#N)cc1C
REMARK SMILES IDX 8 1 7 2 5 3 6 4 4 5 1 6 2 7 3 8 78 9 77 10 76 11 79 12 80 14
REMARK SMILES IDX 81 15 82 16 83 17 84 18 90 19 85 20 89 21 91 22 86 23 87 24
REMARK SMILES IDX 88 25 9 26 10 27 11 28 12 29 13 30 14 31 75 32 15 33 74 34
REMARK SMILES IDX 16 35 17 36 18 37 68 38 19 39 73 40 67 41 69 42 20 43 72 44
REMARK SMILES IDX 66 45 65 46 21 48 53 49 33 50 52 51 34 52 37 53 51 54 70 55
REMARK SMILES IDX 35 56 36 57 50 59 71 60 38 61 22 62 23 63 31 64 24 65 26 66
REMARK SMILES IDX 32 67 25 68 27 69 28 70 29 71 30 72 54 73 55 74 63 75 56 76
REMARK SMILES IDX 58 77 64 78 57 79 59 80 60 81 61 82 62 83 39 84 40 85 48 86
REMARK SMILES IDX 41 87 43 88 49 89 42 90 44 91 45 92 46 93 47 94
REMARK H PARENT 79 13 69 47 37 58
REMARK Flexibility Score: inf
ROOT
ATOM      1  C   UNL A   1      38.049  21.457  25.200  1.00  0.00     0.275 C 
ENDROOT
BRANCH   1   2
ATOM      2  O   UNL A   1      36.954  21.431  24.287  1.00  0.00    -0.458 OA
BRANCH   2   3
ATOM      3  C   UNL A   1      36.410  22.540  23.735  1.00  0.00     0.338 C 
ATOM      4  O   UNL A   1      36.793  23.138  22.752  1.00  0.00    -0.246 OA
BRANCH   3   5
ATOM      5  C   UNL A   1      35.215  22.839  24.564  1.00  0.00     0.060 A 
ATOM      6  C   UNL A   1      31.713  21.572  25.397  1.00  0.00     0.046 C 
ATOM      7  C   UNL A   1      32.942  22.449  25.421  1.00  0.00    -0.026 A 
ATOM      8  C   UNL A   1      34.110  21.993  24.733  1.00  0.00     0.021 A 
ATOM      9  C   UNL A   1      32.946  23.725  26.025  1.00  0.00     0.052 A 
ATOM     10  C   UNL A   1      34.095  24.489  25.881  1.00  0.00     0.028 A 
ATOM     11  C   UNL A   1      35.188  24.096  25.139  1.00  0.00     0.018 A 
BRANCH   9  12
ATOM     12  N   UNL A   1      31.773  24.357  26.577  1.00  0.00    -0.279 N 
ATOM     13  H   UNL A   1      31.536  24.164  27.513  1.00  0.00     0.180 HD
BRANCH  12  14
ATOM     14  S   UNL A   1      30.780  25.420  25.695  1.00  0.00     0.262 S 
ATOM     15  O   UNL A   1      30.681  24.892  24.351  1.00  0.00    -0.201 OA
ATOM     16  O   UNL A   1      29.584  25.610  26.496  1.00  0.00    -0.201 OA
BRANCH  14  17
ATOM     17  C   UNL A   1      31.567  27.054  25.532  1.00  0.00     0.090 A 
ATOM     18  C   UNL A   1      32.462  27.512  26.511  1.00  0.00     0.024 A 
ATOM     19  C   UNL A   1      31.004  27.977  24.625  1.00  0.00    -0.029 A 
ATOM     20  C   UNL A   1      32.543  28.894  26.777  1.00  0.00     0.021 A 
ATOM     21  C   UNL A   1      31.099  29.353  24.904  1.00  0.00     0.024 A 
ATOM     22  C   UNL A   1      30.435  27.576  23.292  1.00  0.00     0.046 C 
ATOM     23  C   UNL A   1      31.795  29.807  26.027  1.00  0.00     0.052 A 
BRANCH  23  24
ATOM     24  C   UNL A   1      31.645  31.182  26.440  1.00  0.00     0.099 C 
ATOM     25  N   UNL A   1      31.410  32.243  26.821  1.00  0.00    -0.192 NA
ENDBRANCH  23  24
ENDBRANCH  14  17
ENDBRANCH  12  14
ENDBRANCH   9  12
ENDBRANCH   3   5
ENDBRANCH   2   3
ENDBRANCH   1   2
BRANCH   1  26
ATOM     26  C   UNL A   1      38.265  22.678  26.109  1.00  0.00     0.275 C 
BRANCH  26  27
ATOM     27  O   UNL A   1      39.446  22.878  26.944  1.00  0.00    -0.458 OA
BRANCH  27  28
ATOM     28  C   UNL A   1      40.540  23.661  26.788  1.00  0.00     0.338 C 
ATOM     29  O   UNL A   1      41.616  23.225  26.406  1.00  0.00    -0.246 OA
BRANCH  28  30
ATOM     30  C   UNL A   1      40.386  25.066  27.150  1.00  0.00     0.060 A 
ATOM     31  C   UNL A   1      40.818  26.084  26.280  1.00  0.00     0.016 A 
ATOM     32  C   UNL A   1      39.727  25.343  28.341  1.00  0.00     0.016 A 
ATOM     33  C   UNL A   1      40.584  27.404  26.614  1.00  0.00     0.010 A 
ATOM     34  C   UNL A   1      39.292  26.613  28.557  1.00  0.00     0.010 A 
ATOM     35  C   UNL A   1      39.884  27.626  27.789  1.00  0.00    -0.014 A 
BRANCH  35  36
ATOM     36  C   UNL A   1      40.130  28.780  28.625  1.00  0.00     0.031 A 
ATOM     37  C   UNL A   1      39.130  29.847  28.631  1.00  0.00     0.074 A 
ATOM     38  C   UNL A   1      41.082  28.457  29.544  1.00  0.00     0.049 A 
ATOM     39  N   UNL A   1      39.332  31.007  29.131  1.00  0.00    -0.248 NA
ATOM     40  C   UNL A   1      37.804  29.724  28.013  1.00  0.00     0.031 C 
ATOM     41  C   UNL A   1      41.262  28.870  30.922  1.00  0.00     0.029 A 
ATOM     42  N   UNL A   1      42.100  27.492  29.406  1.00  0.00    -0.354 N 
ATOM     43  C   UNL A   1      38.087  31.574  29.309  1.00  0.00     0.074 A 
ATOM     44  C   UNL A   1      37.222  30.870  28.398  1.00  0.00     0.031 C 
ATOM     45  C   UNL A   1      42.471  28.436  31.349  1.00  0.00     0.029 A 
ATOM     46  C   UNL A   1      43.172  27.875  30.198  1.00  0.00     0.049 A 
ATOM     47  H   UNL A   1      42.058  26.685  28.843  1.00  0.00     0.167 HD
ATOM     48  C   UNL A   1      37.914  32.386  30.391  1.00  0.00     0.034 A 
ATOM     49  C   UNL A   1      44.313  28.365  29.615  1.00  0.00     0.034 A 
ATOM     50  C   UNL A   1      39.192  32.449  31.136  1.00  0.00     0.049 A 
ATOM     51  C   UNL A   1      44.385  29.871  29.845  1.00  0.00     0.074 A 
ATOM     52  C   UNL A   1      39.646  31.762  32.249  1.00  0.00     0.029 A 
ATOM     53  N   UNL A   1      40.323  32.978  30.518  1.00  0.00    -0.354 N 
ATOM     54  N   UNL A   1      43.370  30.590  30.244  1.00  0.00    -0.248 NA
ATOM     55  C   UNL A   1      45.588  30.673  29.663  1.00  0.00     0.031 C 
ATOM     56  C   UNL A   1      41.073  31.796  32.228  1.00  0.00     0.029 A 
ATOM     57  C   UNL A   1      41.488  32.505  31.111  1.00  0.00     0.049 A 
ATOM     58  H   UNL A   1      40.299  33.605  29.760  1.00  0.00     0.167 HD
ATOM     59  C   UNL A   1      43.710  31.905  30.310  1.00  0.00     0.074 A 
ATOM     60  C   UNL A   1      45.132  31.897  29.988  1.00  0.00     0.031 C 
ATOM     61  C   UNL A   1      42.796  32.892  30.573  1.00  0.00     0.034 A 
BRANCH  48  62
ATOM     62  C   UNL A   1      36.611  32.901  30.990  1.00  0.00     0.023 A 
ATOM     63  C   UNL A   1      36.316  32.454  32.301  1.00  0.00     0.012 A 
ATOM     64  C   UNL A   1      35.643  33.758  30.406  1.00  0.00     0.148 A 
ATOM     65  C   UNL A   1      35.141  32.793  32.978  1.00  0.00     0.002 A 
ATOM     66  C   UNL A   1      34.470  34.113  31.091  1.00  0.00     0.091 A 
ATOM     67  F   UNL A   1      35.826  34.239  29.177  1.00  0.00    -0.205 F 
ATOM     68  C   UNL A   1      34.215  33.624  32.374  1.00  0.00     0.022 A 
BRANCH  66  69
ATOM     69  S   UNL A   1      33.219  35.220  30.402  1.00  0.00     0.127 S 
ATOM     70  O   UNL A   1      32.244  35.293  31.492  1.00  0.00    -0.237 OA
ATOM     71  O   UNL A   1      33.977  36.452  30.185  1.00  0.00    -0.237 OA
ATOM     72  O   UNL A   1      32.731  34.581  29.186  1.00  0.00    -0.744 OA
ENDBRANCH  66  69
ENDBRANCH  48  62
BRANCH  49  73
ATOM     73  C   UNL A   1      44.663  27.677  28.315  1.00  0.00     0.023 A 
ATOM     74  C   UNL A   1      44.507  28.424  27.114  1.00  0.00     0.012 A 
ATOM     75  C   UNL A   1      45.486  26.540  28.281  1.00  0.00     0.148 A 
ATOM     76  C   UNL A   1      45.297  28.161  25.990  1.00  0.00     0.002 A 
ATOM     77  C   UNL A   1      46.279  26.289  27.158  1.00  0.00     0.091 A 
ATOM     78  F   UNL A   1      45.545  25.743  29.355  1.00  0.00    -0.205 F 
ATOM     79  C   UNL A   1      46.213  27.117  26.028  1.00  0.00     0.022 A 
BRANCH  77  80
ATOM     80  S   UNL A   1      47.544  25.015  27.236  1.00  0.00     0.127 S 
ATOM     81  O   UNL A   1      48.347  25.268  26.038  1.00  0.00    -0.237 OA
ATOM     82  O   UNL A   1      48.249  25.298  28.478  1.00  0.00    -0.237 OA
ATOM     83  O   UNL A   1      46.756  23.788  27.194  1.00  0.00    -0.744 OA
ENDBRANCH  77  80
ENDBRANCH  49  73
BRANCH  61  84
ATOM     84  C   UNL A   1      43.087  34.357  30.351  1.00  0.00     0.023 A 
ATOM     85  C   UNL A   1      43.563  35.183  31.386  1.00  0.00     0.012 A 
ATOM     86  C   UNL A   1      43.026  34.926  29.056  1.00  0.00     0.148 A 
ATOM     87  C   UNL A   1      43.822  36.538  31.186  1.00  0.00     0.002 A 
ATOM     88  C   UNL A   1      43.444  36.228  28.832  1.00  0.00     0.091 A 
ATOM     89  F   UNL A   1      42.541  34.216  28.027  1.00  0.00    -0.205 F 
ATOM     90  C   UNL A   1      43.781  37.058  29.902  1.00  0.00     0.022 A 
BRANCH  88  91
ATOM     91  S   UNL A   1      43.734  36.833  27.167  1.00  0.00     0.127 S 
ATOM     92  O   UNL A   1      42.379  37.147  26.722  1.00  0.00    -0.237 OA
ATOM     93  O   UNL A   1      44.586  37.999  27.406  1.00  0.00    -0.237 OA
ATOM     94  O   UNL A   1      44.402  35.741  26.472  1.00  0.00    -0.744 OA
ENDBRANCH  88  91
ENDBRANCH  61  84
ENDBRANCH  35  36
ENDBRANCH  28  30
ENDBRANCH  27  28
ENDBRANCH  26  27
ENDBRANCH   1  26
TORSDOF 18
ENDMDL
MODEL 2
REMARK VINA RESULT:     -12.1      3.982     10.317
REMARK SMILES Cc1cc(C(=O)OCCOC(=O)c2ccc(-c3c4nc(c(-c5cccc(S(=O)(=O)[O-])c5F)c5ccc([nH]5)c(-c5cccc(S(=O)(=O)[O-])c5F)c5nc(c(-c6cccc(S(=O)(=O)[O-])c6F)c6ccc3[nH]6)C=C5)C=C4)cc2)ccc1NS(=O)(=O)c1ccc(C#N)cc1C
REMARK SMILES IDX 8 1 7 2 5 3 6 4 4 5 1 6 2 7 3 8 78 9 77 10 76 11 79 12 80 14
REMARK SMILES IDX 81 15 82 16 83 17 84 18 90 19 85 20 89 21 91 22 86 23 87 24
REMARK SMILES IDX 88 25 9 26 10 27 11 28 12 29 13 30 14 31 75 32 15 33 74 34
REMARK SMILES IDX 16 35 17 36 18 37 68 38 19 39 73 40 67 41 69 42 20 43 72 44
REMARK SMILES IDX 66 45 65 46 21 48 53 49 33 50 52 51 34 52 37 53 51 54 70 55
REMARK SMILES IDX 35 56 36 57 50 59 71 60 38 61 22 62 23 63 31 64 24 65 26 66
REMARK SMILES IDX 32 67 25 68 27 69 28 70 29 71 30 72 54 73 55 74 63 75 56 76
REMARK SMILES IDX 58 77 64 78 57 79 59 80 60 81 61 82 62 83 39 84 40 85 48 86
REMARK SMILES IDX 41 87 43 88 49 89 42 90 44 91 45 92 46 93 47 94
REMARK H PARENT 79 13 69 47 37 58
REMARK Flexibility Score: inf
ROOT
ATOM      1  C   UNL A   1      32.791  30.210  26.903  1.00  0.00     0.275 C 
ENDROOT
BRANCH   1   2
ATOM      2  O   UNL A   1      33.046  29.593  25.643  1.00  0.00    -0.458 OA
BRANCH   2   3
ATOM      3  C   UNL A   1      32.131  28.860  24.968  1.00  0.00     0.338 C 
ATOM      4  O   UNL A   1      31.027  29.208  24.607  1.00  0.00    -0.246 OA
BRANCH   3   5
ATOM      5  C   UNL A   1      32.790  27.552  24.720  1.00  0.00     0.060 A 
ATOM      6  C   UNL A   1      33.137  24.780  22.121  1.00  0.00     0.046 C 
ATOM      7  C   UNL A   1      33.329  25.540  23.411  1.00  0.00    -0.026 A 
ATOM      8  C   UNL A   1      32.806  26.868  23.497  1.00  0.00     0.021 A 
ATOM      9  C   UNL A   1      33.930  24.957  24.548  1.00  0.00     0.052 A 
ATOM     10  C   UNL A   1      33.944  25.710  25.712  1.00  0.00     0.028 A 
ATOM     11  C   UNL A   1      33.358  26.952  25.828  1.00  0.00     0.018 A 
BRANCH   9  12
ATOM     12  N   UNL A   1      34.318  23.570  24.629  1.00  0.00    -0.279 N 
ATOM     13  H   UNL A   1      35.203  23.312  24.283  1.00  0.00     0.180 HD
BRANCH  12  14
ATOM     14  S   UNL A   1      33.327  22.358  25.295  1.00  0.00     0.262 S 
ATOM     15  O   UNL A   1      33.765  22.152  26.659  1.00  0.00    -0.201 OA
ATOM     16  O   UNL A   1      31.960  22.762  25.020  1.00  0.00    -0.201 OA
BRANCH  14  17
ATOM     17  C   UNL A   1      33.586  20.771  24.442  1.00  0.00     0.090 A 
ATOM     18  C   UNL A   1      32.530  20.150  23.761  1.00  0.00     0.024 A 
ATOM     19  C   UNL A   1      34.733  20.016  24.775  1.00  0.00    -0.029 A 
ATOM     20  C   UNL A   1      32.485  18.742  23.695  1.00  0.00     0.021 A 
ATOM     21  C   UNL A   1      34.671  18.612  24.698  1.00  0.00     0.024 A 
ATOM     22  C   UNL A   1      36.071  20.639  25.062  1.00  0.00     0.046 C 
ATOM     23  C   UNL A   1      33.517  17.972  24.241  1.00  0.00     0.052 A 
BRANCH  23  24
ATOM     24  C   UNL A   1      33.379  16.548  24.433  1.00  0.00     0.099 C 
ATOM     25  N   UNL A   1      33.387  15.416  24.645  1.00  0.00    -0.192 NA
ENDBRANCH  23  24
ENDBRANCH  14  17
ENDBRANCH  12  14
ENDBRANCH   9  12
ENDBRANCH   3   5
ENDBRANCH   2   3
ENDBRANCH   1   2
BRANCH   1  26
ATOM     26  C   UNL A   1      33.779  31.244  27.467  1.00  0.00     0.275 C 
BRANCH  26  27
ATOM     27  O   UNL A   1      35.221  31.035  27.559  1.00  0.00    -0.458 OA
BRANCH  27  28
ATOM     28  C   UNL A   1      36.108  31.280  28.554  1.00  0.00     0.338 C 
ATOM     29  O   UNL A   1      36.091  32.307  29.216  1.00  0.00    -0.246 OA
BRANCH  28  30
ATOM     30  C   UNL A   1      37.133  30.265  28.770  1.00  0.00     0.060 A 
ATOM     31  C   UNL A   1      37.134  29.482  29.939  1.00  0.00     0.016 A 
ATOM     32  C   UNL A   1      38.043  30.057  27.741  1.00  0.00     0.016 A 
ATOM     33  C   UNL A   1      38.068  28.473  30.077  1.00  0.00     0.010 A 
ATOM     34  C   UNL A   1      38.803  28.930  27.771  1.00  0.00     0.010 A 
ATOM     35  C   UNL A   1      38.925  28.278  29.006  1.00  0.00    -0.014 A 
BRANCH  35  36
ATOM     36  C   UNL A   1      40.290  27.837  29.184  1.00  0.00     0.031 A 
ATOM     37  C   UNL A   1      40.628  26.474  28.775  1.00  0.00     0.074 A 
ATOM     38  C   UNL A   1      41.084  28.932  29.347  1.00  0.00     0.049 A 
ATOM     39  N   UNL A   1      41.721  25.889  29.091  1.00  0.00    -0.248 NA
ATOM     40  C   UNL A   1      39.727  25.606  28.007  1.00  0.00     0.031 C 
ATOM     41  C   UNL A   1      42.448  29.197  28.933  1.00  0.00     0.029 A 
ATOM     42  N   UNL A   1      40.703  30.183  29.872  1.00  0.00    -0.354 N 
ATOM     43  C   UNL A   1      41.852  24.821  28.226  1.00  0.00     0.074 A 
ATOM     44  C   UNL A   1      40.517  24.550  27.762  1.00  0.00     0.031 C 
ATOM     45  C   UNL A   1      42.858  30.350  29.509  1.00  0.00     0.029 A 
ATOM     46  C   UNL A   1      41.820  30.771  30.445  1.00  0.00     0.049 A 
ATOM     47  H   UNL A   1      39.799  30.572  29.839  1.00  0.00     0.167 HD
ATOM     48  C   UNL A   1      43.113  24.486  27.828  1.00  0.00     0.034 A 
ATOM     49  C   UNL A   1      41.929  30.847  31.810  1.00  0.00     0.034 A 
ATOM     50  C   UNL A   1      44.069  25.415  28.473  1.00  0.00     0.049 A 
ATOM     51  C   UNL A   1      42.968  29.835  32.285  1.00  0.00     0.074 A 
ATOM     52  C   UNL A   1      44.683  26.570  28.018  1.00  0.00     0.029 A 
ATOM     53  N   UNL A   1      44.170  25.443  29.862  1.00  0.00    -0.354 N 
ATOM     54  N   UNL A   1      43.419  28.860  31.542  1.00  0.00    -0.248 NA
ATOM     55  C   UNL A   1      43.584  29.848  33.606  1.00  0.00     0.031 C 
ATOM     56  C   UNL A   1      45.057  27.341  29.160  1.00  0.00     0.029 A 
ATOM     57  C   UNL A   1      44.678  26.659  30.306  1.00  0.00     0.049 A 
ATOM     58  H   UNL A   1      43.914  24.698  30.452  1.00  0.00     0.167 HD
ATOM     59  C   UNL A   1      44.290  28.086  32.243  1.00  0.00     0.074 A 
ATOM     60  C   UNL A   1      44.402  28.784  33.518  1.00  0.00     0.031 C 
ATOM     61  C   UNL A   1      44.809  26.920  31.742  1.00  0.00     0.034 A 
BRANCH  48  62
ATOM     62  C   UNL A   1      43.534  23.571  26.685  1.00  0.00     0.023 A 
ATOM     63  C   UNL A   1      44.191  24.201  25.600  1.00  0.00     0.012 A 
ATOM     64  C   UNL A   1      43.341  22.172  26.551  1.00  0.00     0.148 A 
ATOM     65  C   UNL A   1      44.599  23.517  24.451  1.00  0.00     0.002 A 
ATOM     66  C   UNL A   1      43.767  21.479  25.406  1.00  0.00     0.091 A 
ATOM     67  F   UNL A   1      42.738  21.481  27.519  1.00  0.00    -0.205 F 
ATOM     68  C   UNL A   1      44.388  22.153  24.353  1.00  0.00     0.022 A 
BRANCH  66  69
ATOM     69  S   UNL A   1      43.569  19.695  25.198  1.00  0.00     0.127 S 
ATOM     70  O   UNL A   1      42.120  19.534  25.319  1.00  0.00    -0.237 OA
ATOM     71  O   UNL A   1      44.092  19.478  23.849  1.00  0.00    -0.237 OA
ATOM     72  O   UNL A   1      44.346  19.070  26.262  1.00  0.00    -0.744 OA
ENDBRANCH  66  69
ENDBRANCH  48  62
BRANCH  49  73
ATOM     73  C   UNL A   1      40.612  31.114  32.503  1.00  0.00     0.023 A 
ATOM     74  C   UNL A   1      39.976  30.018  33.150  1.00  0.00     0.012 A 
ATOM     75  C   UNL A   1      40.222  32.412  32.870  1.00  0.00     0.148 A 
ATOM     76  C   UNL A   1      39.139  30.215  34.254  1.00  0.00     0.002 A 
ATOM     77  C   UNL A   1      39.394  32.601  33.979  1.00  0.00     0.091 A 
ATOM     78  F   UNL A   1      40.702  33.457  32.185  1.00  0.00    -0.205 F 
ATOM     79  C   UNL A   1      38.881  31.508  34.692  1.00  0.00     0.022 A 
BRANCH  77  80
ATOM     80  S   UNL A   1      39.143  34.260  34.623  1.00  0.00     0.127 S 
ATOM     81  O   UNL A   1      38.411  34.930  33.546  1.00  0.00    -0.237 OA
ATOM     82  O   UNL A   1      38.348  34.051  35.825  1.00  0.00    -0.237 OA
ATOM     83  O   UNL A   1      40.510  34.732  34.815  1.00  0.00    -0.744 OA
ENDBRANCH  77  80
ENDBRANCH  49  73
BRANCH  61  84
ATOM     84  C   UNL A   1      45.525  25.908  32.604  1.00  0.00     0.023 A 
ATOM     85  C   UNL A   1      46.928  25.883  32.707  1.00  0.00     0.012 A 
ATOM     86  C   UNL A   1      44.805  25.032  33.453  1.00  0.00     0.148 A 
ATOM     87  C   UNL A   1      47.591  24.942  33.494  1.00  0.00     0.002 A 
ATOM     88  C   UNL A   1      45.468  24.214  34.355  1.00  0.00     0.091 A 
ATOM     89  F   UNL A   1      43.469  24.966  33.381  1.00  0.00    -0.205 F 
ATOM     90  C   UNL A   1      46.860  24.118  34.335  1.00  0.00     0.022 A 
BRANCH  88  91
ATOM     91  S   UNL A   1      44.581  23.395  35.684  1.00  0.00     0.127 S 
ATOM     92  O   UNL A   1      44.559  22.010  35.221  1.00  0.00    -0.237 OA
ATOM     93  O   UNL A   1      45.451  23.643  36.834  1.00  0.00    -0.237 OA
ATOM     94  O   UNL A   1      43.291  24.069  35.758  1.00  0.00    -0.744 OA
ENDBRANCH  88  91
ENDBRANCH  61  84
ENDBRANCH  35  36
ENDBRANCH  28  30
ENDBRANCH  27  28
ENDBRANCH  26  27
ENDBRANCH   1  26
TORSDOF 18
ENDMDL
MODEL 3
REMARK VINA RESULT:     -11.8      4.000     10.066
REMARK SMILES Cc1cc(C(=O)OCCOC(=O)c2ccc(-c3c4nc(c(-c5cccc(S(=O)(=O)[O-])c5F)c5ccc([nH]5)c(-c5cccc(S(=O)(=O)[O-])c5F)c5nc(c(-c6cccc(S(=O)(=O)[O-])c6F)c6ccc3[nH]6)C=C5)C=C4)cc2)ccc1NS(=O)(=O)c1ccc(C#N)cc1C
REMARK SMILES IDX 8 1 7 2 5 3 6 4 4 5 1 6 2 7 3 8 78 9 77 10 76 11 79 12 80 14
REMARK SMILES IDX 81 15 82 16 83 17 84 18 90 19 85 20 89 21 91 22 86 23 87 24
REMARK SMILES IDX 88 25 9 26 10 27 11 28 12 29 13 30 14 31 75 32 15 33 74 34
REMARK SMILES IDX 16 35 17 36 18 37 68 38 19 39 73 40 67 41 69 42 20 43 72 44
REMARK SMILES IDX 66 45 65 46 21 48 53 49 33 50 52 51 34 52 37 53 51 54 70 55
REMARK SMILES IDX 35 56 36 57 50 59 71 60 38 61 22 62 23 63 31 64 24 65 26 66
REMARK SMILES IDX 32 67 25 68 27 69 28 70 29 71 30 72 54 73 55 74 63 75 56 76
REMARK SMILES IDX 58 77 64 78 57 79 59 80 60 81 61 82 62 83 39 84 40 85 48 86
REMARK SMILES IDX 41 87 43 88 49 89 42 90 44 91 45 92 46 93 47 94
REMARK H PARENT 79 13 69 47 37 58
REMARK Flexibility Score: inf
ROOT
ATOM      1  C   UNL A   1      33.088  29.963  27.113  1.00  0.00     0.275 C 
ENDROOT
BRANCH   1   2
ATOM      2  O   UNL A   1      32.985  29.736  25.709  1.00  0.00    -0.458 OA
BRANCH   2   3
ATOM      3  C   UNL A   1      32.028  28.967  25.140  1.00  0.00     0.338 C 
ATOM      4  O   UNL A   1      30.904  29.300  24.830  1.00  0.00    -0.246 OA
BRANCH   3   5
ATOM      5  C   UNL A   1      32.667  27.643  24.933  1.00  0.00     0.060 A 
ATOM      6  C   UNL A   1      33.677  25.159  22.218  1.00  0.00     0.046 C 
ATOM      7  C   UNL A   1      33.491  25.750  23.595  1.00  0.00    -0.026 A 
ATOM      8  C   UNL A   1      33.033  27.102  23.693  1.00  0.00     0.021 A 
ATOM      9  C   UNL A   1      33.676  24.993  24.772  1.00  0.00     0.052 A 
ATOM     10  C   UNL A   1      33.361  25.607  25.975  1.00  0.00     0.028 A 
ATOM     11  C   UNL A   1      32.829  26.875  26.071  1.00  0.00     0.018 A 
BRANCH   9  12
ATOM     12  N   UNL A   1      33.952  23.577  24.782  1.00  0.00    -0.279 N 
ATOM     13  H   UNL A   1      34.882  23.281  24.652  1.00  0.00     0.180 HD
BRANCH  12  14
ATOM     14  S   UNL A   1      32.752  22.393  25.010  1.00  0.00     0.262 S 
ATOM     15  O   UNL A   1      32.655  22.155  26.434  1.00  0.00    -0.201 OA
ATOM     16  O   UNL A   1      31.592  22.847  24.264  1.00  0.00    -0.201 OA
BRANCH  14  17
ATOM     17  C   UNL A   1      33.262  20.808  24.273  1.00  0.00     0.090 A 
ATOM     18  C   UNL A   1      32.339  20.024  23.564  1.00  0.00     0.024 A 
ATOM     19  C   UNL A   1      34.465  20.221  24.723  1.00  0.00    -0.029 A 
ATOM     20  C   UNL A   1      32.470  18.621  23.582  1.00  0.00     0.021 A 
ATOM     21  C   UNL A   1      34.579  18.818  24.728  1.00  0.00     0.024 A 
ATOM     22  C   UNL A   1      35.694  21.020  25.057  1.00  0.00     0.046 C 
ATOM     23  C   UNL A   1      33.546  18.016  24.238  1.00  0.00     0.052 A 
BRANCH  23  24
ATOM     24  C   UNL A   1      33.568  16.597  24.507  1.00  0.00     0.099 C 
ATOM     25  N   UNL A   1      33.502  15.453  24.618  1.00  0.00    -0.192 NA
ENDBRANCH  23  24
ENDBRANCH  14  17
ENDBRANCH  12  14
ENDBRANCH   9  12
ENDBRANCH   3   5
ENDBRANCH   2   3
ENDBRANCH   1   2
BRANCH   1  26
ATOM     26  C   UNL A   1      33.992  31.086  27.647  1.00  0.00     0.275 C 
BRANCH  26  27
ATOM     27  O   UNL A   1      35.426  31.177  27.387  1.00  0.00    -0.458 OA
BRANCH  27  28
ATOM     28  C   UNL A   1      36.477  31.441  28.200  1.00  0.00     0.338 C 
ATOM     29  O   UNL A   1      36.674  32.545  28.687  1.00  0.00    -0.246 OA
BRANCH  28  30
ATOM     30  C   UNL A   1      37.406  30.341  28.434  1.00  0.00     0.060 A 
ATOM     31  C   UNL A   1      37.308  29.551  29.594  1.00  0.00     0.016 A 
ATOM     32  C   UNL A   1      38.325  30.066  27.429  1.00  0.00     0.016 A 
ATOM     33  C   UNL A   1      38.149  28.466  29.747  1.00  0.00     0.010 A 
ATOM     34  C   UNL A   1      38.986  28.879  27.467  1.00  0.00     0.010 A 
ATOM     35  C   UNL A   1      39.016  28.208  28.697  1.00  0.00    -0.014 A 
BRANCH  35  36
ATOM     36  C   UNL A   1      40.334  27.652  28.908  1.00  0.00     0.031 A 
ATOM     37  C   UNL A   1      40.493  26.203  28.791  1.00  0.00     0.074 A 
ATOM     38  C   UNL A   1      41.252  28.651  28.797  1.00  0.00     0.049 A 
ATOM     39  N   UNL A   1      41.533  25.568  29.179  1.00  0.00    -0.248 NA
ATOM     40  C   UNL A   1      39.452  25.309  28.267  1.00  0.00     0.031 C 
ATOM     41  C   UNL A   1      42.606  28.656  28.278  1.00  0.00     0.029 A 
ATOM     42  N   UNL A   1      41.047  30.022  29.055  1.00  0.00    -0.354 N 
ATOM     43  C   UNL A   1      41.488  24.335  28.561  1.00  0.00     0.074 A 
ATOM     44  C   UNL A   1      40.103  24.137  28.223  1.00  0.00     0.031 C 
ATOM     45  C   UNL A   1      43.178  29.846  28.574  1.00  0.00     0.029 A 
ATOM     46  C   UNL A   1      42.258  30.577  29.439  1.00  0.00     0.049 A 
ATOM     47  H   UNL A   1      40.191  30.502  28.977  1.00  0.00     0.167 HD
ATOM     48  C   UNL A   1      42.675  23.774  28.192  1.00  0.00     0.034 A 
ATOM     49  C   UNL A   1      42.467  30.924  30.750  1.00  0.00     0.034 A 
ATOM     50  C   UNL A   1      43.768  24.694  28.579  1.00  0.00     0.049 A 
ATOM     51  C   UNL A   1      43.418  29.915  31.388  1.00  0.00     0.074 A 
ATOM     52  C   UNL A   1      44.472  25.644  27.860  1.00  0.00     0.029 A 
ATOM     53  N   UNL A   1      43.965  25.000  29.924  1.00  0.00    -0.354 N 
ATOM     54  N   UNL A   1      43.707  28.759  30.855  1.00  0.00    -0.248 NA
ATOM     55  C   UNL A   1      44.119  30.130  32.647  1.00  0.00     0.031 C 
ATOM     56  C   UNL A   1      45.005  26.586  28.790  1.00  0.00     0.029 A 
ATOM     57  C   UNL A   1      44.632  26.211  30.072  1.00  0.00     0.049 A 
ATOM     58  H   UNL A   1      43.669  24.432  30.672  1.00  0.00     0.167 HD
ATOM     59  C   UNL A   1      44.535  28.050  31.669  1.00  0.00     0.074 A 
ATOM     60  C   UNL A   1      44.808  28.980  32.757  1.00  0.00     0.031 C 
ATOM     61  C   UNL A   1      44.887  26.750  31.411  1.00  0.00     0.034 A 
BRANCH  48  62
ATOM     62  C   UNL A   1      42.914  22.594  27.257  1.00  0.00     0.023 A 
ATOM     63  C   UNL A   1      42.149  21.432  27.522  1.00  0.00     0.012 A 
ATOM     64  C   UNL A   1      43.814  22.496  26.164  1.00  0.00     0.148 A 
ATOM     65  C   UNL A   1      42.280  20.247  26.792  1.00  0.00     0.002 A 
ATOM     66  C   UNL A   1      43.934  21.312  25.418  1.00  0.00     0.091 A 
ATOM     67  F   UNL A   1      44.577  23.535  25.827  1.00  0.00    -0.205 F 
ATOM     68  C   UNL A   1      43.174  20.185  25.737  1.00  0.00     0.022 A 
BRANCH  66  69
ATOM     69  S   UNL A   1      45.045  21.143  24.003  1.00  0.00     0.127 S 
ATOM     70  O   UNL A   1      46.357  21.333  24.623  1.00  0.00    -0.237 OA
ATOM     71  O   UNL A   1      44.778  19.775  23.558  1.00  0.00    -0.237 OA
ATOM     72  O   UNL A   1      44.660  22.180  23.053  1.00  0.00    -0.744 OA
ENDBRANCH  66  69
ENDBRANCH  48  62
BRANCH  49  73
ATOM     73  C   UNL A   1      41.236  31.488  31.424  1.00  0.00     0.023 A 
ATOM     74  C   UNL A   1      40.622  32.623  30.825  1.00  0.00     0.012 A 
ATOM     75  C   UNL A   1      40.477  30.728  32.329  1.00  0.00     0.148 A 
ATOM     76  C   UNL A   1      39.251  32.864  30.969  1.00  0.00     0.002 A 
ATOM     77  C   UNL A   1      39.108  30.970  32.460  1.00  0.00     0.091 A 
ATOM     78  F   UNL A   1      41.069  29.739  33.009  1.00  0.00    -0.205 F 
ATOM     79  C   UNL A   1      38.486  32.012  31.756  1.00  0.00     0.022 A 
BRANCH  77  80
ATOM     80  S   UNL A   1      38.090  29.810  33.383  1.00  0.00     0.127 S 
ATOM     81  O   UNL A   1      36.734  30.119  32.926  1.00  0.00    -0.237 OA
ATOM     82  O   UNL A   1      38.568  28.505  32.948  1.00  0.00    -0.237 OA
ATOM     83  O   UNL A   1      38.367  30.182  34.766  1.00  0.00    -0.744 OA
ENDBRANCH  77  80
ENDBRANCH  49  73
BRANCH  61  84
ATOM     84  C   UNL A   1      45.544  25.862  32.440  1.00  0.00     0.023 A 
ATOM     85  C   UNL A   1      46.941  25.831  32.609  1.00  0.00     0.012 A 
ATOM     86  C   UNL A   1      44.771  25.129  33.373  1.00  0.00     0.148 A 
ATOM     87  C   UNL A   1      47.550  25.003  33.551  1.00  0.00     0.002 A 
ATOM     88  C   UNL A   1      45.377  24.440  34.412  1.00  0.00     0.091 A 
ATOM     89  F   UNL A   1      43.437  25.073  33.250  1.00  0.00    -0.205 F 
ATOM     90  C   UNL A   1      46.766  24.321  34.468  1.00  0.00     0.022 A 
BRANCH  88  91
ATOM     91  S   UNL A   1      44.417  23.833  35.803  1.00  0.00     0.127 S 
ATOM     92  O   UNL A   1      43.660  25.021  36.186  1.00  0.00    -0.237 OA
ATOM     93  O   UNL A   1      43.621  22.771  35.188  1.00  0.00    -0.237 OA
ATOM     94  O   UNL A   1      45.399  23.357  36.768  1.00  0.00    -0.744 OA
ENDBRANCH  88  91
ENDBRANCH  61  84
ENDBRANCH  35  36
ENDBRANCH  28  30
ENDBRANCH  27  28
ENDBRANCH  26  27
ENDBRANCH   1  26
TORSDOF 18
ENDMDL
