MODEL 1
REMARK VINA RESULT:     -12.8      0.000      0.000
REMARK SMILES Cc1n[nH]c2c1[C@@]1(C(=O)N([C@@H](C)C(=O)OCCOC(=O)c3ccc(-c4c5nc(c(-c6cccc(S(=O)(=O)[O-])c6F)c6ccc([nH]6)c(-c6cccc(S(=O)(=O)[O-])c6F)c6nc(c(-c7cccc(S(=O)(=O)[O-])c7F)c7ccc4[nH]7)C=C6)C=C5)cc3)c3ccccc31)C(C#N)=C(N)O2
REMARK SMILES IDX 17 1 16 2 15 3 13 4 14 5 11 6 12 7 10 8 1 9 2 10 3 11 6 12
REMARK SMILES IDX 4 13 5 14 7 15 95 17 8 18 89 19 90 20 93 21 9 22 84 23 88 24
REMARK SMILES IDX 85 25 87 26 86 27 91 28 92 29 94 30 18 33 19 34 20 35 21 36
REMARK SMILES IDX 22 37 83 38 23 39 82 40 24 41 25 42 26 43 76 44 27 45 81 46
REMARK SMILES IDX 75 47 77 48 28 49 80 50 74 51 73 52 29 54 61 55 41 56 60 57
REMARK SMILES IDX 42 58 45 59 59 60 78 61 43 62 44 63 58 65 79 66 46 67 30 68
REMARK SMILES IDX 31 69 39 70 32 71 34 72 40 73 33 74 35 75 36 76 37 77 38 78
REMARK SMILES IDX 62 79 63 80 71 81 64 82 66 83 72 84 65 85 67 86 68 87 69 88
REMARK SMILES IDX 70 89 47 90 48 91 56 92 49 93 51 94 57 95 50 96 52 97 53 98
REMARK SMILES IDX 54 99 55 100
REMARK H PARENT 4 16 94 31 94 32 77 53 45 64
REMARK Flexibility Score: inf
ROOT
ATOM      1  C   UNL A   1      33.085  31.244  27.163  1.00  0.00     0.275 C 
ENDROOT
BRANCH   1   2
ATOM      2  C   UNL A   1      33.397  30.106  26.188  1.00  0.00     0.274 C 
BRANCH   2   3
ATOM      3  O   UNL A   1      32.193  29.659  25.521  1.00  0.00    -0.461 OA
BRANCH   3   4
ATOM      4  C   UNL A   1      32.375  29.054  24.312  1.00  0.00     0.329 C 
ATOM      5  O   UNL A   1      31.556  29.148  23.405  1.00  0.00    -0.250 OA
BRANCH   4   6
ATOM      6  C   UNL A   1      33.698  28.233  24.190  1.00  0.00     0.197 C 
ATOM      7  C   UNL A   1      34.422  28.586  22.888  1.00  0.00     0.044 C 
BRANCH   6   8
ATOM      8  N   UNL A   1      33.519  26.801  24.299  1.00  0.00    -0.297 N 
ATOM      9  C   UNL A   1      30.077  26.283  24.974  1.00  0.00     0.069 C 
ATOM     10  C   UNL A   1      30.510  25.103  25.772  1.00  0.00     0.068 A 
ATOM     11  N   UNL A   1      29.617  24.482  26.564  1.00  0.00    -0.177 NA
ATOM     12  C   UNL A   1      31.794  24.502  25.893  1.00  0.00     0.063 A 
ATOM     13  N   UNL A   1      30.326  23.535  27.197  1.00  0.00    -0.246 N 
ATOM     14  C   UNL A   1      31.628  23.514  26.823  1.00  0.00     0.222 A 
ATOM     15  C   UNL A   1      33.161  24.762  25.358  1.00  0.00     0.149 C 
ATOM     16  H   UNL A   1      29.941  22.919  27.863  1.00  0.00     0.193 HD
ATOM     17  O   UNL A   1      32.558  22.714  27.325  1.00  0.00    -0.422 OA
ATOM     18  C   UNL A   1      33.514  26.214  25.569  1.00  0.00     0.248 C 
ATOM     19  C   UNL A   1      33.076  24.595  23.879  1.00  0.00     0.002 A 
ATOM     20  C   UNL A   1      34.211  23.908  25.983  1.00  0.00     0.114 C 
ATOM     21  C   UNL A   1      33.883  22.950  26.908  1.00  0.00     0.208 C 
ATOM     22  O   UNL A   1      33.734  26.754  26.646  1.00  0.00    -0.273 OA
ATOM     23  C   UNL A   1      33.227  25.850  23.290  1.00  0.00     0.050 A 
ATOM     24  C   UNL A   1      32.878  23.426  23.146  1.00  0.00     0.008 A 
ATOM     25  C   UNL A   1      33.050  25.955  21.928  1.00  0.00     0.027 A 
ATOM     26  C   UNL A   1      32.818  23.526  21.765  1.00  0.00     0.001 A 
ATOM     27  C   UNL A   1      32.888  24.787  21.161  1.00  0.00     0.002 A 
BRANCH  20  28
ATOM     28  C   UNL A   1      35.694  24.083  25.702  1.00  0.00     0.102 C 
ATOM     29  N   UNL A   1      36.925  24.227  25.470  1.00  0.00    -0.193 NA
ENDBRANCH  20  28
BRANCH  21  30
ATOM     30  N   UNL A   1      34.765  22.124  27.544  1.00  0.00    -0.369 N 
ATOM     31  H   UNL A   1      34.808  22.114  28.528  1.00  0.00     0.159 HD
ATOM     32  H   UNL A   1      35.357  21.539  27.021  1.00  0.00     0.159 HD
ENDBRANCH  21  30
ENDBRANCH   6   8
ENDBRANCH   4   6
ENDBRANCH   3   4
ENDBRANCH   2   3
ENDBRANCH   1   2
BRANCH   1  33
ATOM     33  O   UNL A   1      34.078  31.264  28.200  1.00  0.00    -0.458 OA
BRANCH  33  34
ATOM     34  C   UNL A   1      35.196  31.976  27.925  1.00  0.00     0.338 C 
ATOM     35  O   UNL A   1      35.268  33.129  27.531  1.00  0.00    -0.246 OA
BRANCH  34  36
ATOM     36  C   UNL A   1      36.314  31.239  28.543  1.00  0.00     0.060 A 
ATOM     37  C   UNL A   1      37.462  31.893  29.006  1.00  0.00     0.016 A 
ATOM     38  C   UNL A   1      36.300  29.859  28.390  1.00  0.00     0.016 A 
ATOM     39  C   UNL A   1      38.659  31.188  29.106  1.00  0.00     0.010 A 
ATOM     40  C   UNL A   1      37.498  29.174  28.503  1.00  0.00     0.010 A 
ATOM     41  C   UNL A   1      38.695  29.845  28.739  1.00  0.00    -0.014 A 
BRANCH  41  42
ATOM     42  C   UNL A   1      39.914  29.043  28.837  1.00  0.00     0.031 A 
ATOM     43  C   UNL A   1      40.251  28.756  30.246  1.00  0.00     0.074 A 
ATOM     44  C   UNL A   1      40.651  28.492  27.849  1.00  0.00     0.049 A 
ATOM     45  N   UNL A   1      41.124  29.410  30.936  1.00  0.00    -0.248 NA
ATOM     46  C   UNL A   1      39.428  27.824  31.026  1.00  0.00     0.031 C 
ATOM     47  C   UNL A   1      40.431  28.476  26.411  1.00  0.00     0.029 A 
ATOM     48  N   UNL A   1      41.784  27.739  27.958  1.00  0.00    -0.354 N 
ATOM     49  C   UNL A   1      41.108  28.826  32.189  1.00  0.00     0.074 A 
ATOM     50  C   UNL A   1      39.916  28.020  32.252  1.00  0.00     0.031 C 
ATOM     51  C   UNL A   1      41.228  27.558  25.810  1.00  0.00     0.029 A 
ATOM     52  C   UNL A   1      42.166  27.068  26.795  1.00  0.00     0.049 A 
ATOM     53  H   UNL A   1      42.295  27.673  28.797  1.00  0.00     0.167 HD
ATOM     54  C   UNL A   1      42.200  28.865  32.993  1.00  0.00     0.034 A 
ATOM     55  C   UNL A   1      43.231  26.241  26.632  1.00  0.00     0.034 A 
ATOM     56  C   UNL A   1      43.201  29.773  32.498  1.00  0.00     0.049 A 
ATOM     57  C   UNL A   1      44.211  26.651  27.659  1.00  0.00     0.074 A 
ATOM     58  C   UNL A   1      43.253  31.133  32.267  1.00  0.00     0.029 A 
ATOM     59  N   UNL A   1      44.213  29.222  31.747  1.00  0.00    -0.354 N 
ATOM     60  N   UNL A   1      44.810  27.807  27.653  1.00  0.00    -0.248 NA
ATOM     61  C   UNL A   1      44.187  25.951  28.930  1.00  0.00     0.031 C 
ATOM     62  C   UNL A   1      43.988  31.278  31.053  1.00  0.00     0.029 A 
ATOM     63  C   UNL A   1      44.389  30.007  30.637  1.00  0.00     0.049 A 
ATOM     64  H   UNL A   1      44.722  28.408  31.968  1.00  0.00     0.167 HD
ATOM     65  C   UNL A   1      44.823  28.187  28.987  1.00  0.00     0.074 A 
ATOM     66  C   UNL A   1      44.514  26.966  29.733  1.00  0.00     0.031 C 
ATOM     67  C   UNL A   1      44.799  29.502  29.344  1.00  0.00     0.034 A 
BRANCH  54  68
ATOM     68  C   UNL A   1      42.493  27.842  34.046  1.00  0.00     0.023 A 
ATOM     69  C   UNL A   1      42.236  28.189  35.386  1.00  0.00     0.012 A 
ATOM     70  C   UNL A   1      43.209  26.647  33.804  1.00  0.00     0.148 A 
ATOM     71  C   UNL A   1      42.670  27.380  36.439  1.00  0.00     0.002 A 
ATOM     72  C   UNL A   1      43.572  25.809  34.848  1.00  0.00     0.091 A 
ATOM     73  F   UNL A   1      43.655  26.378  32.571  1.00  0.00    -0.205 F 
ATOM     74  C   UNL A   1      43.323  26.181  36.171  1.00  0.00     0.022 A 
BRANCH  72  75
ATOM     75  S   UNL A   1      44.388  24.237  34.553  1.00  0.00     0.127 S 
ATOM     76  O   UNL A   1      45.615  24.665  33.888  1.00  0.00    -0.237 OA
ATOM     77  O   UNL A   1      44.562  23.730  35.914  1.00  0.00    -0.237 OA
ATOM     78  O   UNL A   1      43.456  23.461  33.744  1.00  0.00    -0.744 OA
ENDBRANCH  72  75
ENDBRANCH  54  68
BRANCH  55  79
ATOM     79  C   UNL A   1      43.363  24.947  25.911  1.00  0.00     0.023 A 
ATOM     80  C   UNL A   1      44.542  24.696  25.169  1.00  0.00     0.012 A 
ATOM     81  C   UNL A   1      42.533  23.849  26.218  1.00  0.00     0.148 A 
ATOM     82  C   UNL A   1      44.924  23.394  24.823  1.00  0.00     0.002 A 
ATOM     83  C   UNL A   1      42.919  22.552  25.871  1.00  0.00     0.091 A 
ATOM     84  F   UNL A   1      41.423  24.061  26.937  1.00  0.00    -0.205 F 
ATOM     85  C   UNL A   1      44.123  22.320  25.192  1.00  0.00     0.022 A 
BRANCH  83  86
ATOM     86  S   UNL A   1      41.950  21.109  26.333  1.00  0.00     0.127 S 
ATOM     87  O   UNL A   1      42.564  20.057  25.523  1.00  0.00    -0.237 OA
ATOM     88  O   UNL A   1      42.218  21.012  27.766  1.00  0.00    -0.237 OA
ATOM     89  O   UNL A   1      40.575  21.425  25.967  1.00  0.00    -0.744 OA
ENDBRANCH  83  86
ENDBRANCH  55  79
BRANCH  67  90
ATOM     90  C   UNL A   1      44.990  30.531  28.256  1.00  0.00     0.023 A 
ATOM     91  C   UNL A   1      43.906  31.177  27.623  1.00  0.00     0.012 A 
ATOM     92  C   UNL A   1      46.293  30.989  28.005  1.00  0.00     0.148 A 
ATOM     93  C   UNL A   1      44.120  32.261  26.765  1.00  0.00     0.002 A 
ATOM     94  C   UNL A   1      46.500  32.088  27.180  1.00  0.00     0.091 A 
ATOM     95  F   UNL A   1      47.307  30.363  28.619  1.00  0.00    -0.205 F 
ATOM     96  C   UNL A   1      45.416  32.726  26.555  1.00  0.00     0.022 A 
BRANCH  94  97
ATOM     97  S   UNL A   1      48.129  32.803  26.950  1.00  0.00     0.127 S 
ATOM     98  O   UNL A   1      47.871  33.838  25.951  1.00  0.00    -0.237 OA
ATOM     99  O   UNL A   1      48.439  33.305  28.288  1.00  0.00    -0.237 OA
ATOM    100  O   UNL A   1      48.992  31.714  26.504  1.00  0.00    -0.744 OA
ENDBRANCH  94  97
ENDBRANCH  67  90
ENDBRANCH  41  42
ENDBRANCH  34  36
ENDBRANCH  33  34
ENDBRANCH   1  33
TORSDOF 17
ENDMDL
MODEL 2
REMARK VINA RESULT:     -12.4      1.247      2.027
REMARK SMILES Cc1n[nH]c2c1[C@@]1(C(=O)N([C@@H](C)C(=O)OCCOC(=O)c3ccc(-c4c5nc(c(-c6cccc(S(=O)(=O)[O-])c6F)c6ccc([nH]6)c(-c6cccc(S(=O)(=O)[O-])c6F)c6nc(c(-c7cccc(S(=O)(=O)[O-])c7F)c7ccc4[nH]7)C=C6)C=C5)cc3)c3ccccc31)C(C#N)=C(N)O2
REMARK SMILES IDX 17 1 16 2 15 3 13 4 14 5 11 6 12 7 10 8 1 9 2 10 3 11 6 12
REMARK SMILES IDX 4 13 5 14 7 15 95 17 8 18 89 19 90 20 93 21 9 22 84 23 88 24
REMARK SMILES IDX 85 25 87 26 86 27 91 28 92 29 94 30 18 33 19 34 20 35 21 36
REMARK SMILES IDX 22 37 83 38 23 39 82 40 24 41 25 42 26 43 76 44 27 45 81 46
REMARK SMILES IDX 75 47 77 48 28 49 80 50 74 51 73 52 29 54 61 55 41 56 60 57
REMARK SMILES IDX 42 58 45 59 59 60 78 61 43 62 44 63 58 65 79 66 46 67 30 68
REMARK SMILES IDX 31 69 39 70 32 71 34 72 40 73 33 74 35 75 36 76 37 77 38 78
REMARK SMILES IDX 62 79 63 80 71 81 64 82 66 83 72 84 65 85 67 86 68 87 69 88
REMARK SMILES IDX 70 89 47 90 48 91 56 92 49 93 51 94 57 95 50 96 52 97 53 98
REMARK SMILES IDX 54 99 55 100
REMARK H PARENT 4 16 94 31 94 32 77 53 45 64
REMARK Flexibility Score: inf
ROOT
ATOM      1  C   UNL A   1      33.468  31.824  27.476  1.00  0.00     0.275 C 
ENDROOT
BRANCH   1   2
ATOM      2  C   UNL A   1      32.874  30.441  27.201  1.00  0.00     0.274 C 
BRANCH   2   3
ATOM      3  O   UNL A   1      33.234  29.983  25.877  1.00  0.00    -0.461 OA
BRANCH   3   4
ATOM      4  C   UNL A   1      33.905  28.796  25.821  1.00  0.00     0.329 C 
ATOM      5  O   UNL A   1      34.395  28.277  26.818  1.00  0.00    -0.250 OA
BRANCH   4   6
ATOM      6  C   UNL A   1      33.999  28.169  24.394  1.00  0.00     0.197 C 
ATOM      7  C   UNL A   1      33.959  29.269  23.330  1.00  0.00     0.044 C 
BRANCH   6   8
ATOM      8  N   UNL A   1      32.997  27.162  24.122  1.00  0.00    -0.297 N 
ATOM      9  C   UNL A   1      31.891  25.987  27.278  1.00  0.00     0.069 C 
ATOM     10  C   UNL A   1      31.703  24.668  26.614  1.00  0.00     0.068 A 
ATOM     11  N   UNL A   1      31.457  23.582  27.368  1.00  0.00    -0.177 NA
ATOM     12  C   UNL A   1      31.787  24.317  25.238  1.00  0.00     0.063 A 
ATOM     13  N   UNL A   1      31.423  22.563  26.496  1.00  0.00    -0.246 N 
ATOM     14  C   UNL A   1      31.614  22.961  25.214  1.00  0.00     0.222 A 
ATOM     15  C   UNL A   1      32.098  25.023  23.962  1.00  0.00     0.149 C 
ATOM     16  H   UNL A   1      31.274  21.625  26.757  1.00  0.00     0.193 HD
ATOM     17  O   UNL A   1      31.677  22.158  24.163  1.00  0.00    -0.422 OA
ATOM     18  C   UNL A   1      33.374  25.814  24.125  1.00  0.00     0.248 C 
ATOM     19  C   UNL A   1      31.030  26.045  23.772  1.00  0.00     0.002 A 
ATOM     20  C   UNL A   1      32.240  24.102  22.799  1.00  0.00     0.114 C 
ATOM     21  C   UNL A   1      32.031  22.754  22.936  1.00  0.00     0.208 C 
ATOM     22  O   UNL A   1      34.500  25.350  24.249  1.00  0.00    -0.273 OA
ATOM     23  C   UNL A   1      31.599  27.306  23.945  1.00  0.00     0.050 A 
ATOM     24  C   UNL A   1      29.682  25.849  23.478  1.00  0.00     0.008 A 
ATOM     25  C   UNL A   1      30.764  28.402  23.944  1.00  0.00     0.027 A 
ATOM     26  C   UNL A   1      28.871  26.967  23.364  1.00  0.00     0.001 A 
ATOM     27  C   UNL A   1      29.407  28.236  23.611  1.00  0.00     0.002 A 
BRANCH  20  28
ATOM     28  C   UNL A   1      32.689  24.570  21.424  1.00  0.00     0.102 C 
ATOM     29  N   UNL A   1      33.061  24.958  20.283  1.00  0.00    -0.193 NA
ENDBRANCH  20  28
BRANCH  21  30
ATOM     30  N   UNL A   1      32.143  21.827  21.940  1.00  0.00    -0.369 N 
ATOM     31  H   UNL A   1      31.333  21.426  21.547  1.00  0.00     0.159 HD
ATOM     32  H   UNL A   1      33.031  21.557  21.615  1.00  0.00     0.159 HD
ENDBRANCH  21  30
ENDBRANCH   6   8
ENDBRANCH   4   6
ENDBRANCH   3   4
ENDBRANCH   2   3
ENDBRANCH   1   2
BRANCH   1  33
ATOM     33  O   UNL A   1      34.894  31.709  27.597  1.00  0.00    -0.458 OA
BRANCH  33  34
ATOM     34  C   UNL A   1      35.453  32.407  28.615  1.00  0.00     0.338 C 
ATOM     35  O   UNL A   1      35.006  33.395  29.174  1.00  0.00    -0.246 OA
BRANCH  34  36
ATOM     36  C   UNL A   1      36.508  31.543  29.174  1.00  0.00     0.060 A 
ATOM     37  C   UNL A   1      37.692  32.071  29.701  1.00  0.00     0.016 A 
ATOM     38  C   UNL A   1      36.401  30.186  28.899  1.00  0.00     0.016 A 
ATOM     39  C   UNL A   1      38.836  31.278  29.747  1.00  0.00     0.010 A 
ATOM     40  C   UNL A   1      37.547  29.410  28.961  1.00  0.00     0.010 A 
ATOM     41  C   UNL A   1      38.785  29.973  29.263  1.00  0.00    -0.014 A 
BRANCH  41  42
ATOM     42  C   UNL A   1      39.944  29.082  29.300  1.00  0.00     0.031 A 
ATOM     43  C   UNL A   1      40.367  28.814  30.688  1.00  0.00     0.074 A 
ATOM     44  C   UNL A   1      40.558  28.445  28.280  1.00  0.00     0.049 A 
ATOM     45  N   UNL A   1      41.337  29.419  31.286  1.00  0.00    -0.248 NA
ATOM     46  C   UNL A   1      39.539  27.974  31.563  1.00  0.00     0.031 C 
ATOM     47  C   UNL A   1      40.226  28.401  26.864  1.00  0.00     0.029 A 
ATOM     48  N   UNL A   1      41.636  27.609  28.332  1.00  0.00    -0.354 N 
ATOM     49  C   UNL A   1      41.374  28.878  32.558  1.00  0.00     0.074 A 
ATOM     50  C   UNL A   1      40.134  28.170  32.740  1.00  0.00     0.031 C 
ATOM     51  C   UNL A   1      40.902  27.405  26.240  1.00  0.00     0.029 A 
ATOM     52  C   UNL A   1      41.875  26.874  27.169  1.00  0.00     0.049 A 
ATOM     53  H   UNL A   1      42.204  27.530  29.132  1.00  0.00     0.167 HD
ATOM     54  C   UNL A   1      42.526  28.857  33.276  1.00  0.00     0.034 A 
ATOM     55  C   UNL A   1      42.858  25.962  26.957  1.00  0.00     0.034 A 
ATOM     56  C   UNL A   1      43.551  29.668  32.673  1.00  0.00     0.049 A 
ATOM     57  C   UNL A   1      43.943  26.326  27.892  1.00  0.00     0.074 A 
ATOM     58  C   UNL A   1      43.687  31.012  32.389  1.00  0.00     0.029 A 
ATOM     59  N   UNL A   1      44.457  29.017  31.869  1.00  0.00    -0.354 N 
ATOM     60  N   UNL A   1      44.626  27.431  27.798  1.00  0.00    -0.248 NA
ATOM     61  C   UNL A   1      43.966  25.670  29.187  1.00  0.00     0.031 C 
ATOM     62  C   UNL A   1      44.334  31.061  31.118  1.00  0.00     0.029 A 
ATOM     63  C   UNL A   1      44.604  29.750  30.721  1.00  0.00     0.049 A 
ATOM     64  H   UNL A   1      44.919  28.173  32.082  1.00  0.00     0.167 HD
ATOM     65  C   UNL A   1      44.770  27.851  29.112  1.00  0.00     0.074 A 
ATOM     66  C   UNL A   1      44.430  26.682  29.924  1.00  0.00     0.031 C 
ATOM     67  C   UNL A   1      44.873  29.175  29.420  1.00  0.00     0.034 A 
BRANCH  54  68
ATOM     68  C   UNL A   1      42.822  27.848  34.341  1.00  0.00     0.023 A 
ATOM     69  C   UNL A   1      42.874  28.298  35.674  1.00  0.00     0.012 A 
ATOM     70  C   UNL A   1      43.265  26.532  34.076  1.00  0.00     0.148 A 
ATOM     71  C   UNL A   1      43.344  27.474  36.698  1.00  0.00     0.002 A 
ATOM     72  C   UNL A   1      43.660  25.691  35.107  1.00  0.00     0.091 A 
ATOM     73  F   UNL A   1      43.430  26.128  32.810  1.00  0.00    -0.205 F 
ATOM     74  C   UNL A   1      43.720  26.164  36.420  1.00  0.00     0.022 A 
BRANCH  72  75
ATOM     75  S   UNL A   1      44.126  23.984  34.802  1.00  0.00     0.127 S 
ATOM     76  O   UNL A   1      42.888  23.435  34.258  1.00  0.00    -0.237 OA
ATOM     77  O   UNL A   1      45.215  24.139  33.838  1.00  0.00    -0.237 OA
ATOM     78  O   UNL A   1      44.547  23.460  36.096  1.00  0.00    -0.744 OA
ENDBRANCH  72  75
ENDBRANCH  54  68
BRANCH  55  79
ATOM     79  C   UNL A   1      42.836  24.640  26.277  1.00  0.00     0.023 A 
ATOM     80  C   UNL A   1      44.028  24.155  25.689  1.00  0.00     0.012 A 
ATOM     81  C   UNL A   1      41.790  23.719  26.498  1.00  0.00     0.148 A 
ATOM     82  C   UNL A   1      44.205  22.793  25.411  1.00  0.00     0.002 A 
ATOM     83  C   UNL A   1      41.972  22.363  26.219  1.00  0.00     0.091 A 
ATOM     84  F   UNL A   1      40.660  24.153  27.072  1.00  0.00    -0.205 F 
ATOM     85  C   UNL A   1      43.184  21.895  25.695  1.00  0.00     0.022 A 
BRANCH  83  86
ATOM     86  S   UNL A   1      40.708  21.134  26.582  1.00  0.00     0.127 S 
ATOM     87  O   UNL A   1      40.654  21.176  28.043  1.00  0.00    -0.237 OA
ATOM     88  O   UNL A   1      39.539  21.697  25.911  1.00  0.00    -0.237 OA
ATOM     89  O   UNL A   1      41.211  19.881  26.033  1.00  0.00    -0.744 OA
ENDBRANCH  83  86
ENDBRANCH  55  79
BRANCH  67  90
ATOM     90  C   UNL A   1      45.057  30.151  28.283  1.00  0.00     0.023 A 
ATOM     91  C   UNL A   1      43.968  30.693  27.566  1.00  0.00     0.012 A 
ATOM     92  C   UNL A   1      46.341  30.673  28.064  1.00  0.00     0.148 A 
ATOM     93  C   UNL A   1      44.159  31.739  26.656  1.00  0.00     0.002 A 
ATOM     94  C   UNL A   1      46.523  31.734  27.186  1.00  0.00     0.091 A 
ATOM     95  F   UNL A   1      47.359  30.145  28.759  1.00  0.00    -0.205 F 
ATOM     96  C   UNL A   1      45.434  32.269  26.478  1.00  0.00     0.022 A 
BRANCH  94  97
ATOM     97  S   UNL A   1      48.116  32.533  26.987  1.00  0.00     0.127 S 
ATOM     98  O   UNL A   1      47.829  33.542  25.970  1.00  0.00    -0.237 OA
ATOM     99  O   UNL A   1      48.366  33.066  28.326  1.00  0.00    -0.237 OA
ATOM    100  O   UNL A   1      49.047  31.487  26.576  1.00  0.00    -0.744 OA
ENDBRANCH  94  97
ENDBRANCH  67  90
ENDBRANCH  41  42
ENDBRANCH  34  36
ENDBRANCH  33  34
ENDBRANCH   1  33
TORSDOF 17
ENDMDL
MODEL 3
REMARK VINA RESULT:     -12.3      3.157      8.634
REMARK SMILES Cc1n[nH]c2c1[C@@]1(C(=O)N([C@@H](C)C(=O)OCCOC(=O)c3ccc(-c4c5nc(c(-c6cccc(S(=O)(=O)[O-])c6F)c6ccc([nH]6)c(-c6cccc(S(=O)(=O)[O-])c6F)c6nc(c(-c7cccc(S(=O)(=O)[O-])c7F)c7ccc4[nH]7)C=C6)C=C5)cc3)c3ccccc31)C(C#N)=C(N)O2
REMARK SMILES IDX 17 1 16 2 15 3 13 4 14 5 11 6 12 7 10 8 1 9 2 10 3 11 6 12
REMARK SMILES IDX 4 13 5 14 7 15 95 17 8 18 89 19 90 20 93 21 9 22 84 23 88 24
REMARK SMILES IDX 85 25 87 26 86 27 91 28 92 29 94 30 18 33 19 34 20 35 21 36
REMARK SMILES IDX 22 37 83 38 23 39 82 40 24 41 25 42 26 43 76 44 27 45 81 46
REMARK SMILES IDX 75 47 77 48 28 49 80 50 74 51 73 52 29 54 61 55 41 56 60 57
REMARK SMILES IDX 42 58 45 59 59 60 78 61 43 62 44 63 58 65 79 66 46 67 30 68
REMARK SMILES IDX 31 69 39 70 32 71 34 72 40 73 33 74 35 75 36 76 37 77 38 78
REMARK SMILES IDX 62 79 63 80 71 81 64 82 66 83 72 84 65 85 67 86 68 87 69 88
REMARK SMILES IDX 70 89 47 90 48 91 56 92 49 93 51 94 57 95 50 96 52 97 53 98
REMARK SMILES IDX 54 99 55 100
REMARK H PARENT 4 16 94 31 94 32 77 53 45 64
REMARK Flexibility Score: inf
ROOT
ATOM      1  C   UNL A   1      38.285  21.413  25.685  1.00  0.00     0.275 C 
ENDROOT
BRANCH   1   2
ATOM      2  C   UNL A   1      37.034  22.295  25.705  1.00  0.00     0.274 C 
BRANCH   2   3
ATOM      3  O   UNL A   1      35.933  21.635  25.035  1.00  0.00    -0.461 OA
BRANCH   3   4
ATOM      4  C   UNL A   1      34.713  21.764  25.632  1.00  0.00     0.329 C 
ATOM      5  O   UNL A   1      33.821  20.937  25.481  1.00  0.00    -0.250 OA
BRANCH   4   6
ATOM      6  C   UNL A   1      34.551  23.048  26.507  1.00  0.00     0.197 C 
ATOM      7  C   UNL A   1      34.022  22.679  27.895  1.00  0.00     0.044 C 
BRANCH   6   8
ATOM      8  N   UNL A   1      33.727  24.075  25.905  1.00  0.00    -0.297 N 
ATOM      9  C   UNL A   1      32.865  22.887  22.678  1.00  0.00     0.069 C 
ATOM     10  C   UNL A   1      32.892  24.313  22.251  1.00  0.00     0.068 A 
ATOM     11  N   UNL A   1      32.838  24.607  20.940  1.00  0.00    -0.177 NA
ATOM     12  C   UNL A   1      33.019  25.498  23.029  1.00  0.00     0.063 A 
ATOM     13  N   UNL A   1      32.965  25.943  20.886  1.00  0.00    -0.246 N 
ATOM     14  C   UNL A   1      33.073  26.510  22.112  1.00  0.00     0.222 A 
ATOM     15  C   UNL A   1      33.195  25.827  24.472  1.00  0.00     0.149 C 
ATOM     16  H   UNL A   1      32.976  26.456  20.046  1.00  0.00     0.193 HD
ATOM     17  O   UNL A   1      33.258  27.802  22.345  1.00  0.00    -0.422 OA
ATOM     18  C   UNL A   1      34.323  25.000  25.041  1.00  0.00     0.248 C 
ATOM     19  C   UNL A   1      31.970  25.343  25.169  1.00  0.00     0.002 A 
ATOM     20  C   UNL A   1      33.476  27.270  24.717  1.00  0.00     0.114 C 
ATOM     21  C   UNL A   1      33.495  28.171  23.684  1.00  0.00     0.208 C 
ATOM     22  O   UNL A   1      35.512  25.121  24.775  1.00  0.00    -0.273 OA
ATOM     23  C   UNL A   1      32.322  24.251  25.962  1.00  0.00     0.050 A 
ATOM     24  C   UNL A   1      30.670  25.839  25.088  1.00  0.00     0.008 A 
ATOM     25  C   UNL A   1      31.317  23.558  26.599  1.00  0.00     0.027 A 
ATOM     26  C   UNL A   1      29.683  25.204  25.826  1.00  0.00     0.001 A 
ATOM     27  C   UNL A   1      30.004  24.060  26.565  1.00  0.00     0.002 A 
BRANCH  20  28
ATOM     28  C   UNL A   1      33.826  27.823  26.089  1.00  0.00     0.102 C 
ATOM     29  N   UNL A   1      34.116  28.281  27.228  1.00  0.00    -0.193 NA
ENDBRANCH  20  28
BRANCH  21  30
ATOM     30  N   UNL A   1      33.749  29.508  23.799  1.00  0.00    -0.369 N 
ATOM     31  H   UNL A   1      34.637  29.817  24.091  1.00  0.00     0.159 HD
ATOM     32  H   UNL A   1      33.045  30.163  23.592  1.00  0.00     0.159 HD
ENDBRANCH  21  30
ENDBRANCH   6   8
ENDBRANCH   4   6
ENDBRANCH   3   4
ENDBRANCH   2   3
ENDBRANCH   1   2
BRANCH   1  33
ATOM     33  O   UNL A   1      39.449  22.245  25.805  1.00  0.00    -0.458 OA
BRANCH  33  34
ATOM     34  C   UNL A   1      39.996  22.311  27.042  1.00  0.00     0.338 C 
ATOM     35  O   UNL A   1      40.417  21.388  27.721  1.00  0.00    -0.246 OA
BRANCH  34  36
ATOM     36  C   UNL A   1      40.337  23.728  27.265  1.00  0.00     0.060 A 
ATOM     37  C   UNL A   1      41.523  24.111  27.900  1.00  0.00     0.016 A 
ATOM     38  C   UNL A   1      39.310  24.644  27.075  1.00  0.00     0.016 A 
ATOM     39  C   UNL A   1      41.592  25.349  28.536  1.00  0.00     0.010 A 
ATOM     40  C   UNL A   1      39.401  25.873  27.705  1.00  0.00     0.010 A 
ATOM     41  C   UNL A   1      40.477  26.183  28.533  1.00  0.00    -0.014 A 
BRANCH  41  42
ATOM     42  C   UNL A   1      40.489  27.501  29.165  1.00  0.00     0.031 A 
ATOM     43  C   UNL A   1      41.463  28.398  28.510  1.00  0.00     0.074 A 
ATOM     44  C   UNL A   1      39.692  27.982  30.144  1.00  0.00     0.049 A 
ATOM     45  N   UNL A   1      42.651  28.635  28.954  1.00  0.00    -0.248 NA
ATOM     46  C   UNL A   1      41.200  28.911  27.160  1.00  0.00     0.031 C 
ATOM     47  C   UNL A   1      38.558  27.369  30.817  1.00  0.00     0.029 A 
ATOM     48  N   UNL A   1      39.711  29.220  30.718  1.00  0.00    -0.354 N 
ATOM     49  C   UNL A   1      43.215  29.503  28.038  1.00  0.00     0.074 A 
ATOM     50  C   UNL A   1      42.378  29.465  26.866  1.00  0.00     0.031 C 
ATOM     51  C   UNL A   1      37.847  28.295  31.506  1.00  0.00     0.029 A 
ATOM     52  C   UNL A   1      38.595  29.532  31.496  1.00  0.00     0.049 A 
ATOM     53  H   UNL A   1      40.459  29.848  30.593  1.00  0.00     0.167 HD
ATOM     54  C   UNL A   1      44.197  30.365  28.402  1.00  0.00     0.034 A 
ATOM     55  C   UNL A   1      38.349  30.691  32.158  1.00  0.00     0.034 A 
ATOM     56  C   UNL A   1      44.714  30.069  29.713  1.00  0.00     0.049 A 
ATOM     57  C   UNL A   1      39.675  31.290  32.414  1.00  0.00     0.074 A 
ATOM     58  C   UNL A   1      45.369  28.994  30.281  1.00  0.00     0.029 A 
ATOM     59  N   UNL A   1      44.184  30.786  30.760  1.00  0.00    -0.354 N 
ATOM     60  N   UNL A   1      40.560  30.753  33.205  1.00  0.00    -0.248 NA
ATOM     61  C   UNL A   1      40.181  32.247  31.448  1.00  0.00     0.031 C 
ATOM     62  C   UNL A   1      44.818  28.871  31.591  1.00  0.00     0.029 A 
ATOM     63  C   UNL A   1      43.898  29.906  31.771  1.00  0.00     0.049 A 
ATOM     64  H   UNL A   1      44.037  31.759  30.779  1.00  0.00     0.167 HD
ATOM     65  C   UNL A   1      41.763  30.941  32.541  1.00  0.00     0.074 A 
ATOM     66  C   UNL A   1      41.480  31.947  31.517  1.00  0.00     0.031 C 
ATOM     67  C   UNL A   1      42.795  30.063  32.694  1.00  0.00     0.034 A 
BRANCH  54  68
ATOM     68  C   UNL A   1      44.460  31.666  27.710  1.00  0.00     0.023 A 
ATOM     69  C   UNL A   1      45.532  31.719  26.800  1.00  0.00     0.012 A 
ATOM     70  C   UNL A   1      43.847  32.887  28.073  1.00  0.00     0.148 A 
ATOM     71  C   UNL A   1      45.973  32.933  26.271  1.00  0.00     0.002 A 
ATOM     72  C   UNL A   1      44.239  34.083  27.488  1.00  0.00     0.091 A 
ATOM     73  F   UNL A   1      42.968  32.916  29.082  1.00  0.00    -0.205 F 
ATOM     74  C   UNL A   1      45.316  34.115  26.600  1.00  0.00     0.022 A 
BRANCH  72  75
ATOM     75  S   UNL A   1      43.403  35.629  27.857  1.00  0.00     0.127 S 
ATOM     76  O   UNL A   1      44.071  36.549  26.942  1.00  0.00    -0.237 OA
ATOM     77  O   UNL A   1      42.017  35.308  27.516  1.00  0.00    -0.237 OA
ATOM     78  O   UNL A   1      43.627  35.861  29.279  1.00  0.00    -0.744 OA
ENDBRANCH  72  75
ENDBRANCH  54  68
BRANCH  55  79
ATOM     79  C   UNL A   1      37.101  31.487  32.307  1.00  0.00     0.023 A 
ATOM     80  C   UNL A   1      36.829  32.103  33.551  1.00  0.00     0.012 A 
ATOM     81  C   UNL A   1      36.374  31.928  31.182  1.00  0.00     0.148 A 
ATOM     82  C   UNL A   1      35.934  33.176  33.655  1.00  0.00     0.002 A 
ATOM     83  C   UNL A   1      35.483  32.998  31.291  1.00  0.00     0.091 A 
ATOM     84  F   UNL A   1      36.630  31.372  29.990  1.00  0.00    -0.205 F 
ATOM     85  C   UNL A   1      35.276  33.636  32.522  1.00  0.00     0.022 A 
BRANCH  83  86
ATOM     86  S   UNL A   1      34.613  33.668  29.866  1.00  0.00     0.127 S 
ATOM     87  O   UNL A   1      34.085  32.458  29.234  1.00  0.00    -0.237 OA
ATOM     88  O   UNL A   1      33.606  34.515  30.499  1.00  0.00    -0.237 OA
ATOM     89  O   UNL A   1      35.624  34.364  29.080  1.00  0.00    -0.744 OA
ENDBRANCH  83  86
ENDBRANCH  55  79
BRANCH  67  90
ATOM     90  C   UNL A   1      42.675  29.015  33.775  1.00  0.00     0.023 A 
ATOM     91  C   UNL A   1      42.013  27.785  33.569  1.00  0.00     0.012 A 
ATOM     92  C   UNL A   1      43.409  29.202  34.957  1.00  0.00     0.148 A 
ATOM     93  C   UNL A   1      42.091  26.762  34.521  1.00  0.00     0.002 A 
ATOM     94  C   UNL A   1      43.513  28.173  35.884  1.00  0.00     0.091 A 
ATOM     95  F   UNL A   1      44.031  30.377  35.129  1.00  0.00    -0.205 F 
ATOM     96  C   UNL A   1      42.853  26.951  35.671  1.00  0.00     0.022 A 
BRANCH  94  97
ATOM     97  S   UNL A   1      44.561  28.309  37.333  1.00  0.00     0.127 S 
ATOM     98  O   UNL A   1      45.900  28.273  36.748  1.00  0.00    -0.237 OA
ATOM     99  O   UNL A   1      44.166  29.606  37.880  1.00  0.00    -0.237 OA
ATOM    100  O   UNL A   1      44.227  27.172  38.184  1.00  0.00    -0.744 OA
ENDBRANCH  94  97
ENDBRANCH  67  90
ENDBRANCH  41  42
ENDBRANCH  34  36
ENDBRANCH  33  34
ENDBRANCH   1  33
TORSDOF 17
ENDMDL
