MODEL 1
REMARK VINA RESULT:     -12.9      0.000      0.000
REMARK SMILES C[C@H]1CC[C@@](C[C@@H]2CCCc3ccccc32)(C(=O)OCCOC(=O)c2ccc(-c3c4nc(c(-c5cccc(S(=O)(=O)[O-])c5F)c5ccc([nH]5)c(-c5cccc(S(=O)(=O)[O-])c5F)c5nc(c(-c6cccc(S(=O)(=O)[O-])c6F)c6ccc3[nH]6)C=C5)C=C4)cc2)C1
REMARK SMILES IDX 21 1 20 2 19 3 17 4 18 5 5 6 1 7 2 8 3 9 88 10 4 11 6 12
REMARK SMILES IDX 7 13 8 14 16 15 9 16 11 17 15 18 10 19 12 20 14 21 13 22
REMARK SMILES IDX 22 23 23 24 24 25 25 26 26 27 87 28 27 29 86 30 28 31 29 32
REMARK SMILES IDX 30 33 80 34 31 35 85 36 79 37 81 38 32 39 84 40 78 41 77 42
REMARK SMILES IDX 33 44 65 45 45 46 64 47 46 48 49 49 63 50 82 51 47 52 48 53
REMARK SMILES IDX 62 55 83 56 50 57 34 58 35 59 43 60 36 61 38 62 44 63 37 64
REMARK SMILES IDX 39 65 40 66 41 67 42 68 66 69 67 70 75 71 68 72 70 73 76 74
REMARK SMILES IDX 69 75 71 76 72 77 73 78 74 79 51 80 52 81 60 82 53 83 55 84
REMARK SMILES IDX 61 85 54 86 56 87 57 88 58 89 59 90
REMARK H PARENT 81 43 49 54
REMARK Flexibility Score: inf
ROOT
ATOM      1  C   UNL A   1      35.925  21.243  25.006  1.00  0.00     0.275 C 
ENDROOT
BRANCH   1   2
ATOM      2  C   UNL A   1      35.637  22.365  24.009  1.00  0.00     0.274 C 
BRANCH   2   3
ATOM      3  O   UNL A   1      34.209  22.511  23.875  1.00  0.00    -0.462 OA
BRANCH   3   4
ATOM      4  C   UNL A   1      33.746  23.727  23.493  1.00  0.00     0.312 C 
ATOM      5  O   UNL A   1      33.997  24.239  22.408  1.00  0.00    -0.252 OA
BRANCH   4   6
ATOM      6  C   UNL A   1      32.941  24.436  24.597  1.00  0.00     0.069 C 
ATOM      7  C   UNL A   1      30.167  22.691  26.613  1.00  0.00     0.007 C 
ATOM      8  C   UNL A   1      31.212  23.716  26.204  1.00  0.00    -0.013 C 
ATOM      9  C   UNL A   1      32.559  23.460  26.848  1.00  0.00     0.004 C 
ATOM     10  C   UNL A   1      31.556  23.710  24.712  1.00  0.00     0.022 C 
ATOM     11  C   UNL A   1      33.510  24.329  26.035  1.00  0.00     0.019 C 
BRANCH   6  12
ATOM     12  C   UNL A   1      32.698  25.895  24.099  1.00  0.00     0.027 C 
BRANCH  12  13
ATOM     13  C   UNL A   1      31.358  26.656  24.342  1.00  0.00     0.020 C 
ATOM     14  C   UNL A   1      30.490  26.929  23.102  1.00  0.00     0.009 C 
ATOM     15  C   UNL A   1      31.517  27.866  25.247  1.00  0.00    -0.042 A 
ATOM     16  C   UNL A   1      30.692  28.309  22.488  1.00  0.00     0.005 C 
ATOM     17  C   UNL A   1      31.196  29.165  24.819  1.00  0.00    -0.045 A 
ATOM     18  C   UNL A   1      32.039  27.685  26.543  1.00  0.00     0.004 A 
ATOM     19  C   UNL A   1      30.511  29.425  23.504  1.00  0.00     0.036 C 
ATOM     20  C   UNL A   1      31.470  30.255  25.662  1.00  0.00     0.004 A 
ATOM     21  C   UNL A   1      32.302  28.772  27.370  1.00  0.00     0.000 A 
ATOM     22  C   UNL A   1      32.035  30.059  26.922  1.00  0.00     0.000 A 
ENDBRANCH  12  13
ENDBRANCH   6  12
ENDBRANCH   4   6
ENDBRANCH   3   4
ENDBRANCH   2   3
ENDBRANCH   1   2
BRANCH   1  23
ATOM     23  O   UNL A   1      36.822  21.761  26.000  1.00  0.00    -0.458 OA
BRANCH  23  24
ATOM     24  C   UNL A   1      38.129  21.468  25.809  1.00  0.00     0.338 C 
ATOM     25  O   UNL A   1      38.611  20.585  25.125  1.00  0.00    -0.246 OA
BRANCH  24  26
ATOM     26  C   UNL A   1      38.899  22.572  26.395  1.00  0.00     0.060 A 
ATOM     27  C   UNL A   1      38.458  23.869  26.130  1.00  0.00     0.016 A 
ATOM     28  C   UNL A   1      40.046  22.350  27.146  1.00  0.00     0.016 A 
ATOM     29  C   UNL A   1      39.194  24.963  26.561  1.00  0.00     0.010 A 
ATOM     30  C   UNL A   1      40.751  23.455  27.635  1.00  0.00     0.010 A 
ATOM     31  C   UNL A   1      40.348  24.770  27.324  1.00  0.00    -0.014 A 
BRANCH  31  32
ATOM     32  C   UNL A   1      41.172  25.934  27.741  1.00  0.00     0.031 A 
ATOM     33  C   UNL A   1      40.553  26.993  28.610  1.00  0.00     0.074 A 
ATOM     34  C   UNL A   1      42.453  26.053  27.342  1.00  0.00     0.049 A 
ATOM     35  N   UNL A   1      40.986  28.194  28.883  1.00  0.00    -0.248 NA
ATOM     36  C   UNL A   1      39.263  26.661  29.236  1.00  0.00     0.031 C 
ATOM     37  C   UNL A   1      43.186  25.075  26.537  1.00  0.00     0.029 A 
ATOM     38  N   UNL A   1      43.362  27.062  27.544  1.00  0.00    -0.354 N 
ATOM     39  C   UNL A   1      39.980  28.796  29.629  1.00  0.00     0.074 A 
ATOM     40  C   UNL A   1      38.925  27.819  29.787  1.00  0.00     0.031 C 
ATOM     41  C   UNL A   1      44.430  25.527  26.318  1.00  0.00     0.029 A 
ATOM     42  C   UNL A   1      44.558  26.860  26.894  1.00  0.00     0.049 A 
ATOM     43  H   UNL A   1      43.176  27.853  28.102  1.00  0.00     0.167 HD
ATOM     44  C   UNL A   1      39.942  30.052  30.134  1.00  0.00     0.034 A 
ATOM     45  C   UNL A   1      45.617  27.677  26.734  1.00  0.00     0.034 A 
ATOM     46  C   UNL A   1      41.034  30.982  30.044  1.00  0.00     0.049 A 
ATOM     47  C   UNL A   1      45.568  29.054  27.338  1.00  0.00     0.074 A 
ATOM     48  C   UNL A   1      41.111  32.272  30.539  1.00  0.00     0.029 A 
ATOM     49  N   UNL A   1      42.252  30.712  29.438  1.00  0.00    -0.354 N 
ATOM     50  N   UNL A   1      44.611  29.613  28.039  1.00  0.00    -0.248 NA
ATOM     51  C   UNL A   1      46.746  29.911  27.138  1.00  0.00     0.031 C 
ATOM     52  C   UNL A   1      42.378  32.781  30.231  1.00  0.00     0.029 A 
ATOM     53  C   UNL A   1      43.094  31.803  29.557  1.00  0.00     0.049 A 
ATOM     54  H   UNL A   1      42.484  29.867  28.989  1.00  0.00     0.167 HD
ATOM     55  C   UNL A   1      45.073  30.878  28.376  1.00  0.00     0.074 A 
ATOM     56  C   UNL A   1      46.411  30.992  27.829  1.00  0.00     0.031 C 
ATOM     57  C   UNL A   1      44.441  31.869  29.051  1.00  0.00     0.034 A 
BRANCH  44  58
ATOM     58  C   UNL A   1      38.684  30.482  30.841  1.00  0.00     0.023 A 
ATOM     59  C   UNL A   1      38.539  30.253  32.224  1.00  0.00     0.012 A 
ATOM     60  C   UNL A   1      37.657  31.145  30.138  1.00  0.00     0.148 A 
ATOM     61  C   UNL A   1      37.378  30.645  32.889  1.00  0.00     0.002 A 
ATOM     62  C   UNL A   1      36.521  31.571  30.819  1.00  0.00     0.091 A 
ATOM     63  F   UNL A   1      37.800  31.331  28.818  1.00  0.00    -0.205 F 
ATOM     64  C   UNL A   1      36.375  31.312  32.190  1.00  0.00     0.022 A 
BRANCH  62  65
ATOM     65  S   UNL A   1      35.210  32.502  30.017  1.00  0.00     0.127 S 
ATOM     66  O   UNL A   1      34.281  32.719  31.124  1.00  0.00    -0.237 OA
ATOM     67  O   UNL A   1      35.914  33.705  29.569  1.00  0.00    -0.237 OA
ATOM     68  O   UNL A   1      34.719  31.654  28.940  1.00  0.00    -0.744 OA
ENDBRANCH  62  65
ENDBRANCH  44  58
BRANCH  45  69
ATOM     69  C   UNL A   1      46.809  27.205  25.972  1.00  0.00     0.023 A 
ATOM     70  C   UNL A   1      47.659  26.239  26.544  1.00  0.00     0.012 A 
ATOM     71  C   UNL A   1      47.073  27.660  24.666  1.00  0.00     0.148 A 
ATOM     72  C   UNL A   1      48.757  25.748  25.835  1.00  0.00     0.002 A 
ATOM     73  C   UNL A   1      48.129  27.120  23.941  1.00  0.00     0.091 A 
ATOM     74  F   UNL A   1      46.273  28.602  24.145  1.00  0.00    -0.205 F 
ATOM     75  C   UNL A   1      48.982  26.175  24.529  1.00  0.00     0.022 A 
BRANCH  73  76
ATOM     76  S   UNL A   1      48.387  27.503  22.204  1.00  0.00     0.127 S 
ATOM     77  O   UNL A   1      49.557  28.374  22.258  1.00  0.00    -0.237 OA
ATOM     78  O   UNL A   1      48.632  26.178  21.631  1.00  0.00    -0.237 OA
ATOM     79  O   UNL A   1      47.147  28.123  21.757  1.00  0.00    -0.744 OA
ENDBRANCH  73  76
ENDBRANCH  45  69
BRANCH  57  80
ATOM     80  C   UNL A   1      45.196  33.154  29.260  1.00  0.00     0.023 A 
ATOM     81  C   UNL A   1      46.026  33.295  30.389  1.00  0.00     0.012 A 
ATOM     82  C   UNL A   1      45.141  34.186  28.304  1.00  0.00     0.148 A 
ATOM     83  C   UNL A   1      46.770  34.460  30.578  1.00  0.00     0.002 A 
ATOM     84  C   UNL A   1      45.918  35.326  28.477  1.00  0.00     0.091 A 
ATOM     85  F   UNL A   1      44.327  34.039  27.248  1.00  0.00    -0.205 F 
ATOM     86  C   UNL A   1      46.725  35.468  29.617  1.00  0.00     0.022 A 
BRANCH  84  87
ATOM     87  S   UNL A   1      45.985  36.632  27.247  1.00  0.00     0.127 S 
ATOM     88  O   UNL A   1      44.610  37.127  27.261  1.00  0.00    -0.237 OA
ATOM     89  O   UNL A   1      46.970  37.550  27.817  1.00  0.00    -0.237 OA
ATOM     90  O   UNL A   1      46.410  35.989  26.009  1.00  0.00    -0.744 OA
ENDBRANCH  84  87
ENDBRANCH  57  80
ENDBRANCH  31  32
ENDBRANCH  24  26
ENDBRANCH  23  24
ENDBRANCH   1  23
TORSDOF 16
ENDMDL
MODEL 2
REMARK VINA RESULT:     -12.8      5.210     10.102
REMARK SMILES C[C@H]1CC[C@@](C[C@@H]2CCCc3ccccc32)(C(=O)OCCOC(=O)c2ccc(-c3c4nc(c(-c5cccc(S(=O)(=O)[O-])c5F)c5ccc([nH]5)c(-c5cccc(S(=O)(=O)[O-])c5F)c5nc(c(-c6cccc(S(=O)(=O)[O-])c6F)c6ccc3[nH]6)C=C5)C=C4)cc2)C1
REMARK SMILES IDX 21 1 20 2 19 3 17 4 18 5 5 6 1 7 2 8 3 9 88 10 4 11 6 12
REMARK SMILES IDX 7 13 8 14 16 15 9 16 11 17 15 18 10 19 12 20 14 21 13 22
REMARK SMILES IDX 22 23 23 24 24 25 25 26 26 27 87 28 27 29 86 30 28 31 29 32
REMARK SMILES IDX 30 33 80 34 31 35 85 36 79 37 81 38 32 39 84 40 78 41 77 42
REMARK SMILES IDX 33 44 65 45 45 46 64 47 46 48 49 49 63 50 82 51 47 52 48 53
REMARK SMILES IDX 62 55 83 56 50 57 34 58 35 59 43 60 36 61 38 62 44 63 37 64
REMARK SMILES IDX 39 65 40 66 41 67 42 68 66 69 67 70 75 71 68 72 70 73 76 74
REMARK SMILES IDX 69 75 71 76 72 77 73 78 74 79 51 80 52 81 60 82 53 83 55 84
REMARK SMILES IDX 61 85 54 86 56 87 57 88 58 89 59 90
REMARK H PARENT 81 43 49 54
REMARK Flexibility Score: inf
ROOT
ATOM      1  C   UNL A   1      31.718  29.585  26.067  1.00  0.00     0.275 C 
ENDROOT
BRANCH   1   2
ATOM      2  C   UNL A   1      31.718  28.175  26.658  1.00  0.00     0.274 C 
BRANCH   2   3
ATOM      3  O   UNL A   1      31.430  27.232  25.606  1.00  0.00    -0.462 OA
BRANCH   3   4
ATOM      4  C   UNL A   1      31.693  25.927  25.858  1.00  0.00     0.312 C 
ATOM      5  O   UNL A   1      31.287  25.332  26.850  1.00  0.00    -0.252 OA
BRANCH   4   6
ATOM      6  C   UNL A   1      32.624  25.288  24.812  1.00  0.00     0.069 C 
ATOM      7  C   UNL A   1      32.191  25.817  21.025  1.00  0.00     0.007 C 
ATOM      8  C   UNL A   1      32.820  25.439  22.356  1.00  0.00    -0.013 C 
ATOM      9  C   UNL A   1      33.653  26.561  22.944  1.00  0.00     0.004 C 
ATOM     10  C   UNL A   1      31.815  25.157  23.476  1.00  0.00     0.022 C 
ATOM     11  C   UNL A   1      33.857  26.129  24.390  1.00  0.00     0.019 C 
BRANCH   6  12
ATOM     12  C   UNL A   1      32.959  23.856  25.333  1.00  0.00     0.027 C 
BRANCH  12  13
ATOM     13  C   UNL A   1      33.240  22.655  24.377  1.00  0.00     0.020 C 
ATOM     14  C   UNL A   1      32.193  21.529  24.367  1.00  0.00     0.009 C 
ATOM     15  C   UNL A   1      34.670  22.151  24.460  1.00  0.00    -0.042 A 
ATOM     16  C   UNL A   1      32.527  20.355  25.280  1.00  0.00     0.005 C 
ATOM     17  C   UNL A   1      34.975  20.831  24.831  1.00  0.00    -0.045 A 
ATOM     18  C   UNL A   1      35.725  23.045  24.192  1.00  0.00     0.004 A 
ATOM     19  C   UNL A   1      33.908  19.783  25.002  1.00  0.00     0.036 C 
ATOM     20  C   UNL A   1      36.318  20.456  24.998  1.00  0.00     0.004 A 
ATOM     21  C   UNL A   1      37.052  22.660  24.357  1.00  0.00     0.000 A 
ATOM     22  C   UNL A   1      37.348  21.370  24.778  1.00  0.00     0.000 A 
ENDBRANCH  12  13
ENDBRANCH   6  12
ENDBRANCH   4   6
ENDBRANCH   3   4
ENDBRANCH   2   3
ENDBRANCH   1   2
BRANCH   1  23
ATOM     23  O   UNL A   1      33.070  30.068  26.089  1.00  0.00    -0.458 OA
BRANCH  23  24
ATOM     24  C   UNL A   1      33.288  31.144  26.879  1.00  0.00     0.338 C 
ATOM     25  O   UNL A   1      32.504  32.022  27.189  1.00  0.00    -0.246 OA
BRANCH  24  26
ATOM     26  C   UNL A   1      34.596  30.946  27.511  1.00  0.00     0.060 A 
ATOM     27  C   UNL A   1      34.954  29.638  27.843  1.00  0.00     0.016 A 
ATOM     28  C   UNL A   1      35.436  32.010  27.813  1.00  0.00     0.016 A 
ATOM     29  C   UNL A   1      36.128  29.385  28.537  1.00  0.00     0.010 A 
ATOM     30  C   UNL A   1      36.651  31.746  28.455  1.00  0.00     0.010 A 
ATOM     31  C   UNL A   1      36.994  30.436  28.848  1.00  0.00    -0.014 A 
BRANCH  31  32
ATOM     32  C   UNL A   1      38.226  30.181  29.639  1.00  0.00     0.031 A 
ATOM     33  C   UNL A   1      39.301  29.305  29.058  1.00  0.00     0.074 A 
ATOM     34  C   UNL A   1      38.381  30.713  30.868  1.00  0.00     0.049 A 
ATOM     35  N   UNL A   1      40.322  28.748  29.650  1.00  0.00    -0.248 NA
ATOM     36  C   UNL A   1      39.195  28.999  27.621  1.00  0.00     0.031 C 
ATOM     37  C   UNL A   1      37.436  31.615  31.527  1.00  0.00     0.029 A 
ATOM     38  N   UNL A   1      39.386  30.555  31.789  1.00  0.00    -0.354 N 
ATOM     39  C   UNL A   1      40.925  27.949  28.685  1.00  0.00     0.074 A 
ATOM     40  C   UNL A   1      40.168  28.113  27.463  1.00  0.00     0.031 C 
ATOM     41  C   UNL A   1      37.906  31.934  32.742  1.00  0.00     0.029 A 
ATOM     42  C   UNL A   1      39.141  31.197  32.982  1.00  0.00     0.049 A 
ATOM     43  H   UNL A   1      40.203  30.034  31.613  1.00  0.00     0.167 HD
ATOM     44  C   UNL A   1      42.011  27.150  28.812  1.00  0.00     0.034 A 
ATOM     45  C   UNL A   1      39.806  31.155  34.153  1.00  0.00     0.034 A 
ATOM     46  C   UNL A   1      42.804  27.065  30.008  1.00  0.00     0.049 A 
ATOM     47  C   UNL A   1      41.033  30.291  34.258  1.00  0.00     0.074 A 
ATOM     48  C   UNL A   1      43.936  26.304  30.240  1.00  0.00     0.029 A 
ATOM     49  N   UNL A   1      42.561  27.785  31.169  1.00  0.00    -0.354 N 
ATOM     50  N   UNL A   1      41.592  29.537  33.341  1.00  0.00    -0.248 NA
ATOM     51  C   UNL A   1      41.726  30.275  35.554  1.00  0.00     0.031 C 
ATOM     52  C   UNL A   1      44.378  26.566  31.541  1.00  0.00     0.029 A 
ATOM     53  C   UNL A   1      43.528  27.500  32.115  1.00  0.00     0.049 A 
ATOM     54  H   UNL A   1      41.810  28.408  31.300  1.00  0.00     0.167 HD
ATOM     55  C   UNL A   1      42.708  28.970  33.941  1.00  0.00     0.074 A 
ATOM     56  C   UNL A   1      42.765  29.491  35.293  1.00  0.00     0.031 C 
ATOM     57  C   UNL A   1      43.592  28.076  33.434  1.00  0.00     0.034 A 
BRANCH  44  58
ATOM     58  C   UNL A   1      42.409  26.319  27.622  1.00  0.00     0.023 A 
ATOM     59  C   UNL A   1      43.233  26.872  26.621  1.00  0.00     0.012 A 
ATOM     60  C   UNL A   1      41.992  24.977  27.511  1.00  0.00     0.148 A 
ATOM     61  C   UNL A   1      43.607  26.113  25.513  1.00  0.00     0.002 A 
ATOM     62  C   UNL A   1      42.405  24.215  26.424  1.00  0.00     0.091 A 
ATOM     63  F   UNL A   1      41.187  24.477  28.459  1.00  0.00    -0.205 F 
ATOM     64  C   UNL A   1      43.203  24.784  25.419  1.00  0.00     0.022 A 
BRANCH  62  65
ATOM     65  S   UNL A   1      41.994  22.474  26.256  1.00  0.00     0.127 S 
ATOM     66  O   UNL A   1      40.536  22.521  26.171  1.00  0.00    -0.237 OA
ATOM     67  O   UNL A   1      42.665  22.116  25.005  1.00  0.00    -0.237 OA
ATOM     68  O   UNL A   1      42.534  21.819  27.439  1.00  0.00    -0.744 OA
ENDBRANCH  62  65
ENDBRANCH  44  58
BRANCH  45  69
ATOM     69  C   UNL A   1      39.322  31.960  35.310  1.00  0.00     0.023 A 
ATOM     70  C   UNL A   1      38.495  31.357  36.276  1.00  0.00     0.012 A 
ATOM     71  C   UNL A   1      39.721  33.299  35.491  1.00  0.00     0.148 A 
ATOM     72  C   UNL A   1      38.063  32.076  37.393  1.00  0.00     0.002 A 
ATOM     73  C   UNL A   1      39.341  33.989  36.637  1.00  0.00     0.091 A 
ATOM     74  F   UNL A   1      40.484  33.870  34.548  1.00  0.00    -0.205 F 
ATOM     75  C   UNL A   1      38.499  33.384  37.582  1.00  0.00     0.022 A 
BRANCH  73  76
ATOM     76  S   UNL A   1      39.990  35.619  37.026  1.00  0.00     0.127 S 
ATOM     77  O   UNL A   1      39.296  35.929  38.273  1.00  0.00    -0.237 OA
ATOM     78  O   UNL A   1      41.423  35.353  37.169  1.00  0.00    -0.237 OA
ATOM     79  O   UNL A   1      39.653  36.453  35.880  1.00  0.00    -0.744 OA
ENDBRANCH  73  76
ENDBRANCH  45  69
BRANCH  57  80
ATOM     80  C   UNL A   1      44.711  27.624  34.333  1.00  0.00     0.023 A 
ATOM     81  C   UNL A   1      45.913  28.357  34.367  1.00  0.00     0.012 A 
ATOM     82  C   UNL A   1      44.544  26.522  35.195  1.00  0.00     0.148 A 
ATOM     83  C   UNL A   1      46.946  27.982  35.227  1.00  0.00     0.002 A 
ATOM     84  C   UNL A   1      45.561  26.181  36.078  1.00  0.00     0.091 A 
ATOM     85  F   UNL A   1      43.400  25.825  35.129  1.00  0.00    -0.205 F 
ATOM     86  C   UNL A   1      46.764  26.904  36.089  1.00  0.00     0.022 A 
BRANCH  84  87
ATOM     87  S   UNL A   1      45.376  24.861  37.281  1.00  0.00     0.127 S 
ATOM     88  O   UNL A   1      44.248  25.339  38.078  1.00  0.00    -0.237 OA
ATOM     89  O   UNL A   1      45.079  23.704  36.436  1.00  0.00    -0.237 OA
ATOM     90  O   UNL A   1      46.652  24.780  37.982  1.00  0.00    -0.744 OA
ENDBRANCH  84  87
ENDBRANCH  57  80
ENDBRANCH  31  32
ENDBRANCH  24  26
ENDBRANCH  23  24
ENDBRANCH   1  23
TORSDOF 16
ENDMDL
MODEL 3
REMARK VINA RESULT:     -12.8      5.222     10.173
REMARK SMILES C[C@H]1CC[C@@](C[C@@H]2CCCc3ccccc32)(C(=O)OCCOC(=O)c2ccc(-c3c4nc(c(-c5cccc(S(=O)(=O)[O-])c5F)c5ccc([nH]5)c(-c5cccc(S(=O)(=O)[O-])c5F)c5nc(c(-c6cccc(S(=O)(=O)[O-])c6F)c6ccc3[nH]6)C=C5)C=C4)cc2)C1
REMARK SMILES IDX 21 1 20 2 19 3 17 4 18 5 5 6 1 7 2 8 3 9 88 10 4 11 6 12
REMARK SMILES IDX 7 13 8 14 16 15 9 16 11 17 15 18 10 19 12 20 14 21 13 22
REMARK SMILES IDX 22 23 23 24 24 25 25 26 26 27 87 28 27 29 86 30 28 31 29 32
REMARK SMILES IDX 30 33 80 34 31 35 85 36 79 37 81 38 32 39 84 40 78 41 77 42
REMARK SMILES IDX 33 44 65 45 45 46 64 47 46 48 49 49 63 50 82 51 47 52 48 53
REMARK SMILES IDX 62 55 83 56 50 57 34 58 35 59 43 60 36 61 38 62 44 63 37 64
REMARK SMILES IDX 39 65 40 66 41 67 42 68 66 69 67 70 75 71 68 72 70 73 76 74
REMARK SMILES IDX 69 75 71 76 72 77 73 78 74 79 51 80 52 81 60 82 53 83 55 84
REMARK SMILES IDX 61 85 54 86 56 87 57 88 58 89 59 90
REMARK H PARENT 81 43 49 54
REMARK Flexibility Score: inf
ROOT
ATOM      1  C   UNL A   1      31.882  29.812  26.162  1.00  0.00     0.275 C 
ENDROOT
BRANCH   1   2
ATOM      2  C   UNL A   1      31.677  28.737  27.228  1.00  0.00     0.274 C 
BRANCH   2   3
ATOM      3  O   UNL A   1      32.251  27.501  26.757  1.00  0.00    -0.462 OA
BRANCH   3   4
ATOM      4  C   UNL A   1      31.808  27.030  25.566  1.00  0.00     0.312 C 
ATOM      5  O   UNL A   1      30.625  26.993  25.248  1.00  0.00    -0.252 OA
BRANCH   4   6
ATOM      6  C   UNL A   1      32.938  26.468  24.684  1.00  0.00     0.069 C 
ATOM      7  C   UNL A   1      32.502  25.751  20.929  1.00  0.00     0.007 C 
ATOM      8  C   UNL A   1      33.168  25.986  22.275  1.00  0.00    -0.013 C 
ATOM      9  C   UNL A   1      33.560  27.435  22.483  1.00  0.00     0.004 C 
ATOM     10  C   UNL A   1      32.270  25.713  23.484  1.00  0.00     0.022 C 
ATOM     11  C   UNL A   1      33.840  27.514  23.979  1.00  0.00     0.019 C 
BRANCH   6  12
ATOM     12  C   UNL A   1      33.707  25.430  25.559  1.00  0.00     0.027 C 
BRANCH  12  13
ATOM     13  C   UNL A   1      33.472  23.891  25.443  1.00  0.00     0.020 C 
ATOM     14  C   UNL A   1      32.708  23.226  26.600  1.00  0.00     0.009 C 
ATOM     15  C   UNL A   1      34.717  23.129  25.024  1.00  0.00    -0.042 A 
ATOM     16  C   UNL A   1      33.602  22.600  27.663  1.00  0.00     0.005 C 
ATOM     17  C   UNL A   1      35.284  22.127  25.828  1.00  0.00    -0.045 A 
ATOM     18  C   UNL A   1      35.345  23.464  23.808  1.00  0.00     0.004 A 
ATOM     19  C   UNL A   1      34.603  21.620  27.071  1.00  0.00     0.036 C 
ATOM     20  C   UNL A   1      36.498  21.537  25.439  1.00  0.00     0.004 A 
ATOM     21  C   UNL A   1      36.545  22.870  23.432  1.00  0.00     0.000 A 
ATOM     22  C   UNL A   1      37.132  21.918  24.257  1.00  0.00     0.000 A 
ENDBRANCH  12  13
ENDBRANCH   6  12
ENDBRANCH   4   6
ENDBRANCH   3   4
ENDBRANCH   2   3
ENDBRANCH   1   2
BRANCH   1  23
ATOM     23  O   UNL A   1      33.251  30.242  26.232  1.00  0.00    -0.458 OA
BRANCH  23  24
ATOM     24  C   UNL A   1      33.490  31.280  27.065  1.00  0.00     0.338 C 
ATOM     25  O   UNL A   1      32.715  32.141  27.437  1.00  0.00    -0.246 OA
BRANCH  24  26
ATOM     26  C   UNL A   1      34.816  31.056  27.649  1.00  0.00     0.060 A 
ATOM     27  C   UNL A   1      35.145  29.747  28.003  1.00  0.00     0.016 A 
ATOM     28  C   UNL A   1      35.701  32.099  27.888  1.00  0.00     0.016 A 
ATOM     29  C   UNL A   1      36.338  29.473  28.656  1.00  0.00     0.010 A 
ATOM     30  C   UNL A   1      36.932  31.813  28.488  1.00  0.00     0.010 A 
ATOM     31  C   UNL A   1      37.249  30.503  28.903  1.00  0.00    -0.014 A 
BRANCH  31  32
ATOM     32  C   UNL A   1      38.503  30.228  29.652  1.00  0.00     0.031 A 
ATOM     33  C   UNL A   1      39.529  29.310  29.049  1.00  0.00     0.074 A 
ATOM     34  C   UNL A   1      38.721  30.781  30.862  1.00  0.00     0.049 A 
ATOM     35  N   UNL A   1      40.557  28.736  29.612  1.00  0.00    -0.248 NA
ATOM     36  C   UNL A   1      39.358  28.978  27.624  1.00  0.00     0.031 C 
ATOM     37  C   UNL A   1      37.829  31.724  31.538  1.00  0.00     0.029 A 
ATOM     38  N   UNL A   1      39.757  30.613  31.747  1.00  0.00    -0.354 N 
ATOM     39  C   UNL A   1      41.099  27.899  28.643  1.00  0.00     0.074 A 
ATOM     40  C   UNL A   1      40.299  28.060  27.448  1.00  0.00     0.031 C 
ATOM     41  C   UNL A   1      38.355  32.054  32.726  1.00  0.00     0.029 A 
ATOM     42  C   UNL A   1      39.577  31.286  32.934  1.00  0.00     0.049 A 
ATOM     43  H   UNL A   1      40.552  30.064  31.551  1.00  0.00     0.167 HD
ATOM     44  C   UNL A   1      42.165  27.072  28.745  1.00  0.00     0.034 A 
ATOM     45  C   UNL A   1      40.286  31.248  34.079  1.00  0.00     0.034 A 
ATOM     46  C   UNL A   1      43.002  26.988  29.911  1.00  0.00     0.049 A 
ATOM     47  C   UNL A   1      41.492  30.351  34.155  1.00  0.00     0.074 A 
ATOM     48  C   UNL A   1      44.121  26.200  30.115  1.00  0.00     0.029 A 
ATOM     49  N   UNL A   1      42.826  27.739  31.065  1.00  0.00    -0.354 N 
ATOM     50  N   UNL A   1      41.993  29.563  33.234  1.00  0.00    -0.248 NA
ATOM     51  C   UNL A   1      42.234  30.341  35.424  1.00  0.00     0.031 C 
ATOM     52  C   UNL A   1      44.620  26.475  31.393  1.00  0.00     0.029 A 
ATOM     53  C   UNL A   1      43.820  27.445  31.979  1.00  0.00     0.049 A 
ATOM     54  H   UNL A   1      42.098  28.386  31.211  1.00  0.00     0.167 HD
ATOM     55  C   UNL A   1      43.115  28.975  33.803  1.00  0.00     0.074 A 
ATOM     56  C   UNL A   1      43.239  29.523  35.140  1.00  0.00     0.031 C 
ATOM     57  C   UNL A   1      43.952  28.046  33.281  1.00  0.00     0.034 A 
BRANCH  44  58
ATOM     58  C   UNL A   1      42.493  26.206  27.558  1.00  0.00     0.023 A 
ATOM     59  C   UNL A   1      43.272  26.721  26.504  1.00  0.00     0.012 A 
ATOM     60  C   UNL A   1      42.054  24.866  27.504  1.00  0.00     0.148 A 
ATOM     61  C   UNL A   1      43.581  25.929  25.398  1.00  0.00     0.002 A 
ATOM     62  C   UNL A   1      42.403  24.071  26.418  1.00  0.00     0.091 A 
ATOM     63  F   UNL A   1      41.292  24.402  28.504  1.00  0.00    -0.205 F 
ATOM     64  C   UNL A   1      43.156  24.604  25.360  1.00  0.00     0.022 A 
BRANCH  62  65
ATOM     65  S   UNL A   1      41.963  22.332  26.317  1.00  0.00     0.127 S 
ATOM     66  O   UNL A   1      42.513  21.814  27.568  1.00  0.00    -0.237 OA
ATOM     67  O   UNL A   1      40.501  22.385  26.271  1.00  0.00    -0.237 OA
ATOM     68  O   UNL A   1      42.587  21.832  25.101  1.00  0.00    -0.744 OA
ENDBRANCH  62  65
ENDBRANCH  44  58
BRANCH  45  69
ATOM     69  C   UNL A   1      39.871  32.091  35.236  1.00  0.00     0.023 A 
ATOM     70  C   UNL A   1      40.245  33.448  35.275  1.00  0.00     0.012 A 
ATOM     71  C   UNL A   1      39.061  31.576  36.267  1.00  0.00     0.148 A 
ATOM     72  C   UNL A   1      39.832  34.271  36.325  1.00  0.00     0.002 A 
ATOM     73  C   UNL A   1      38.600  32.415  37.275  1.00  0.00     0.091 A 
ATOM     74  F   UNL A   1      38.738  30.275  36.233  1.00  0.00    -0.205 F 
ATOM     75  C   UNL A   1      38.997  33.760  37.314  1.00  0.00     0.022 A 
BRANCH  73  76
ATOM     76  S   UNL A   1      37.397  31.869  38.493  1.00  0.00     0.127 S 
ATOM     77  O   UNL A   1      36.308  32.820  38.288  1.00  0.00    -0.237 OA
ATOM     78  O   UNL A   1      37.112  30.502  38.052  1.00  0.00    -0.237 OA
ATOM     79  O   UNL A   1      38.083  31.948  39.776  1.00  0.00    -0.744 OA
ENDBRANCH  73  76
ENDBRANCH  45  69
BRANCH  57  80
ATOM     80  C   UNL A   1      45.092  27.580  34.146  1.00  0.00     0.023 A 
ATOM     81  C   UNL A   1      46.316  28.276  34.115  1.00  0.00     0.012 A 
ATOM     82  C   UNL A   1      44.927  26.504  35.040  1.00  0.00     0.148 A 
ATOM     83  C   UNL A   1      47.371  27.889  34.942  1.00  0.00     0.002 A 
ATOM     84  C   UNL A   1      45.968  26.151  35.890  1.00  0.00     0.091 A 
ATOM     85  F   UNL A   1      43.761  25.842  35.036  1.00  0.00    -0.205 F 
ATOM     86  C   UNL A   1      47.192  26.837  35.836  1.00  0.00     0.022 A 
BRANCH  84  87
ATOM     87  S   UNL A   1      45.792  24.866  37.132  1.00  0.00     0.127 S 
ATOM     88  O   UNL A   1      44.666  25.363  37.919  1.00  0.00    -0.237 OA
ATOM     89  O   UNL A   1      45.494  23.685  36.321  1.00  0.00    -0.237 OA
ATOM     90  O   UNL A   1      47.071  24.808  37.828  1.00  0.00    -0.744 OA
ENDBRANCH  84  87
ENDBRANCH  57  80
ENDBRANCH  31  32
ENDBRANCH  24  26
ENDBRANCH  23  24
ENDBRANCH   1  23
TORSDOF 16
ENDMDL
