MODEL 1
REMARK VINA RESULT:     -11.2      0.000      0.000
REMARK SMILES C#CC[N@@H+](CC(=O)OCCOC(=O)c1ccc(-c2c3nc(c(-c4cccc(S(=O)(=O)[O-])c4F)c4ccc([nH]4)c(-c4cccc(S(=O)(=O)[O-])c4F)c4nc(c(-c5cccc(S(=O)(=O)[O-])c5F)c5ccc2[nH]5)C=C4)C=C3)cc1)Cc1cccc2ccccc12
REMARK SMILES IDX 9 1 8 2 6 3 7 4 5 5 4 6 3 8 2 9 1 10 77 11 78 12 79 13 87 14
REMARK SMILES IDX 80 15 82 16 86 17 81 18 83 19 85 20 84 21 10 22 11 23 12 24
REMARK SMILES IDX 13 25 14 26 15 27 76 28 16 29 75 30 17 31 18 32 19 33 69 34
REMARK SMILES IDX 20 35 74 36 68 37 70 38 21 39 73 40 67 41 66 42 22 44 54 45
REMARK SMILES IDX 34 46 53 47 35 48 38 49 52 50 71 51 36 52 37 53 51 55 72 56
REMARK SMILES IDX 39 57 23 58 24 59 32 60 25 61 27 62 33 63 26 64 28 65 29 66
REMARK SMILES IDX 30 67 31 68 55 69 56 70 64 71 57 72 59 73 65 74 58 75 60 76
REMARK SMILES IDX 61 77 62 78 63 79 40 80 41 81 49 82 42 83 44 84 50 85 43 86
REMARK SMILES IDX 45 87 46 88 47 89 48 90
REMARK H PARENT 4 7 70 43 38 54
REMARK Flexibility Score: inf
ROOT
ATOM      1  C   UNL A   1      35.844  20.581  24.878  1.00  0.00     0.274 C 
ENDROOT
BRANCH   1   2
ATOM      2  O   UNL A   1      35.714  21.834  25.562  1.00  0.00    -0.458 OA
BRANCH   2   3
ATOM      3  C   UNL A   1      34.606  21.988  26.330  1.00  0.00     0.361 C 
ATOM      4  O   UNL A   1      33.935  21.077  26.799  1.00  0.00    -0.245 OA
BRANCH   3   5
ATOM      5  C   UNL A   1      34.276  23.462  26.518  1.00  0.00     0.387 C 
BRANCH   5   6
ATOM      6  N   UNL A   1      33.246  23.944  25.617  1.00  0.00    -0.312 N 
ATOM      7  H   UNL A   1      32.716  23.117  25.338  1.00  0.00     0.349 HD
BRANCH   6   8
ATOM      8  C   UNL A   1      33.759  24.382  24.341  1.00  0.00     0.354 C 
BRANCH   8   9
ATOM      9  C   UNL A   1      33.211  23.424  23.296  1.00  0.00    -0.047 C 
ATOM     10  C   UNL A   1      32.740  22.602  22.400  1.00  0.00     0.010 C 
ENDBRANCH   8   9
ENDBRANCH   6   8
BRANCH   6  11
ATOM     11  C   UNL A   1      31.990  24.471  26.167  1.00  0.00     0.300 C 
BRANCH  11  12
ATOM     12  C   UNL A   1      31.252  25.648  25.532  1.00  0.00     0.014 A 
ATOM     13  C   UNL A   1      30.299  25.325  24.554  1.00  0.00     0.010 A 
ATOM     14  C   UNL A   1      31.613  27.027  25.683  1.00  0.00    -0.010 A 
ATOM     15  C   UNL A   1      29.704  26.292  23.750  1.00  0.00     0.001 A 
ATOM     16  C   UNL A   1      31.022  27.998  24.823  1.00  0.00    -0.018 A 
ATOM     17  C   UNL A   1      32.567  27.521  26.599  1.00  0.00     0.009 A 
ATOM     18  C   UNL A   1      30.068  27.620  23.880  1.00  0.00     0.009 A 
ATOM     19  C   UNL A   1      31.407  29.348  24.875  1.00  0.00     0.009 A 
ATOM     20  C   UNL A   1      32.934  28.872  26.657  1.00  0.00     0.001 A 
ATOM     21  C   UNL A   1      32.363  29.785  25.785  1.00  0.00     0.001 A 
ENDBRANCH  11  12
ENDBRANCH   6  11
ENDBRANCH   5   6
ENDBRANCH   3   5
ENDBRANCH   2   3
ENDBRANCH   1   2
BRANCH   1  22
ATOM     22  C   UNL A   1      37.301  20.117  25.001  1.00  0.00     0.275 C 
BRANCH  22  23
ATOM     23  O   UNL A   1      38.274  21.184  25.038  1.00  0.00    -0.458 OA
BRANCH  23  24
ATOM     24  C   UNL A   1      39.352  21.029  25.838  1.00  0.00     0.338 C 
ATOM     25  O   UNL A   1      39.886  19.977  26.146  1.00  0.00    -0.246 OA
BRANCH  24  26
ATOM     26  C   UNL A   1      39.627  22.322  26.501  1.00  0.00     0.060 A 
ATOM     27  C   UNL A   1      40.635  22.357  27.471  1.00  0.00     0.016 A 
ATOM     28  C   UNL A   1      38.892  23.478  26.218  1.00  0.00     0.016 A 
ATOM     29  C   UNL A   1      40.903  23.535  28.168  1.00  0.00     0.010 A 
ATOM     30  C   UNL A   1      39.221  24.686  26.847  1.00  0.00     0.010 A 
ATOM     31  C   UNL A   1      40.271  24.731  27.779  1.00  0.00    -0.014 A 
BRANCH  31  32
ATOM     32  C   UNL A   1      41.029  25.999  27.969  1.00  0.00     0.031 A 
ATOM     33  C   UNL A   1      42.400  26.261  27.432  1.00  0.00     0.074 A 
ATOM     34  C   UNL A   1      40.405  26.922  28.731  1.00  0.00     0.049 A 
ATOM     35  N   UNL A   1      43.108  27.358  27.527  1.00  0.00    -0.248 NA
ATOM     36  C   UNL A   1      43.076  25.169  26.720  1.00  0.00     0.031 C 
ATOM     37  C   UNL A   1      39.101  26.723  29.378  1.00  0.00     0.029 A 
ATOM     38  N   UNL A   1      40.752  28.195  29.091  1.00  0.00    -0.354 N 
ATOM     39  C   UNL A   1      44.327  27.089  26.919  1.00  0.00     0.074 A 
ATOM     40  C   UNL A   1      44.258  25.718  26.449  1.00  0.00     0.031 C 
ATOM     41  C   UNL A   1      38.733  27.843  30.003  1.00  0.00     0.029 A 
ATOM     42  C   UNL A   1      39.799  28.820  29.863  1.00  0.00     0.049 A 
ATOM     43  H   UNL A   1      41.599  28.621  28.826  1.00  0.00     0.167 HD
ATOM     44  C   UNL A   1      45.395  27.915  26.773  1.00  0.00     0.034 A 
ATOM     45  C   UNL A   1      39.774  30.046  30.411  1.00  0.00     0.034 A 
ATOM     46  C   UNL A   1      45.435  29.280  27.246  1.00  0.00     0.049 A 
ATOM     47  C   UNL A   1      40.932  30.955  30.158  1.00  0.00     0.074 A 
ATOM     48  C   UNL A   1      46.451  30.212  27.106  1.00  0.00     0.029 A 
ATOM     49  N   UNL A   1      44.422  29.909  27.957  1.00  0.00    -0.354 N 
ATOM     50  N   UNL A   1      42.018  30.723  29.464  1.00  0.00    -0.248 NA
ATOM     51  C   UNL A   1      40.849  32.301  30.732  1.00  0.00     0.031 C 
ATOM     52  C   UNL A   1      46.057  31.396  27.743  1.00  0.00     0.029 A 
ATOM     53  C   UNL A   1      44.788  31.212  28.265  1.00  0.00     0.049 A 
ATOM     54  H   UNL A   1      43.566  29.491  28.208  1.00  0.00     0.167 HD
ATOM     55  C   UNL A   1      42.750  31.899  29.507  1.00  0.00     0.074 A 
ATOM     56  C   UNL A   1      41.958  32.853  30.261  1.00  0.00     0.031 C 
ATOM     57  C   UNL A   1      43.977  32.156  28.993  1.00  0.00     0.034 A 
BRANCH  44  58
ATOM     58  C   UNL A   1      46.606  27.390  26.040  1.00  0.00     0.023 A 
ATOM     59  C   UNL A   1      46.719  27.600  24.650  1.00  0.00     0.012 A 
ATOM     60  C   UNL A   1      47.675  26.781  26.730  1.00  0.00     0.148 A 
ATOM     61  C   UNL A   1      47.858  27.192  23.957  1.00  0.00     0.002 A 
ATOM     62  C   UNL A   1      48.824  26.407  26.037  1.00  0.00     0.091 A 
ATOM     63  F   UNL A   1      47.550  26.574  28.049  1.00  0.00    -0.205 F 
ATOM     64  C   UNL A   1      48.914  26.606  24.650  1.00  0.00     0.022 A 
BRANCH  62  65
ATOM     65  S   UNL A   1      50.266  25.709  26.854  1.00  0.00     0.127 S 
ATOM     66  O   UNL A   1      51.204  25.584  25.741  1.00  0.00    -0.237 OA
ATOM     67  O   UNL A   1      50.609  26.748  27.826  1.00  0.00    -0.237 OA
ATOM     68  O   UNL A   1      49.820  24.455  27.444  1.00  0.00    -0.744 OA
ENDBRANCH  62  65
ENDBRANCH  44  58
BRANCH  45  69
ATOM     69  C   UNL A   1      38.572  30.476  31.173  1.00  0.00     0.023 A 
ATOM     70  C   UNL A   1      38.562  30.347  32.574  1.00  0.00     0.012 A 
ATOM     71  C   UNL A   1      37.493  31.118  30.532  1.00  0.00     0.148 A 
ATOM     72  C   UNL A   1      37.492  30.836  33.323  1.00  0.00     0.002 A 
ATOM     73  C   UNL A   1      36.464  31.663  31.290  1.00  0.00     0.091 A 
ATOM     74  F   UNL A   1      37.517  31.226  29.196  1.00  0.00    -0.205 F 
ATOM     75  C   UNL A   1      36.452  31.508  32.684  1.00  0.00     0.022 A 
BRANCH  73  76
ATOM     76  S   UNL A   1      35.190  32.692  30.551  1.00  0.00     0.127 S 
ATOM     77  O   UNL A   1      34.241  32.831  31.653  1.00  0.00    -0.237 OA
ATOM     78  O   UNL A   1      35.929  33.911  30.217  1.00  0.00    -0.237 OA
ATOM     79  O   UNL A   1      34.720  31.946  29.391  1.00  0.00    -0.744 OA
ENDBRANCH  73  76
ENDBRANCH  45  69
BRANCH  57  80
ATOM     80  C   UNL A   1      44.528  33.535  29.240  1.00  0.00     0.023 A 
ATOM     81  C   UNL A   1      45.096  33.841  30.494  1.00  0.00     0.012 A 
ATOM     82  C   UNL A   1      44.485  34.522  28.239  1.00  0.00     0.148 A 
ATOM     83  C   UNL A   1      45.573  35.122  30.762  1.00  0.00     0.002 A 
ATOM     84  C   UNL A   1      45.004  35.786  28.499  1.00  0.00     0.091 A 
ATOM     85  F   UNL A   1      43.914  34.223  27.064  1.00  0.00    -0.205 F 
ATOM     86  C   UNL A   1      45.535  36.091  29.762  1.00  0.00     0.022 A 
BRANCH  84  87
ATOM     87  S   UNL A   1      45.065  37.060  27.236  1.00  0.00     0.127 S 
ATOM     88  O   UNL A   1      43.656  37.185  26.867  1.00  0.00    -0.237 OA
ATOM     89  O   UNL A   1      45.605  38.207  27.969  1.00  0.00    -0.237 OA
ATOM     90  O   UNL A   1      45.948  36.543  26.200  1.00  0.00    -0.744 OA
ENDBRANCH  84  87
ENDBRANCH  57  80
ENDBRANCH  31  32
ENDBRANCH  24  26
ENDBRANCH  23  24
ENDBRANCH  22  23
ENDBRANCH   1  22
TORSDOF 19
ENDMDL
MODEL 2
REMARK VINA RESULT:     -11.1      4.687     10.151
REMARK SMILES C#CC[N@@H+](CC(=O)OCCOC(=O)c1ccc(-c2c3nc(c(-c4cccc(S(=O)(=O)[O-])c4F)c4ccc([nH]4)c(-c4cccc(S(=O)(=O)[O-])c4F)c4nc(c(-c5cccc(S(=O)(=O)[O-])c5F)c5ccc2[nH]5)C=C4)C=C3)cc1)Cc1cccc2ccccc12
REMARK SMILES IDX 9 1 8 2 6 3 7 4 5 5 4 6 3 8 2 9 1 10 77 11 78 12 79 13 87 14
REMARK SMILES IDX 80 15 82 16 86 17 81 18 83 19 85 20 84 21 10 22 11 23 12 24
REMARK SMILES IDX 13 25 14 26 15 27 76 28 16 29 75 30 17 31 18 32 19 33 69 34
REMARK SMILES IDX 20 35 74 36 68 37 70 38 21 39 73 40 67 41 66 42 22 44 54 45
REMARK SMILES IDX 34 46 53 47 35 48 38 49 52 50 71 51 36 52 37 53 51 55 72 56
REMARK SMILES IDX 39 57 23 58 24 59 32 60 25 61 27 62 33 63 26 64 28 65 29 66
REMARK SMILES IDX 30 67 31 68 55 69 56 70 64 71 57 72 59 73 65 74 58 75 60 76
REMARK SMILES IDX 61 77 62 78 63 79 40 80 41 81 49 82 42 83 44 84 50 85 43 86
REMARK SMILES IDX 45 87 46 88 47 89 48 90
REMARK H PARENT 4 7 70 43 38 54
REMARK Flexibility Score: inf
ROOT
ATOM      1  C   UNL A   1      32.244  29.345  25.120  1.00  0.00     0.274 C 
ENDROOT
BRANCH   1   2
ATOM      2  O   UNL A   1      31.112  28.560  24.725  1.00  0.00    -0.458 OA
BRANCH   2   3
ATOM      3  C   UNL A   1      31.262  27.806  23.607  1.00  0.00     0.361 C 
ATOM      4  O   UNL A   1      31.068  28.191  22.460  1.00  0.00    -0.245 OA
BRANCH   3   5
ATOM      5  C   UNL A   1      31.684  26.387  23.961  1.00  0.00     0.387 C 
BRANCH   5   6
ATOM      6  N   UNL A   1      33.095  26.131  23.742  1.00  0.00    -0.312 N 
ATOM      7  H   UNL A   1      33.544  27.048  23.738  1.00  0.00     0.349 HD
BRANCH   6   8
ATOM      8  C   UNL A   1      33.395  25.676  22.405  1.00  0.00     0.354 C 
BRANCH   8   9
ATOM      9  C   UNL A   1      32.966  24.219  22.332  1.00  0.00    -0.047 C 
ATOM     10  C   UNL A   1      32.598  22.970  22.269  1.00  0.00     0.010 C 
ENDBRANCH   8   9
ENDBRANCH   6   8
BRANCH   6  11
ATOM     11  C   UNL A   1      33.957  25.797  24.883  1.00  0.00     0.300 C 
BRANCH  11  12
ATOM     12  C   UNL A   1      34.037  24.384  25.459  1.00  0.00     0.014 A 
ATOM     13  C   UNL A   1      33.181  24.107  26.537  1.00  0.00     0.010 A 
ATOM     14  C   UNL A   1      35.054  23.422  25.150  1.00  0.00    -0.010 A 
ATOM     15  C   UNL A   1      33.290  22.942  27.290  1.00  0.00     0.001 A 
ATOM     16  C   UNL A   1      35.174  22.253  25.957  1.00  0.00    -0.018 A 
ATOM     17  C   UNL A   1      36.008  23.554  24.118  1.00  0.00     0.009 A 
ATOM     18  C   UNL A   1      34.285  22.024  27.005  1.00  0.00     0.009 A 
ATOM     19  C   UNL A   1      36.207  21.325  25.746  1.00  0.00     0.009 A 
ATOM     20  C   UNL A   1      37.025  22.616  23.902  1.00  0.00     0.001 A 
ATOM     21  C   UNL A   1      37.134  21.506  24.726  1.00  0.00     0.001 A 
ENDBRANCH  11  12
ENDBRANCH   6  11
ENDBRANCH   5   6
ENDBRANCH   3   5
ENDBRANCH   2   3
ENDBRANCH   1   2
BRANCH   1  22
ATOM     22  C   UNL A   1      31.736  30.549  25.922  1.00  0.00     0.275 C 
BRANCH  22  23
ATOM     23  O   UNL A   1      32.307  30.679  27.243  1.00  0.00    -0.458 OA
BRANCH  23  24
ATOM     24  C   UNL A   1      33.076  31.762  27.495  1.00  0.00     0.338 C 
ATOM     25  O   UNL A   1      32.779  32.928  27.302  1.00  0.00    -0.246 OA
BRANCH  24  26
ATOM     26  C   UNL A   1      34.446  31.296  27.800  1.00  0.00     0.060 A 
ATOM     27  C   UNL A   1      35.406  32.260  28.125  1.00  0.00     0.016 A 
ATOM     28  C   UNL A   1      34.809  29.946  27.734  1.00  0.00     0.016 A 
ATOM     29  C   UNL A   1      36.728  31.886  28.369  1.00  0.00     0.010 A 
ATOM     30  C   UNL A   1      36.111  29.556  28.072  1.00  0.00     0.010 A 
ATOM     31  C   UNL A   1      37.059  30.520  28.452  1.00  0.00    -0.014 A 
BRANCH  31  32
ATOM     32  C   UNL A   1      38.165  30.139  29.374  1.00  0.00     0.031 A 
ATOM     33  C   UNL A   1      38.314  30.634  30.777  1.00  0.00     0.074 A 
ATOM     34  C   UNL A   1      39.096  29.325  28.832  1.00  0.00     0.049 A 
ATOM     35  N   UNL A   1      39.234  30.315  31.653  1.00  0.00    -0.248 NA
ATOM     36  C   UNL A   1      37.338  31.618  31.263  1.00  0.00     0.031 C 
ATOM     37  C   UNL A   1      39.087  28.861  27.439  1.00  0.00     0.029 A 
ATOM     38  N   UNL A   1      40.213  28.738  29.361  1.00  0.00    -0.354 N 
ATOM     39  C   UNL A   1      38.975  31.076  32.785  1.00  0.00     0.074 A 
ATOM     40  C   UNL A   1      37.800  31.872  32.485  1.00  0.00     0.031 C 
ATOM     41  C   UNL A   1      40.105  28.022  27.238  1.00  0.00     0.029 A 
ATOM     42  C   UNL A   1      40.882  27.937  28.463  1.00  0.00     0.049 A 
ATOM     43  H   UNL A   1      40.509  28.874  30.289  1.00  0.00     0.167 HD
ATOM     44  C   UNL A   1      39.660  31.099  33.957  1.00  0.00     0.034 A 
ATOM     45  C   UNL A   1      42.004  27.211  28.595  1.00  0.00     0.034 A 
ATOM     46  C   UNL A   1      40.825  30.290  34.232  1.00  0.00     0.049 A 
ATOM     47  C   UNL A   1      42.682  27.197  29.925  1.00  0.00     0.074 A 
ATOM     48  C   UNL A   1      41.561  30.206  35.404  1.00  0.00     0.029 A 
ATOM     49  N   UNL A   1      41.433  29.430  33.326  1.00  0.00    -0.354 N 
ATOM     50  N   UNL A   1      42.340  27.822  31.024  1.00  0.00    -0.248 NA
ATOM     51  C   UNL A   1      43.877  26.356  30.045  1.00  0.00     0.031 C 
ATOM     52  C   UNL A   1      42.617  29.310  35.200  1.00  0.00     0.029 A 
ATOM     53  C   UNL A   1      42.533  28.816  33.909  1.00  0.00     0.049 A 
ATOM     54  H   UNL A   1      41.127  29.278  32.402  1.00  0.00     0.167 HD
ATOM     55  C   UNL A   1      43.274  27.444  31.976  1.00  0.00     0.074 A 
ATOM     56  C   UNL A   1      44.168  26.501  31.330  1.00  0.00     0.031 C 
ATOM     57  C   UNL A   1      43.395  27.861  33.260  1.00  0.00     0.034 A 
BRANCH  44  58
ATOM     58  C   UNL A   1      39.155  32.000  35.059  1.00  0.00     0.023 A 
ATOM     59  C   UNL A   1      38.203  31.506  35.975  1.00  0.00     0.012 A 
ATOM     60  C   UNL A   1      39.686  33.292  35.252  1.00  0.00     0.148 A 
ATOM     61  C   UNL A   1      37.772  32.289  37.047  1.00  0.00     0.002 A 
ATOM     62  C   UNL A   1      39.277  34.054  36.343  1.00  0.00     0.091 A 
ATOM     63  F   UNL A   1      40.580  33.755  34.365  1.00  0.00    -0.205 F 
ATOM     64  C   UNL A   1      38.314  33.556  37.237  1.00  0.00     0.022 A 
BRANCH  62  65
ATOM     65  S   UNL A   1      39.970  35.672  36.712  1.00  0.00     0.127 S 
ATOM     66  O   UNL A   1      41.388  35.355  36.876  1.00  0.00    -0.237 OA
ATOM     67  O   UNL A   1      39.652  36.432  35.503  1.00  0.00    -0.237 OA
ATOM     68  O   UNL A   1      39.287  36.133  37.912  1.00  0.00    -0.744 OA
ENDBRANCH  62  65
ENDBRANCH  44  58
BRANCH  45  69
ATOM     69  C   UNL A   1      42.477  26.393  27.447  1.00  0.00     0.023 A 
ATOM     70  C   UNL A   1      43.437  26.929  26.569  1.00  0.00     0.012 A 
ATOM     71  C   UNL A   1      42.074  25.051  27.291  1.00  0.00     0.148 A 
ATOM     72  C   UNL A   1      43.976  26.149  25.546  1.00  0.00     0.002 A 
ATOM     73  C   UNL A   1      42.664  24.261  26.313  1.00  0.00     0.091 A 
ATOM     74  F   UNL A   1      41.154  24.560  28.133  1.00  0.00    -0.205 F 
ATOM     75  C   UNL A   1      43.603  24.811  25.428  1.00  0.00     0.022 A 
BRANCH  73  76
ATOM     76  S   UNL A   1      42.365  22.492  26.221  1.00  0.00     0.127 S 
ATOM     77  O   UNL A   1      42.951  22.023  27.474  1.00  0.00    -0.237 OA
ATOM     78  O   UNL A   1      40.904  22.425  26.159  1.00  0.00    -0.237 OA
ATOM     79  O   UNL A   1      43.030  22.054  25.000  1.00  0.00    -0.744 OA
ENDBRANCH  73  76
ENDBRANCH  45  69
BRANCH  57  80
ATOM     80  C   UNL A   1      44.548  27.289  34.041  1.00  0.00     0.023 A 
ATOM     81  C   UNL A   1      45.835  27.842  33.885  1.00  0.00     0.012 A 
ATOM     82  C   UNL A   1      44.360  26.210  34.924  1.00  0.00     0.148 A 
ATOM     83  C   UNL A   1      46.926  27.303  34.563  1.00  0.00     0.002 A 
ATOM     84  C   UNL A   1      45.446  25.705  35.631  1.00  0.00     0.091 A 
ATOM     85  F   UNL A   1      43.136  25.676  35.036  1.00  0.00    -0.205 F 
ATOM     86  C   UNL A   1      46.730  26.241  35.442  1.00  0.00     0.022 A 
BRANCH  84  87
ATOM     87  S   UNL A   1      45.257  24.393  36.842  1.00  0.00     0.127 S 
ATOM     88  O   UNL A   1      44.954  23.242  35.993  1.00  0.00    -0.237 OA
ATOM     89  O   UNL A   1      46.577  24.352  37.473  1.00  0.00    -0.237 OA
ATOM     90  O   UNL A   1      44.185  24.828  37.726  1.00  0.00    -0.744 OA
ENDBRANCH  84  87
ENDBRANCH  57  80
ENDBRANCH  31  32
ENDBRANCH  24  26
ENDBRANCH  23  24
ENDBRANCH  22  23
ENDBRANCH   1  22
TORSDOF 19
ENDMDL
MODEL 3
REMARK VINA RESULT:     -10.9      1.756      3.539
REMARK SMILES C#CC[N@@H+](CC(=O)OCCOC(=O)c1ccc(-c2c3nc(c(-c4cccc(S(=O)(=O)[O-])c4F)c4ccc([nH]4)c(-c4cccc(S(=O)(=O)[O-])c4F)c4nc(c(-c5cccc(S(=O)(=O)[O-])c5F)c5ccc2[nH]5)C=C4)C=C3)cc1)Cc1cccc2ccccc12
REMARK SMILES IDX 9 1 8 2 6 3 7 4 5 5 4 6 3 8 2 9 1 10 77 11 78 12 79 13 87 14
REMARK SMILES IDX 80 15 82 16 86 17 81 18 83 19 85 20 84 21 10 22 11 23 12 24
REMARK SMILES IDX 13 25 14 26 15 27 76 28 16 29 75 30 17 31 18 32 19 33 69 34
REMARK SMILES IDX 20 35 74 36 68 37 70 38 21 39 73 40 67 41 66 42 22 44 54 45
REMARK SMILES IDX 34 46 53 47 35 48 38 49 52 50 71 51 36 52 37 53 51 55 72 56
REMARK SMILES IDX 39 57 23 58 24 59 32 60 25 61 27 62 33 63 26 64 28 65 29 66
REMARK SMILES IDX 30 67 31 68 55 69 56 70 64 71 57 72 59 73 65 74 58 75 60 76
REMARK SMILES IDX 61 77 62 78 63 79 40 80 41 81 49 82 42 83 44 84 50 85 43 86
REMARK SMILES IDX 45 87 46 88 47 89 48 90
REMARK H PARENT 4 7 70 43 38 54
REMARK Flexibility Score: inf
ROOT
ATOM      1  C   UNL A   1      36.231  20.186  24.993  1.00  0.00     0.274 C 
ENDROOT
BRANCH   1   2
ATOM      2  O   UNL A   1      35.962  21.592  25.050  1.00  0.00    -0.458 OA
BRANCH   2   3
ATOM      3  C   UNL A   1      34.945  21.978  25.861  1.00  0.00     0.361 C 
ATOM      4  O   UNL A   1      34.727  21.540  26.984  1.00  0.00    -0.245 OA
BRANCH   3   5
ATOM      5  C   UNL A   1      34.074  23.024  25.180  1.00  0.00     0.387 C 
BRANCH   5   6
ATOM      6  N   UNL A   1      32.682  22.974  25.589  1.00  0.00    -0.312 N 
ATOM      7  H   UNL A   1      32.158  23.422  24.836  1.00  0.00     0.349 HD
BRANCH   6   8
ATOM      8  C   UNL A   1      32.377  23.852  26.693  1.00  0.00     0.354 C 
BRANCH   8   9
ATOM      9  C   UNL A   1      31.241  24.752  26.236  1.00  0.00    -0.047 C 
ATOM     10  C   UNL A   1      30.266  25.524  25.844  1.00  0.00     0.010 C 
ENDBRANCH   8   9
ENDBRANCH   6   8
BRANCH   6  11
ATOM     11  C   UNL A   1      31.891  21.767  25.320  1.00  0.00     0.300 C 
BRANCH  11  12
ATOM     12  C   UNL A   1      32.205  20.828  24.156  1.00  0.00     0.014 A 
ATOM     13  C   UNL A   1      31.886  21.303  22.876  1.00  0.00     0.010 A 
ATOM     14  C   UNL A   1      32.570  19.447  24.285  1.00  0.00    -0.010 A 
ATOM     15  C   UNL A   1      31.922  20.486  21.750  1.00  0.00     0.001 A 
ATOM     16  C   UNL A   1      32.563  18.616  23.127  1.00  0.00    -0.018 A 
ATOM     17  C   UNL A   1      32.897  18.804  25.498  1.00  0.00     0.009 A 
ATOM     18  C   UNL A   1      32.252  19.149  21.877  1.00  0.00     0.009 A 
ATOM     19  C   UNL A   1      32.830  17.240  23.216  1.00  0.00     0.009 A 
ATOM     20  C   UNL A   1      33.179  17.434  25.577  1.00  0.00     0.001 A 
ATOM     21  C   UNL A   1      33.132  16.648  24.437  1.00  0.00     0.001 A 
ENDBRANCH  11  12
ENDBRANCH   6  11
ENDBRANCH   5   6
ENDBRANCH   3   5
ENDBRANCH   2   3
ENDBRANCH   1   2
BRANCH   1  22
ATOM     22  C   UNL A   1      37.748  19.983  25.099  1.00  0.00     0.275 C 
BRANCH  22  23
ATOM     23  O   UNL A   1      38.503  21.191  25.335  1.00  0.00    -0.458 OA
BRANCH  23  24
ATOM     24  C   UNL A   1      39.647  21.091  26.048  1.00  0.00     0.338 C 
ATOM     25  O   UNL A   1      40.266  20.070  26.294  1.00  0.00    -0.246 OA
BRANCH  24  26
ATOM     26  C   UNL A   1      39.894  22.389  26.713  1.00  0.00     0.060 A 
ATOM     27  C   UNL A   1      40.911  22.449  27.672  1.00  0.00     0.016 A 
ATOM     28  C   UNL A   1      39.124  23.526  26.442  1.00  0.00     0.016 A 
ATOM     29  C   UNL A   1      41.154  23.632  28.370  1.00  0.00     0.010 A 
ATOM     30  C   UNL A   1      39.427  24.740  27.071  1.00  0.00     0.010 A 
ATOM     31  C   UNL A   1      40.485  24.811  27.992  1.00  0.00    -0.014 A 
BRANCH  31  32
ATOM     32  C   UNL A   1      41.210  26.099  28.179  1.00  0.00     0.031 A 
ATOM     33  C   UNL A   1      42.594  26.377  27.684  1.00  0.00     0.074 A 
ATOM     34  C   UNL A   1      40.541  27.025  28.897  1.00  0.00     0.049 A 
ATOM     35  N   UNL A   1      43.276  27.491  27.777  1.00  0.00    -0.248 NA
ATOM     36  C   UNL A   1      43.317  25.283  27.021  1.00  0.00     0.031 C 
ATOM     37  C   UNL A   1      39.220  26.813  29.503  1.00  0.00     0.029 A 
ATOM     38  N   UNL A   1      40.850  28.313  29.239  1.00  0.00    -0.354 N 
ATOM     39  C   UNL A   1      44.521  27.234  27.218  1.00  0.00     0.074 A 
ATOM     40  C   UNL A   1      44.496  25.851  26.778  1.00  0.00     0.031 C 
ATOM     41  C   UNL A   1      38.808  27.940  30.089  1.00  0.00     0.029 A 
ATOM     42  C   UNL A   1      39.859  28.935  29.962  1.00  0.00     0.049 A 
ATOM     43  H   UNL A   1      41.697  28.751  28.993  1.00  0.00     0.167 HD
ATOM     44  C   UNL A   1      45.576  28.079  27.089  1.00  0.00     0.034 A 
ATOM     45  C   UNL A   1      39.790  30.173  30.480  1.00  0.00     0.034 A 
ATOM     46  C   UNL A   1      45.572  29.455  27.531  1.00  0.00     0.049 A 
ATOM     47  C   UNL A   1      40.936  31.100  30.246  1.00  0.00     0.074 A 
ATOM     48  C   UNL A   1      46.573  30.405  27.404  1.00  0.00     0.029 A 
ATOM     49  N   UNL A   1      44.522  30.078  28.193  1.00  0.00    -0.354 N 
ATOM     50  N   UNL A   1      42.051  30.875  29.595  1.00  0.00    -0.248 NA
ATOM     51  C   UNL A   1      40.806  32.457  30.785  1.00  0.00     0.031 C 
ATOM     52  C   UNL A   1      46.133  31.594  28.000  1.00  0.00     0.029 A 
ATOM     53  C   UNL A   1      44.851  31.396  28.482  1.00  0.00     0.049 A 
ATOM     54  H   UNL A   1      43.666  29.648  28.423  1.00  0.00     0.167 HD
ATOM     55  C   UNL A   1      42.756  32.067  29.637  1.00  0.00     0.074 A 
ATOM     56  C   UNL A   1      41.919  33.021  30.340  1.00  0.00     0.031 C 
ATOM     57  C   UNL A   1      43.995  32.338  29.159  1.00  0.00     0.034 A 
BRANCH  44  58
ATOM     58  C   UNL A   1      46.823  27.563  26.411  1.00  0.00     0.023 A 
ATOM     59  C   UNL A   1      47.699  26.719  27.124  1.00  0.00     0.012 A 
ATOM     60  C   UNL A   1      47.080  27.825  25.050  1.00  0.00     0.148 A 
ATOM     61  C   UNL A   1      48.820  26.167  26.504  1.00  0.00     0.002 A 
ATOM     62  C   UNL A   1      48.182  27.243  24.428  1.00  0.00     0.091 A 
ATOM     63  F   UNL A   1      46.246  28.640  24.387  1.00  0.00    -0.205 F 
ATOM     64  C   UNL A   1      49.056  26.420  25.156  1.00  0.00     0.022 A 
BRANCH  62  65
ATOM     65  S   UNL A   1      48.530  27.452  22.676  1.00  0.00     0.127 S 
ATOM     66  O   UNL A   1      47.368  28.221  22.233  1.00  0.00    -0.237 OA
ATOM     67  O   UNL A   1      49.786  28.204  22.694  1.00  0.00    -0.237 OA
ATOM     68  O   UNL A   1      48.639  26.107  22.129  1.00  0.00    -0.744 OA
ENDBRANCH  62  65
ENDBRANCH  44  58
BRANCH  45  69
ATOM     69  C   UNL A   1      38.552  30.594  31.190  1.00  0.00     0.023 A 
ATOM     70  C   UNL A   1      38.490  30.481  32.591  1.00  0.00     0.012 A 
ATOM     71  C   UNL A   1      37.490  31.214  30.501  1.00  0.00     0.148 A 
ATOM     72  C   UNL A   1      37.386  30.964  33.293  1.00  0.00     0.002 A 
ATOM     73  C   UNL A   1      36.426  31.753  31.211  1.00  0.00     0.091 A 
ATOM     74  F   UNL A   1      37.565  31.307  29.165  1.00  0.00    -0.205 F 
ATOM     75  C   UNL A   1      36.362  31.614  32.606  1.00  0.00     0.022 A 
BRANCH  73  76
ATOM     76  S   UNL A   1      35.168  32.756  30.412  1.00  0.00     0.127 S 
ATOM     77  O   UNL A   1      34.264  33.044  31.522  1.00  0.00    -0.237 OA
ATOM     78  O   UNL A   1      35.942  33.902  29.932  1.00  0.00    -0.237 OA
ATOM     79  O   UNL A   1      34.628  31.918  29.348  1.00  0.00    -0.744 OA
ENDBRANCH  73  76
ENDBRANCH  45  69
BRANCH  57  80
ATOM     80  C   UNL A   1      44.510  33.733  29.393  1.00  0.00     0.023 A 
ATOM     81  C   UNL A   1      45.068  34.067  30.643  1.00  0.00     0.012 A 
ATOM     82  C   UNL A   1      44.441  34.710  28.383  1.00  0.00     0.148 A 
ATOM     83  C   UNL A   1      45.511  35.363  30.899  1.00  0.00     0.002 A 
ATOM     84  C   UNL A   1      44.925  35.989  28.630  1.00  0.00     0.091 A 
ATOM     85  F   UNL A   1      43.878  34.384  27.210  1.00  0.00    -0.205 F 
ATOM     86  C   UNL A   1      45.448  36.321  29.890  1.00  0.00     0.022 A 
BRANCH  84  87
ATOM     87  S   UNL A   1      44.952  37.252  27.354  1.00  0.00     0.127 S 
ATOM     88  O   UNL A   1      43.537  37.356  27.004  1.00  0.00    -0.237 OA
ATOM     89  O   UNL A   1      45.489  38.412  28.069  1.00  0.00    -0.237 OA
ATOM     90  O   UNL A   1      45.827  36.736  26.311  1.00  0.00    -0.744 OA
ENDBRANCH  84  87
ENDBRANCH  57  80
ENDBRANCH  31  32
ENDBRANCH  24  26
ENDBRANCH  23  24
ENDBRANCH  22  23
ENDBRANCH   1  22
TORSDOF 19
ENDMDL
