MODEL 1
REMARK VINA RESULT:     -12.2      0.000      0.000
REMARK SMILES O=C(Cn1c2ccccc2c(=O)c2cc(F)ccc21)OCCOC(=O)c1ccc(-c2c3nc(c(-c4cccc(S(=O)(=O)[O-])c4F)c4ccc([nH]4)c(-c4cccc(S(=O)(=O)[O-])c4F)c4nc(c(-c5cccc(S(=O)(=O)[O-])c5F)c5ccc2[nH]5)C=C4)C=C3)cc1
REMARK SMILES IDX 22 1 21 2 20 3 2 4 1 5 3 6 4 7 5 8 19 9 6 10 10 11 13 12
REMARK SMILES IDX 18 13 7 14 9 15 11 16 14 17 17 18 8 19 12 20 15 21 16 22
REMARK SMILES IDX 23 23 24 24 25 25 26 26 27 27 88 28 28 29 87 30 29 31 30 32
REMARK SMILES IDX 31 33 81 34 32 35 86 36 80 37 82 38 33 39 85 40 79 41 78 42
REMARK SMILES IDX 34 44 66 45 46 46 65 47 47 48 50 49 64 50 83 51 48 52 49 53
REMARK SMILES IDX 63 55 84 56 51 57 35 58 36 59 44 60 37 61 39 62 45 63 38 64
REMARK SMILES IDX 40 65 41 66 42 67 43 68 67 69 68 70 76 71 69 72 71 73 77 74
REMARK SMILES IDX 70 75 72 76 73 77 74 78 75 79 52 80 53 81 61 82 54 83 56 84
REMARK SMILES IDX 62 85 55 86 57 87 58 88 59 89 60 90
REMARK H PARENT 82 43 50 54
REMARK Flexibility Score: inf
ROOT
ATOM      1  C   UNL A   1      36.562  20.376  25.017  1.00  0.00     0.275 C 
ENDROOT
BRANCH   1   2
ATOM      2  C   UNL A   1      35.330  21.281  24.913  1.00  0.00     0.274 C 
BRANCH   2   3
ATOM      3  O   UNL A   1      35.440  22.257  23.862  1.00  0.00    -0.461 OA
BRANCH   3   4
ATOM      4  C   UNL A   1      35.086  23.557  24.088  1.00  0.00     0.326 C 
ATOM      5  O   UNL A   1      35.572  24.168  25.036  1.00  0.00    -0.250 OA
BRANCH   4   6
ATOM      6  C   UNL A   1      33.929  24.104  23.245  1.00  0.00     0.245 C 
BRANCH   6   7
ATOM      7  N   UNL A   1      32.945  24.888  24.027  1.00  0.00    -0.329 N 
ATOM      8  C   UNL A   1      33.016  26.300  23.973  1.00  0.00     0.053 A 
ATOM      9  C   UNL A   1      32.087  24.205  24.925  1.00  0.00     0.053 A 
ATOM     10  C   UNL A   1      33.632  27.021  22.935  1.00  0.00     0.027 A 
ATOM     11  C   UNL A   1      32.416  27.068  24.984  1.00  0.00     0.046 A 
ATOM     12  C   UNL A   1      31.322  24.945  25.850  1.00  0.00     0.049 A 
ATOM     13  C   UNL A   1      31.896  22.809  24.927  1.00  0.00     0.030 A 
ATOM     14  C   UNL A   1      33.784  28.412  22.983  1.00  0.00     0.002 A 
ATOM     15  C   UNL A   1      32.569  28.462  25.046  1.00  0.00     0.014 A 
ATOM     16  C   UNL A   1      31.556  26.398  25.978  1.00  0.00     0.197 A 
ATOM     17  C   UNL A   1      30.356  24.347  26.668  1.00  0.00     0.053 A 
ATOM     18  C   UNL A   1      30.939  22.203  25.751  1.00  0.00     0.041 A 
ATOM     19  C   UNL A   1      33.280  29.131  24.057  1.00  0.00     0.001 A 
ATOM     20  O   UNL A   1      31.027  27.045  26.877  1.00  0.00    -0.288 OA
ATOM     21  C   UNL A   1      30.164  22.979  26.596  1.00  0.00     0.124 A 
ATOM     22  F   UNL A   1      29.227  22.401  27.356  1.00  0.00    -0.207 F 
ENDBRANCH   6   7
ENDBRANCH   4   6
ENDBRANCH   3   4
ENDBRANCH   2   3
ENDBRANCH   1   2
BRANCH   1  23
ATOM     23  O   UNL A   1      37.778  21.126  24.865  1.00  0.00    -0.458 OA
BRANCH  23  24
ATOM     24  C   UNL A   1      38.766  20.792  25.744  1.00  0.00     0.338 C 
ATOM     25  O   UNL A   1      39.201  19.676  25.937  1.00  0.00    -0.246 OA
BRANCH  24  26
ATOM     26  C   UNL A   1      39.387  22.027  26.293  1.00  0.00     0.060 A 
ATOM     27  C   UNL A   1      40.508  21.998  27.130  1.00  0.00     0.016 A 
ATOM     28  C   UNL A   1      38.782  23.252  25.980  1.00  0.00     0.016 A 
ATOM     29  C   UNL A   1      41.033  23.197  27.628  1.00  0.00     0.010 A 
ATOM     30  C   UNL A   1      39.312  24.448  26.474  1.00  0.00     0.010 A 
ATOM     31  C   UNL A   1      40.453  24.433  27.287  1.00  0.00    -0.014 A 
BRANCH  31  32
ATOM     32  C   UNL A   1      41.146  25.703  27.624  1.00  0.00     0.031 A 
ATOM     33  C   UNL A   1      42.559  25.993  27.208  1.00  0.00     0.074 A 
ATOM     34  C   UNL A   1      40.483  26.601  28.379  1.00  0.00     0.049 A 
ATOM     35  N   UNL A   1      43.248  27.094  27.365  1.00  0.00    -0.248 NA
ATOM     36  C   UNL A   1      43.297  24.912  26.540  1.00  0.00     0.031 C 
ATOM     37  C   UNL A   1      39.134  26.409  28.917  1.00  0.00     0.029 A 
ATOM     38  N   UNL A   1      40.851  27.842  28.833  1.00  0.00    -0.354 N 
ATOM     39  C   UNL A   1      44.504  26.841  26.829  1.00  0.00     0.074 A 
ATOM     40  C   UNL A   1      44.487  25.475  26.351  1.00  0.00     0.031 C 
ATOM     41  C   UNL A   1      38.782  27.500  29.613  1.00  0.00     0.029 A 
ATOM     42  C   UNL A   1      39.879  28.464  29.580  1.00  0.00     0.049 A 
ATOM     43  H   UNL A   1      41.728  28.247  28.643  1.00  0.00     0.167 HD
ATOM     44  C   UNL A   1      45.562  27.680  26.727  1.00  0.00     0.034 A 
ATOM     45  C   UNL A   1      39.857  29.680  30.158  1.00  0.00     0.034 A 
ATOM     46  C   UNL A   1      45.567  29.049  27.173  1.00  0.00     0.049 A 
ATOM     47  C   UNL A   1      41.029  30.602  29.998  1.00  0.00     0.074 A 
ATOM     48  C   UNL A   1      46.560  30.001  27.007  1.00  0.00     0.029 A 
ATOM     49  N   UNL A   1      44.549  29.657  27.886  1.00  0.00    -0.354 N 
ATOM     50  N   UNL A   1      42.138  30.410  29.326  1.00  0.00    -0.248 NA
ATOM     51  C   UNL A   1      40.937  31.921  30.644  1.00  0.00     0.031 C 
ATOM     52  C   UNL A   1      46.148  31.180  27.632  1.00  0.00     0.029 A 
ATOM     53  C   UNL A   1      44.894  30.966  28.180  1.00  0.00     0.049 A 
ATOM     54  H   UNL A   1      43.704  29.225  28.146  1.00  0.00     0.167 HD
ATOM     55  C   UNL A   1      42.863  31.590  29.445  1.00  0.00     0.074 A 
ATOM     56  C   UNL A   1      42.067  32.495  30.247  1.00  0.00     0.031 C 
ATOM     57  C   UNL A   1      44.083  31.884  28.936  1.00  0.00     0.034 A 
BRANCH  44  58
ATOM     58  C   UNL A   1      46.804  27.187  26.034  1.00  0.00     0.023 A 
ATOM     59  C   UNL A   1      46.980  27.477  24.667  1.00  0.00     0.012 A 
ATOM     60  C   UNL A   1      47.851  26.585  26.758  1.00  0.00     0.148 A 
ATOM     61  C   UNL A   1      48.181  27.171  24.028  1.00  0.00     0.002 A 
ATOM     62  C   UNL A   1      49.057  26.309  26.122  1.00  0.00     0.091 A 
ATOM     63  F   UNL A   1      47.654  26.314  28.056  1.00  0.00    -0.205 F 
ATOM     64  C   UNL A   1      49.221  26.600  24.757  1.00  0.00     0.022 A 
BRANCH  62  65
ATOM     65  S   UNL A   1      50.483  25.641  26.985  1.00  0.00     0.127 S 
ATOM     66  O   UNL A   1      50.812  26.731  27.903  1.00  0.00    -0.237 OA
ATOM     67  O   UNL A   1      49.926  24.450  27.626  1.00  0.00    -0.237 OA
ATOM     68  O   UNL A   1      51.483  25.371  25.961  1.00  0.00    -0.744 OA
ENDBRANCH  62  65
ENDBRANCH  44  58
BRANCH  45  69
ATOM     69  C   UNL A   1      38.618  30.122  30.847  1.00  0.00     0.023 A 
ATOM     70  C   UNL A   1      38.481  29.868  32.225  1.00  0.00     0.012 A 
ATOM     71  C   UNL A   1      37.633  30.870  30.177  1.00  0.00     0.148 A 
ATOM     72  C   UNL A   1      37.377  30.351  32.926  1.00  0.00     0.002 A 
ATOM     73  C   UNL A   1      36.556  31.380  30.889  1.00  0.00     0.091 A 
ATOM     74  F   UNL A   1      37.796  31.099  28.866  1.00  0.00    -0.205 F 
ATOM     75  C   UNL A   1      36.421  31.114  32.262  1.00  0.00     0.022 A 
BRANCH  73  76
ATOM     76  S   UNL A   1      35.329  32.464  30.150  1.00  0.00     0.127 S 
ATOM     77  O   UNL A   1      34.408  32.676  31.264  1.00  0.00    -0.237 OA
ATOM     78  O   UNL A   1      36.140  33.627  29.790  1.00  0.00    -0.237 OA
ATOM     79  O   UNL A   1      34.782  31.731  29.017  1.00  0.00    -0.744 OA
ENDBRANCH  73  76
ENDBRANCH  45  69
BRANCH  57  80
ATOM     80  C   UNL A   1      44.661  33.245  29.208  1.00  0.00     0.023 A 
ATOM     81  C   UNL A   1      45.450  33.442  30.357  1.00  0.00     0.012 A 
ATOM     82  C   UNL A   1      44.541  34.281  28.260  1.00  0.00     0.148 A 
ATOM     83  C   UNL A   1      46.112  34.652  30.559  1.00  0.00     0.002 A 
ATOM     84  C   UNL A   1      45.229  35.472  28.453  1.00  0.00     0.091 A 
ATOM     85  F   UNL A   1      43.778  34.068  27.177  1.00  0.00    -0.205 F 
ATOM     86  C   UNL A   1      46.012  35.661  29.604  1.00  0.00     0.022 A 
BRANCH  84  87
ATOM     87  S   UNL A   1      45.223  36.806  27.248  1.00  0.00     0.127 S 
ATOM     88  O   UNL A   1      43.791  37.034  27.062  1.00  0.00    -0.237 OA
ATOM     89  O   UNL A   1      45.922  37.872  27.966  1.00  0.00    -0.237 OA
ATOM     90  O   UNL A   1      45.924  36.297  26.077  1.00  0.00    -0.744 OA
ENDBRANCH  84  87
ENDBRANCH  57  80
ENDBRANCH  31  32
ENDBRANCH  24  26
ENDBRANCH  23  24
ENDBRANCH   1  23
TORSDOF 15
ENDMDL
MODEL 2
REMARK VINA RESULT:     -12.2      4.792      9.982
REMARK SMILES O=C(Cn1c2ccccc2c(=O)c2cc(F)ccc21)OCCOC(=O)c1ccc(-c2c3nc(c(-c4cccc(S(=O)(=O)[O-])c4F)c4ccc([nH]4)c(-c4cccc(S(=O)(=O)[O-])c4F)c4nc(c(-c5cccc(S(=O)(=O)[O-])c5F)c5ccc2[nH]5)C=C4)C=C3)cc1
REMARK SMILES IDX 22 1 21 2 20 3 2 4 1 5 3 6 4 7 5 8 19 9 6 10 10 11 13 12
REMARK SMILES IDX 18 13 7 14 9 15 11 16 14 17 17 18 8 19 12 20 15 21 16 22
REMARK SMILES IDX 23 23 24 24 25 25 26 26 27 27 88 28 28 29 87 30 29 31 30 32
REMARK SMILES IDX 31 33 81 34 32 35 86 36 80 37 82 38 33 39 85 40 79 41 78 42
REMARK SMILES IDX 34 44 66 45 46 46 65 47 47 48 50 49 64 50 83 51 48 52 49 53
REMARK SMILES IDX 63 55 84 56 51 57 35 58 36 59 44 60 37 61 39 62 45 63 38 64
REMARK SMILES IDX 40 65 41 66 42 67 43 68 67 69 68 70 76 71 69 72 71 73 77 74
REMARK SMILES IDX 70 75 72 76 73 77 74 78 75 79 52 80 53 81 61 82 54 83 56 84
REMARK SMILES IDX 62 85 55 86 57 87 58 88 59 89 60 90
REMARK H PARENT 82 43 50 54
REMARK Flexibility Score: inf
ROOT
ATOM      1  C   UNL A   1      31.465  30.266  25.725  1.00  0.00     0.275 C 
ENDROOT
BRANCH   1   2
ATOM      2  C   UNL A   1      31.226  28.962  24.958  1.00  0.00     0.274 C 
BRANCH   2   3
ATOM      3  O   UNL A   1      31.916  27.839  25.534  1.00  0.00    -0.461 OA
BRANCH   3   4
ATOM      4  C   UNL A   1      31.259  26.976  26.365  1.00  0.00     0.326 C 
ATOM      5  O   UNL A   1      31.306  27.143  27.580  1.00  0.00    -0.250 OA
BRANCH   4   6
ATOM      6  C   UNL A   1      30.670  25.719  25.714  1.00  0.00     0.245 C 
BRANCH   6   7
ATOM      7  N   UNL A   1      31.678  24.884  25.021  1.00  0.00    -0.329 N 
ATOM      8  C   UNL A   1      32.417  23.949  25.784  1.00  0.00     0.053 A 
ATOM      9  C   UNL A   1      31.983  25.168  23.666  1.00  0.00     0.053 A 
ATOM     10  C   UNL A   1      31.997  23.434  27.023  1.00  0.00     0.027 A 
ATOM     11  C   UNL A   1      33.634  23.453  25.292  1.00  0.00     0.046 A 
ATOM     12  C   UNL A   1      33.102  24.554  23.065  1.00  0.00     0.049 A 
ATOM     13  C   UNL A   1      31.202  25.997  22.837  1.00  0.00     0.030 A 
ATOM     14  C   UNL A   1      32.815  22.605  27.800  1.00  0.00     0.002 A 
ATOM     15  C   UNL A   1      34.466  22.627  26.065  1.00  0.00     0.014 A 
ATOM     16  C   UNL A   1      34.027  23.764  23.904  1.00  0.00     0.197 A 
ATOM     17  C   UNL A   1      33.380  24.681  21.699  1.00  0.00     0.053 A 
ATOM     18  C   UNL A   1      31.480  26.137  21.471  1.00  0.00     0.041 A 
ATOM     19  C   UNL A   1      34.065  22.226  27.334  1.00  0.00     0.001 A 
ATOM     20  O   UNL A   1      35.090  23.350  23.453  1.00  0.00    -0.288 OA
ATOM     21  C   UNL A   1      32.552  25.462  20.912  1.00  0.00     0.124 A 
ATOM     22  F   UNL A   1      32.795  25.571  19.601  1.00  0.00    -0.207 F 
ENDBRANCH   6   7
ENDBRANCH   4   6
ENDBRANCH   3   4
ENDBRANCH   2   3
ENDBRANCH   1   2
BRANCH   1  23
ATOM     23  O   UNL A   1      32.865  30.485  25.965  1.00  0.00    -0.458 OA
BRANCH  23  24
ATOM     24  C   UNL A   1      33.138  31.418  26.920  1.00  0.00     0.338 C 
ATOM     25  O   UNL A   1      32.378  32.274  27.320  1.00  0.00    -0.246 OA
BRANCH  24  26
ATOM     26  C   UNL A   1      34.444  31.109  27.561  1.00  0.00     0.060 A 
ATOM     27  C   UNL A   1      35.359  32.103  27.926  1.00  0.00     0.016 A 
ATOM     28  C   UNL A   1      34.768  29.759  27.758  1.00  0.00     0.016 A 
ATOM     29  C   UNL A   1      36.580  31.743  28.509  1.00  0.00     0.010 A 
ATOM     30  C   UNL A   1      35.985  29.403  28.346  1.00  0.00     0.010 A 
ATOM     31  C   UNL A   1      36.895  30.393  28.744  1.00  0.00    -0.014 A 
BRANCH  31  32
ATOM     32  C   UNL A   1      38.078  30.031  29.567  1.00  0.00     0.031 A 
ATOM     33  C   UNL A   1      38.286  30.550  30.960  1.00  0.00     0.074 A 
ATOM     34  C   UNL A   1      39.019  29.246  29.007  1.00  0.00     0.049 A 
ATOM     35  N   UNL A   1      39.230  30.245  31.813  1.00  0.00    -0.248 NA
ATOM     36  C   UNL A   1      37.324  31.541  31.459  1.00  0.00     0.031 C 
ATOM     37  C   UNL A   1      38.977  28.740  27.634  1.00  0.00     0.029 A 
ATOM     38  N   UNL A   1      40.192  28.746  29.513  1.00  0.00    -0.354 N 
ATOM     39  C   UNL A   1      38.987  31.011  32.946  1.00  0.00     0.074 A 
ATOM     40  C   UNL A   1      37.810  31.807  32.667  1.00  0.00     0.031 C 
ATOM     41  C   UNL A   1      40.066  27.988  27.412  1.00  0.00     0.029 A 
ATOM     42  C   UNL A   1      40.885  27.965  28.620  1.00  0.00     0.049 A 
ATOM     43  H   UNL A   1      40.507  28.932  30.427  1.00  0.00     0.167 HD
ATOM     44  C   UNL A   1      39.671  31.030  34.115  1.00  0.00     0.034 A 
ATOM     45  C   UNL A   1      42.041  27.287  28.758  1.00  0.00     0.034 A 
ATOM     46  C   UNL A   1      40.822  30.214  34.402  1.00  0.00     0.049 A 
ATOM     47  C   UNL A   1      42.758  27.296  30.076  1.00  0.00     0.074 A 
ATOM     48  C   UNL A   1      41.507  30.091  35.600  1.00  0.00     0.029 A 
ATOM     49  N   UNL A   1      41.471  29.402  33.488  1.00  0.00    -0.354 N 
ATOM     50  N   UNL A   1      42.410  27.882  31.195  1.00  0.00    -0.248 NA
ATOM     51  C   UNL A   1      44.008  26.525  30.163  1.00  0.00     0.031 C 
ATOM     52  C   UNL A   1      42.578  29.215  35.407  1.00  0.00     0.029 A 
ATOM     53  C   UNL A   1      42.555  28.785  34.090  1.00  0.00     0.049 A 
ATOM     54  H   UNL A   1      41.201  29.279  32.549  1.00  0.00     0.167 HD
ATOM     55  C   UNL A   1      43.380  27.530  32.126  1.00  0.00     0.074 A 
ATOM     56  C   UNL A   1      44.328  26.675  31.443  1.00  0.00     0.031 C 
ATOM     57  C   UNL A   1      43.472  27.895  33.426  1.00  0.00     0.034 A 
BRANCH  44  58
ATOM     58  C   UNL A   1      39.163  31.904  35.229  1.00  0.00     0.023 A 
ATOM     59  C   UNL A   1      38.299  31.346  36.191  1.00  0.00     0.012 A 
ATOM     60  C   UNL A   1      39.655  33.211  35.411  1.00  0.00     0.148 A 
ATOM     61  C   UNL A   1      37.929  32.077  37.319  1.00  0.00     0.002 A 
ATOM     62  C   UNL A   1      39.305  33.924  36.552  1.00  0.00     0.091 A 
ATOM     63  F   UNL A   1      40.470  33.721  34.476  1.00  0.00    -0.205 F 
ATOM     64  C   UNL A   1      38.441  33.359  37.505  1.00  0.00     0.022 A 
BRANCH  62  65
ATOM     65  S   UNL A   1      39.965  35.553  36.924  1.00  0.00     0.127 S 
ATOM     66  O   UNL A   1      39.318  35.851  38.201  1.00  0.00    -0.237 OA
ATOM     67  O   UNL A   1      41.402  35.292  37.013  1.00  0.00    -0.237 OA
ATOM     68  O   UNL A   1      39.569  36.411  35.815  1.00  0.00    -0.744 OA
ENDBRANCH  62  65
ENDBRANCH  44  58
BRANCH  45  69
ATOM     69  C   UNL A   1      42.517  26.449  27.628  1.00  0.00     0.023 A 
ATOM     70  C   UNL A   1      43.504  26.967  26.768  1.00  0.00     0.012 A 
ATOM     71  C   UNL A   1      42.078  25.122  27.463  1.00  0.00     0.148 A 
ATOM     72  C   UNL A   1      44.044  26.177  25.755  1.00  0.00     0.002 A 
ATOM     73  C   UNL A   1      42.648  24.330  26.475  1.00  0.00     0.091 A 
ATOM     74  F   UNL A   1      41.142  24.657  28.301  1.00  0.00    -0.205 F 
ATOM     75  C   UNL A   1      43.624  24.858  25.615  1.00  0.00     0.022 A 
BRANCH  73  76
ATOM     76  S   UNL A   1      42.255  22.587  26.283  1.00  0.00     0.127 S 
ATOM     77  O   UNL A   1      42.957  22.258  25.045  1.00  0.00    -0.237 OA
ATOM     78  O   UNL A   1      42.842  22.016  27.496  1.00  0.00    -0.237 OA
ATOM     79  O   UNL A   1      40.803  22.511  26.219  1.00  0.00    -0.744 OA
ENDBRANCH  73  76
ENDBRANCH  45  69
BRANCH  57  80
ATOM     80  C   UNL A   1      44.628  27.376  34.234  1.00  0.00     0.023 A 
ATOM     81  C   UNL A   1      45.798  28.153  34.340  1.00  0.00     0.012 A 
ATOM     82  C   UNL A   1      44.504  26.198  34.997  1.00  0.00     0.148 A 
ATOM     83  C   UNL A   1      46.829  27.763  35.194  1.00  0.00     0.002 A 
ATOM     84  C   UNL A   1      45.522  25.833  35.868  1.00  0.00     0.091 A 
ATOM     85  F   UNL A   1      43.381  25.475  34.872  1.00  0.00    -0.205 F 
ATOM     86  C   UNL A   1      46.687  26.612  35.965  1.00  0.00     0.022 A 
BRANCH  84  87
ATOM     87  S   UNL A   1      45.406  24.409  36.959  1.00  0.00     0.127 S 
ATOM     88  O   UNL A   1      45.009  23.353  36.029  1.00  0.00    -0.237 OA
ATOM     89  O   UNL A   1      46.774  24.295  37.463  1.00  0.00    -0.237 OA
ATOM     90  O   UNL A   1      44.410  24.750  37.965  1.00  0.00    -0.744 OA
ENDBRANCH  84  87
ENDBRANCH  57  80
ENDBRANCH  31  32
ENDBRANCH  24  26
ENDBRANCH  23  24
ENDBRANCH   1  23
TORSDOF 15
ENDMDL
MODEL 3
REMARK VINA RESULT:     -12.1      1.922      8.141
REMARK SMILES O=C(Cn1c2ccccc2c(=O)c2cc(F)ccc21)OCCOC(=O)c1ccc(-c2c3nc(c(-c4cccc(S(=O)(=O)[O-])c4F)c4ccc([nH]4)c(-c4cccc(S(=O)(=O)[O-])c4F)c4nc(c(-c5cccc(S(=O)(=O)[O-])c5F)c5ccc2[nH]5)C=C4)C=C3)cc1
REMARK SMILES IDX 22 1 21 2 20 3 2 4 1 5 3 6 4 7 5 8 19 9 6 10 10 11 13 12
REMARK SMILES IDX 18 13 7 14 9 15 11 16 14 17 17 18 8 19 12 20 15 21 16 22
REMARK SMILES IDX 23 23 24 24 25 25 26 26 27 27 88 28 28 29 87 30 29 31 30 32
REMARK SMILES IDX 31 33 81 34 32 35 86 36 80 37 82 38 33 39 85 40 79 41 78 42
REMARK SMILES IDX 34 44 66 45 46 46 65 47 47 48 50 49 64 50 83 51 48 52 49 53
REMARK SMILES IDX 63 55 84 56 51 57 35 58 36 59 44 60 37 61 39 62 45 63 38 64
REMARK SMILES IDX 40 65 41 66 42 67 43 68 67 69 68 70 76 71 69 72 71 73 77 74
REMARK SMILES IDX 70 75 72 76 73 77 74 78 75 79 52 80 53 81 61 82 54 83 56 84
REMARK SMILES IDX 62 85 55 86 57 87 58 88 59 89 60 90
REMARK H PARENT 82 43 50 54
REMARK Flexibility Score: inf
ROOT
ATOM      1  C   UNL A   1      39.100  19.200  25.725  1.00  0.00     0.275 C 
ENDROOT
BRANCH   1   2
ATOM      2  C   UNL A   1      37.918  19.868  25.013  1.00  0.00     0.274 C 
BRANCH   2   3
ATOM      3  O   UNL A   1      38.082  21.290  24.871  1.00  0.00    -0.461 OA
BRANCH   3   4
ATOM      4  C   UNL A   1      36.998  22.091  24.650  1.00  0.00     0.326 C 
ATOM      5  O   UNL A   1      37.002  22.879  23.708  1.00  0.00    -0.250 OA
BRANCH   4   6
ATOM      6  C   UNL A   1      35.919  22.093  25.739  1.00  0.00     0.245 C 
BRANCH   6   7
ATOM      7  N   UNL A   1      34.545  22.248  25.210  1.00  0.00    -0.329 N 
ATOM      8  C   UNL A   1      33.884  21.101  24.709  1.00  0.00     0.053 A 
ATOM      9  C   UNL A   1      34.012  23.554  25.067  1.00  0.00     0.053 A 
ATOM     10  C   UNL A   1      34.221  19.781  25.056  1.00  0.00     0.027 A 
ATOM     11  C   UNL A   1      32.794  21.249  23.836  1.00  0.00     0.046 A 
ATOM     12  C   UNL A   1      32.815  23.738  24.344  1.00  0.00     0.049 A 
ATOM     13  C   UNL A   1      34.573  24.705  25.653  1.00  0.00     0.030 A 
ATOM     14  C   UNL A   1      33.621  18.674  24.445  1.00  0.00     0.002 A 
ATOM     15  C   UNL A   1      32.189  20.146  23.212  1.00  0.00     0.014 A 
ATOM     16  C   UNL A   1      32.234  22.595  23.610  1.00  0.00     0.197 A 
ATOM     17  C   UNL A   1      32.162  24.975  24.281  1.00  0.00     0.053 A 
ATOM     18  C   UNL A   1      33.931  25.948  25.586  1.00  0.00     0.041 A 
ATOM     19  C   UNL A   1      32.624  18.857  23.498  1.00  0.00     0.001 A 
ATOM     20  O   UNL A   1      31.287  22.751  22.844  1.00  0.00    -0.288 OA
ATOM     21  C   UNL A   1      32.723  26.066  24.920  1.00  0.00     0.124 A 
ATOM     22  F   UNL A   1      32.096  27.247  24.886  1.00  0.00    -0.207 F 
ENDBRANCH   6   7
ENDBRANCH   4   6
ENDBRANCH   3   4
ENDBRANCH   2   3
ENDBRANCH   1   2
BRANCH   1  23
ATOM     23  O   UNL A   1      40.268  20.037  25.702  1.00  0.00    -0.458 OA
BRANCH  23  24
ATOM     24  C   UNL A   1      40.938  20.110  26.887  1.00  0.00     0.338 C 
ATOM     25  O   UNL A   1      41.417  19.175  27.494  1.00  0.00    -0.246 OA
BRANCH  24  26
ATOM     26  C   UNL A   1      41.184  21.534  27.235  1.00  0.00     0.060 A 
ATOM     27  C   UNL A   1      41.788  21.923  28.436  1.00  0.00     0.016 A 
ATOM     28  C   UNL A   1      40.746  22.510  26.328  1.00  0.00     0.016 A 
ATOM     29  C   UNL A   1      41.974  23.283  28.711  1.00  0.00     0.010 A 
ATOM     30  C   UNL A   1      40.938  23.867  26.603  1.00  0.00     0.010 A 
ATOM     31  C   UNL A   1      41.570  24.266  27.789  1.00  0.00    -0.014 A 
BRANCH  31  32
ATOM     32  C   UNL A   1      41.976  25.682  27.978  1.00  0.00     0.031 A 
ATOM     33  C   UNL A   1      41.065  26.714  28.577  1.00  0.00     0.074 A 
ATOM     34  C   UNL A   1      43.195  26.052  27.541  1.00  0.00     0.049 A 
ATOM     35  N   UNL A   1      41.326  27.961  28.874  1.00  0.00    -0.248 NA
ATOM     36  C   UNL A   1      39.686  26.303  28.873  1.00  0.00     0.031 C 
ATOM     37  C   UNL A   1      44.147  25.167  26.868  1.00  0.00     0.029 A 
ATOM     38  N   UNL A   1      43.838  27.263  27.586  1.00  0.00    -0.354 N 
ATOM     39  C   UNL A   1      40.146  28.492  29.380  1.00  0.00     0.074 A 
ATOM     40  C   UNL A   1      39.161  27.431  29.341  1.00  0.00     0.031 C 
ATOM     41  C   UNL A   1      45.259  25.859  26.578  1.00  0.00     0.029 A 
ATOM     42  C   UNL A   1      45.097  27.236  27.035  1.00  0.00     0.049 A 
ATOM     43  H   UNL A   1      43.436  28.074  27.974  1.00  0.00     0.167 HD
ATOM     44  C   UNL A   1      39.917  29.739  29.854  1.00  0.00     0.034 A 
ATOM     45  C   UNL A   1      46.030  28.202  26.925  1.00  0.00     0.034 A 
ATOM     46  C   UNL A   1      40.905  30.783  29.923  1.00  0.00     0.049 A 
ATOM     47  C   UNL A   1      45.762  29.565  27.491  1.00  0.00     0.074 A 
ATOM     48  C   UNL A   1      40.786  32.041  30.491  1.00  0.00     0.029 A 
ATOM     49  N   UNL A   1      42.183  30.706  29.395  1.00  0.00    -0.354 N 
ATOM     50  N   UNL A   1      44.703  29.992  28.134  1.00  0.00    -0.248 NA
ATOM     51  C   UNL A   1      46.826  30.571  27.348  1.00  0.00     0.031 C 
ATOM     52  C   UNL A   1      41.985  32.729  30.294  1.00  0.00     0.029 A 
ATOM     53  C   UNL A   1      42.856  31.896  29.611  1.00  0.00     0.049 A 
ATOM     54  H   UNL A   1      42.558  29.921  28.935  1.00  0.00     0.167 HD
ATOM     55  C   UNL A   1      44.982  31.304  28.497  1.00  0.00     0.074 A 
ATOM     56  C   UNL A   1      46.312  31.602  28.008  1.00  0.00     0.031 C 
ATOM     57  C   UNL A   1      44.197  32.179  29.169  1.00  0.00     0.034 A 
BRANCH  44  58
ATOM     58  C   UNL A   1      38.557  30.052  30.421  1.00  0.00     0.023 A 
ATOM     59  C   UNL A   1      38.277  29.693  31.753  1.00  0.00     0.012 A 
ATOM     60  C   UNL A   1      37.630  30.829  29.700  1.00  0.00     0.148 A 
ATOM     61  C   UNL A   1      37.091  30.099  32.361  1.00  0.00     0.002 A 
ATOM     62  C   UNL A   1      36.461  31.255  30.321  1.00  0.00     0.091 A 
ATOM     63  F   UNL A   1      37.918  31.151  28.431  1.00  0.00    -0.205 F 
ATOM     64  C   UNL A   1      36.190  30.888  31.650  1.00  0.00     0.022 A 
BRANCH  62  65
ATOM     65  S   UNL A   1      35.269  32.334  29.520  1.00  0.00     0.127 S 
ATOM     66  O   UNL A   1      34.330  32.599  30.610  1.00  0.00    -0.237 OA
ATOM     67  O   UNL A   1      36.097  33.477  29.136  1.00  0.00    -0.237 OA
ATOM     68  O   UNL A   1      34.723  31.574  28.404  1.00  0.00    -0.744 OA
ENDBRANCH  62  65
ENDBRANCH  44  58
BRANCH  45  69
ATOM     69  C   UNL A   1      47.352  27.856  26.343  1.00  0.00     0.023 A 
ATOM     70  C   UNL A   1      48.381  27.430  27.204  1.00  0.00     0.012 A 
ATOM     71  C   UNL A   1      47.562  27.850  24.952  1.00  0.00     0.148 A 
ATOM     72  C   UNL A   1      49.604  27.006  26.688  1.00  0.00     0.002 A 
ATOM     73  C   UNL A   1      48.770  27.391  24.444  1.00  0.00     0.091 A 
ATOM     74  F   UNL A   1      46.561  28.257  24.159  1.00  0.00    -0.205 F 
ATOM     75  C   UNL A   1      49.795  26.978  25.310  1.00  0.00     0.022 A 
BRANCH  73  76
ATOM     76  S   UNL A   1      49.076  27.212  22.682  1.00  0.00     0.127 S 
ATOM     77  O   UNL A   1      48.509  28.451  22.154  1.00  0.00    -0.237 OA
ATOM     78  O   UNL A   1      50.536  27.135  22.641  1.00  0.00    -0.237 OA
ATOM     79  O   UNL A   1      48.392  25.991  22.282  1.00  0.00    -0.744 OA
ENDBRANCH  73  76
ENDBRANCH  45  69
BRANCH  57  80
ATOM     80  C   UNL A   1      44.733  33.556  29.443  1.00  0.00     0.023 A 
ATOM     81  C   UNL A   1      45.455  33.791  30.628  1.00  0.00     0.012 A 
ATOM     82  C   UNL A   1      44.645  34.570  28.468  1.00  0.00     0.148 A 
ATOM     83  C   UNL A   1      46.082  35.019  30.841  1.00  0.00     0.002 A 
ATOM     84  C   UNL A   1      45.298  35.779  28.674  1.00  0.00     0.091 A 
ATOM     85  F   UNL A   1      43.945  34.321  27.351  1.00  0.00    -0.205 F 
ATOM     86  C   UNL A   1      46.014  36.006  29.861  1.00  0.00     0.022 A 
BRANCH  84  87
ATOM     87  S   UNL A   1      45.332  37.089  27.443  1.00  0.00     0.127 S 
ATOM     88  O   UNL A   1      46.032  38.153  28.161  1.00  0.00    -0.237 OA
ATOM     89  O   UNL A   1      46.102  36.474  26.362  1.00  0.00    -0.237 OA
ATOM     90  O   UNL A   1      43.942  37.375  27.118  1.00  0.00    -0.744 OA
ENDBRANCH  84  87
ENDBRANCH  57  80
ENDBRANCH  31  32
ENDBRANCH  24  26
ENDBRANCH  23  24
ENDBRANCH   1  23
TORSDOF 15
ENDMDL
