MODEL 1
REMARK VINA RESULT:     -12.1      0.000      0.000
REMARK SMILES O=C(OCCOC(=O)[C@H](NC(=O)[C@H]1CC(=O)N(CC2CC2)C1)c1ccccc1C(F)(F)F)c1ccc(-c2c3nc(c(-c4cccc(S(=O)(=O)[O-])c4F)c4ccc([nH]4)c(-c4cccc(S(=O)(=O)[O-])c4F)c4nc(c(-c5cccc(S(=O)(=O)[O-])c5F)c5ccc2[nH]5)C=C4)C=C3)cc1
REMARK SMILES IDX 5 1 4 2 3 3 2 4 1 5 33 6 34 7 95 8 35 9 94 10 36 11 37 12
REMARK SMILES IDX 38 13 88 14 39 15 93 16 87 17 89 18 40 19 92 20 86 21 85 22
REMARK SMILES IDX 41 24 73 25 53 26 72 27 54 28 57 29 71 30 90 31 55 32 56 33
REMARK SMILES IDX 70 35 91 36 58 37 42 38 43 39 51 40 44 41 46 42 52 43 45 44
REMARK SMILES IDX 47 45 48 46 49 47 50 48 74 49 75 50 83 51 76 52 78 53 84 54
REMARK SMILES IDX 77 55 79 56 80 57 81 58 82 59 59 60 60 61 68 62 61 63 63 64
REMARK SMILES IDX 69 65 62 66 64 67 65 68 66 69 67 70 6 71 7 72 8 73 9 74
REMARK SMILES IDX 23 75 24 76 28 77 25 78 27 79 26 80 29 81 30 82 31 83 32 84
REMARK SMILES IDX 10 85 11 86 12 88 13 89 14 90 22 91 15 92 17 93 16 94 18 95
REMARK SMILES IDX 19 96 20 97 21 98
REMARK H PARENT 89 23 57 34 10 87
REMARK Flexibility Score: inf
ROOT
ATOM      1  C   UNL A   1      36.996  21.262  25.643  1.00  0.00     0.274 C 
ENDROOT
BRANCH   1   2
ATOM      2  C   UNL A   1      38.412  21.129  25.087  1.00  0.00     0.275 C 
BRANCH   2   3
ATOM      3  O   UNL A   1      39.267  20.203  25.810  1.00  0.00    -0.458 OA
BRANCH   3   4
ATOM      4  C   UNL A   1      40.602  20.128  26.049  1.00  0.00     0.338 C 
ATOM      5  O   UNL A   1      41.138  19.020  26.009  1.00  0.00    -0.246 OA
BRANCH   4   6
ATOM      6  C   UNL A   1      41.443  21.277  26.528  1.00  0.00     0.060 A 
ATOM      7  C   UNL A   1      42.093  22.188  25.709  1.00  0.00     0.016 A 
ATOM      8  C   UNL A   1      41.486  21.523  27.917  1.00  0.00     0.016 A 
ATOM      9  C   UNL A   1      42.473  23.440  26.222  1.00  0.00     0.010 A 
ATOM     10  C   UNL A   1      41.781  22.816  28.409  1.00  0.00     0.010 A 
ATOM     11  C   UNL A   1      42.087  23.847  27.514  1.00  0.00    -0.014 A 
BRANCH  11  12
ATOM     12  C   UNL A   1      42.071  25.313  27.964  1.00  0.00     0.031 A 
ATOM     13  C   UNL A   1      43.483  25.964  27.750  1.00  0.00     0.074 A 
ATOM     14  C   UNL A   1      40.996  26.216  28.235  1.00  0.00     0.049 A 
ATOM     15  N   UNL A   1      43.901  27.210  27.816  1.00  0.00    -0.248 NA
ATOM     16  C   UNL A   1      44.520  25.046  27.213  1.00  0.00     0.031 C 
ATOM     17  C   UNL A   1      38.973  26.765  27.738  1.00  0.00     0.029 A 
ATOM     18  N   UNL A   1      41.558  27.764  29.142  1.00  0.00    -0.354 N 
ATOM     19  C   UNL A   1      45.202  27.222  27.299  1.00  0.00     0.074 A 
ATOM     20  C   UNL A   1      45.505  25.868  26.901  1.00  0.00     0.031 C 
ATOM     21  C   UNL A   1      38.700  28.355  28.328  1.00  0.00     0.029 A 
ATOM     22  C   UNL A   1      40.248  29.042  29.222  1.00  0.00     0.049 A 
ATOM     23  H   UNL A   1      42.456  27.876  29.530  1.00  0.00     0.167 HD
ATOM     24  C   UNL A   1      46.101  28.224  27.132  1.00  0.00     0.034 A 
ATOM     25  C   UNL A   1      40.227  29.897  30.304  1.00  0.00     0.034 A 
ATOM     26  C   UNL A   1      45.975  29.585  27.572  1.00  0.00     0.049 A 
ATOM     27  C   UNL A   1      41.454  30.742  30.429  1.00  0.00     0.074 A 
ATOM     28  C   UNL A   1      46.887  30.615  27.379  1.00  0.00     0.029 A 
ATOM     29  N   UNL A   1      44.967  30.093  28.366  1.00  0.00    -0.354 N 
ATOM     30  N   UNL A   1      42.585  30.644  29.785  1.00  0.00    -0.248 NA
ATOM     31  C   UNL A   1      41.309  31.975  31.225  1.00  0.00     0.031 C 
ATOM     32  C   UNL A   1      46.474  31.719  28.123  1.00  0.00     0.029 A 
ATOM     33  C   UNL A   1      45.263  31.407  28.708  1.00  0.00     0.049 A 
ATOM     34  H   UNL A   1      44.163  29.601  28.647  1.00  0.00     0.167 HD
ATOM     35  C   UNL A   1      43.243  31.838  30.024  1.00  0.00     0.074 A 
ATOM     36  C   UNL A   1      42.387  32.648  30.859  1.00  0.00     0.031 C 
ATOM     37  C   UNL A   1      44.438  32.236  29.538  1.00  0.00     0.034 A 
BRANCH  24  38
ATOM     38  C   UNL A   1      47.403  27.870  26.451  1.00  0.00     0.023 A 
ATOM     39  C   UNL A   1      48.524  27.486  27.215  1.00  0.00     0.012 A 
ATOM     40  C   UNL A   1      47.477  27.848  25.045  1.00  0.00     0.148 A 
ATOM     41  C   UNL A   1      49.710  27.110  26.586  1.00  0.00     0.002 A 
ATOM     42  C   UNL A   1      48.644  27.426  24.427  1.00  0.00     0.091 A 
ATOM     43  F   UNL A   1      46.400  28.232  24.346  1.00  0.00    -0.205 F 
ATOM     44  C   UNL A   1      49.766  27.069  25.194  1.00  0.00     0.022 A 
BRANCH  42  45
ATOM     45  S   UNL A   1      48.788  27.263  22.646  1.00  0.00     0.127 S 
ATOM     46  O   UNL A   1      48.406  25.866  22.447  1.00  0.00    -0.237 OA
ATOM     47  O   UNL A   1      47.806  28.239  22.173  1.00  0.00    -0.237 OA
ATOM     48  O   UNL A   1      50.172  27.577  22.320  1.00  0.00    -0.744 OA
ENDBRANCH  42  45
ENDBRANCH  24  38
BRANCH  25  49
ATOM     49  C   UNL A   1      39.059  30.292  31.179  1.00  0.00     0.023 A 
ATOM     50  C   UNL A   1      38.909  29.742  32.457  1.00  0.00     0.012 A 
ATOM     51  C   UNL A   1      37.998  31.128  30.695  1.00  0.00     0.148 A 
ATOM     52  C   UNL A   1      37.821  30.097  33.268  1.00  0.00     0.002 A 
ATOM     53  C   UNL A   1      36.994  31.589  31.558  1.00  0.00     0.091 A 
ATOM     54  F   UNL A   1      37.970  31.468  29.400  1.00  0.00    -0.205 F 
ATOM     55  C   UNL A   1      36.903  31.061  32.847  1.00  0.00     0.022 A 
BRANCH  53  56
ATOM     56  S   UNL A   1      35.993  33.076  31.222  1.00  0.00     0.127 S 
ATOM     57  O   UNL A   1      34.734  32.515  30.746  1.00  0.00    -0.237 OA
ATOM     58  O   UNL A   1      35.916  33.694  32.551  1.00  0.00    -0.237 OA
ATOM     59  O   UNL A   1      36.752  33.863  30.260  1.00  0.00    -0.744 OA
ENDBRANCH  53  56
ENDBRANCH  25  49
BRANCH  37  60
ATOM     60  C   UNL A   1      44.871  33.639  29.848  1.00  0.00     0.023 A 
ATOM     61  C   UNL A   1      45.698  33.901  30.958  1.00  0.00     0.012 A 
ATOM     62  C   UNL A   1      44.439  34.708  29.040  1.00  0.00     0.148 A 
ATOM     63  C   UNL A   1      46.041  35.209  31.292  1.00  0.00     0.002 A 
ATOM     64  C   UNL A   1      44.841  36.002  29.338  1.00  0.00     0.091 A 
ATOM     65  F   UNL A   1      43.629  34.441  28.004  1.00  0.00    -0.205 F 
ATOM     66  C   UNL A   1      45.623  36.257  30.475  1.00  0.00     0.022 A 
BRANCH  64  67
ATOM     67  S   UNL A   1      44.431  37.403  28.294  1.00  0.00     0.127 S 
ATOM     68  O   UNL A   1      43.100  37.763  28.783  1.00  0.00    -0.237 OA
ATOM     69  O   UNL A   1      45.486  38.357  28.638  1.00  0.00    -0.237 OA
ATOM     70  O   UNL A   1      44.473  36.916  26.922  1.00  0.00    -0.744 OA
ENDBRANCH  64  67
ENDBRANCH  37  60
ENDBRANCH  11  12
ENDBRANCH   4   6
ENDBRANCH   3   4
ENDBRANCH   2   3
ENDBRANCH   1   2
BRANCH   1  71
ATOM     71  O   UNL A   1      36.044  21.214  24.586  1.00  0.00    -0.460 OA
BRANCH  71  72
ATOM     72  C   UNL A   1      35.669  22.405  24.042  1.00  0.00     0.333 C 
ATOM     73  O   UNL A   1      36.441  23.219  23.548  1.00  0.00    -0.249 OA
BRANCH  72  74
ATOM     74  C   UNL A   1      34.138  22.507  23.986  1.00  0.00     0.224 C 
BRANCH  74  75
ATOM     75  C   UNL A   1      33.399  21.054  24.350  1.00  0.00    -0.002 A 
ATOM     76  C   UNL A   1      33.280  20.171  25.869  1.00  0.00     0.007 A 
ATOM     77  C   UNL A   1      32.845  20.445  23.006  1.00  0.00     0.061 A 
ATOM     78  C   UNL A   1      32.845  18.478  26.081  1.00  0.00     0.000 A 
ATOM     79  C   UNL A   1      32.482  18.761  22.866  1.00  0.00     0.013 A 
ATOM     80  C   UNL A   1      32.417  17.591  24.604  1.00  0.00     0.001 A 
BRANCH  77  81
ATOM     81  C   UNL A   1      32.081  21.621  22.467  1.00  0.00     0.416 C 
ATOM     82  F   UNL A   1      31.173  20.983  21.819  1.00  0.00    -0.166 F 
ATOM     83  F   UNL A   1      31.343  22.559  23.019  1.00  0.00    -0.166 F 
ATOM     84  F   UNL A   1      32.764  22.364  21.532  1.00  0.00    -0.166 F 
ENDBRANCH  77  81
ENDBRANCH  74  75
BRANCH  74  85
ATOM     85  N   UNL A   1      33.719  24.098  24.454  1.00  0.00    -0.339 N 
ATOM     86  C   UNL A   1      33.079  25.354  24.283  1.00  0.00     0.226 C 
ATOM     87  H   UNL A   1      34.172  24.199  25.322  1.00  0.00     0.164 HD
ATOM     88  O   UNL A   1      33.321  26.130  25.235  1.00  0.00    -0.275 OA
BRANCH  86  89
ATOM     89  C   UNL A   1      31.921  25.981  23.159  1.00  0.00     0.107 C 
ATOM     90  C   UNL A   1      30.449  25.646  23.372  1.00  0.00     0.115 C 
ATOM     91  C   UNL A   1      31.830  27.541  22.820  1.00  0.00     0.133 C 
ATOM     92  C   UNL A   1      29.709  26.974  23.519  1.00  0.00     0.223 C 
ATOM     93  N   UNL A   1      30.617  28.050  23.486  1.00  0.00    -0.342 N 
ATOM     94  O   UNL A   1      28.505  27.003  23.716  1.00  0.00    -0.275 OA
BRANCH  93  95
ATOM     95  C   UNL A   1      30.284  29.539  23.687  1.00  0.00     0.123 C 
BRANCH  95  96
ATOM     96  C   UNL A   1      29.105  30.487  23.087  1.00  0.00     0.008 C 
ATOM     97  C   UNL A   1      27.624  30.935  23.410  1.00  0.00     0.006 C 
ATOM     98  C   UNL A   1      28.770  31.780  23.831  1.00  0.00     0.006 C 
ENDBRANCH  95  96
ENDBRANCH  93  95
ENDBRANCH  86  89
ENDBRANCH  74  85
ENDBRANCH  72  74
ENDBRANCH  71  72
ENDBRANCH   1  71
TORSDOF 20
ENDMDL
MODEL 2
REMARK VINA RESULT:     -11.5      1.762      2.054
REMARK SMILES O=C(OCCOC(=O)[C@H](NC(=O)[C@H]1CC(=O)N(CC2CC2)C1)c1ccccc1C(F)(F)F)c1ccc(-c2c3nc(c(-c4cccc(S(=O)(=O)[O-])c4F)c4ccc([nH]4)c(-c4cccc(S(=O)(=O)[O-])c4F)c4nc(c(-c5cccc(S(=O)(=O)[O-])c5F)c5ccc2[nH]5)C=C4)C=C3)cc1
REMARK SMILES IDX 5 1 4 2 3 3 2 4 1 5 33 6 34 7 95 8 35 9 94 10 36 11 37 12
REMARK SMILES IDX 38 13 88 14 39 15 93 16 87 17 89 18 40 19 92 20 86 21 85 22
REMARK SMILES IDX 41 24 73 25 53 26 72 27 54 28 57 29 71 30 90 31 55 32 56 33
REMARK SMILES IDX 70 35 91 36 58 37 42 38 43 39 51 40 44 41 46 42 52 43 45 44
REMARK SMILES IDX 47 45 48 46 49 47 50 48 74 49 75 50 83 51 76 52 78 53 84 54
REMARK SMILES IDX 77 55 79 56 80 57 81 58 82 59 59 60 60 61 68 62 61 63 63 64
REMARK SMILES IDX 69 65 62 66 64 67 65 68 66 69 67 70 6 71 7 72 8 73 9 74
REMARK SMILES IDX 23 75 24 76 28 77 25 78 27 79 26 80 29 81 30 82 31 83 32 84
REMARK SMILES IDX 10 85 11 86 12 88 13 89 14 90 22 91 15 92 17 93 16 94 18 95
REMARK SMILES IDX 19 96 20 97 21 98
REMARK H PARENT 89 23 57 34 10 87
REMARK Flexibility Score: inf
ROOT
ATOM      1  C   UNL A   1      36.870  21.562  25.765  1.00  0.00     0.274 C 
ENDROOT
BRANCH   1   2
ATOM      2  C   UNL A   1      38.184  21.251  25.051  1.00  0.00     0.275 C 
BRANCH   2   3
ATOM      3  O   UNL A   1      38.976  20.199  25.664  1.00  0.00    -0.458 OA
BRANCH   3   4
ATOM      4  C   UNL A   1      40.298  20.037  25.935  1.00  0.00     0.338 C 
ATOM      5  O   UNL A   1      40.766  18.900  25.885  1.00  0.00    -0.246 OA
BRANCH   4   6
ATOM      6  C   UNL A   1      41.194  21.124  26.460  1.00  0.00     0.060 A 
ATOM      7  C   UNL A   1      42.035  21.910  25.687  1.00  0.00     0.016 A 
ATOM      8  C   UNL A   1      41.092  21.453  27.829  1.00  0.00     0.016 A 
ATOM      9  C   UNL A   1      42.482  23.147  26.181  1.00  0.00     0.010 A 
ATOM     10  C   UNL A   1      41.463  22.737  28.289  1.00  0.00     0.010 A 
ATOM     11  C   UNL A   1      41.987  23.673  27.389  1.00  0.00    -0.014 A 
BRANCH  11  12
ATOM     12  C   UNL A   1      42.076  25.158  27.759  1.00  0.00     0.031 A 
ATOM     13  C   UNL A   1      43.500  25.721  27.416  1.00  0.00     0.074 A 
ATOM     14  C   UNL A   1      41.068  26.130  28.052  1.00  0.00     0.049 A 
ATOM     15  N   UNL A   1      43.983  26.945  27.386  1.00  0.00    -0.248 NA
ATOM     16  C   UNL A   1      44.450  24.724  26.861  1.00  0.00     0.031 C 
ATOM     17  C   UNL A   1      39.045  26.761  27.663  1.00  0.00     0.029 A 
ATOM     18  N   UNL A   1      41.768  27.691  28.834  1.00  0.00    -0.354 N 
ATOM     19  C   UNL A   1      45.243  26.862  26.783  1.00  0.00     0.074 A 
ATOM     20  C   UNL A   1      45.450  25.474  26.440  1.00  0.00     0.031 C 
ATOM     21  C   UNL A   1      38.893  28.391  28.183  1.00  0.00     0.029 A 
ATOM     22  C   UNL A   1      40.532  29.038  28.932  1.00  0.00     0.049 A 
ATOM     23  H   UNL A   1      42.696  27.774  29.154  1.00  0.00     0.167 HD
ATOM     24  C   UNL A   1      46.177  27.805  26.501  1.00  0.00     0.034 A 
ATOM     25  C   UNL A   1      40.629  29.948  29.965  1.00  0.00     0.034 A 
ATOM     26  C   UNL A   1      46.150  29.191  26.874  1.00  0.00     0.049 A 
ATOM     27  C   UNL A   1      41.903  30.731  29.961  1.00  0.00     0.074 A 
ATOM     28  C   UNL A   1      47.096  30.160  26.565  1.00  0.00     0.029 A 
ATOM     29  N   UNL A   1      45.227  29.791  27.705  1.00  0.00    -0.354 N 
ATOM     30  N   UNL A   1      42.979  30.541  29.248  1.00  0.00    -0.248 NA
ATOM     31  C   UNL A   1      41.875  32.009  30.697  1.00  0.00     0.031 C 
ATOM     32  C   UNL A   1      46.792  31.321  27.274  1.00  0.00     0.029 A 
ATOM     33  C   UNL A   1      45.610  31.104  27.954  1.00  0.00     0.049 A 
ATOM     34  H   UNL A   1      44.420  29.358  28.066  1.00  0.00     0.167 HD
ATOM     35  C   UNL A   1      43.711  31.709  29.378  1.00  0.00     0.074 A 
ATOM     36  C   UNL A   1      42.956  32.605  30.223  1.00  0.00     0.031 C 
ATOM     37  C   UNL A   1      44.887  32.017  28.792  1.00  0.00     0.034 A 
BRANCH  24  38
ATOM     38  C   UNL A   1      47.409  27.347  25.755  1.00  0.00     0.023 A 
ATOM     39  C   UNL A   1      47.486  27.492  24.354  1.00  0.00     0.012 A 
ATOM     40  C   UNL A   1      48.515  26.845  26.465  1.00  0.00     0.148 A 
ATOM     41  C   UNL A   1      48.642  27.118  23.670  1.00  0.00     0.002 A 
ATOM     42  C   UNL A   1      49.678  26.521  25.783  1.00  0.00     0.091 A 
ATOM     43  F   UNL A   1      48.407  26.705  27.793  1.00  0.00    -0.205 F 
ATOM     44  C   UNL A   1      49.740  26.643  24.384  1.00  0.00     0.022 A 
BRANCH  42  45
ATOM     45  S   UNL A   1      51.169  25.978  26.621  1.00  0.00     0.127 S 
ATOM     46  O   UNL A   1      50.720  24.731  27.238  1.00  0.00    -0.237 OA
ATOM     47  O   UNL A   1      52.098  25.808  25.504  1.00  0.00    -0.237 OA
ATOM     48  O   UNL A   1      51.518  27.039  27.555  1.00  0.00    -0.744 OA
ENDBRANCH  42  45
ENDBRANCH  24  38
BRANCH  25  49
ATOM     49  C   UNL A   1      39.546  30.448  30.893  1.00  0.00     0.023 A 
ATOM     50  C   UNL A   1      39.461  29.976  32.207  1.00  0.00     0.012 A 
ATOM     51  C   UNL A   1      38.495  31.310  30.435  1.00  0.00     0.148 A 
ATOM     52  C   UNL A   1      38.451  30.429  33.069  1.00  0.00     0.002 A 
ATOM     53  C   UNL A   1      37.577  31.868  31.338  1.00  0.00     0.091 A 
ATOM     54  F   UNL A   1      38.391  31.582  29.129  1.00  0.00    -0.205 F 
ATOM     55  C   UNL A   1      37.553  31.415  32.658  1.00  0.00     0.022 A 
BRANCH  53  56
ATOM     56  S   UNL A   1      36.627  33.384  30.987  1.00  0.00     0.127 S 
ATOM     57  O   UNL A   1      37.427  34.033  29.955  1.00  0.00    -0.237 OA
ATOM     58  O   UNL A   1      35.352  32.837  30.509  1.00  0.00    -0.237 OA
ATOM     59  O   UNL A   1      36.515  34.091  32.254  1.00  0.00    -0.744 OA
ENDBRANCH  53  56
ENDBRANCH  25  49
BRANCH  37  60
ATOM     60  C   UNL A   1      45.410  33.409  28.995  1.00  0.00     0.023 A 
ATOM     61  C   UNL A   1      45.044  34.444  28.112  1.00  0.00     0.012 A 
ATOM     62  C   UNL A   1      46.286  33.686  30.063  1.00  0.00     0.148 A 
ATOM     63  C   UNL A   1      45.586  35.720  28.255  1.00  0.00     0.002 A 
ATOM     64  C   UNL A   1      46.768  34.976  30.240  1.00  0.00     0.091 A 
ATOM     65  F   UNL A   1      46.644  32.681  30.876  1.00  0.00    -0.205 F 
ATOM     66  C   UNL A   1      46.437  35.988  29.325  1.00  0.00     0.022 A 
BRANCH  64  67
ATOM     67  S   UNL A   1      47.792  35.438  31.639  1.00  0.00     0.127 S 
ATOM     68  O   UNL A   1      46.838  35.370  32.745  1.00  0.00    -0.237 OA
ATOM     69  O   UNL A   1      48.803  34.380  31.637  1.00  0.00    -0.237 OA
ATOM     70  O   UNL A   1      48.304  36.771  31.347  1.00  0.00    -0.744 OA
ENDBRANCH  64  67
ENDBRANCH  37  60
ENDBRANCH  11  12
ENDBRANCH   4   6
ENDBRANCH   3   4
ENDBRANCH   2   3
ENDBRANCH   1   2
BRANCH   1  71
ATOM     71  O   UNL A   1      35.835  21.794  24.816  1.00  0.00    -0.460 OA
BRANCH  71  72
ATOM     72  C   UNL A   1      35.301  23.047  24.783  1.00  0.00     0.333 C 
ATOM     73  O   UNL A   1      35.954  24.084  24.821  1.00  0.00    -0.249 OA
BRANCH  72  74
ATOM     74  C   UNL A   1      33.790  22.975  24.526  1.00  0.00     0.224 C 
BRANCH  74  75
ATOM     75  C   UNL A   1      33.200  21.421  24.684  1.00  0.00    -0.002 A 
ATOM     76  C   UNL A   1      33.075  20.374  26.095  1.00  0.00     0.007 A 
ATOM     77  C   UNL A   1      32.817  20.902  23.246  1.00  0.00     0.061 A 
ATOM     78  C   UNL A   1      32.825  18.630  26.103  1.00  0.00     0.000 A 
ATOM     79  C   UNL A   1      32.662  19.214  22.912  1.00  0.00     0.013 A 
ATOM     80  C   UNL A   1      32.609  17.865  24.516  1.00  0.00     0.001 A 
BRANCH  77  81
ATOM     81  C   UNL A   1      31.962  22.040  22.763  1.00  0.00     0.416 C 
ATOM     82  F   UNL A   1      31.216  21.389  21.944  1.00  0.00    -0.166 F 
ATOM     83  F   UNL A   1      31.055  22.803  23.332  1.00  0.00    -0.166 F 
ATOM     84  F   UNL A   1      32.631  22.973  22.006  1.00  0.00    -0.166 F 
ENDBRANCH  77  81
ENDBRANCH  74  75
BRANCH  74  85
ATOM     85  N   UNL A   1      33.116  24.461  25.042  1.00  0.00    -0.339 N 
ATOM     86  C   UNL A   1      32.427  25.687  24.850  1.00  0.00     0.226 C 
ATOM     87  H   UNL A   1      33.320  24.472  26.004  1.00  0.00     0.164 HD
ATOM     88  O   UNL A   1      32.342  26.342  25.913  1.00  0.00    -0.275 OA
BRANCH  86  89
ATOM     89  C   UNL A   1      31.542  26.387  23.536  1.00  0.00     0.107 C 
ATOM     90  C   UNL A   1      30.043  26.124  23.451  1.00  0.00     0.115 C 
ATOM     91  C   UNL A   1      31.593  27.954  23.222  1.00  0.00     0.133 C 
ATOM     92  C   UNL A   1      29.352  27.487  23.481  1.00  0.00     0.223 C 
ATOM     93  N   UNL A   1      30.299  28.515  23.650  1.00  0.00    -0.342 N 
ATOM     94  O   UNL A   1      28.136  27.574  23.441  1.00  0.00    -0.275 OA
BRANCH  93  95
ATOM     95  C   UNL A   1      30.004  30.016  23.817  1.00  0.00     0.123 C 
BRANCH  95  96
ATOM     96  C   UNL A   1      29.024  31.034  23.010  1.00  0.00     0.008 C 
ATOM     97  C   UNL A   1      27.738  31.009  22.090  1.00  0.00     0.006 C 
ATOM     98  C   UNL A   1      27.609  31.254  23.550  1.00  0.00     0.006 C 
ENDBRANCH  95  96
ENDBRANCH  93  95
ENDBRANCH  86  89
ENDBRANCH  74  85
ENDBRANCH  72  74
ENDBRANCH  71  72
ENDBRANCH   1  71
TORSDOF 20
ENDMDL
MODEL 3
REMARK VINA RESULT:     -10.9      6.307     11.630
REMARK SMILES O=C(OCCOC(=O)[C@H](NC(=O)[C@H]1CC(=O)N(CC2CC2)C1)c1ccccc1C(F)(F)F)c1ccc(-c2c3nc(c(-c4cccc(S(=O)(=O)[O-])c4F)c4ccc([nH]4)c(-c4cccc(S(=O)(=O)[O-])c4F)c4nc(c(-c5cccc(S(=O)(=O)[O-])c5F)c5ccc2[nH]5)C=C4)C=C3)cc1
REMARK SMILES IDX 5 1 4 2 3 3 2 4 1 5 33 6 34 7 95 8 35 9 94 10 36 11 37 12
REMARK SMILES IDX 38 13 88 14 39 15 93 16 87 17 89 18 40 19 92 20 86 21 85 22
REMARK SMILES IDX 41 24 73 25 53 26 72 27 54 28 57 29 71 30 90 31 55 32 56 33
REMARK SMILES IDX 70 35 91 36 58 37 42 38 43 39 51 40 44 41 46 42 52 43 45 44
REMARK SMILES IDX 47 45 48 46 49 47 50 48 74 49 75 50 83 51 76 52 78 53 84 54
REMARK SMILES IDX 77 55 79 56 80 57 81 58 82 59 59 60 60 61 68 62 61 63 63 64
REMARK SMILES IDX 69 65 62 66 64 67 65 68 66 69 67 70 6 71 7 72 8 73 9 74
REMARK SMILES IDX 23 75 24 76 28 77 25 78 27 79 26 80 29 81 30 82 31 83 32 84
REMARK SMILES IDX 10 85 11 86 12 88 13 89 14 90 22 91 15 92 17 93 16 94 18 95
REMARK SMILES IDX 19 96 20 97 21 98
REMARK H PARENT 89 23 57 34 10 87
REMARK Flexibility Score: inf
ROOT
ATOM      1  C   UNL A   1      45.066  26.245  29.022  1.00  0.00     0.274 C 
ENDROOT
BRANCH   1   2
ATOM      2  C   UNL A   1      44.178  27.477  28.863  1.00  0.00     0.275 C 
BRANCH   2   3
ATOM      3  O   UNL A   1      44.866  28.666  28.391  1.00  0.00    -0.458 OA
BRANCH   3   4
ATOM      4  C   UNL A   1      45.283  29.107  27.175  1.00  0.00     0.338 C 
ATOM      5  O   UNL A   1      45.903  28.324  26.455  1.00  0.00    -0.246 OA
BRANCH   4   6
ATOM      6  C   UNL A   1      45.190  30.534  26.714  1.00  0.00     0.060 A 
ATOM      7  C   UNL A   1      44.011  31.232  26.502  1.00  0.00     0.016 A 
ATOM      8  C   UNL A   1      46.393  31.263  26.595  1.00  0.00     0.016 A 
ATOM      9  C   UNL A   1      44.022  32.637  26.503  1.00  0.00     0.010 A 
ATOM     10  C   UNL A   1      46.391  32.673  26.690  1.00  0.00     0.010 A 
ATOM     11  C   UNL A   1      45.181  33.357  26.850  1.00  0.00    -0.014 A 
BRANCH  11  12
ATOM     12  C   UNL A   1      45.156  34.823  27.299  1.00  0.00     0.031 A 
ATOM     13  C   UNL A   1      44.578  34.938  28.754  1.00  0.00     0.074 A 
ATOM     14  C   UNL A   1      45.807  35.989  26.786  1.00  0.00     0.049 A 
ATOM     15  N   UNL A   1      44.529  35.937  29.609  1.00  0.00    -0.248 NA
ATOM     16  C   UNL A   1      44.149  33.652  29.359  1.00  0.00     0.031 C 
ATOM     17  C   UNL A   1      47.552  36.746  25.775  1.00  0.00     0.029 A 
ATOM     18  N   UNL A   1      45.096  37.585  27.483  1.00  0.00    -0.354 N 
ATOM     19  C   UNL A   1      44.115  35.396  30.832  1.00  0.00     0.074 A 
ATOM     20  C   UNL A   1      43.945  33.977  30.623  1.00  0.00     0.031 C 
ATOM     21  C   UNL A   1      47.608  38.445  26.023  1.00  0.00     0.029 A 
ATOM     22  C   UNL A   1      46.115  39.047  27.060  1.00  0.00     0.049 A 
ATOM     23  H   UNL A   1      44.269  37.629  28.015  1.00  0.00     0.167 HD
ATOM     24  C   UNL A   1      43.893  35.961  32.045  1.00  0.00     0.034 A 
ATOM     25  C   UNL A   1      45.488  40.268  26.919  1.00  0.00     0.034 A 
ATOM     26  C   UNL A   1      43.923  37.360  32.368  1.00  0.00     0.049 A 
ATOM     27  C   UNL A   1      44.809  40.746  28.162  1.00  0.00     0.074 A 
ATOM     28  C   UNL A   1      43.718  37.935  33.615  1.00  0.00     0.029 A 
ATOM     29  N   UNL A   1      44.054  38.399  31.470  1.00  0.00    -0.354 N 
ATOM     30  N   UNL A   1      44.575  40.095  29.268  1.00  0.00    -0.248 NA
ATOM     31  C   UNL A   1      44.555  42.196  28.240  1.00  0.00     0.031 C 
ATOM     32  C   UNL A   1      43.642  39.318  33.460  1.00  0.00     0.029 A 
ATOM     33  C   UNL A   1      43.887  39.609  32.133  1.00  0.00     0.049 A 
ATOM     34  H   UNL A   1      44.237  38.300  30.508  1.00  0.00     0.167 HD
ATOM     35  C   UNL A   1      44.235  41.066  30.195  1.00  0.00     0.074 A 
ATOM     36  C   UNL A   1      44.304  42.346  29.530  1.00  0.00     0.031 C 
ATOM     37  C   UNL A   1      43.944  40.896  31.502  1.00  0.00     0.034 A 
BRANCH  24  38
ATOM     38  C   UNL A   1      43.527  35.031  33.177  1.00  0.00     0.023 A 
ATOM     39  C   UNL A   1      44.515  34.586  34.080  1.00  0.00     0.012 A 
ATOM     40  C   UNL A   1      42.182  34.666  33.380  1.00  0.00     0.148 A 
ATOM     41  C   UNL A   1      44.169  33.769  35.156  1.00  0.00     0.002 A 
ATOM     42  C   UNL A   1      41.840  33.893  34.480  1.00  0.00     0.091 A 
ATOM     43  F   UNL A   1      41.269  35.091  32.497  1.00  0.00    -0.205 F 
ATOM     44  C   UNL A   1      42.833  33.432  35.361  1.00  0.00     0.022 A 
BRANCH  42  45
ATOM     45  S   UNL A   1      40.140  33.474  34.873  1.00  0.00     0.127 S 
ATOM     46  O   UNL A   1      39.786  32.606  33.751  1.00  0.00    -0.237 OA
ATOM     47  O   UNL A   1      40.288  32.786  36.156  1.00  0.00    -0.237 OA
ATOM     48  O   UNL A   1      39.415  34.735  34.932  1.00  0.00    -0.744 OA
ENDBRANCH  42  45
ENDBRANCH  24  38
BRANCH  25  49
ATOM     49  C   UNL A   1      45.635  41.285  25.810  1.00  0.00     0.023 A 
ATOM     50  C   UNL A   1      46.864  41.911  25.576  1.00  0.00     0.012 A 
ATOM     51  C   UNL A   1      44.508  41.746  25.051  1.00  0.00     0.148 A 
ATOM     52  C   UNL A   1      47.002  42.864  24.556  1.00  0.00     0.002 A 
ATOM     53  C   UNL A   1      44.683  42.589  23.943  1.00  0.00     0.091 A 
ATOM     54  F   UNL A   1      43.276  41.366  25.410  1.00  0.00    -0.205 F 
ATOM     55  C   UNL A   1      45.935  43.155  23.705  1.00  0.00     0.022 A 
BRANCH  53  56
ATOM     56  S   UNL A   1      43.459  42.737  22.599  1.00  0.00     0.127 S 
ATOM     57  O   UNL A   1      42.471  41.724  22.951  1.00  0.00    -0.237 OA
ATOM     58  O   UNL A   1      42.995  44.119  22.765  1.00  0.00    -0.237 OA
ATOM     59  O   UNL A   1      44.193  42.517  21.361  1.00  0.00    -0.744 OA
ENDBRANCH  53  56
ENDBRANCH  25  49
BRANCH  37  60
ATOM     60  C   UNL A   1      43.734  42.134  32.323  1.00  0.00     0.023 A 
ATOM     61  C   UNL A   1      42.452  42.709  32.432  1.00  0.00     0.012 A 
ATOM     62  C   UNL A   1      44.822  42.741  32.979  1.00  0.00     0.148 A 
ATOM     63  C   UNL A   1      42.267  43.899  33.132  1.00  0.00     0.002 A 
ATOM     64  C   UNL A   1      44.618  43.889  33.732  1.00  0.00     0.091 A 
ATOM     65  F   UNL A   1      46.040  42.195  32.840  1.00  0.00    -0.205 F 
ATOM     66  C   UNL A   1      43.347  44.481  33.792  1.00  0.00     0.022 A 
BRANCH  64  67
ATOM     67  S   UNL A   1      45.926  44.658  34.691  1.00  0.00     0.127 S 
ATOM     68  O   UNL A   1      45.472  46.046  34.760  1.00  0.00    -0.237 OA
ATOM     69  O   UNL A   1      45.847  43.925  35.955  1.00  0.00    -0.237 OA
ATOM     70  O   UNL A   1      47.158  44.449  33.942  1.00  0.00    -0.744 OA
ENDBRANCH  64  67
ENDBRANCH  37  60
ENDBRANCH  11  12
ENDBRANCH   4   6
ENDBRANCH   3   4
ENDBRANCH   2   3
ENDBRANCH   1   2
BRANCH   1  71
ATOM     71  O   UNL A   1      45.030  25.455  27.839  1.00  0.00    -0.460 OA
BRANCH  71  72
ATOM     72  C   UNL A   1      44.070  24.491  27.772  1.00  0.00     0.333 C 
ATOM     73  O   UNL A   1      43.563  23.943  28.744  1.00  0.00    -0.249 OA
BRANCH  72  74
ATOM     74  C   UNL A   1      43.598  24.310  26.322  1.00  0.00     0.224 C 
BRANCH  74  75
ATOM     75  C   UNL A   1      42.842  22.839  26.087  1.00  0.00    -0.002 A 
ATOM     76  C   UNL A   1      41.219  22.299  26.507  1.00  0.00     0.007 A 
ATOM     77  C   UNL A   1      43.898  21.848  25.468  1.00  0.00     0.061 A 
ATOM     78  C   UNL A   1      40.644  20.637  26.595  1.00  0.00     0.000 A 
ATOM     79  C   UNL A   1      43.678  20.135  25.552  1.00  0.00     0.013 A 
ATOM     80  C   UNL A   1      41.814  19.381  26.143  1.00  0.00     0.001 A 
BRANCH  77  81
ATOM     81  C   UNL A   1      44.415  22.675  24.325  1.00  0.00     0.416 C 
ATOM     82  F   UNL A   1      43.310  23.225  23.967  1.00  0.00    -0.166 F 
ATOM     83  F   UNL A   1      45.217  23.712  24.242  1.00  0.00    -0.166 F 
ATOM     84  F   UNL A   1      44.843  21.944  23.241  1.00  0.00    -0.166 F 
ENDBRANCH  77  81
ENDBRANCH  74  75
BRANCH  74  85
ATOM     85  N   UNL A   1      43.192  25.860  25.724  1.00  0.00    -0.339 N 
ATOM     86  C   UNL A   1      42.339  26.984  25.559  1.00  0.00     0.226 C 
ATOM     87  H   UNL A   1      43.990  26.113  25.208  1.00  0.00     0.164 HD
ATOM     88  O   UNL A   1      42.860  27.856  24.828  1.00  0.00    -0.275 OA
BRANCH  86  89
ATOM     89  C   UNL A   1      40.842  27.483  26.271  1.00  0.00     0.107 C 
ATOM     90  C   UNL A   1      40.064  26.474  27.106  1.00  0.00     0.115 C 
ATOM     91  C   UNL A   1      40.738  28.785  27.194  1.00  0.00     0.133 C 
ATOM     92  C   UNL A   1      39.910  27.078  28.501  1.00  0.00     0.223 C 
ATOM     93  N   UNL A   1      40.587  28.310  28.581  1.00  0.00    -0.342 N 
ATOM     94  O   UNL A   1      39.333  26.470  29.388  1.00  0.00    -0.275 OA
BRANCH  93  95
ATOM     95  C   UNL A   1      40.746  29.190  29.833  1.00  0.00     0.123 C 
BRANCH  95  96
ATOM     96  C   UNL A   1      41.926  30.201  30.317  1.00  0.00     0.008 C 
ATOM     97  C   UNL A   1      42.321  31.105  31.553  1.00  0.00     0.006 C 
ATOM     98  C   UNL A   1      42.871  29.731  31.424  1.00  0.00     0.006 C 
ENDBRANCH  95  96
ENDBRANCH  93  95
ENDBRANCH  86  89
ENDBRANCH  74  85
ENDBRANCH  72  74
ENDBRANCH  71  72
ENDBRANCH   1  71
TORSDOF 20
ENDMDL
