MODEL 1
REMARK VINA RESULT:     -11.1      0.000      0.000
REMARK SMILES CC[C@](C)([NH2+]CC(=O)Nc1c(C)n[nH]c1C)C(=O)OCCOC(=O)c1ccc(-c2c3nc(c(-c4cccc(S(=O)(=O)[O-])c4F)c4ccc([nH]4)c(-c4cccc(S(=O)(=O)[O-])c4F)c4nc(c(-c5cccc(S(=O)(=O)[O-])c5F)c5ccc2[nH]5)C=C4)C=C3)cc1
REMARK SMILES IDX 20 1 19 2 17 3 18 4 3 5 4 6 2 7 1 8 5 9 6 12 7 13 8 14 9 15
REMARK SMILES IDX 10 17 11 18 15 19 12 20 13 21 14 22 16 23 21 25 22 26 23 27
REMARK SMILES IDX 24 28 25 29 26 30 87 31 27 32 86 33 28 34 29 35 30 36 80 37
REMARK SMILES IDX 31 38 85 39 79 40 81 41 32 42 84 43 78 44 77 45 33 47 65 48
REMARK SMILES IDX 45 49 64 50 46 51 49 52 63 53 82 54 47 55 48 56 62 58 83 59
REMARK SMILES IDX 50 60 34 61 35 62 43 63 36 64 38 65 44 66 37 67 39 68 40 69
REMARK SMILES IDX 41 70 42 71 66 72 67 73 75 74 68 75 70 76 76 77 69 78 71 79
REMARK SMILES IDX 72 80 73 81 74 82 51 83 52 84 60 85 53 86 55 87 61 88 54 89
REMARK SMILES IDX 56 90 57 91 58 92 59 93
REMARK H PARENT 5 10 5 11 9 16 14 24 81 46 49 57
REMARK Flexibility Score: inf
ROOT
ATOM      1  C   UNL A   1      31.919  29.551  24.601  1.00  0.00     0.274 C 
ENDROOT
BRANCH   1   2
ATOM      2  O   UNL A   1      31.998  28.129  24.839  1.00  0.00    -0.457 OA
BRANCH   2   3
ATOM      3  C   UNL A   1      30.991  27.309  24.390  1.00  0.00     0.367 C 
ATOM      4  O   UNL A   1      30.104  27.756  23.684  1.00  0.00    -0.245 OA
BRANCH   3   5
ATOM      5  C   UNL A   1      31.234  25.750  24.738  1.00  0.00     0.191 C 
ATOM      6  C   UNL A   1      29.945  25.474  25.565  1.00  0.00     0.092 C 
BRANCH   5   7
ATOM      7  C   UNL A   1      32.357  24.895  25.514  1.00  0.00     0.077 C 
ATOM      8  C   UNL A   1      32.339  24.167  26.857  1.00  0.00     0.011 C 
ENDBRANCH   5   7
BRANCH   5   9
ATOM      9  N   UNL A   1      31.181  25.078  23.434  1.00  0.00    -0.325 N 
ATOM     10  H   UNL A   1      30.490  25.554  22.854  1.00  0.00     0.347 HD
ATOM     11  H   UNL A   1      30.935  24.104  23.611  1.00  0.00     0.347 HD
BRANCH   9  12
ATOM     12  C   UNL A   1      32.471  25.073  22.715  1.00  0.00     0.363 C 
BRANCH  12  13
ATOM     13  C   UNL A   1      33.219  23.766  22.305  1.00  0.00     0.279 C 
ATOM     14  O   UNL A   1      33.410  23.637  21.076  1.00  0.00    -0.268 OA
ATOM     15  N   UNL A   1      34.047  22.971  23.050  1.00  0.00    -0.318 N 
ATOM     16  H   UNL A   1      34.935  23.033  22.627  1.00  0.00     0.170 HD
BRANCH  15  17
ATOM     17  C   UNL A   1      34.200  22.102  24.154  1.00  0.00     0.085 A 
ATOM     18  C   UNL A   1      35.226  22.420  25.121  1.00  0.00     0.083 A 
ATOM     19  C   UNL A   1      33.759  20.850  24.614  1.00  0.00     0.056 A 
ATOM     20  C   UNL A   1      36.129  23.593  25.138  1.00  0.00     0.071 C 
ATOM     21  N   UNL A   1      35.328  21.538  26.111  1.00  0.00    -0.179 NA
ATOM     22  N   UNL A   1      34.388  20.651  25.825  1.00  0.00    -0.280 N 
ATOM     23  C   UNL A   1      32.853  19.708  24.269  1.00  0.00     0.068 C 
ATOM     24  H   UNL A   1      34.155  19.909  26.428  1.00  0.00     0.190 HD
ENDBRANCH  15  17
ENDBRANCH  12  13
ENDBRANCH   9  12
ENDBRANCH   5   9
ENDBRANCH   3   5
ENDBRANCH   2   3
ENDBRANCH   1   2
BRANCH   1  25
ATOM     25  C   UNL A   1      31.497  30.318  25.850  1.00  0.00     0.275 C 
BRANCH  25  26
ATOM     26  O   UNL A   1      32.503  30.168  26.864  1.00  0.00    -0.458 OA
BRANCH  26  27
ATOM     27  C   UNL A   1      33.121  31.307  27.243  1.00  0.00     0.338 C 
ATOM     28  O   UNL A   1      32.620  32.412  27.376  1.00  0.00    -0.246 OA
BRANCH  27  29
ATOM     29  C   UNL A   1      34.539  31.044  27.532  1.00  0.00     0.060 A 
ATOM     30  C   UNL A   1      34.958  29.732  27.731  1.00  0.00     0.016 A 
ATOM     31  C   UNL A   1      35.399  32.095  27.827  1.00  0.00     0.016 A 
ATOM     32  C   UNL A   1      36.167  29.450  28.333  1.00  0.00     0.010 A 
ATOM     33  C   UNL A   1      36.662  31.813  28.358  1.00  0.00     0.010 A 
ATOM     34  C   UNL A   1      37.024  30.490  28.678  1.00  0.00    -0.014 A 
BRANCH  34  35
ATOM     35  C   UNL A   1      38.196  30.186  29.531  1.00  0.00     0.031 A 
ATOM     36  C   UNL A   1      39.294  29.330  28.966  1.00  0.00     0.074 A 
ATOM     37  C   UNL A   1      38.319  30.730  30.755  1.00  0.00     0.049 A 
ATOM     38  N   UNL A   1      40.308  28.780  29.577  1.00  0.00    -0.248 NA
ATOM     39  C   UNL A   1      39.235  29.038  27.522  1.00  0.00     0.031 C 
ATOM     40  C   UNL A   1      37.365  31.651  31.379  1.00  0.00     0.029 A 
ATOM     41  N   UNL A   1      39.306  30.589  31.697  1.00  0.00    -0.354 N 
ATOM     42  C   UNL A   1      40.934  27.986  28.623  1.00  0.00     0.074 A 
ATOM     43  C   UNL A   1      40.208  28.150  27.385  1.00  0.00     0.031 C 
ATOM     44  C   UNL A   1      37.824  32.008  32.588  1.00  0.00     0.029 A 
ATOM     45  C   UNL A   1      39.051  31.271  32.862  1.00  0.00     0.049 A 
ATOM     46  H   UNL A   1      40.118  30.052  31.551  1.00  0.00     0.167 HD
ATOM     47  C   UNL A   1      42.016  27.189  28.776  1.00  0.00     0.034 A 
ATOM     48  C   UNL A   1      39.707  31.260  34.038  1.00  0.00     0.034 A 
ATOM     49  C   UNL A   1      42.786  27.121  29.987  1.00  0.00     0.049 A 
ATOM     50  C   UNL A   1      40.923  30.387  34.174  1.00  0.00     0.074 A 
ATOM     51  C   UNL A   1      43.915  26.367  30.249  1.00  0.00     0.029 A 
ATOM     52  N   UNL A   1      42.519  27.857  31.132  1.00  0.00    -0.354 N 
ATOM     53  N   UNL A   1      41.497  29.626  33.273  1.00  0.00    -0.248 NA
ATOM     54  C   UNL A   1      41.588  30.378  35.482  1.00  0.00     0.031 C 
ATOM     55  C   UNL A   1      44.328  26.644  31.557  1.00  0.00     0.029 A 
ATOM     56  C   UNL A   1      43.468  27.585  32.101  1.00  0.00     0.049 A 
ATOM     57  H   UNL A   1      41.765  28.480  31.239  1.00  0.00     0.167 HD
ATOM     58  C   UNL A   1      42.608  29.071  33.896  1.00  0.00     0.074 A 
ATOM     59  C   UNL A   1      42.637  29.605  35.244  1.00  0.00     0.031 C 
ATOM     60  C   UNL A   1      43.511  28.184  33.410  1.00  0.00     0.034 A 
BRANCH  47  61
ATOM     61  C   UNL A   1      42.419  26.326  27.611  1.00  0.00     0.023 A 
ATOM     62  C   UNL A   1      43.261  26.834  26.603  1.00  0.00     0.012 A 
ATOM     63  C   UNL A   1      41.977  24.990  27.535  1.00  0.00     0.148 A 
ATOM     64  C   UNL A   1      43.631  26.036  25.520  1.00  0.00     0.002 A 
ATOM     65  C   UNL A   1      42.387  24.187  26.477  1.00  0.00     0.091 A 
ATOM     66  F   UNL A   1      41.152  24.534  28.488  1.00  0.00    -0.205 F 
ATOM     67  C   UNL A   1      43.203  24.711  25.462  1.00  0.00     0.022 A 
BRANCH  65  68
ATOM     68  S   UNL A   1      41.954  22.447  26.363  1.00  0.00     0.127 S 
ATOM     69  O   UNL A   1      40.498  22.511  26.252  1.00  0.00    -0.237 OA
ATOM     70  O   UNL A   1      42.642  22.038  25.138  1.00  0.00    -0.237 OA
ATOM     71  O   UNL A   1      42.464  21.827  27.578  1.00  0.00    -0.744 OA
ENDBRANCH  65  68
ENDBRANCH  47  61
BRANCH  48  72
ATOM     72  C   UNL A   1      39.227  32.101  35.172  1.00  0.00     0.023 A 
ATOM     73  C   UNL A   1      38.281  31.574  36.071  1.00  0.00     0.012 A 
ATOM     74  C   UNL A   1      39.721  33.403  35.381  1.00  0.00     0.148 A 
ATOM     75  C   UNL A   1      37.817  32.338  37.143  1.00  0.00     0.002 A 
ATOM     76  C   UNL A   1      39.303  34.134  36.487  1.00  0.00     0.091 A 
ATOM     77  F   UNL A   1      40.604  33.899  34.503  1.00  0.00    -0.205 F 
ATOM     78  C   UNL A   1      38.337  33.611  37.359  1.00  0.00     0.022 A 
BRANCH  76  79
ATOM     79  S   UNL A   1      40.035  35.717  36.920  1.00  0.00     0.127 S 
ATOM     80  O   UNL A   1      39.663  36.542  35.774  1.00  0.00    -0.237 OA
ATOM     81  O   UNL A   1      39.338  36.042  38.166  1.00  0.00    -0.237 OA
ATOM     82  O   UNL A   1      41.458  35.456  37.084  1.00  0.00    -0.744 OA
ENDBRANCH  76  79
ENDBRANCH  48  72
BRANCH  60  83
ATOM     83  C   UNL A   1      44.640  27.782  34.319  1.00  0.00     0.023 A 
ATOM     84  C   UNL A   1      45.842  28.515  34.314  1.00  0.00     0.012 A 
ATOM     85  C   UNL A   1      44.481  26.713  35.221  1.00  0.00     0.148 A 
ATOM     86  C   UNL A   1      46.885  28.164  35.169  1.00  0.00     0.002 A 
ATOM     87  C   UNL A   1      45.506  26.400  36.104  1.00  0.00     0.091 A 
ATOM     88  F   UNL A   1      43.336  26.014  35.193  1.00  0.00    -0.205 F 
ATOM     89  C   UNL A   1      46.714  27.116  36.071  1.00  0.00     0.022 A 
BRANCH  87  90
ATOM     90  S   UNL A   1      45.323  25.130  37.360  1.00  0.00     0.127 S 
ATOM     91  O   UNL A   1      45.097  23.937  36.547  1.00  0.00    -0.237 OA
ATOM     92  O   UNL A   1      46.620  25.170  38.038  1.00  0.00    -0.237 OA
ATOM     93  O   UNL A   1      44.201  25.550  38.188  1.00  0.00    -0.744 OA
ENDBRANCH  87  90
ENDBRANCH  60  83
ENDBRANCH  34  35
ENDBRANCH  27  29
ENDBRANCH  26  27
ENDBRANCH  25  26
ENDBRANCH   1  25
TORSDOF 19
ENDMDL
MODEL 2
REMARK VINA RESULT:     -11.0      5.203     10.056
REMARK SMILES CC[C@](C)([NH2+]CC(=O)Nc1c(C)n[nH]c1C)C(=O)OCCOC(=O)c1ccc(-c2c3nc(c(-c4cccc(S(=O)(=O)[O-])c4F)c4ccc([nH]4)c(-c4cccc(S(=O)(=O)[O-])c4F)c4nc(c(-c5cccc(S(=O)(=O)[O-])c5F)c5ccc2[nH]5)C=C4)C=C3)cc1
REMARK SMILES IDX 20 1 19 2 17 3 18 4 3 5 4 6 2 7 1 8 5 9 6 12 7 13 8 14 9 15
REMARK SMILES IDX 10 17 11 18 15 19 12 20 13 21 14 22 16 23 21 25 22 26 23 27
REMARK SMILES IDX 24 28 25 29 26 30 87 31 27 32 86 33 28 34 29 35 30 36 80 37
REMARK SMILES IDX 31 38 85 39 79 40 81 41 32 42 84 43 78 44 77 45 33 47 65 48
REMARK SMILES IDX 45 49 64 50 46 51 49 52 63 53 82 54 47 55 48 56 62 58 83 59
REMARK SMILES IDX 50 60 34 61 35 62 43 63 36 64 38 65 44 66 37 67 39 68 40 69
REMARK SMILES IDX 41 70 42 71 66 72 67 73 75 74 68 75 70 76 76 77 69 78 71 79
REMARK SMILES IDX 72 80 73 81 74 82 51 83 52 84 60 85 53 86 55 87 61 88 54 89
REMARK SMILES IDX 56 90 57 91 58 92 59 93
REMARK H PARENT 5 10 5 11 9 16 14 24 81 46 49 57
REMARK Flexibility Score: inf
ROOT
ATOM      1  C   UNL A   1      36.640  22.675  23.873  1.00  0.00     0.274 C 
ENDROOT
BRANCH   1   2
ATOM      2  O   UNL A   1      35.758  23.242  24.865  1.00  0.00    -0.457 OA
BRANCH   2   3
ATOM      3  C   UNL A   1      34.409  23.309  24.617  1.00  0.00     0.367 C 
ATOM      4  O   UNL A   1      33.943  24.255  24.006  1.00  0.00    -0.245 OA
BRANCH   3   5
ATOM      5  C   UNL A   1      33.614  21.967  25.041  1.00  0.00     0.191 C 
ATOM      6  C   UNL A   1      34.195  21.773  26.472  1.00  0.00     0.092 C 
BRANCH   5   7
ATOM      7  C   UNL A   1      33.500  20.460  24.484  1.00  0.00     0.077 C 
ATOM      8  C   UNL A   1      33.186  19.136  25.178  1.00  0.00     0.011 C 
ENDBRANCH   5   7
BRANCH   5   9
ATOM      9  N   UNL A   1      32.207  22.383  25.092  1.00  0.00    -0.325 N 
ATOM     10  H   UNL A   1      31.624  21.575  24.873  1.00  0.00     0.347 HD
ATOM     11  H   UNL A   1      32.096  23.138  24.415  1.00  0.00     0.347 HD
BRANCH   9  12
ATOM     12  C   UNL A   1      31.792  22.917  26.405  1.00  0.00     0.363 C 
BRANCH  12  13
ATOM     13  C   UNL A   1      30.760  24.076  26.572  1.00  0.00     0.279 C 
ATOM     14  O   UNL A   1      29.769  23.795  27.280  1.00  0.00    -0.268 OA
ATOM     15  N   UNL A   1      30.944  25.426  26.441  1.00  0.00    -0.318 N 
ATOM     16  H   UNL A   1      30.786  25.809  27.335  1.00  0.00     0.170 HD
BRANCH  15  17
ATOM     17  C   UNL A   1      31.261  26.517  25.599  1.00  0.00     0.085 A 
ATOM     18  C   UNL A   1      31.528  27.792  26.224  1.00  0.00     0.083 A 
ATOM     19  C   UNL A   1      31.274  26.863  24.238  1.00  0.00     0.056 A 
ATOM     20  C   UNL A   1      31.567  28.106  27.671  1.00  0.00     0.071 C 
ATOM     21  N   UNL A   1      31.786  28.772  25.365  1.00  0.00    -0.179 NA
ATOM     22  N   UNL A   1      31.704  28.173  24.187  1.00  0.00    -0.280 N 
ATOM     23  C   UNL A   1      31.018  26.313  22.868  1.00  0.00     0.068 C 
ATOM     24  H   UNL A   1      31.930  28.624  23.342  1.00  0.00     0.190 HD
ENDBRANCH  15  17
ENDBRANCH  12  13
ENDBRANCH   9  12
ENDBRANCH   5   9
ENDBRANCH   3   5
ENDBRANCH   2   3
ENDBRANCH   1   2
BRANCH   1  25
ATOM     25  C   UNL A   1      37.380  21.449  24.398  1.00  0.00     0.275 C 
BRANCH  25  26
ATOM     26  O   UNL A   1      37.740  21.662  25.771  1.00  0.00    -0.458 OA
BRANCH  26  27
ATOM     27  C   UNL A   1      39.062  21.604  26.042  1.00  0.00     0.338 C 
ATOM     28  O   UNL A   1      39.857  20.757  25.668  1.00  0.00    -0.246 OA
BRANCH  27  29
ATOM     29  C   UNL A   1      39.465  22.764  26.851  1.00  0.00     0.060 A 
ATOM     30  C   UNL A   1      38.885  24.002  26.597  1.00  0.00     0.016 A 
ATOM     31  C   UNL A   1      40.565  22.678  27.697  1.00  0.00     0.016 A 
ATOM     32  C   UNL A   1      39.453  25.170  27.068  1.00  0.00     0.010 A 
ATOM     33  C   UNL A   1      41.095  23.849  28.247  1.00  0.00     0.010 A 
ATOM     34  C   UNL A   1      40.582  25.108  27.878  1.00  0.00    -0.014 A 
BRANCH  34  35
ATOM     35  C   UNL A   1      41.310  26.363  28.173  1.00  0.00     0.031 A 
ATOM     36  C   UNL A   1      40.619  27.422  28.985  1.00  0.00     0.074 A 
ATOM     37  C   UNL A   1      42.591  26.524  27.794  1.00  0.00     0.049 A 
ATOM     38  N   UNL A   1      40.975  28.659  29.201  1.00  0.00    -0.248 NA
ATOM     39  C   UNL A   1      39.345  27.045  29.625  1.00  0.00     0.031 C 
ATOM     40  C   UNL A   1      43.400  25.532  27.082  1.00  0.00     0.029 A 
ATOM     41  N   UNL A   1      43.442  27.587  27.961  1.00  0.00    -0.354 N 
ATOM     42  C   UNL A   1      39.920  29.237  29.897  1.00  0.00     0.074 A 
ATOM     43  C   UNL A   1      38.924  28.209  30.097  1.00  0.00     0.031 C 
ATOM     44  C   UNL A   1      44.634  26.024  26.893  1.00  0.00     0.029 A 
ATOM     45  C   UNL A   1      44.674  27.395  27.385  1.00  0.00     0.049 A 
ATOM     46  H   UNL A   1      43.193  28.405  28.449  1.00  0.00     0.167 HD
ATOM     47  C   UNL A   1      39.798  30.514  30.325  1.00  0.00     0.034 A 
ATOM     48  C   UNL A   1      45.702  28.251  27.225  1.00  0.00     0.034 A 
ATOM     49  C   UNL A   1      40.843  31.492  30.210  1.00  0.00     0.049 A 
ATOM     50  C   UNL A   1      45.551  29.657  27.734  1.00  0.00     0.074 A 
ATOM     51  C   UNL A   1      40.840  32.810  30.629  1.00  0.00     0.029 A 
ATOM     52  N   UNL A   1      42.091  31.249  29.655  1.00  0.00    -0.354 N 
ATOM     53  N   UNL A   1      44.543  30.200  28.374  1.00  0.00    -0.248 NA
ATOM     54  C   UNL A   1      46.681  30.566  27.507  1.00  0.00     0.031 C 
ATOM     55  C   UNL A   1      42.087  33.367  30.321  1.00  0.00     0.029 A 
ATOM     56  C   UNL A   1      42.872  32.388  29.731  1.00  0.00     0.049 A 
ATOM     57  H   UNL A   1      42.378  30.392  29.264  1.00  0.00     0.167 HD
ATOM     58  C   UNL A   1      44.930  31.504  28.655  1.00  0.00     0.074 A 
ATOM     59  C   UNL A   1      46.274  31.660  28.135  1.00  0.00     0.031 C 
ATOM     60  C   UNL A   1      44.231  32.493  29.266  1.00  0.00     0.034 A 
BRANCH  47  61
ATOM     61  C   UNL A   1      38.488  30.921  30.945  1.00  0.00     0.023 A 
ATOM     62  C   UNL A   1      38.255  30.720  32.319  1.00  0.00     0.012 A 
ATOM     63  C   UNL A   1      37.494  31.536  30.158  1.00  0.00     0.148 A 
ATOM     64  C   UNL A   1      37.039  31.092  32.893  1.00  0.00     0.002 A 
ATOM     65  C   UNL A   1      36.304  31.947  30.746  1.00  0.00     0.091 A 
ATOM     66  F   UNL A   1      37.723  31.691  28.845  1.00  0.00    -0.205 F 
ATOM     67  C   UNL A   1      36.069  31.714  32.110  1.00  0.00     0.022 A 
BRANCH  65  68
ATOM     68  S   UNL A   1      35.032  32.829  29.834  1.00  0.00     0.127 S 
ATOM     69  O   UNL A   1      34.095  33.183  30.899  1.00  0.00    -0.237 OA
ATOM     70  O   UNL A   1      35.779  33.959  29.280  1.00  0.00    -0.237 OA
ATOM     71  O   UNL A   1      34.528  31.892  28.841  1.00  0.00    -0.744 OA
ENDBRANCH  65  68
ENDBRANCH  47  61
BRANCH  48  72
ATOM     72  C   UNL A   1      46.955  27.799  26.556  1.00  0.00     0.023 A 
ATOM     73  C   UNL A   1      47.963  27.181  27.321  1.00  0.00     0.012 A 
ATOM     74  C   UNL A   1      47.143  27.950  25.168  1.00  0.00     0.148 A 
ATOM     75  C   UNL A   1      49.145  26.746  26.719  1.00  0.00     0.002 A 
ATOM     76  C   UNL A   1      48.294  27.457  24.566  1.00  0.00     0.091 A 
ATOM     77  F   UNL A   1      46.184  28.562  24.458  1.00  0.00    -0.205 F 
ATOM     78  C   UNL A   1      49.305  26.871  25.342  1.00  0.00     0.022 A 
BRANCH  76  79
ATOM     79  S   UNL A   1      48.510  27.442  22.782  1.00  0.00     0.127 S 
ATOM     80  O   UNL A   1      49.854  27.994  22.638  1.00  0.00    -0.237 OA
ATOM     81  O   UNL A   1      48.391  26.015  22.474  1.00  0.00    -0.237 OA
ATOM     82  O   UNL A   1      47.425  28.257  22.253  1.00  0.00    -0.744 OA
ENDBRANCH  76  79
ENDBRANCH  48  72
BRANCH  60  83
ATOM     83  C   UNL A   1      44.930  33.811  29.461  1.00  0.00     0.023 A 
ATOM     84  C   UNL A   1      45.664  34.052  30.638  1.00  0.00     0.012 A 
ATOM     85  C   UNL A   1      44.907  34.785  28.445  1.00  0.00     0.148 A 
ATOM     86  C   UNL A   1      46.333  35.261  30.817  1.00  0.00     0.002 A 
ATOM     87  C   UNL A   1      45.617  35.967  28.609  1.00  0.00     0.091 A 
ATOM     88  F   UNL A   1      44.183  34.545  27.341  1.00  0.00    -0.205 F 
ATOM     89  C   UNL A   1      46.320  36.213  29.800  1.00  0.00     0.022 A 
BRANCH  87  90
ATOM     90  S   UNL A   1      45.729  37.197  27.306  1.00  0.00     0.127 S 
ATOM     91  O   UNL A   1      46.597  38.202  27.917  1.00  0.00    -0.237 OA
ATOM     92  O   UNL A   1      46.345  36.442  26.213  1.00  0.00    -0.237 OA
ATOM     93  O   UNL A   1      44.360  37.621  27.043  1.00  0.00    -0.744 OA
ENDBRANCH  87  90
ENDBRANCH  60  83
ENDBRANCH  34  35
ENDBRANCH  27  29
ENDBRANCH  26  27
ENDBRANCH  25  26
ENDBRANCH   1  25
TORSDOF 19
ENDMDL
MODEL 3
REMARK VINA RESULT:     -11.0      4.913     10.100
REMARK SMILES CC[C@](C)([NH2+]CC(=O)Nc1c(C)n[nH]c1C)C(=O)OCCOC(=O)c1ccc(-c2c3nc(c(-c4cccc(S(=O)(=O)[O-])c4F)c4ccc([nH]4)c(-c4cccc(S(=O)(=O)[O-])c4F)c4nc(c(-c5cccc(S(=O)(=O)[O-])c5F)c5ccc2[nH]5)C=C4)C=C3)cc1
REMARK SMILES IDX 20 1 19 2 17 3 18 4 3 5 4 6 2 7 1 8 5 9 6 12 7 13 8 14 9 15
REMARK SMILES IDX 10 17 11 18 15 19 12 20 13 21 14 22 16 23 21 25 22 26 23 27
REMARK SMILES IDX 24 28 25 29 26 30 87 31 27 32 86 33 28 34 29 35 30 36 80 37
REMARK SMILES IDX 31 38 85 39 79 40 81 41 32 42 84 43 78 44 77 45 33 47 65 48
REMARK SMILES IDX 45 49 64 50 46 51 49 52 63 53 82 54 47 55 48 56 62 58 83 59
REMARK SMILES IDX 50 60 34 61 35 62 43 63 36 64 38 65 44 66 37 67 39 68 40 69
REMARK SMILES IDX 41 70 42 71 66 72 67 73 75 74 68 75 70 76 76 77 69 78 71 79
REMARK SMILES IDX 72 80 73 81 74 82 51 83 52 84 60 85 53 86 55 87 61 88 54 89
REMARK SMILES IDX 56 90 57 91 58 92 59 93
REMARK H PARENT 5 10 5 11 9 16 14 24 81 46 49 57
REMARK Flexibility Score: inf
ROOT
ATOM      1  C   UNL A   1      35.392  21.008  25.339  1.00  0.00     0.274 C 
ENDROOT
BRANCH   1   2
ATOM      2  O   UNL A   1      34.336  20.043  25.144  1.00  0.00    -0.457 OA
BRANCH   2   3
ATOM      3  C   UNL A   1      33.106  20.463  24.699  1.00  0.00     0.367 C 
ATOM      4  O   UNL A   1      32.148  19.710  24.742  1.00  0.00    -0.245 OA
BRANCH   3   5
ATOM      5  C   UNL A   1      33.064  22.034  24.323  1.00  0.00     0.191 C 
ATOM      6  C   UNL A   1      32.156  21.965  23.062  1.00  0.00     0.092 C 
BRANCH   5   7
ATOM      7  C   UNL A   1      34.144  23.165  23.937  1.00  0.00     0.077 C 
ATOM      8  C   UNL A   1      34.685  24.365  24.712  1.00  0.00     0.011 C 
ENDBRANCH   5   7
BRANCH   5   9
ATOM      9  N   UNL A   1      32.358  22.654  25.451  1.00  0.00    -0.325 N 
ATOM     10  H   UNL A   1      32.994  23.308  25.909  1.00  0.00     0.347 HD
ATOM     11  H   UNL A   1      32.065  21.899  26.070  1.00  0.00     0.347 HD
BRANCH   9  12
ATOM     12  C   UNL A   1      31.138  23.388  25.058  1.00  0.00     0.363 C 
BRANCH  12  13
ATOM     13  C   UNL A   1      30.518  24.538  25.911  1.00  0.00     0.279 C 
ATOM     14  O   UNL A   1      29.866  24.157  26.908  1.00  0.00    -0.268 OA
ATOM     15  N   UNL A   1      30.897  25.850  26.005  1.00  0.00    -0.318 N 
ATOM     16  H   UNL A   1      31.197  25.980  26.935  1.00  0.00     0.170 HD
BRANCH  15  17
ATOM     17  C   UNL A   1      31.054  27.101  25.366  1.00  0.00     0.085 A 
ATOM     18  C   UNL A   1      31.454  28.226  26.180  1.00  0.00     0.083 A 
ATOM     19  C   UNL A   1      30.803  27.723  24.131  1.00  0.00     0.056 A 
ATOM     20  C   UNL A   1      31.780  28.233  27.625  1.00  0.00     0.071 C 
ATOM     21  N   UNL A   1      31.548  29.371  25.513  1.00  0.00    -0.179 NA
ATOM     22  N   UNL A   1      31.229  29.027  24.274  1.00  0.00    -0.280 N 
ATOM     23  C   UNL A   1      30.277  27.463  22.754  1.00  0.00     0.068 C 
ATOM     24  H   UNL A   1      31.291  29.652  23.516  1.00  0.00     0.190 HD
ENDBRANCH  15  17
ENDBRANCH  12  13
ENDBRANCH   9  12
ENDBRANCH   5   9
ENDBRANCH   3   5
ENDBRANCH   2   3
ENDBRANCH   1   2
BRANCH   1  25
ATOM     25  C   UNL A   1      36.763  20.435  24.992  1.00  0.00     0.275 C 
BRANCH  25  26
ATOM     26  O   UNL A   1      37.741  21.485  25.033  1.00  0.00    -0.458 OA
BRANCH  26  27
ATOM     27  C   UNL A   1      38.856  21.214  25.745  1.00  0.00     0.338 C 
ATOM     28  O   UNL A   1      39.493  20.173  25.755  1.00  0.00    -0.246 OA
BRANCH  27  29
ATOM     29  C   UNL A   1      39.261  22.395  26.522  1.00  0.00     0.060 A 
ATOM     30  C   UNL A   1      38.786  23.648  26.148  1.00  0.00     0.016 A 
ATOM     31  C   UNL A   1      40.276  22.296  27.467  1.00  0.00     0.016 A 
ATOM     32  C   UNL A   1      39.385  24.806  26.602  1.00  0.00     0.010 A 
ATOM     33  C   UNL A   1      40.831  23.466  27.996  1.00  0.00     0.010 A 
ATOM     34  C   UNL A   1      40.433  24.728  27.514  1.00  0.00    -0.014 A 
BRANCH  34  35
ATOM     35  C   UNL A   1      41.212  25.954  27.802  1.00  0.00     0.031 A 
ATOM     36  C   UNL A   1      40.583  27.023  28.651  1.00  0.00     0.074 A 
ATOM     37  C   UNL A   1      42.485  26.078  27.385  1.00  0.00     0.049 A 
ATOM     38  N   UNL A   1      40.988  28.244  28.873  1.00  0.00    -0.248 NA
ATOM     39  C   UNL A   1      39.318  26.678  29.326  1.00  0.00     0.031 C 
ATOM     40  C   UNL A   1      43.238  25.070  26.634  1.00  0.00     0.029 A 
ATOM     41  N   UNL A   1      43.376  27.109  27.540  1.00  0.00    -0.354 N 
ATOM     42  C   UNL A   1      39.975  28.845  29.610  1.00  0.00     0.074 A 
ATOM     43  C   UNL A   1      38.951  27.849  29.827  1.00  0.00     0.031 C 
ATOM     44  C   UNL A   1      44.481  25.523  26.412  1.00  0.00     0.029 A 
ATOM     45  C   UNL A   1      44.583  26.885  26.922  1.00  0.00     0.049 A 
ATOM     46  H   UNL A   1      43.171  27.928  28.046  1.00  0.00     0.167 HD
ATOM     47  C   UNL A   1      39.909  30.120  30.059  1.00  0.00     0.034 A 
ATOM     48  C   UNL A   1      45.633  27.708  26.741  1.00  0.00     0.034 A 
ATOM     49  C   UNL A   1      40.982  31.064  29.924  1.00  0.00     0.049 A 
ATOM     50  C   UNL A   1      45.546  29.111  27.274  1.00  0.00     0.074 A 
ATOM     51  C   UNL A   1      41.038  32.375  30.361  1.00  0.00     0.029 A 
ATOM     52  N   UNL A   1      42.203  30.788  29.326  1.00  0.00    -0.354 N 
ATOM     53  N   UNL A   1      44.578  29.677  27.953  1.00  0.00    -0.248 NA
ATOM     54  C   UNL A   1      46.699  29.985  27.024  1.00  0.00     0.031 C 
ATOM     55  C   UNL A   1      42.292  32.894  30.022  1.00  0.00     0.029 A 
ATOM     56  C   UNL A   1      43.025  31.899  29.393  1.00  0.00     0.049 A 
ATOM     57  H   UNL A   1      42.449  29.928  28.915  1.00  0.00     0.167 HD
ATOM     58  C   UNL A   1      45.017  30.964  28.240  1.00  0.00     0.074 A 
ATOM     59  C   UNL A   1      46.348  31.083  27.680  1.00  0.00     0.031 C 
ATOM     60  C   UNL A   1      44.371  31.966  28.887  1.00  0.00     0.034 A 
BRANCH  47  61
ATOM     61  C   UNL A   1      38.634  30.561  30.726  1.00  0.00     0.023 A 
ATOM     62  C   UNL A   1      38.449  30.373  32.109  1.00  0.00     0.012 A 
ATOM     63  C   UNL A   1      37.625  31.193  29.973  1.00  0.00     0.148 A 
ATOM     64  C   UNL A   1      37.265  30.777  32.727  1.00  0.00     0.002 A 
ATOM     65  C   UNL A   1      36.468  31.636  30.604  1.00  0.00     0.091 A 
ATOM     66  F   UNL A   1      37.806  31.336  28.652  1.00  0.00    -0.205 F 
ATOM     67  C   UNL A   1      36.281  31.417  31.978  1.00  0.00     0.022 A 
BRANCH  65  68
ATOM     68  S   UNL A   1      35.183  32.542  29.736  1.00  0.00     0.127 S 
ATOM     69  O   UNL A   1      34.721  31.548  28.768  1.00  0.00    -0.237 OA
ATOM     70  O   UNL A   1      34.232  32.833  30.810  1.00  0.00    -0.237 OA
ATOM     71  O   UNL A   1      35.833  33.715  29.169  1.00  0.00    -0.744 OA
ENDBRANCH  65  68
ENDBRANCH  47  61
BRANCH  48  72
ATOM     72  C   UNL A   1      46.849  27.225  26.026  1.00  0.00     0.023 A 
ATOM     73  C   UNL A   1      46.949  27.404  24.633  1.00  0.00     0.012 A 
ATOM     74  C   UNL A   1      47.916  26.620  26.718  1.00  0.00     0.148 A 
ATOM     75  C   UNL A   1      48.078  26.964  23.940  1.00  0.00     0.002 A 
ATOM     76  C   UNL A   1      49.064  26.243  26.031  1.00  0.00     0.091 A 
ATOM     77  F   UNL A   1      47.796  26.436  28.041  1.00  0.00    -0.205 F 
ATOM     78  C   UNL A   1      49.140  26.397  24.639  1.00  0.00     0.022 A 
BRANCH  76  79
ATOM     79  S   UNL A   1      50.532  25.646  26.877  1.00  0.00     0.127 S 
ATOM     80  O   UNL A   1      50.026  24.453  27.551  1.00  0.00    -0.237 OA
ATOM     81  O   UNL A   1      51.441  25.385  25.758  1.00  0.00    -0.237 OA
ATOM     82  O   UNL A   1      50.954  26.738  27.743  1.00  0.00    -0.744 OA
ENDBRANCH  76  79
ENDBRANCH  48  72
BRANCH  60  83
ATOM     83  C   UNL A   1      45.120  33.257  29.077  1.00  0.00     0.023 A 
ATOM     84  C   UNL A   1      45.940  33.435  30.208  1.00  0.00     0.012 A 
ATOM     85  C   UNL A   1      45.054  34.268  28.100  1.00  0.00     0.148 A 
ATOM     86  C   UNL A   1      46.655  34.618  30.381  1.00  0.00     0.002 A 
ATOM     87  C   UNL A   1      45.808  35.424  28.255  1.00  0.00     0.091 A 
ATOM     88  F   UNL A   1      44.249  34.087  27.042  1.00  0.00    -0.205 F 
ATOM     89  C   UNL A   1      46.599  35.607  29.401  1.00  0.00     0.022 A 
BRANCH  87  90
ATOM     90  S   UNL A   1      45.865  36.697  26.990  1.00  0.00     0.127 S 
ATOM     91  O   UNL A   1      46.836  37.634  27.553  1.00  0.00    -0.237 OA
ATOM     92  O   UNL A   1      46.339  35.957  25.819  1.00  0.00    -0.237 OA
ATOM     93  O   UNL A   1      44.502  37.198  26.871  1.00  0.00    -0.744 OA
ENDBRANCH  87  90
ENDBRANCH  60  83
ENDBRANCH  34  35
ENDBRANCH  27  29
ENDBRANCH  26  27
ENDBRANCH  25  26
ENDBRANCH   1  25
TORSDOF 19
ENDMDL
