MODEL 1
REMARK VINA RESULT:     -13.2      0.000      0.000
REMARK SMILES O=C(OCCOC(=O)c1cc2n(n1)[C@@H](C(F)(F)F)C[C@H](c1ccc3c(c1)OCO3)N2)c1ccc(-c2c3nc(c(-c4cccc(S(=O)(=O)[O-])c4F)c4ccc([nH]4)c(-c4cccc(S(=O)(=O)[O-])c4F)c4nc(c(-c5cccc(S(=O)(=O)[O-])c5F)c5ccc2[nH]5)C=C4)C=C3)cc1
REMARK SMILES IDX 4 1 3 2 2 3 1 4 31 5 32 6 93 7 33 8 92 9 34 10 35 11 36 12
REMARK SMILES IDX 86 13 37 14 91 15 85 16 87 17 38 18 90 19 84 20 83 21 39 23
REMARK SMILES IDX 71 24 51 25 70 26 52 27 55 28 69 29 88 30 53 31 54 32 68 34
REMARK SMILES IDX 89 35 56 36 40 37 41 38 49 39 42 40 44 41 50 42 43 43 45 44
REMARK SMILES IDX 46 45 47 46 48 47 72 48 73 49 81 50 74 51 76 52 82 53 75 54
REMARK SMILES IDX 77 55 78 56 79 57 80 58 57 59 58 60 66 61 59 62 61 63 67 64
REMARK SMILES IDX 60 65 62 66 63 67 64 68 65 69 5 70 6 71 7 72 8 73 9 74 10 75
REMARK SMILES IDX 13 76 11 77 12 78 30 79 14 80 20 81 19 83 15 84 16 85 17 86
REMARK SMILES IDX 18 87 21 88 22 89 26 90 23 91 25 92 24 93 27 94 29 95 28 96
REMARK H PARENT 87 22 55 33 30 82
REMARK Flexibility Score: inf
ROOT
ATOM      1  C   UNL A   1      31.481  29.989  25.693  1.00  0.00     0.275 C 
ENDROOT
BRANCH   1   2
ATOM      2  O   UNL A   1      32.814  30.457  25.953  1.00  0.00    -0.458 OA
BRANCH   2   3
ATOM      3  C   UNL A   1      33.243  31.239  26.974  1.00  0.00     0.338 C 
ATOM      4  O   UNL A   1      32.622  32.263  27.252  1.00  0.00    -0.246 OA
BRANCH   3   5
ATOM      5  C   UNL A   1      34.541  30.991  27.670  1.00  0.00     0.060 A 
ATOM      6  C   UNL A   1      35.548  31.936  27.881  1.00  0.00     0.016 A 
ATOM      7  C   UNL A   1      34.777  29.674  28.091  1.00  0.00     0.016 A 
ATOM      8  C   UNL A   1      36.721  31.598  28.569  1.00  0.00     0.010 A 
ATOM      9  C   UNL A   1      35.950  29.337  28.773  1.00  0.00     0.010 A 
ATOM     10  C   UNL A   1      36.931  30.297  29.030  1.00  0.00    -0.014 A 
BRANCH  10  11
ATOM     11  C   UNL A   1      38.205  29.939  29.704  1.00  0.00     0.031 A 
ATOM     12  C   UNL A   1      38.518  30.516  31.054  1.00  0.00     0.074 A 
ATOM     13  C   UNL A   1      39.068  29.084  29.119  1.00  0.00     0.049 A 
ATOM     14  N   UNL A   1      39.500  30.220  31.865  1.00  0.00    -0.248 NA
ATOM     15  C   UNL A   1      37.604  31.548  31.571  1.00  0.00     0.031 C 
ATOM     16  C   UNL A   1      38.887  28.478  27.801  1.00  0.00     0.029 A 
ATOM     17  N   UNL A   1      40.272  28.579  29.545  1.00  0.00    -0.354 N 
ATOM     18  C   UNL A   1      39.306  31.006  32.994  1.00  0.00     0.074 A 
ATOM     19  C   UNL A   1      38.160  31.847  32.735  1.00  0.00     0.031 C 
ATOM     20  C   UNL A   1      39.953  27.717  27.506  1.00  0.00     0.029 A 
ATOM     21  C   UNL A   1      40.880  27.747  28.631  1.00  0.00     0.049 A 
ATOM     22  H   UNL A   1      40.664  28.791  30.423  1.00  0.00     0.167 HD
ATOM     23  C   UNL A   1      39.984  30.986  34.165  1.00  0.00     0.034 A 
ATOM     24  C   UNL A   1      42.038  27.061  28.707  1.00  0.00     0.034 A 
ATOM     25  C   UNL A   1      41.120  30.146  34.417  1.00  0.00     0.049 A 
ATOM     26  C   UNL A   1      42.792  27.078  30.011  1.00  0.00     0.074 A 
ATOM     27  C   UNL A   1      41.868  30.027  35.573  1.00  0.00     0.029 A 
ATOM     28  N   UNL A   1      41.681  29.285  33.485  1.00  0.00    -0.354 N 
ATOM     29  N   UNL A   1      42.492  27.698  31.128  1.00  0.00    -0.248 NA
ATOM     30  C   UNL A   1      44.003  26.250  30.092  1.00  0.00     0.031 C 
ATOM     31  C   UNL A   1      42.891  29.101  35.336  1.00  0.00     0.029 A 
ATOM     32  C   UNL A   1      42.768  28.632  34.037  1.00  0.00     0.049 A 
ATOM     33  H   UNL A   1      41.353  29.158  32.566  1.00  0.00     0.167 HD
ATOM     34  C   UNL A   1      43.444  27.295  32.055  1.00  0.00     0.074 A 
ATOM     35  C   UNL A   1      44.320  26.364  31.374  1.00  0.00     0.031 C 
ATOM     36  C   UNL A   1      43.589  27.667  33.352  1.00  0.00     0.034 A 
BRANCH  23  37
ATOM     37  C   UNL A   1      39.450  31.853  35.273  1.00  0.00     0.023 A 
ATOM     38  C   UNL A   1      38.427  31.346  36.104  1.00  0.00     0.012 A 
ATOM     39  C   UNL A   1      39.940  33.151  35.496  1.00  0.00     0.148 A 
ATOM     40  C   UNL A   1      37.872  32.132  37.111  1.00  0.00     0.002 A 
ATOM     41  C   UNL A   1      39.407  33.918  36.526  1.00  0.00     0.091 A 
ATOM     42  F   UNL A   1      40.900  33.620  34.686  1.00  0.00    -0.205 F 
ATOM     43  C   UNL A   1      38.365  33.415  37.325  1.00  0.00     0.022 A 
BRANCH  41  44
ATOM     44  S   UNL A   1      40.001  35.565  36.924  1.00  0.00     0.127 S 
ATOM     45  O   UNL A   1      39.270  35.853  38.158  1.00  0.00    -0.237 OA
ATOM     46  O   UNL A   1      41.435  35.338  37.103  1.00  0.00    -0.237 OA
ATOM     47  O   UNL A   1      39.653  36.406  35.786  1.00  0.00    -0.744 OA
ENDBRANCH  41  44
ENDBRANCH  23  37
BRANCH  24  48
ATOM     48  C   UNL A   1      42.500  26.221  27.563  1.00  0.00     0.023 A 
ATOM     49  C   UNL A   1      43.366  26.767  26.594  1.00  0.00     0.012 A 
ATOM     50  C   UNL A   1      42.091  24.882  27.429  1.00  0.00     0.148 A 
ATOM     51  C   UNL A   1      43.774  26.011  25.493  1.00  0.00     0.002 A 
ATOM     52  C   UNL A   1      42.545  24.119  26.355  1.00  0.00     0.091 A 
ATOM     53  F   UNL A   1      41.269  24.361  28.353  1.00  0.00    -0.205 F 
ATOM     54  C   UNL A   1      43.369  24.684  25.374  1.00  0.00     0.022 A 
BRANCH  52  55
ATOM     55  S   UNL A   1      42.165  22.365  26.287  1.00  0.00     0.127 S 
ATOM     56  O   UNL A   1      40.713  22.363  26.138  1.00  0.00    -0.237 OA
ATOM     57  O   UNL A   1      42.900  21.915  25.103  1.00  0.00    -0.237 OA
ATOM     58  O   UNL A   1      42.705  21.863  27.545  1.00  0.00    -0.744 OA
ENDBRANCH  52  55
ENDBRANCH  24  48
BRANCH  36  59
ATOM     59  C   UNL A   1      44.719  27.044  34.126  1.00  0.00     0.023 A 
ATOM     60  C   UNL A   1      45.975  27.680  34.162  1.00  0.00     0.012 A 
ATOM     61  C   UNL A   1      44.514  25.869  34.873  1.00  0.00     0.148 A 
ATOM     62  C   UNL A   1      47.022  27.137  34.906  1.00  0.00     0.002 A 
ATOM     63  C   UNL A   1      45.547  25.361  35.653  1.00  0.00     0.091 A 
ATOM     64  F   UNL A   1      43.319  25.265  34.806  1.00  0.00    -0.205 F 
ATOM     65  C   UNL A   1      46.804  25.987  35.659  1.00  0.00     0.022 A 
BRANCH  63  66
ATOM     66  S   UNL A   1      45.320  23.944  36.732  1.00  0.00     0.127 S 
ATOM     67  O   UNL A   1      46.671  23.743  37.250  1.00  0.00    -0.237 OA
ATOM     68  O   UNL A   1      44.359  24.450  37.713  1.00  0.00    -0.237 OA
ATOM     69  O   UNL A   1      44.805  22.878  35.883  1.00  0.00    -0.744 OA
ENDBRANCH  63  66
ENDBRANCH  36  59
ENDBRANCH  10  11
ENDBRANCH   3   5
ENDBRANCH   2   3
ENDBRANCH   1   2
BRANCH   1  70
ATOM     70  C   UNL A   1      31.255  29.438  24.284  1.00  0.00     0.275 C 
BRANCH  70  71
ATOM     71  O   UNL A   1      30.436  28.262  24.245  1.00  0.00    -0.457 OA
BRANCH  71  72
ATOM     72  C   UNL A   1      30.605  27.474  23.132  1.00  0.00     0.359 C 
ATOM     73  O   UNL A   1      30.249  27.805  22.004  1.00  0.00    -0.244 OA
BRANCH  72  74
ATOM     74  C   UNL A   1      31.305  26.223  23.443  1.00  0.00     0.172 A 
ATOM     75  C   UNL A   1      30.722  24.951  23.701  1.00  0.00     0.084 A 
ATOM     76  N   UNL A   1      32.653  26.161  23.525  1.00  0.00    -0.163 NA
ATOM     77  C   UNL A   1      31.772  24.118  23.991  1.00  0.00     0.126 A 
ATOM     78  N   UNL A   1      32.892  24.898  23.916  1.00  0.00    -0.237 N 
ATOM     79  N   UNL A   1      31.854  22.799  24.267  1.00  0.00    -0.363 N 
ATOM     80  C   UNL A   1      34.242  24.383  24.040  1.00  0.00     0.217 C 
ATOM     81  C   UNL A   1      33.135  22.139  24.505  1.00  0.00     0.113 C 
ATOM     82  H   UNL A   1      31.026  22.268  24.312  1.00  0.00     0.162 HD
ATOM     83  C   UNL A   1      34.248  22.883  23.733  1.00  0.00     0.066 C 
BRANCH  80  84
ATOM     84  C   UNL A   1      34.840  24.666  25.398  1.00  0.00     0.410 C 
ATOM     85  F   UNL A   1      36.164  24.354  25.385  1.00  0.00    -0.169 F 
ATOM     86  F   UNL A   1      34.766  25.966  25.750  1.00  0.00    -0.169 F 
ATOM     87  F   UNL A   1      34.292  23.939  26.392  1.00  0.00    -0.169 F 
ENDBRANCH  80  84
BRANCH  81  88
ATOM     88  C   UNL A   1      33.154  20.684  24.072  1.00  0.00    -0.022 A 
ATOM     89  C   UNL A   1      32.258  20.274  23.046  1.00  0.00     0.010 A 
ATOM     90  C   UNL A   1      33.953  19.716  24.703  1.00  0.00     0.056 A 
ATOM     91  C   UNL A   1      32.153  18.935  22.659  1.00  0.00     0.051 A 
ATOM     92  C   UNL A   1      33.828  18.405  24.297  1.00  0.00     0.166 A 
ATOM     93  C   UNL A   1      32.960  18.025  23.301  1.00  0.00     0.165 A 
ATOM     94  O   UNL A   1      34.492  17.348  24.830  1.00  0.00    -0.454 OA
ATOM     95  O   UNL A   1      33.001  16.684  23.065  1.00  0.00    -0.454 OA
ATOM     96  C   UNL A   1      34.108  16.308  23.921  1.00  0.00     0.468 C 
ENDBRANCH  81  88
ENDBRANCH  72  74
ENDBRANCH  71  72
ENDBRANCH  70  71
ENDBRANCH   1  70
TORSDOF 16
ENDMDL
MODEL 2
REMARK VINA RESULT:     -13.1      4.664     10.271
REMARK SMILES O=C(OCCOC(=O)c1cc2n(n1)[C@@H](C(F)(F)F)C[C@H](c1ccc3c(c1)OCO3)N2)c1ccc(-c2c3nc(c(-c4cccc(S(=O)(=O)[O-])c4F)c4ccc([nH]4)c(-c4cccc(S(=O)(=O)[O-])c4F)c4nc(c(-c5cccc(S(=O)(=O)[O-])c5F)c5ccc2[nH]5)C=C4)C=C3)cc1
REMARK SMILES IDX 4 1 3 2 2 3 1 4 31 5 32 6 93 7 33 8 92 9 34 10 35 11 36 12
REMARK SMILES IDX 86 13 37 14 91 15 85 16 87 17 38 18 90 19 84 20 83 21 39 23
REMARK SMILES IDX 71 24 51 25 70 26 52 27 55 28 69 29 88 30 53 31 54 32 68 34
REMARK SMILES IDX 89 35 56 36 40 37 41 38 49 39 42 40 44 41 50 42 43 43 45 44
REMARK SMILES IDX 46 45 47 46 48 47 72 48 73 49 81 50 74 51 76 52 82 53 75 54
REMARK SMILES IDX 77 55 78 56 79 57 80 58 57 59 58 60 66 61 59 62 61 63 67 64
REMARK SMILES IDX 60 65 62 66 63 67 64 68 65 69 5 70 6 71 7 72 8 73 9 74 10 75
REMARK SMILES IDX 13 76 11 77 12 78 30 79 14 80 20 81 19 83 15 84 16 85 17 86
REMARK SMILES IDX 18 87 21 88 22 89 26 90 23 91 25 92 24 93 27 94 29 95 28 96
REMARK H PARENT 87 22 55 33 30 82
REMARK Flexibility Score: inf
ROOT
ATOM      1  C   UNL A   1      36.303  20.580  24.819  1.00  0.00     0.275 C 
ENDROOT
BRANCH   1   2
ATOM      2  O   UNL A   1      37.107  21.363  25.715  1.00  0.00    -0.458 OA
BRANCH   2   3
ATOM      3  C   UNL A   1      38.454  21.340  25.869  1.00  0.00     0.338 C 
ATOM      4  O   UNL A   1      39.062  20.286  25.697  1.00  0.00    -0.246 OA
BRANCH   3   5
ATOM      5  C   UNL A   1      39.210  22.511  26.403  1.00  0.00     0.060 A 
ATOM      6  C   UNL A   1      40.237  22.458  27.349  1.00  0.00     0.016 A 
ATOM      7  C   UNL A   1      38.802  23.773  25.948  1.00  0.00     0.016 A 
ATOM      8  C   UNL A   1      40.896  23.623  27.764  1.00  0.00     0.010 A 
ATOM      9  C   UNL A   1      39.457  24.936  26.366  1.00  0.00     0.010 A 
ATOM     10  C   UNL A   1      40.519  24.873  27.271  1.00  0.00    -0.014 A 
BRANCH  10  11
ATOM     11  C   UNL A   1      41.186  26.105  27.765  1.00  0.00     0.031 A 
ATOM     12  C   UNL A   1      42.639  26.334  27.465  1.00  0.00     0.074 A 
ATOM     13  C   UNL A   1      40.488  27.024  28.463  1.00  0.00     0.049 A 
ATOM     14  N   UNL A   1      43.363  27.401  27.681  1.00  0.00    -0.248 NA
ATOM     15  C   UNL A   1      43.374  25.230  26.825  1.00  0.00     0.031 C 
ATOM     16  C   UNL A   1      39.081  26.903  28.838  1.00  0.00     0.029 A 
ATOM     17  N   UNL A   1      40.861  28.237  28.989  1.00  0.00    -0.354 N 
ATOM     18  C   UNL A   1      44.625  27.107  27.179  1.00  0.00     0.074 A 
ATOM     19  C   UNL A   1      44.592  25.738  26.719  1.00  0.00     0.031 C 
ATOM     20  C   UNL A   1      38.716  27.972  29.565  1.00  0.00     0.029 A 
ATOM     21  C   UNL A   1      39.854  28.876  29.677  1.00  0.00     0.049 A 
ATOM     22  H   UNL A   1      41.764  28.614  28.884  1.00  0.00     0.167 HD
ATOM     23  C   UNL A   1      45.698  27.923  27.057  1.00  0.00     0.034 A 
ATOM     24  C   UNL A   1      39.842  30.073  30.298  1.00  0.00     0.034 A 
ATOM     25  C   UNL A   1      45.723  29.283  27.515  1.00  0.00     0.049 A 
ATOM     26  C   UNL A   1      41.059  30.952  30.175  1.00  0.00     0.074 A 
ATOM     27  C   UNL A   1      46.746  30.208  27.422  1.00  0.00     0.029 A 
ATOM     28  N   UNL A   1      44.672  29.912  28.167  1.00  0.00    -0.354 N 
ATOM     29  N   UNL A   1      42.184  30.717  29.543  1.00  0.00    -0.248 NA
ATOM     30  C   UNL A   1      40.982  32.286  30.787  1.00  0.00     0.031 C 
ATOM     31  C   UNL A   1      46.317  31.394  28.029  1.00  0.00     0.029 A 
ATOM     32  C   UNL A   1      45.021  31.212  28.485  1.00  0.00     0.049 A 
ATOM     33  H   UNL A   1      43.805  29.494  28.372  1.00  0.00     0.167 HD
ATOM     34  C   UNL A   1      42.926  31.887  29.637  1.00  0.00     0.074 A 
ATOM     35  C   UNL A   1      42.114  32.837  30.371  1.00  0.00     0.031 C 
ATOM     36  C   UNL A   1      44.170  32.153  29.167  1.00  0.00     0.034 A 
BRANCH  23  37
ATOM     37  C   UNL A   1      46.894  27.368  26.333  1.00  0.00     0.023 A 
ATOM     38  C   UNL A   1      46.950  27.476  24.926  1.00  0.00     0.012 A 
ATOM     39  C   UNL A   1      47.949  26.744  27.021  1.00  0.00     0.148 A 
ATOM     40  C   UNL A   1      48.017  26.933  24.213  1.00  0.00     0.002 A 
ATOM     41  C   UNL A   1      49.028  26.237  26.306  1.00  0.00     0.091 A 
ATOM     42  F   UNL A   1      47.869  26.638  28.355  1.00  0.00    -0.205 F 
ATOM     43  C   UNL A   1      49.057  26.319  24.902  1.00  0.00     0.022 A 
BRANCH  41  44
ATOM     44  S   UNL A   1      50.447  25.471  27.095  1.00  0.00     0.127 S 
ATOM     45  O   UNL A   1      49.850  24.269  27.677  1.00  0.00    -0.237 OA
ATOM     46  O   UNL A   1      51.333  25.221  25.957  1.00  0.00    -0.237 OA
ATOM     47  O   UNL A   1      50.949  26.443  28.056  1.00  0.00    -0.744 OA
ENDBRANCH  41  44
ENDBRANCH  23  37
BRANCH  24  48
ATOM     48  C   UNL A   1      38.613  30.554  30.995  1.00  0.00     0.023 A 
ATOM     49  C   UNL A   1      38.466  30.351  32.382  1.00  0.00     0.012 A 
ATOM     50  C   UNL A   1      37.588  31.217  30.296  1.00  0.00     0.148 A 
ATOM     51  C   UNL A   1      37.304  30.754  33.045  1.00  0.00     0.002 A 
ATOM     52  C   UNL A   1      36.456  31.663  30.975  1.00  0.00     0.091 A 
ATOM     53  F   UNL A   1      37.729  31.414  28.976  1.00  0.00    -0.205 F 
ATOM     54  C   UNL A   1      36.300  31.416  32.344  1.00  0.00     0.022 A 
BRANCH  52  55
ATOM     55  S   UNL A   1      35.238  32.662  30.112  1.00  0.00     0.127 S 
ATOM     56  O   UNL A   1      36.032  33.797  29.651  1.00  0.00    -0.237 OA
ATOM     57  O   UNL A   1      34.773  31.770  29.049  1.00  0.00    -0.237 OA
ATOM     58  O   UNL A   1      34.240  32.926  31.143  1.00  0.00    -0.744 OA
ENDBRANCH  52  55
ENDBRANCH  24  48
BRANCH  36  59
ATOM     59  C   UNL A   1      44.718  33.534  29.408  1.00  0.00     0.023 A 
ATOM     60  C   UNL A   1      45.381  33.821  30.617  1.00  0.00     0.012 A 
ATOM     61  C   UNL A   1      44.638  34.522  28.409  1.00  0.00     0.148 A 
ATOM     62  C   UNL A   1      45.928  35.083  30.841  1.00  0.00     0.002 A 
ATOM     63  C   UNL A   1      45.230  35.762  28.619  1.00  0.00     0.091 A 
ATOM     64  F   UNL A   1      43.981  34.237  27.275  1.00  0.00    -0.205 F 
ATOM     65  C   UNL A   1      45.864  36.047  29.838  1.00  0.00     0.022 A 
BRANCH  63  66
ATOM     66  S   UNL A   1      45.282  37.023  27.340  1.00  0.00     0.127 S 
ATOM     67  O   UNL A   1      43.860  37.260  27.098  1.00  0.00    -0.237 OA
ATOM     68  O   UNL A   1      45.978  38.119  28.012  1.00  0.00    -0.237 OA
ATOM     69  O   UNL A   1      46.020  36.432  26.232  1.00  0.00    -0.744 OA
ENDBRANCH  63  66
ENDBRANCH  36  59
ENDBRANCH  10  11
ENDBRANCH   3   5
ENDBRANCH   2   3
ENDBRANCH   1   2
BRANCH   1  70
ATOM     70  C   UNL A   1      34.839  20.425  25.237  1.00  0.00     0.275 C 
BRANCH  70  71
ATOM     71  O   UNL A   1      33.902  20.770  24.209  1.00  0.00    -0.457 OA
BRANCH  71  72
ATOM     72  C   UNL A   1      32.639  21.081  24.654  1.00  0.00     0.359 C 
ATOM     73  O   UNL A   1      31.855  20.251  25.108  1.00  0.00    -0.244 OA
BRANCH  72  74
ATOM     74  C   UNL A   1      32.365  22.519  24.574  1.00  0.00     0.172 A 
ATOM     75  C   UNL A   1      31.633  23.202  23.562  1.00  0.00     0.084 A 
ATOM     76  N   UNL A   1      32.816  23.385  25.510  1.00  0.00    -0.163 NA
ATOM     77  C   UNL A   1      31.697  24.530  23.896  1.00  0.00     0.126 A 
ATOM     78  N   UNL A   1      32.448  24.588  25.037  1.00  0.00    -0.237 N 
ATOM     79  N   UNL A   1      31.162  25.644  23.353  1.00  0.00    -0.363 N 
ATOM     80  C   UNL A   1      32.667  25.803  25.796  1.00  0.00     0.217 C 
ATOM     81  C   UNL A   1      31.359  26.963  23.947  1.00  0.00     0.113 C 
ATOM     82  H   UNL A   1      30.625  25.565  22.531  1.00  0.00     0.162 HD
ATOM     83  C   UNL A   1      31.565  26.816  25.471  1.00  0.00     0.066 C 
BRANCH  80  84
ATOM     84  C   UNL A   1      34.038  26.390  25.556  1.00  0.00     0.410 C 
ATOM     85  F   UNL A   1      34.252  27.414  26.424  1.00  0.00    -0.169 F 
ATOM     86  F   UNL A   1      35.037  25.508  25.764  1.00  0.00    -0.169 F 
ATOM     87  F   UNL A   1      34.195  26.905  24.320  1.00  0.00    -0.169 F 
ENDBRANCH  80  84
BRANCH  81  88
ATOM     88  C   UNL A   1      30.193  27.909  23.719  1.00  0.00    -0.022 A 
ATOM     89  C   UNL A   1      28.912  27.349  23.460  1.00  0.00     0.010 A 
ATOM     90  C   UNL A   1      30.349  29.304  23.666  1.00  0.00     0.056 A 
ATOM     91  C   UNL A   1      27.812  28.154  23.150  1.00  0.00     0.051 A 
ATOM     92  C   UNL A   1      29.244  30.070  23.361  1.00  0.00     0.166 A 
ATOM     93  C   UNL A   1      28.011  29.514  23.116  1.00  0.00     0.165 A 
ATOM     94  O   UNL A   1      29.234  31.421  23.229  1.00  0.00    -0.454 OA
ATOM     95  O   UNL A   1      27.067  30.455  22.835  1.00  0.00    -0.454 OA
ATOM     96  C   UNL A   1      27.827  31.662  23.090  1.00  0.00     0.468 C 
ENDBRANCH  81  88
ENDBRANCH  72  74
ENDBRANCH  71  72
ENDBRANCH  70  71
ENDBRANCH   1  70
TORSDOF 16
ENDMDL
MODEL 3
REMARK VINA RESULT:     -12.7      1.965      2.585
REMARK SMILES O=C(OCCOC(=O)c1cc2n(n1)[C@@H](C(F)(F)F)C[C@H](c1ccc3c(c1)OCO3)N2)c1ccc(-c2c3nc(c(-c4cccc(S(=O)(=O)[O-])c4F)c4ccc([nH]4)c(-c4cccc(S(=O)(=O)[O-])c4F)c4nc(c(-c5cccc(S(=O)(=O)[O-])c5F)c5ccc2[nH]5)C=C4)C=C3)cc1
REMARK SMILES IDX 4 1 3 2 2 3 1 4 31 5 32 6 93 7 33 8 92 9 34 10 35 11 36 12
REMARK SMILES IDX 86 13 37 14 91 15 85 16 87 17 38 18 90 19 84 20 83 21 39 23
REMARK SMILES IDX 71 24 51 25 70 26 52 27 55 28 69 29 88 30 53 31 54 32 68 34
REMARK SMILES IDX 89 35 56 36 40 37 41 38 49 39 42 40 44 41 50 42 43 43 45 44
REMARK SMILES IDX 46 45 47 46 48 47 72 48 73 49 81 50 74 51 76 52 82 53 75 54
REMARK SMILES IDX 77 55 78 56 79 57 80 58 57 59 58 60 66 61 59 62 61 63 67 64
REMARK SMILES IDX 60 65 62 66 63 67 64 68 65 69 5 70 6 71 7 72 8 73 9 74 10 75
REMARK SMILES IDX 13 76 11 77 12 78 30 79 14 80 20 81 19 83 15 84 16 85 17 86
REMARK SMILES IDX 18 87 21 88 22 89 26 90 23 91 25 92 24 93 27 94 29 95 28 96
REMARK H PARENT 87 22 55 33 30 82
REMARK Flexibility Score: inf
ROOT
ATOM      1  C   UNL A   1      31.438  32.064  26.846  1.00  0.00     0.275 C 
ENDROOT
BRANCH   1   2
ATOM      2  O   UNL A   1      32.577  32.938  26.890  1.00  0.00    -0.458 OA
BRANCH   2   3
ATOM      3  C   UNL A   1      33.160  33.499  27.978  1.00  0.00     0.338 C 
ATOM      4  O   UNL A   1      32.667  34.511  28.472  1.00  0.00    -0.246 OA
BRANCH   3   5
ATOM      5  C   UNL A   1      34.478  33.029  28.501  1.00  0.00     0.060 A 
ATOM      6  C   UNL A   1      35.732  33.440  28.043  1.00  0.00     0.016 A 
ATOM      7  C   UNL A   1      34.433  32.045  29.499  1.00  0.00     0.016 A 
ATOM      8  C   UNL A   1      36.908  32.948  28.623  1.00  0.00     0.010 A 
ATOM      9  C   UNL A   1      35.608  31.551  30.075  1.00  0.00     0.010 A 
ATOM     10  C   UNL A   1      36.859  32.005  29.652  1.00  0.00    -0.014 A 
BRANCH  10  11
ATOM     11  C   UNL A   1      38.115  31.448  30.217  1.00  0.00     0.031 A 
ATOM     12  C   UNL A   1      38.633  31.966  31.527  1.00  0.00     0.074 A 
ATOM     13  C   UNL A   1      38.776  30.467  29.569  1.00  0.00     0.049 A 
ATOM     14  N   UNL A   1      39.623  31.515  32.252  1.00  0.00    -0.248 NA
ATOM     15  C   UNL A   1      37.943  33.129  32.108  1.00  0.00     0.031 C 
ATOM     16  C   UNL A   1      38.386  29.900  28.280  1.00  0.00     0.029 A 
ATOM     17  N   UNL A   1      39.917  29.776  29.894  1.00  0.00    -0.354 N 
ATOM     18  C   UNL A   1      39.656  32.320  33.384  1.00  0.00     0.074 A 
ATOM     19  C   UNL A   1      38.640  33.334  33.215  1.00  0.00     0.031 C 
ATOM     20  C   UNL A   1      39.287  28.979  27.902  1.00  0.00     0.029 A 
ATOM     21  C   UNL A   1      40.303  28.860  28.941  1.00  0.00     0.049 A 
ATOM     22  H   UNL A   1      40.414  29.922  30.732  1.00  0.00     0.167 HD
ATOM     23  C   UNL A   1      40.423  32.191  34.492  1.00  0.00     0.034 A 
ATOM     24  C   UNL A   1      41.340  27.999  28.924  1.00  0.00     0.034 A 
ATOM     25  C   UNL A   1      41.430  31.181  34.653  1.00  0.00     0.049 A 
ATOM     26  C   UNL A   1      42.199  27.894  30.157  1.00  0.00     0.074 A 
ATOM     27  C   UNL A   1      42.248  30.942  35.742  1.00  0.00     0.029 A 
ATOM     28  N   UNL A   1      41.763  30.243  33.687  1.00  0.00    -0.354 N 
ATOM     29  N   UNL A   1      42.101  28.551  31.288  1.00  0.00    -0.248 NA
ATOM     30  C   UNL A   1      43.266  26.883  30.142  1.00  0.00     0.031 C 
ATOM     31  C   UNL A   1      43.086  29.866  35.428  1.00  0.00     0.029 A 
ATOM     32  C   UNL A   1      42.777  29.425  34.150  1.00  0.00     0.049 A 
ATOM     33  H   UNL A   1      41.339  30.171  32.802  1.00  0.00     0.167 HD
ATOM     34  C   UNL A   1      43.055  28.000  32.134  1.00  0.00     0.074 A 
ATOM     35  C   UNL A   1      43.709  26.943  31.390  1.00  0.00     0.031 C 
ATOM     36  C   UNL A   1      43.370  28.342  33.408  1.00  0.00     0.034 A 
BRANCH  23  37
ATOM     37  C   UNL A   1      40.134  33.130  35.631  1.00  0.00     0.023 A 
ATOM     38  C   UNL A   1      40.655  34.442  35.584  1.00  0.00     0.012 A 
ATOM     39  C   UNL A   1      39.364  32.733  36.738  1.00  0.00     0.148 A 
ATOM     40  C   UNL A   1      40.452  35.328  36.639  1.00  0.00     0.002 A 
ATOM     41  C   UNL A   1      39.134  33.635  37.771  1.00  0.00     0.091 A 
ATOM     42  F   UNL A   1      38.891  31.479  36.771  1.00  0.00    -0.205 F 
ATOM     43  C   UNL A   1      39.687  34.926  37.730  1.00  0.00     0.022 A 
BRANCH  41  44
ATOM     44  S   UNL A   1      38.121  33.241  39.201  1.00  0.00     0.127 S 
ATOM     45  O   UNL A   1      36.841  32.908  38.575  1.00  0.00    -0.237 OA
ATOM     46  O   UNL A   1      38.834  32.100  39.777  1.00  0.00    -0.237 OA
ATOM     47  O   UNL A   1      38.112  34.438  40.031  1.00  0.00    -0.744 OA
ENDBRANCH  41  44
ENDBRANCH  23  37
BRANCH  24  48
ATOM     48  C   UNL A   1      41.560  27.098  27.755  1.00  0.00     0.023 A 
ATOM     49  C   UNL A   1      42.222  27.582  26.609  1.00  0.00     0.012 A 
ATOM     50  C   UNL A   1      41.122  25.762  27.770  1.00  0.00     0.148 A 
ATOM     51  C   UNL A   1      42.398  26.768  25.487  1.00  0.00     0.002 A 
ATOM     52  C   UNL A   1      41.348  24.941  26.667  1.00  0.00     0.091 A 
ATOM     53  F   UNL A   1      40.494  25.299  28.862  1.00  0.00    -0.205 F 
ATOM     54  C   UNL A   1      41.967  25.444  25.516  1.00  0.00     0.022 A 
BRANCH  52  55
ATOM     55  S   UNL A   1      40.948  23.193  26.761  1.00  0.00     0.127 S 
ATOM     56  O   UNL A   1      39.496  23.194  26.615  1.00  0.00    -0.237 OA
ATOM     57  O   UNL A   1      41.675  22.626  25.624  1.00  0.00    -0.237 OA
ATOM     58  O   UNL A   1      41.484  22.803  28.061  1.00  0.00    -0.744 OA
ENDBRANCH  52  55
ENDBRANCH  24  48
BRANCH  36  59
ATOM     59  C   UNL A   1      44.451  27.547  34.088  1.00  0.00     0.023 A 
ATOM     60  C   UNL A   1      45.785  27.998  34.042  1.00  0.00     0.012 A 
ATOM     61  C   UNL A   1      44.134  26.393  34.830  1.00  0.00     0.148 A 
ATOM     62  C   UNL A   1      46.793  27.294  34.699  1.00  0.00     0.002 A 
ATOM     63  C   UNL A   1      45.136  25.725  35.525  1.00  0.00     0.091 A 
ATOM     64  F   UNL A   1      42.863  25.966  34.841  1.00  0.00    -0.205 F 
ATOM     65  C   UNL A   1      46.466  26.167  35.449  1.00  0.00     0.022 A 
BRANCH  63  66
ATOM     66  S   UNL A   1      44.784  24.327  36.596  1.00  0.00     0.127 S 
ATOM     67  O   UNL A   1      46.125  23.931  37.019  1.00  0.00    -0.237 OA
ATOM     68  O   UNL A   1      43.967  24.936  37.645  1.00  0.00    -0.237 OA
ATOM     69  O   UNL A   1      44.074  23.362  35.767  1.00  0.00    -0.744 OA
ENDBRANCH  63  66
ENDBRANCH  36  59
ENDBRANCH  10  11
ENDBRANCH   3   5
ENDBRANCH   2   3
ENDBRANCH   1   2
BRANCH   1  70
ATOM     70  C   UNL A   1      31.718  30.671  26.276  1.00  0.00     0.275 C 
BRANCH  70  71
ATOM     71  O   UNL A   1      32.166  29.723  27.253  1.00  0.00    -0.457 OA
BRANCH  71  72
ATOM     72  C   UNL A   1      33.324  29.057  26.930  1.00  0.00     0.359 C 
ATOM     73  O   UNL A   1      34.448  29.506  27.141  1.00  0.00    -0.244 OA
BRANCH  72  74
ATOM     74  C   UNL A   1      33.057  27.733  26.358  1.00  0.00     0.172 A 
ATOM     75  C   UNL A   1      34.013  26.791  25.886  1.00  0.00     0.084 A 
ATOM     76  N   UNL A   1      31.800  27.260  26.210  1.00  0.00    -0.163 NA
ATOM     77  C   UNL A   1      33.281  25.738  25.400  1.00  0.00     0.126 A 
ATOM     78  N   UNL A   1      31.972  26.087  25.576  1.00  0.00    -0.237 N 
ATOM     79  N   UNL A   1      33.623  24.542  24.874  1.00  0.00    -0.363 N 
ATOM     80  C   UNL A   1      30.858  25.202  25.301  1.00  0.00     0.217 C 
ATOM     81  C   UNL A   1      32.618  23.566  24.463  1.00  0.00     0.113 C 
ATOM     82  H   UNL A   1      34.576  24.324  24.763  1.00  0.00     0.162 HD
ATOM     83  C   UNL A   1      31.343  23.749  25.316  1.00  0.00     0.066 C 
BRANCH  80  84
ATOM     84  C   UNL A   1      30.169  25.535  23.999  1.00  0.00     0.410 C 
ATOM     85  F   UNL A   1      29.006  26.193  24.255  1.00  0.00    -0.169 F 
ATOM     86  F   UNL A   1      30.894  26.352  23.208  1.00  0.00    -0.169 F 
ATOM     87  F   UNL A   1      29.834  24.449  23.272  1.00  0.00    -0.169 F 
ENDBRANCH  80  84
BRANCH  81  88
ATOM     88  C   UNL A   1      33.080  22.126  24.610  1.00  0.00    -0.022 A 
ATOM     89  C   UNL A   1      34.464  21.881  24.818  1.00  0.00     0.010 A 
ATOM     90  C   UNL A   1      32.210  21.033  24.459  1.00  0.00     0.056 A 
ATOM     91  C   UNL A   1      34.976  20.581  24.870  1.00  0.00     0.051 A 
ATOM     92  C   UNL A   1      32.745  19.765  24.518  1.00  0.00     0.166 A 
ATOM     93  C   UNL A   1      34.087  19.543  24.723  1.00  0.00     0.165 A 
ATOM     94  O   UNL A   1      32.054  18.609  24.351  1.00  0.00    -0.454 OA
ATOM     95  O   UNL A   1      34.393  18.216  24.745  1.00  0.00    -0.454 OA
ATOM     96  C   UNL A   1      33.062  17.645  24.687  1.00  0.00     0.468 C 
ENDBRANCH  81  88
ENDBRANCH  72  74
ENDBRANCH  71  72
ENDBRANCH  70  71
ENDBRANCH   1  70
TORSDOF 16
ENDMDL
