MODEL 1
REMARK VINA RESULT:     -12.4      0.000      0.000
REMARK SMILES Cc1c(/C=C/C(=O)OCCOC(=O)c2ccc(-c3c4nc(c(-c5cccc(S(=O)(=O)[O-])c5F)c5ccc([nH]5)c(-c5cccc(S(=O)(=O)[O-])c5F)c5nc(c(-c6cccc(S(=O)(=O)[O-])c6F)c6ccc3[nH]6)C=C5)C=C4)cc2)cccc1C(=O)N1C[C@@H](C)[C@@H](C)C1
REMARK SMILES IDX 9 1 8 2 6 3 7 4 5 5 4 6 3 7 1 8 2 9 80 10 77 11 79 12 78 13
REMARK SMILES IDX 81 14 82 15 83 16 84 17 89 18 85 19 87 20 86 21 88 22 10 23
REMARK SMILES IDX 11 24 12 25 13 26 14 27 15 28 76 29 16 30 75 31 17 32 18 33
REMARK SMILES IDX 19 34 69 35 20 36 74 37 68 38 70 39 21 40 73 41 67 42 66 43
REMARK SMILES IDX 22 45 54 46 34 47 53 48 35 49 38 50 52 51 71 52 36 53 37 54
REMARK SMILES IDX 51 56 72 57 39 58 23 59 24 60 32 61 25 62 27 63 33 64 26 65
REMARK SMILES IDX 28 66 29 67 30 68 31 69 55 70 56 71 64 72 57 73 59 74 65 75
REMARK SMILES IDX 58 76 60 77 61 78 62 79 63 80 40 81 41 82 49 83 42 84 44 85
REMARK SMILES IDX 50 86 43 87 45 88 46 89 47 90 48 91
REMARK H PARENT 70 44 38 55
REMARK Flexibility Score: inf
ROOT
ATOM      1  C   UNL A   1      32.711  29.531  25.476  1.00  0.00     0.275 C 
ENDROOT
BRANCH   1   2
ATOM      2  O   UNL A   1      31.299  29.628  25.323  1.00  0.00    -0.459 OA
BRANCH   2   3
ATOM      3  C   UNL A   1      30.817  29.229  24.128  1.00  0.00     0.330 C 
ATOM      4  O   UNL A   1      30.260  29.946  23.311  1.00  0.00    -0.247 OA
BRANCH   3   5
ATOM      5  C   UNL A   1      31.038  27.789  23.914  1.00  0.00     0.094 C 
ATOM      6  C   UNL A   1      30.390  26.827  24.589  1.00  0.00     0.016 C 
BRANCH   6   7
ATOM      7  C   UNL A   1      30.844  25.434  24.519  1.00  0.00    -0.022 A 
ATOM      8  C   UNL A   1      32.134  25.869  26.629  1.00  0.00     0.046 C 
ATOM      9  C   UNL A   1      31.734  24.945  25.509  1.00  0.00    -0.031 A 
ATOM     10  C   UNL A   1      32.201  23.614  25.398  1.00  0.00     0.043 A 
ATOM     11  C   UNL A   1      30.458  24.635  23.438  1.00  0.00     0.008 A 
ATOM     12  C   UNL A   1      31.809  22.831  24.296  1.00  0.00     0.014 A 
ATOM     13  C   UNL A   1      30.941  23.335  23.327  1.00  0.00     0.001 A 
BRANCH  10  14
ATOM     14  C   UNL A   1      33.328  23.071  26.214  1.00  0.00     0.254 C 
ATOM     15  O   UNL A   1      33.042  22.527  27.284  1.00  0.00    -0.269 OA
BRANCH  14  16
ATOM     16  N   UNL A   1      34.612  23.032  25.710  1.00  0.00    -0.338 N 
ATOM     17  C   UNL A   1      35.470  21.926  26.062  1.00  0.00     0.123 C 
ATOM     18  C   UNL A   1      35.325  24.066  24.969  1.00  0.00     0.123 C 
ATOM     19  C   UNL A   1      36.871  22.311  25.605  1.00  0.00     0.010 C 
ATOM     20  C   UNL A   1      36.650  23.411  24.542  1.00  0.00     0.010 C 
ATOM     21  C   UNL A   1      37.662  21.083  25.169  1.00  0.00     0.010 C 
ATOM     22  C   UNL A   1      36.619  22.922  23.095  1.00  0.00     0.010 C 
ENDBRANCH  14  16
ENDBRANCH  10  14
ENDBRANCH   6   7
ENDBRANCH   3   5
ENDBRANCH   2   3
ENDBRANCH   1   2
BRANCH   1  23
ATOM     23  C   UNL A   1      33.242  29.744  26.909  1.00  0.00     0.275 C 
BRANCH  23  24
ATOM     24  O   UNL A   1      34.166  30.838  27.213  1.00  0.00    -0.458 OA
BRANCH  24  25
ATOM     25  C   UNL A   1      34.833  31.235  28.342  1.00  0.00     0.338 C 
ATOM     26  O   UNL A   1      34.389  32.088  29.070  1.00  0.00    -0.246 OA
BRANCH  25  27
ATOM     27  C   UNL A   1      36.084  30.529  28.673  1.00  0.00     0.060 A 
ATOM     28  C   UNL A   1      36.250  29.844  29.889  1.00  0.00     0.016 A 
ATOM     29  C   UNL A   1      37.055  30.468  27.698  1.00  0.00     0.016 A 
ATOM     30  C   UNL A   1      37.360  29.010  30.070  1.00  0.00     0.010 A 
ATOM     31  C   UNL A   1      37.969  29.458  27.763  1.00  0.00     0.010 A 
ATOM     32  C   UNL A   1      38.205  28.807  28.984  1.00  0.00    -0.014 A 
BRANCH  32  33
ATOM     33  C   UNL A   1      39.550  28.253  29.040  1.00  0.00     0.031 A 
ATOM     34  C   UNL A   1      39.925  26.890  28.679  1.00  0.00     0.074 A 
ATOM     35  C   UNL A   1      40.484  29.224  29.181  1.00  0.00     0.049 A 
ATOM     36  N   UNL A   1      41.025  26.358  29.086  1.00  0.00    -0.248 NA
ATOM     37  C   UNL A   1      39.136  26.024  27.812  1.00  0.00     0.031 C 
ATOM     38  C   UNL A   1      41.870  29.276  28.774  1.00  0.00     0.029 A 
ATOM     39  N   UNL A   1      40.259  30.473  29.768  1.00  0.00    -0.354 N 
ATOM     40  C   UNL A   1      41.244  25.252  28.302  1.00  0.00     0.074 A 
ATOM     41  C   UNL A   1      39.986  25.002  27.628  1.00  0.00     0.031 C 
ATOM     42  C   UNL A   1      42.426  30.380  29.311  1.00  0.00     0.029 A 
ATOM     43  C   UNL A   1      41.465  30.952  30.248  1.00  0.00     0.049 A 
ATOM     44  H   UNL A   1      39.390  30.933  29.828  1.00  0.00     0.167 HD
ATOM     45  C   UNL A   1      42.520  24.811  28.116  1.00  0.00     0.034 A 
ATOM     46  C   UNL A   1      41.625  31.196  31.583  1.00  0.00     0.034 A 
ATOM     47  C   UNL A   1      43.490  25.735  28.737  1.00  0.00     0.049 A 
ATOM     48  C   UNL A   1      42.654  30.243  32.170  1.00  0.00     0.074 A 
ATOM     49  C   UNL A   1      44.298  26.737  28.221  1.00  0.00     0.029 A 
ATOM     50  N   UNL A   1      43.489  25.927  30.110  1.00  0.00    -0.354 N 
ATOM     51  N   UNL A   1      43.323  29.357  31.485  1.00  0.00    -0.248 NA
ATOM     52  C   UNL A   1      42.901  30.135  33.602  1.00  0.00     0.031 C 
ATOM     53  C   UNL A   1      44.800  27.517  29.303  1.00  0.00     0.029 A 
ATOM     54  C   UNL A   1      44.314  26.982  30.482  1.00  0.00     0.049 A 
ATOM     55  H   UNL A   1      42.968  25.383  30.745  1.00  0.00     0.167 HD
ATOM     56  C   UNL A   1      43.894  28.451  32.338  1.00  0.00     0.074 A 
ATOM     57  C   UNL A   1      43.622  29.004  33.657  1.00  0.00     0.031 C 
ATOM     58  C   UNL A   1      44.474  27.287  31.901  1.00  0.00     0.034 A 
BRANCH  45  59
ATOM     59  C   UNL A   1      42.913  23.775  27.076  1.00  0.00     0.023 A 
ATOM     60  C   UNL A   1      43.421  24.244  25.844  1.00  0.00     0.012 A 
ATOM     61  C   UNL A   1      42.807  22.370  27.213  1.00  0.00     0.148 A 
ATOM     62  C   UNL A   1      43.700  23.396  24.770  1.00  0.00     0.002 A 
ATOM     63  C   UNL A   1      43.036  21.522  26.121  1.00  0.00     0.091 A 
ATOM     64  F   UNL A   1      42.537  21.843  28.415  1.00  0.00    -0.205 F 
ATOM     65  C   UNL A   1      43.476  22.036  24.896  1.00  0.00     0.022 A 
BRANCH  63  66
ATOM     66  S   UNL A   1      42.682  19.755  26.167  1.00  0.00     0.127 S 
ATOM     67  O   UNL A   1      41.542  19.644  25.253  1.00  0.00    -0.237 OA
ATOM     68  O   UNL A   1      43.921  19.169  25.663  1.00  0.00    -0.237 OA
ATOM     69  O   UNL A   1      42.353  19.451  27.555  1.00  0.00    -0.744 OA
ENDBRANCH  63  66
ENDBRANCH  45  59
BRANCH  46  70
ATOM     70  C   UNL A   1      40.327  31.574  32.268  1.00  0.00     0.023 A 
ATOM     71  C   UNL A   1      39.399  30.537  32.553  1.00  0.00     0.012 A 
ATOM     72  C   UNL A   1      40.227  32.766  33.012  1.00  0.00     0.148 A 
ATOM     73  C   UNL A   1      38.511  30.635  33.633  1.00  0.00     0.002 A 
ATOM     74  C   UNL A   1      39.348  32.850  34.092  1.00  0.00     0.091 A 
ATOM     75  F   UNL A   1      41.055  33.780  32.738  1.00  0.00    -0.205 F 
ATOM     76  C   UNL A   1      38.511  31.780  34.426  1.00  0.00     0.022 A 
BRANCH  74  77
ATOM     77  S   UNL A   1      39.431  34.286  35.170  1.00  0.00     0.127 S 
ATOM     78  O   UNL A   1      38.617  33.892  36.319  1.00  0.00    -0.237 OA
ATOM     79  O   UNL A   1      40.852  34.403  35.469  1.00  0.00    -0.237 OA
ATOM     80  O   UNL A   1      38.846  35.325  34.329  1.00  0.00    -0.744 OA
ENDBRANCH  74  77
ENDBRANCH  46  70
BRANCH  58  81
ATOM     81  C   UNL A   1      45.217  26.302  32.793  1.00  0.00     0.023 A 
ATOM     82  C   UNL A   1      46.578  26.011  32.593  1.00  0.00     0.012 A 
ATOM     83  C   UNL A   1      44.558  25.535  33.794  1.00  0.00     0.148 A 
ATOM     84  C   UNL A   1      47.285  25.136  33.424  1.00  0.00     0.002 A 
ATOM     85  C   UNL A   1      45.249  24.637  34.597  1.00  0.00     0.091 A 
ATOM     86  F   UNL A   1      43.234  25.621  33.947  1.00  0.00    -0.205 F 
ATOM     87  C   UNL A   1      46.623  24.461  34.438  1.00  0.00     0.022 A 
BRANCH  85  88
ATOM     88  S   UNL A   1      44.428  23.617  35.830  1.00  0.00     0.127 S 
ATOM     89  O   UNL A   1      43.535  22.815  34.994  1.00  0.00    -0.237 OA
ATOM     90  O   UNL A   1      45.553  22.880  36.405  1.00  0.00    -0.237 OA
ATOM     91  O   UNL A   1      43.763  24.531  36.747  1.00  0.00    -0.744 OA
ENDBRANCH  85  88
ENDBRANCH  58  81
ENDBRANCH  32  33
ENDBRANCH  25  27
ENDBRANCH  24  25
ENDBRANCH  23  24
ENDBRANCH   1  23
TORSDOF 17
ENDMDL
MODEL 2
REMARK VINA RESULT:     -12.1      2.889      4.690
REMARK SMILES Cc1c(/C=C/C(=O)OCCOC(=O)c2ccc(-c3c4nc(c(-c5cccc(S(=O)(=O)[O-])c5F)c5ccc([nH]5)c(-c5cccc(S(=O)(=O)[O-])c5F)c5nc(c(-c6cccc(S(=O)(=O)[O-])c6F)c6ccc3[nH]6)C=C5)C=C4)cc2)cccc1C(=O)N1C[C@@H](C)[C@@H](C)C1
REMARK SMILES IDX 9 1 8 2 6 3 7 4 5 5 4 6 3 7 1 8 2 9 80 10 77 11 79 12 78 13
REMARK SMILES IDX 81 14 82 15 83 16 84 17 89 18 85 19 87 20 86 21 88 22 10 23
REMARK SMILES IDX 11 24 12 25 13 26 14 27 15 28 76 29 16 30 75 31 17 32 18 33
REMARK SMILES IDX 19 34 69 35 20 36 74 37 68 38 70 39 21 40 73 41 67 42 66 43
REMARK SMILES IDX 22 45 54 46 34 47 53 48 35 49 38 50 52 51 71 52 36 53 37 54
REMARK SMILES IDX 51 56 72 57 39 58 23 59 24 60 32 61 25 62 27 63 33 64 26 65
REMARK SMILES IDX 28 66 29 67 30 68 31 69 55 70 56 71 64 72 57 73 59 74 65 75
REMARK SMILES IDX 58 76 60 77 61 78 62 79 63 80 40 81 41 82 49 83 42 84 44 85
REMARK SMILES IDX 50 86 43 87 45 88 46 89 47 90 48 91
REMARK H PARENT 70 44 38 55
REMARK Flexibility Score: inf
ROOT
ATOM      1  C   UNL A   1      33.927  31.589  27.764  1.00  0.00     0.275 C 
ENDROOT
BRANCH   1   2
ATOM      2  O   UNL A   1      35.173  30.978  27.450  1.00  0.00    -0.459 OA
BRANCH   2   3
ATOM      3  C   UNL A   1      35.251  29.656  27.702  1.00  0.00     0.330 C 
ATOM      4  O   UNL A   1      36.191  29.087  28.235  1.00  0.00    -0.247 OA
BRANCH   3   5
ATOM      5  C   UNL A   1      34.041  28.951  27.246  1.00  0.00     0.094 C 
ATOM      6  C   UNL A   1      34.037  28.035  26.265  1.00  0.00     0.016 C 
BRANCH   6   7
ATOM      7  C   UNL A   1      32.773  27.572  25.683  1.00  0.00    -0.022 A 
ATOM      8  C   UNL A   1      33.353  28.916  23.643  1.00  0.00     0.046 C 
ATOM      9  C   UNL A   1      32.400  28.020  24.390  1.00  0.00    -0.031 A 
ATOM     10  C   UNL A   1      31.154  27.605  23.865  1.00  0.00     0.043 A 
ATOM     11  C   UNL A   1      31.919  26.763  26.439  1.00  0.00     0.008 A 
ATOM     12  C   UNL A   1      30.305  26.799  24.648  1.00  0.00     0.014 A 
ATOM     13  C   UNL A   1      30.686  26.378  25.923  1.00  0.00     0.001 A 
BRANCH  10  14
ATOM     14  C   UNL A   1      30.536  28.207  22.646  1.00  0.00     0.254 C 
ATOM     15  O   UNL A   1      30.495  27.510  21.629  1.00  0.00    -0.269 OA
BRANCH  14  16
ATOM     16  N   UNL A   1      29.893  29.426  22.708  1.00  0.00    -0.338 N 
ATOM     17  C   UNL A   1      29.527  30.089  21.479  1.00  0.00     0.123 C 
ATOM     18  C   UNL A   1      29.653  30.265  23.877  1.00  0.00     0.123 C 
ATOM     19  C   UNL A   1      29.112  31.503  21.864  1.00  0.00     0.010 C 
ATOM     20  C   UNL A   1      28.768  31.417  23.368  1.00  0.00     0.010 C 
ATOM     21  C   UNL A   1      28.020  32.025  20.938  1.00  0.00     0.010 C 
ATOM     22  C   UNL A   1      27.290  31.200  23.688  1.00  0.00     0.010 C 
ENDBRANCH  14  16
ENDBRANCH  10  14
ENDBRANCH   6   7
ENDBRANCH   3   5
ENDBRANCH   2   3
ENDBRANCH   1   2
BRANCH   1  23
ATOM     23  C   UNL A   1      33.996  33.081  28.153  1.00  0.00     0.275 C 
BRANCH  23  24
ATOM     24  O   UNL A   1      34.501  33.493  29.464  1.00  0.00    -0.458 OA
BRANCH  24  25
ATOM     25  C   UNL A   1      34.951  32.815  30.566  1.00  0.00     0.338 C 
ATOM     26  O   UNL A   1      34.271  32.697  31.555  1.00  0.00    -0.246 OA
BRANCH  25  27
ATOM     27  C   UNL A   1      36.275  32.173  30.474  1.00  0.00     0.060 A 
ATOM     28  C   UNL A   1      37.342  32.771  29.781  1.00  0.00     0.016 A 
ATOM     29  C   UNL A   1      36.467  31.011  31.187  1.00  0.00     0.016 A 
ATOM     30  C   UNL A   1      38.632  32.239  29.902  1.00  0.00     0.010 A 
ATOM     31  C   UNL A   1      37.743  30.667  31.526  1.00  0.00     0.010 A 
ATOM     32  C   UNL A   1      38.824  31.196  30.801  1.00  0.00    -0.014 A 
BRANCH  32  33
ATOM     33  C   UNL A   1      39.978  30.310  30.848  1.00  0.00     0.031 A 
ATOM     34  C   UNL A   1      40.186  29.136  30.007  1.00  0.00     0.074 A 
ATOM     35  C   UNL A   1      40.996  30.854  31.557  1.00  0.00     0.049 A 
ATOM     36  N   UNL A   1      41.015  28.205  30.332  1.00  0.00    -0.248 NA
ATOM     37  C   UNL A   1      39.524  28.915  28.728  1.00  0.00     0.031 C 
ATOM     38  C   UNL A   1      42.426  30.667  31.464  1.00  0.00     0.029 A 
ATOM     39  N   UNL A   1      40.847  31.801  32.575  1.00  0.00    -0.354 N 
ATOM     40  C   UNL A   1      41.239  27.461  29.200  1.00  0.00     0.074 A 
ATOM     41  C   UNL A   1      40.193  27.844  28.274  1.00  0.00     0.031 C 
ATOM     42  C   UNL A   1      43.003  31.285  32.514  1.00  0.00     0.029 A 
ATOM     43  C   UNL A   1      41.940  31.707  33.420  1.00  0.00     0.049 A 
ATOM     44  H   UNL A   1      40.094  32.428  32.674  1.00  0.00     0.167 HD
ATOM     45  C   UNL A   1      42.415  26.784  29.071  1.00  0.00     0.034 A 
ATOM     46  C   UNL A   1      41.765  31.377  34.735  1.00  0.00     0.034 A 
ATOM     47  C   UNL A   1      43.326  27.098  30.190  1.00  0.00     0.049 A 
ATOM     48  C   UNL A   1      42.402  30.027  35.025  1.00  0.00     0.074 A 
ATOM     49  C   UNL A   1      44.412  27.952  30.309  1.00  0.00     0.029 A 
ATOM     50  N   UNL A   1      42.979  26.753  31.488  1.00  0.00    -0.354 N 
ATOM     51  N   UNL A   1      43.063  29.314  34.155  1.00  0.00    -0.248 NA
ATOM     52  C   UNL A   1      42.219  29.326  36.288  1.00  0.00     0.031 C 
ATOM     53  C   UNL A   1      44.727  28.095  31.691  1.00  0.00     0.029 A 
ATOM     54  C   UNL A   1      43.846  27.315  32.417  1.00  0.00     0.049 A 
ATOM     55  H   UNL A   1      42.214  26.179  31.723  1.00  0.00     0.167 HD
ATOM     56  C   UNL A   1      43.202  28.034  34.619  1.00  0.00     0.074 A 
ATOM     57  C   UNL A   1      42.680  28.104  35.977  1.00  0.00     0.031 C 
ATOM     58  C   UNL A   1      43.660  27.007  33.833  1.00  0.00     0.034 A 
BRANCH  45  59
ATOM     59  C   UNL A   1      42.886  26.149  27.774  1.00  0.00     0.023 A 
ATOM     60  C   UNL A   1      43.369  27.009  26.761  1.00  0.00     0.012 A 
ATOM     61  C   UNL A   1      42.876  24.768  27.466  1.00  0.00     0.148 A 
ATOM     62  C   UNL A   1      43.714  26.556  25.486  1.00  0.00     0.002 A 
ATOM     63  C   UNL A   1      43.170  24.317  26.173  1.00  0.00     0.091 A 
ATOM     64  F   UNL A   1      42.634  23.878  28.439  1.00  0.00    -0.205 F 
ATOM     65  C   UNL A   1      43.583  25.212  25.180  1.00  0.00     0.022 A 
BRANCH  63  66
ATOM     66  S   UNL A   1      42.939  22.604  25.660  1.00  0.00     0.127 S 
ATOM     67  O   UNL A   1      43.924  21.898  26.484  1.00  0.00    -0.237 OA
ATOM     68  O   UNL A   1      41.549  22.346  26.024  1.00  0.00    -0.237 OA
ATOM     69  O   UNL A   1      43.239  22.573  24.232  1.00  0.00    -0.744 OA
ENDBRANCH  63  66
ENDBRANCH  45  59
BRANCH  46  70
ATOM     70  C   UNL A   1      40.419  31.817  35.275  1.00  0.00     0.023 A 
ATOM     71  C   UNL A   1      39.275  31.060  34.905  1.00  0.00     0.012 A 
ATOM     72  C   UNL A   1      40.334  32.608  36.437  1.00  0.00     0.148 A 
ATOM     73  C   UNL A   1      38.153  30.986  35.742  1.00  0.00     0.002 A 
ATOM     74  C   UNL A   1      39.217  32.519  37.269  1.00  0.00     0.091 A 
ATOM     75  F   UNL A   1      41.376  33.369  36.789  1.00  0.00    -0.205 F 
ATOM     76  C   UNL A   1      38.139  31.689  36.944  1.00  0.00     0.022 A 
BRANCH  74  77
ATOM     77  S   UNL A   1      39.256  33.345  38.865  1.00  0.00     0.127 S 
ATOM     78  O   UNL A   1      37.955  33.014  39.446  1.00  0.00    -0.237 OA
ATOM     79  O   UNL A   1      40.380  32.716  39.545  1.00  0.00    -0.237 OA
ATOM     80  O   UNL A   1      39.418  34.741  38.475  1.00  0.00    -0.744 OA
ENDBRANCH  74  77
ENDBRANCH  46  70
BRANCH  58  81
ATOM     81  C   UNL A   1      43.936  25.595  34.328  1.00  0.00     0.023 A 
ATOM     82  C   UNL A   1      42.891  24.694  34.604  1.00  0.00     0.012 A 
ATOM     83  C   UNL A   1      45.246  25.145  34.652  1.00  0.00     0.148 A 
ATOM     84  C   UNL A   1      43.128  23.382  35.025  1.00  0.00     0.002 A 
ATOM     85  C   UNL A   1      45.481  23.854  35.107  1.00  0.00     0.091 A 
ATOM     86  F   UNL A   1      46.284  25.982  34.581  1.00  0.00    -0.205 F 
ATOM     87  C   UNL A   1      44.426  22.956  35.261  1.00  0.00     0.022 A 
BRANCH  85  88
ATOM     88  S   UNL A   1      47.121  23.281  35.576  1.00  0.00     0.127 S 
ATOM     89  O   UNL A   1      47.892  23.595  34.374  1.00  0.00    -0.237 OA
ATOM     90  O   UNL A   1      47.415  24.131  36.730  1.00  0.00    -0.237 OA
ATOM     91  O   UNL A   1      46.994  21.863  35.877  1.00  0.00    -0.744 OA
ENDBRANCH  85  88
ENDBRANCH  58  81
ENDBRANCH  32  33
ENDBRANCH  25  27
ENDBRANCH  24  25
ENDBRANCH  23  24
ENDBRANCH   1  23
TORSDOF 17
ENDMDL
MODEL 3
REMARK VINA RESULT:     -12.1      4.446     10.010
REMARK SMILES Cc1c(/C=C/C(=O)OCCOC(=O)c2ccc(-c3c4nc(c(-c5cccc(S(=O)(=O)[O-])c5F)c5ccc([nH]5)c(-c5cccc(S(=O)(=O)[O-])c5F)c5nc(c(-c6cccc(S(=O)(=O)[O-])c6F)c6ccc3[nH]6)C=C5)C=C4)cc2)cccc1C(=O)N1C[C@@H](C)[C@@H](C)C1
REMARK SMILES IDX 9 1 8 2 6 3 7 4 5 5 4 6 3 7 1 8 2 9 80 10 77 11 79 12 78 13
REMARK SMILES IDX 81 14 82 15 83 16 84 17 89 18 85 19 87 20 86 21 88 22 10 23
REMARK SMILES IDX 11 24 12 25 13 26 14 27 15 28 76 29 16 30 75 31 17 32 18 33
REMARK SMILES IDX 19 34 69 35 20 36 74 37 68 38 70 39 21 40 73 41 67 42 66 43
REMARK SMILES IDX 22 45 54 46 34 47 53 48 35 49 38 50 52 51 71 52 36 53 37 54
REMARK SMILES IDX 51 56 72 57 39 58 23 59 24 60 32 61 25 62 27 63 33 64 26 65
REMARK SMILES IDX 28 66 29 67 30 68 31 69 55 70 56 71 64 72 57 73 59 74 65 75
REMARK SMILES IDX 58 76 60 77 61 78 62 79 63 80 40 81 41 82 49 83 42 84 44 85
REMARK SMILES IDX 50 86 43 87 45 88 46 89 47 90 48 91
REMARK H PARENT 70 44 38 55
REMARK Flexibility Score: inf
ROOT
ATOM      1  C   UNL A   1      39.367  21.689  26.061  1.00  0.00     0.275 C 
ENDROOT
BRANCH   1   2
ATOM      2  O   UNL A   1      39.272  22.744  27.011  1.00  0.00    -0.459 OA
BRANCH   2   3
ATOM      3  C   UNL A   1      38.577  23.827  26.608  1.00  0.00     0.330 C 
ATOM      4  O   UNL A   1      38.780  24.976  26.965  1.00  0.00    -0.247 OA
BRANCH   3   5
ATOM      5  C   UNL A   1      37.508  23.457  25.664  1.00  0.00     0.094 C 
ATOM      6  C   UNL A   1      36.251  23.922  25.741  1.00  0.00     0.016 C 
BRANCH   6   7
ATOM      7  C   UNL A   1      35.183  23.315  24.942  1.00  0.00    -0.022 A 
ATOM      8  C   UNL A   1      34.574  21.980  26.980  1.00  0.00     0.046 C 
ATOM      9  C   UNL A   1      34.353  22.327  25.530  1.00  0.00    -0.031 A 
ATOM     10  C   UNL A   1      33.360  21.715  24.730  1.00  0.00     0.043 A 
ATOM     11  C   UNL A   1      35.047  23.660  23.593  1.00  0.00     0.008 A 
ATOM     12  C   UNL A   1      33.248  22.069  23.373  1.00  0.00     0.014 A 
ATOM     13  C   UNL A   1      34.081  23.037  22.809  1.00  0.00     0.001 A 
BRANCH  10  14
ATOM     14  C   UNL A   1      32.608  20.494  25.148  1.00  0.00     0.254 C 
ATOM     15  O   UNL A   1      31.427  20.640  25.472  1.00  0.00    -0.269 OA
BRANCH  14  16
ATOM     16  N   UNL A   1      33.166  19.240  25.014  1.00  0.00    -0.338 N 
ATOM     17  C   UNL A   1      32.540  18.120  25.675  1.00  0.00     0.123 C 
ATOM     18  C   UNL A   1      34.443  18.876  24.409  1.00  0.00     0.123 C 
ATOM     19  C   UNL A   1      33.526  16.963  25.583  1.00  0.00     0.010 C 
ATOM     20  C   UNL A   1      34.464  17.337  24.412  1.00  0.00     0.010 C 
ATOM     21  C   UNL A   1      32.798  15.628  25.480  1.00  0.00     0.010 C 
ATOM     22  C   UNL A   1      34.080  16.747  23.056  1.00  0.00     0.010 C 
ENDBRANCH  14  16
ENDBRANCH  10  14
ENDBRANCH   6   7
ENDBRANCH   3   5
ENDBRANCH   2   3
ENDBRANCH   1   2
BRANCH   1  23
ATOM     23  C   UNL A   1      40.613  20.788  26.188  1.00  0.00     0.275 C 
BRANCH  23  24
ATOM     24  O   UNL A   1      41.958  21.365  26.221  1.00  0.00    -0.458 OA
BRANCH  24  25
ATOM     25  C   UNL A   1      42.513  22.512  25.718  1.00  0.00     0.338 C 
ATOM     26  O   UNL A   1      42.985  22.552  24.609  1.00  0.00    -0.246 OA
BRANCH  25  27
ATOM     27  C   UNL A   1      42.451  23.721  26.561  1.00  0.00     0.060 A 
ATOM     28  C   UNL A   1      42.540  23.653  27.962  1.00  0.00     0.016 A 
ATOM     29  C   UNL A   1      42.414  24.939  25.920  1.00  0.00     0.016 A 
ATOM     30  C   UNL A   1      42.697  24.830  28.704  1.00  0.00     0.010 A 
ATOM     31  C   UNL A   1      42.842  26.039  26.604  1.00  0.00     0.010 A 
ATOM     32  C   UNL A   1      42.871  26.021  28.007  1.00  0.00    -0.014 A 
BRANCH  32  33
ATOM     33  C   UNL A   1      42.735  27.362  28.558  1.00  0.00     0.031 A 
ATOM     34  C   UNL A   1      41.477  28.062  28.793  1.00  0.00     0.074 A 
ATOM     35  C   UNL A   1      43.892  27.792  29.116  1.00  0.00     0.049 A 
ATOM     36  N   UNL A   1      41.427  29.342  28.927  1.00  0.00    -0.248 NA
ATOM     37  C   UNL A   1      40.184  27.404  28.933  1.00  0.00     0.031 C 
ATOM     38  C   UNL A   1      44.140  28.728  30.188  1.00  0.00     0.029 A 
ATOM     39  N   UNL A   1      45.168  27.354  28.750  1.00  0.00    -0.354 N 
ATOM     40  C   UNL A   1      40.205  29.635  29.481  1.00  0.00     0.074 A 
ATOM     41  C   UNL A   1      39.417  28.429  29.335  1.00  0.00     0.031 C 
ATOM     42  C   UNL A   1      45.466  28.964  30.245  1.00  0.00     0.029 A 
ATOM     43  C   UNL A   1      46.078  28.345  29.074  1.00  0.00     0.049 A 
ATOM     44  H   UNL A   1      45.383  26.487  28.335  1.00  0.00     0.167 HD
ATOM     45  C   UNL A   1      40.064  30.774  30.217  1.00  0.00     0.034 A 
ATOM     46  C   UNL A   1      46.825  28.938  28.095  1.00  0.00     0.034 A 
ATOM     47  C   UNL A   1      41.364  31.452  30.386  1.00  0.00     0.049 A 
ATOM     48  C   UNL A   1      46.447  30.405  27.963  1.00  0.00     0.074 A 
ATOM     49  C   UNL A   1      42.277  31.492  31.429  1.00  0.00     0.029 A 
ATOM     50  N   UNL A   1      42.038  31.951  29.281  1.00  0.00    -0.354 N 
ATOM     51  N   UNL A   1      45.572  31.017  28.711  1.00  0.00    -0.248 NA
ATOM     52  C   UNL A   1      46.937  31.250  26.882  1.00  0.00     0.031 C 
ATOM     53  C   UNL A   1      43.498  32.041  30.943  1.00  0.00     0.029 A 
ATOM     54  C   UNL A   1      43.327  32.356  29.607  1.00  0.00     0.049 A 
ATOM     55  H   UNL A   1      41.652  32.011  28.378  1.00  0.00     0.167 HD
ATOM     56  C   UNL A   1      45.217  32.203  28.127  1.00  0.00     0.074 A 
ATOM     57  C   UNL A   1      46.126  32.314  26.995  1.00  0.00     0.031 C 
ATOM     58  C   UNL A   1      44.161  32.959  28.570  1.00  0.00     0.034 A 
BRANCH  45  59
ATOM     59  C   UNL A   1      38.855  31.073  31.087  1.00  0.00     0.023 A 
ATOM     60  C   UNL A   1      38.803  30.472  32.365  1.00  0.00     0.012 A 
ATOM     61  C   UNL A   1      37.754  31.891  30.738  1.00  0.00     0.148 A 
ATOM     62  C   UNL A   1      37.690  30.573  33.203  1.00  0.00     0.002 A 
ATOM     63  C   UNL A   1      36.616  31.951  31.552  1.00  0.00     0.091 A 
ATOM     64  F   UNL A   1      37.824  32.657  29.641  1.00  0.00    -0.205 F 
ATOM     65  C   UNL A   1      36.581  31.286  32.783  1.00  0.00     0.022 A 
BRANCH  63  66
ATOM     66  S   UNL A   1      35.095  32.776  31.046  1.00  0.00     0.127 S 
ATOM     67  O   UNL A   1      34.771  32.087  29.793  1.00  0.00    -0.237 OA
ATOM     68  O   UNL A   1      34.188  32.481  32.151  1.00  0.00    -0.237 OA
ATOM     69  O   UNL A   1      35.445  34.181  30.867  1.00  0.00    -0.744 OA
ENDBRANCH  63  66
ENDBRANCH  45  59
BRANCH  46  70
ATOM     70  C   UNL A   1      47.087  28.017  26.920  1.00  0.00     0.023 A 
ATOM     71  C   UNL A   1      46.024  27.786  26.006  1.00  0.00     0.012 A 
ATOM     72  C   UNL A   1      48.401  27.779  26.471  1.00  0.00     0.148 A 
ATOM     73  C   UNL A   1      46.277  27.477  24.663  1.00  0.00     0.002 A 
ATOM     74  C   UNL A   1      48.643  27.482  25.129  1.00  0.00     0.091 A 
ATOM     75  F   UNL A   1      49.422  27.941  27.320  1.00  0.00    -0.205 F 
ATOM     76  C   UNL A   1      47.591  27.360  24.216  1.00  0.00     0.022 A 
BRANCH  74  77
ATOM     77  S   UNL A   1      50.342  27.439  24.543  1.00  0.00     0.127 S 
ATOM     78  O   UNL A   1      50.931  26.335  25.301  1.00  0.00    -0.237 OA
ATOM     79  O   UNL A   1      50.201  27.165  23.119  1.00  0.00    -0.237 OA
ATOM     80  O   UNL A   1      50.821  28.765  24.916  1.00  0.00    -0.744 OA
ENDBRANCH  74  77
ENDBRANCH  46  70
BRANCH  58  81
ATOM     81  C   UNL A   1      43.793  34.333  28.028  1.00  0.00     0.023 A 
ATOM     82  C   UNL A   1      43.193  34.490  26.765  1.00  0.00     0.012 A 
ATOM     83  C   UNL A   1      44.137  35.535  28.706  1.00  0.00     0.148 A 
ATOM     84  C   UNL A   1      42.817  35.741  26.268  1.00  0.00     0.002 A 
ATOM     85  C   UNL A   1      43.797  36.782  28.196  1.00  0.00     0.091 A 
ATOM     86  F   UNL A   1      44.853  35.494  29.832  1.00  0.00    -0.205 F 
ATOM     87  C   UNL A   1      43.103  36.888  26.992  1.00  0.00     0.022 A 
BRANCH  85  88
ATOM     88  S   UNL A   1      44.271  38.316  29.007  1.00  0.00     0.127 S 
ATOM     89  O   UNL A   1      43.754  38.101  30.359  1.00  0.00    -0.237 OA
ATOM     90  O   UNL A   1      45.730  38.274  28.897  1.00  0.00    -0.237 OA
ATOM     91  O   UNL A   1      43.633  39.392  28.264  1.00  0.00    -0.744 OA
ENDBRANCH  85  88
ENDBRANCH  58  81
ENDBRANCH  32  33
ENDBRANCH  25  27
ENDBRANCH  24  25
ENDBRANCH  23  24
ENDBRANCH   1  23
TORSDOF 17
ENDMDL
