MODEL 1
REMARK VINA RESULT:     -12.0      0.000      0.000
REMARK SMILES Cc1ccc(C#N)cc1S(=O)(=O)Nc1cccc(C(=O)OCCOC(=O)c2ccc(-c3c4nc(c(-c5cccc(S(=O)(=O)[O-])c5F)c5ccc([nH]5)c(-c5cccc(S(=O)(=O)[O-])c5F)c5nc(c(-c6cccc(S(=O)(=O)[O-])c6F)c6ccc3[nH]6)C=C5)C=C4)cc2)c1
REMARK SMILES IDX 22 1 21 2 19 3 20 4 18 5 14 6 15 7 90 8 16 9 17 10 13 11
REMARK SMILES IDX 10 13 11 14 12 15 9 16 1 17 2 18 3 19 4 20 8 21 5 22 6 23
REMARK SMILES IDX 7 24 23 25 24 26 25 27 26 28 27 29 28 30 89 31 29 32 88 33
REMARK SMILES IDX 30 34 31 35 32 36 82 37 33 38 87 39 81 40 83 41 34 42 86 43
REMARK SMILES IDX 80 44 79 45 35 47 67 48 47 49 66 50 48 51 51 52 65 53 84 54
REMARK SMILES IDX 49 55 50 56 64 58 85 59 52 60 36 61 37 62 45 63 38 64 40 65
REMARK SMILES IDX 46 66 39 67 41 68 42 69 43 70 44 71 68 72 69 73 77 74 70 75
REMARK SMILES IDX 72 76 78 77 71 78 73 79 74 80 75 81 76 82 53 83 54 84 62 85
REMARK SMILES IDX 55 86 57 87 63 88 56 89 58 90 59 91 60 92 61 93
REMARK H PARENT 13 12 83 46 51 57
REMARK Flexibility Score: inf
ROOT
ATOM      1  C   UNL A   1      30.955  29.735  24.537  1.00  0.00     0.275 C 
ENDROOT
BRANCH   1   2
ATOM      2  O   UNL A   1      31.539  28.897  23.518  1.00  0.00    -0.458 OA
BRANCH   2   3
ATOM      3  C   UNL A   1      30.675  28.255  22.689  1.00  0.00     0.338 C 
ATOM      4  O   UNL A   1      29.822  28.787  21.997  1.00  0.00    -0.246 OA
BRANCH   3   5
ATOM      5  C   UNL A   1      30.943  26.788  22.651  1.00  0.00     0.062 A 
ATOM      6  C   UNL A   1      30.815  24.589  23.671  1.00  0.00     0.050 A 
ATOM      7  C   UNL A   1      31.720  24.083  22.741  1.00  0.00     0.027 A 
ATOM      8  C   UNL A   1      30.364  25.914  23.571  1.00  0.00     0.042 A 
ATOM      9  C   UNL A   1      32.262  24.940  21.779  1.00  0.00     0.003 A 
ATOM     10  C   UNL A   1      31.891  26.290  21.746  1.00  0.00     0.016 A 
BRANCH   6  11
ATOM     11  N   UNL A   1      30.415  23.915  24.848  1.00  0.00    -0.280 N 
ATOM     12  H   UNL A   1      29.450  23.914  25.040  1.00  0.00     0.180 HD
BRANCH  11  13
ATOM     13  S   UNL A   1      31.375  23.126  25.944  1.00  0.00     0.262 S 
ATOM     14  O   UNL A   1      31.175  21.703  25.768  1.00  0.00    -0.201 OA
ATOM     15  O   UNL A   1      31.039  23.751  27.210  1.00  0.00    -0.201 OA
BRANCH  13  16
ATOM     16  C   UNL A   1      33.131  23.417  25.724  1.00  0.00     0.092 A 
ATOM     17  C   UNL A   1      33.356  25.984  26.086  1.00  0.00     0.046 C 
ATOM     18  C   UNL A   1      33.838  24.629  25.679  1.00  0.00    -0.030 A 
ATOM     19  C   UNL A   1      35.181  24.605  25.235  1.00  0.00     0.006 A 
ATOM     20  C   UNL A   1      35.857  23.411  24.993  1.00  0.00     0.020 A 
ATOM     21  C   UNL A   1      33.843  22.212  25.525  1.00  0.00     0.042 A 
ATOM     22  C   UNL A   1      35.201  22.204  25.192  1.00  0.00     0.053 A 
BRANCH  22  23
ATOM     23  C   UNL A   1      35.906  20.964  25.069  1.00  0.00     0.099 C 
ATOM     24  N   UNL A   1      36.452  19.940  24.998  1.00  0.00    -0.192 NA
ENDBRANCH  22  23
ENDBRANCH  13  16
ENDBRANCH  11  13
ENDBRANCH   6  11
ENDBRANCH   3   5
ENDBRANCH   2   3
ENDBRANCH   1   2
BRANCH   1  25
ATOM     25  C   UNL A   1      31.725  29.685  25.861  1.00  0.00     0.275 C 
BRANCH  25  26
ATOM     26  O   UNL A   1      32.944  30.445  25.802  1.00  0.00    -0.458 OA
BRANCH  26  27
ATOM     27  C   UNL A   1      33.119  31.311  26.826  1.00  0.00     0.338 C 
ATOM     28  O   UNL A   1      32.315  32.126  27.247  1.00  0.00    -0.246 OA
BRANCH  27  29
ATOM     29  C   UNL A   1      34.395  31.023  27.494  1.00  0.00     0.060 A 
ATOM     30  C   UNL A   1      35.254  32.035  27.915  1.00  0.00     0.016 A 
ATOM     31  C   UNL A   1      34.689  29.686  27.762  1.00  0.00     0.016 A 
ATOM     32  C   UNL A   1      36.433  31.689  28.587  1.00  0.00     0.010 A 
ATOM     33  C   UNL A   1      35.840  29.347  28.467  1.00  0.00     0.010 A 
ATOM     34  C   UNL A   1      36.735  30.342  28.875  1.00  0.00    -0.014 A 
BRANCH  34  35
ATOM     35  C   UNL A   1      37.959  29.975  29.639  1.00  0.00     0.031 A 
ATOM     36  C   UNL A   1      38.179  30.473  31.045  1.00  0.00     0.074 A 
ATOM     37  C   UNL A   1      38.902  29.218  29.044  1.00  0.00     0.049 A 
ATOM     38  N   UNL A   1      39.165  30.200  31.862  1.00  0.00    -0.248 NA
ATOM     39  C   UNL A   1      37.188  31.410  31.604  1.00  0.00     0.031 C 
ATOM     40  C   UNL A   1      38.857  28.758  27.653  1.00  0.00     0.029 A 
ATOM     41  N   UNL A   1      40.077  28.699  29.526  1.00  0.00    -0.354 N 
ATOM     42  C   UNL A   1      38.925  30.942  33.013  1.00  0.00     0.074 A 
ATOM     43  C   UNL A   1      37.722  31.708  32.781  1.00  0.00     0.031 C 
ATOM     44  C   UNL A   1      39.928  27.986  27.411  1.00  0.00     0.029 A 
ATOM     45  C   UNL A   1      40.754  27.923  28.613  1.00  0.00     0.049 A 
ATOM     46  H   UNL A   1      40.406  28.867  30.438  1.00  0.00     0.167 HD
ATOM     47  C   UNL A   1      39.624  30.955  34.173  1.00  0.00     0.034 A 
ATOM     48  C   UNL A   1      41.904  27.230  28.725  1.00  0.00     0.034 A 
ATOM     49  C   UNL A   1      40.792  30.158  34.421  1.00  0.00     0.049 A 
ATOM     50  C   UNL A   1      42.637  27.225  30.035  1.00  0.00     0.074 A 
ATOM     51  C   UNL A   1      41.509  30.037  35.597  1.00  0.00     0.029 A 
ATOM     52  N   UNL A   1      41.418  29.355  33.481  1.00  0.00    -0.354 N 
ATOM     53  N   UNL A   1      42.315  27.826  31.153  1.00  0.00    -0.248 NA
ATOM     54  C   UNL A   1      43.875  26.434  30.110  1.00  0.00     0.031 C 
ATOM     55  C   UNL A   1      42.589  29.184  35.362  1.00  0.00     0.029 A 
ATOM     56  C   UNL A   1      42.521  28.746  34.049  1.00  0.00     0.049 A 
ATOM     57  H   UNL A   1      41.122  29.237  32.550  1.00  0.00     0.167 HD
ATOM     58  C   UNL A   1      43.293  27.469  32.072  1.00  0.00     0.074 A 
ATOM     59  C   UNL A   1      44.217  26.592  31.384  1.00  0.00     0.031 C 
ATOM     60  C   UNL A   1      43.411  27.843  33.368  1.00  0.00     0.034 A 
BRANCH  47  61
ATOM     61  C   UNL A   1      39.116  31.803  35.308  1.00  0.00     0.023 A 
ATOM     62  C   UNL A   1      38.198  31.251  36.222  1.00  0.00     0.012 A 
ATOM     63  C   UNL A   1      39.649  33.085  35.546  1.00  0.00     0.148 A 
ATOM     64  C   UNL A   1      37.813  31.963  37.357  1.00  0.00     0.002 A 
ATOM     65  C   UNL A   1      39.283  33.777  36.695  1.00  0.00     0.091 A 
ATOM     66  F   UNL A   1      40.518  33.590  34.659  1.00  0.00    -0.205 F 
ATOM     67  C   UNL A   1      38.365  33.218  37.600  1.00  0.00     0.022 A 
BRANCH  65  68
ATOM     68  S   UNL A   1      39.964  35.383  37.123  1.00  0.00     0.127 S 
ATOM     69  O   UNL A   1      41.393  35.080  37.214  1.00  0.00    -0.237 OA
ATOM     70  O   UNL A   1      39.585  36.195  35.968  1.00  0.00    -0.237 OA
ATOM     71  O   UNL A   1      39.336  35.768  38.379  1.00  0.00    -0.744 OA
ENDBRANCH  65  68
ENDBRANCH  47  61
BRANCH  48  72
ATOM     72  C   UNL A   1      42.380  26.429  27.566  1.00  0.00     0.023 A 
ATOM     73  C   UNL A   1      43.280  27.002  26.648  1.00  0.00     0.012 A 
ATOM     74  C   UNL A   1      42.015  25.076  27.426  1.00  0.00     0.148 A 
ATOM     75  C   UNL A   1      43.812  26.239  25.609  1.00  0.00     0.002 A 
ATOM     76  C   UNL A   1      42.577  24.313  26.412  1.00  0.00     0.091 A 
ATOM     77  F   UNL A   1      41.160  24.557  28.318  1.00  0.00    -0.205 F 
ATOM     78  C   UNL A   1      43.471  24.892  25.498  1.00  0.00     0.022 A 
BRANCH  76  79
ATOM     79  S   UNL A   1      42.268  22.552  26.244  1.00  0.00     0.127 S 
ATOM     80  O   UNL A   1      43.022  22.232  25.033  1.00  0.00    -0.237 OA
ATOM     81  O   UNL A   1      42.840  22.030  27.485  1.00  0.00    -0.237 OA
ATOM     82  O   UNL A   1      40.822  22.411  26.134  1.00  0.00    -0.744 OA
ENDBRANCH  76  79
ENDBRANCH  48  72
BRANCH  60  83
ATOM     83  C   UNL A   1      44.559  27.300  34.170  1.00  0.00     0.023 A 
ATOM     84  C   UNL A   1      45.755  28.037  34.257  1.00  0.00     0.012 A 
ATOM     85  C   UNL A   1      44.384  26.153  34.969  1.00  0.00     0.148 A 
ATOM     86  C   UNL A   1      46.762  27.640  35.135  1.00  0.00     0.002 A 
ATOM     87  C   UNL A   1      45.377  25.782  35.864  1.00  0.00     0.091 A 
ATOM     88  F   UNL A   1      43.232  25.475  34.863  1.00  0.00    -0.205 F 
ATOM     89  C   UNL A   1      46.568  26.523  35.948  1.00  0.00     0.022 A 
BRANCH  87  90
ATOM     90  S   UNL A   1      45.195  24.400  36.995  1.00  0.00     0.127 S 
ATOM     91  O   UNL A   1      46.502  24.381  37.652  1.00  0.00    -0.237 OA
ATOM     92  O   UNL A   1      44.091  24.840  37.846  1.00  0.00    -0.237 OA
ATOM     93  O   UNL A   1      44.907  23.234  36.170  1.00  0.00    -0.744 OA
ENDBRANCH  87  90
ENDBRANCH  60  83
ENDBRANCH  34  35
ENDBRANCH  27  29
ENDBRANCH  26  27
ENDBRANCH  25  26
ENDBRANCH   1  25
TORSDOF 18
ENDMDL
MODEL 2
REMARK VINA RESULT:     -12.0      5.100     10.071
REMARK SMILES Cc1ccc(C#N)cc1S(=O)(=O)Nc1cccc(C(=O)OCCOC(=O)c2ccc(-c3c4nc(c(-c5cccc(S(=O)(=O)[O-])c5F)c5ccc([nH]5)c(-c5cccc(S(=O)(=O)[O-])c5F)c5nc(c(-c6cccc(S(=O)(=O)[O-])c6F)c6ccc3[nH]6)C=C5)C=C4)cc2)c1
REMARK SMILES IDX 22 1 21 2 19 3 20 4 18 5 14 6 15 7 90 8 16 9 17 10 13 11
REMARK SMILES IDX 10 13 11 14 12 15 9 16 1 17 2 18 3 19 4 20 8 21 5 22 6 23
REMARK SMILES IDX 7 24 23 25 24 26 25 27 26 28 27 29 28 30 89 31 29 32 88 33
REMARK SMILES IDX 30 34 31 35 32 36 82 37 33 38 87 39 81 40 83 41 34 42 86 43
REMARK SMILES IDX 80 44 79 45 35 47 67 48 47 49 66 50 48 51 51 52 65 53 84 54
REMARK SMILES IDX 49 55 50 56 64 58 85 59 52 60 36 61 37 62 45 63 38 64 40 65
REMARK SMILES IDX 46 66 39 67 41 68 42 69 43 70 44 71 68 72 69 73 77 74 70 75
REMARK SMILES IDX 72 76 78 77 71 78 73 79 74 80 75 81 76 82 53 83 54 84 62 85
REMARK SMILES IDX 55 86 57 87 63 88 56 89 58 90 59 91 60 92 61 93
REMARK H PARENT 13 12 83 46 51 57
REMARK Flexibility Score: inf
ROOT
ATOM      1  C   UNL A   1      35.877  20.313  25.001  1.00  0.00     0.275 C 
ENDROOT
BRANCH   1   2
ATOM      2  O   UNL A   1      34.818  21.187  24.557  1.00  0.00    -0.458 OA
BRANCH   2   3
ATOM      3  C   UNL A   1      33.562  20.667  24.548  1.00  0.00     0.338 C 
ATOM      4  O   UNL A   1      33.275  19.494  24.725  1.00  0.00    -0.246 OA
BRANCH   3   5
ATOM      5  C   UNL A   1      32.532  21.731  24.374  1.00  0.00     0.062 A 
ATOM      6  C   UNL A   1      31.625  23.612  23.136  1.00  0.00     0.050 A 
ATOM      7  C   UNL A   1      30.788  23.935  24.202  1.00  0.00     0.027 A 
ATOM      8  C   UNL A   1      32.429  22.464  23.191  1.00  0.00     0.042 A 
ATOM      9  C   UNL A   1      30.845  23.171  25.371  1.00  0.00     0.003 A 
ATOM     10  C   UNL A   1      31.725  22.086  25.464  1.00  0.00     0.016 A 
BRANCH   6  11
ATOM     11  N   UNL A   1      31.869  24.454  22.027  1.00  0.00    -0.280 N 
ATOM     12  H   UNL A   1      31.683  24.068  21.141  1.00  0.00     0.180 HD
BRANCH  11  13
ATOM     13  S   UNL A   1      32.432  26.012  22.036  1.00  0.00     0.262 S 
ATOM     14  O   UNL A   1      31.352  26.878  21.611  1.00  0.00    -0.201 OA
ATOM     15  O   UNL A   1      33.653  25.943  21.255  1.00  0.00    -0.201 OA
BRANCH  13  16
ATOM     16  C   UNL A   1      32.938  26.599  23.654  1.00  0.00     0.092 A 
ATOM     17  C   UNL A   1      34.695  24.832  24.402  1.00  0.00     0.046 C 
ATOM     18  C   UNL A   1      33.776  25.993  24.603  1.00  0.00    -0.030 A 
ATOM     19  C   UNL A   1      33.812  26.537  25.908  1.00  0.00     0.006 A 
ATOM     20  C   UNL A   1      33.167  27.729  26.230  1.00  0.00     0.020 A 
ATOM     21  C   UNL A   1      32.331  27.834  23.979  1.00  0.00     0.042 A 
ATOM     22  C   UNL A   1      32.467  28.412  25.245  1.00  0.00     0.053 A 
BRANCH  22  23
ATOM     23  C   UNL A   1      31.899  29.698  25.515  1.00  0.00     0.099 C 
ATOM     24  N   UNL A   1      31.403  30.723  25.752  1.00  0.00    -0.192 NA
ENDBRANCH  22  23
ENDBRANCH  13  16
ENDBRANCH  11  13
ENDBRANCH   6  11
ENDBRANCH   3   5
ENDBRANCH   2   3
ENDBRANCH   1   2
BRANCH   1  25
ATOM     25  C   UNL A   1      37.273  20.868  24.696  1.00  0.00     0.275 C 
BRANCH  25  26
ATOM     26  O   UNL A   1      37.737  21.750  25.732  1.00  0.00    -0.458 OA
BRANCH  26  27
ATOM     27  C   UNL A   1      39.004  21.517  26.145  1.00  0.00     0.338 C 
ATOM     28  O   UNL A   1      39.651  20.495  25.994  1.00  0.00    -0.246 OA
BRANCH  27  29
ATOM     29  C   UNL A   1      39.577  22.759  26.680  1.00  0.00     0.060 A 
ATOM     30  C   UNL A   1      40.600  22.754  27.625  1.00  0.00     0.016 A 
ATOM     31  C   UNL A   1      39.106  23.961  26.150  1.00  0.00     0.016 A 
ATOM     32  C   UNL A   1      41.131  23.976  28.057  1.00  0.00     0.010 A 
ATOM     33  C   UNL A   1      39.665  25.171  26.549  1.00  0.00     0.010 A 
ATOM     34  C   UNL A   1      40.673  25.197  27.519  1.00  0.00    -0.014 A 
BRANCH  34  35
ATOM     35  C   UNL A   1      41.275  26.493  27.933  1.00  0.00     0.031 A 
ATOM     36  C   UNL A   1      42.706  26.832  27.599  1.00  0.00     0.074 A 
ATOM     37  C   UNL A   1      40.536  27.359  28.656  1.00  0.00     0.049 A 
ATOM     38  N   UNL A   1      43.360  27.939  27.842  1.00  0.00    -0.248 NA
ATOM     39  C   UNL A   1      43.516  25.799  26.929  1.00  0.00     0.031 C 
ATOM     40  C   UNL A   1      39.174  27.107  29.134  1.00  0.00     0.029 A 
ATOM     41  N   UNL A   1      40.819  28.621  29.115  1.00  0.00    -0.354 N 
ATOM     42  C   UNL A   1      44.653  27.730  27.377  1.00  0.00     0.074 A 
ATOM     43  C   UNL A   1      44.708  26.378  26.871  1.00  0.00     0.031 C 
ATOM     44  C   UNL A   1      38.723  28.198  29.773  1.00  0.00     0.029 A 
ATOM     45  C   UNL A   1      39.772  29.213  29.784  1.00  0.00     0.049 A 
ATOM     46  H   UNL A   1      41.689  29.061  28.979  1.00  0.00     0.167 HD
ATOM     47  C   UNL A   1      45.691  28.598  27.340  1.00  0.00     0.034 A 
ATOM     48  C   UNL A   1      39.659  30.436  30.338  1.00  0.00     0.034 A 
ATOM     49  C   UNL A   1      45.623  29.957  27.800  1.00  0.00     0.049 A 
ATOM     50  C   UNL A   1      40.808  31.396  30.246  1.00  0.00     0.074 A 
ATOM     51  C   UNL A   1      46.596  30.937  27.716  1.00  0.00     0.029 A 
ATOM     52  N   UNL A   1      44.531  30.527  28.432  1.00  0.00    -0.354 N 
ATOM     53  N   UNL A   1      41.975  31.221  29.679  1.00  0.00    -0.248 NA
ATOM     54  C   UNL A   1      40.624  32.726  30.848  1.00  0.00     0.031 C 
ATOM     55  C   UNL A   1      46.104  32.091  28.327  1.00  0.00     0.029 A 
ATOM     56  C   UNL A   1      44.811  31.840  28.756  1.00  0.00     0.049 A 
ATOM     57  H   UNL A   1      43.682  30.065  28.623  1.00  0.00     0.167 HD
ATOM     58  C   UNL A   1      42.656  32.422  29.830  1.00  0.00     0.074 A 
ATOM     59  C   UNL A   1      41.769  33.322  30.537  1.00  0.00     0.031 C 
ATOM     60  C   UNL A   1      43.907  32.741  29.423  1.00  0.00     0.034 A 
BRANCH  47  61
ATOM     61  C   UNL A   1      46.985  28.146  26.719  1.00  0.00     0.023 A 
ATOM     62  C   UNL A   1      47.998  27.621  27.545  1.00  0.00     0.012 A 
ATOM     63  C   UNL A   1      47.140  28.111  25.319  1.00  0.00     0.148 A 
ATOM     64  C   UNL A   1      49.151  27.070  26.988  1.00  0.00     0.002 A 
ATOM     65  C   UNL A   1      48.280  27.533  24.771  1.00  0.00     0.091 A 
ATOM     66  F   UNL A   1      46.163  28.619  24.556  1.00  0.00    -0.205 F 
ATOM     67  C   UNL A   1      49.286  27.014  25.602  1.00  0.00     0.022 A 
BRANCH  65  68
ATOM     68  S   UNL A   1      48.535  27.374  23.000  1.00  0.00     0.127 S 
ATOM     69  O   UNL A   1      49.929  27.796  22.865  1.00  0.00    -0.237 OA
ATOM     70  O   UNL A   1      48.307  25.945  22.785  1.00  0.00    -0.237 OA
ATOM     71  O   UNL A   1      47.562  28.254  22.369  1.00  0.00    -0.744 OA
ENDBRANCH  65  68
ENDBRANCH  47  61
BRANCH  48  72
ATOM     72  C   UNL A   1      38.368  30.827  30.965  1.00  0.00     0.023 A 
ATOM     73  C   UNL A   1      38.175  30.621  32.344  1.00  0.00     0.012 A 
ATOM     74  C   UNL A   1      37.374  31.486  30.217  1.00  0.00     0.148 A 
ATOM     75  C   UNL A   1      37.011  31.066  32.970  1.00  0.00     0.002 A 
ATOM     76  C   UNL A   1      36.234  31.959  30.853  1.00  0.00     0.091 A 
ATOM     77  F   UNL A   1      37.588  31.672  28.907  1.00  0.00    -0.205 F 
ATOM     78  C   UNL A   1      36.047  31.746  32.228  1.00  0.00     0.022 A 
BRANCH  76  79
ATOM     79  S   UNL A   1      34.982  32.923  30.001  1.00  0.00     0.127 S 
ATOM     80  O   UNL A   1      35.780  34.003  29.424  1.00  0.00    -0.237 OA
ATOM     81  O   UNL A   1      34.465  31.952  29.036  1.00  0.00    -0.237 OA
ATOM     82  O   UNL A   1      34.028  33.330  31.024  1.00  0.00    -0.744 OA
ENDBRANCH  76  79
ENDBRANCH  48  72
BRANCH  60  83
ATOM     83  C   UNL A   1      44.418  34.128  29.691  1.00  0.00     0.023 A 
ATOM     84  C   UNL A   1      45.075  34.404  30.904  1.00  0.00     0.012 A 
ATOM     85  C   UNL A   1      44.396  35.099  28.670  1.00  0.00     0.148 A 
ATOM     86  C   UNL A   1      45.710  35.629  31.097  1.00  0.00     0.002 A 
ATOM     87  C   UNL A   1      45.057  36.305  28.857  1.00  0.00     0.091 A 
ATOM     88  F   UNL A   1      43.764  34.804  27.526  1.00  0.00    -0.205 F 
ATOM     89  C   UNL A   1      45.714  36.573  30.069  1.00  0.00     0.022 A 
BRANCH  87  90
ATOM     90  S   UNL A   1      45.172  37.555  27.573  1.00  0.00     0.127 S 
ATOM     91  O   UNL A   1      45.825  36.812  26.494  1.00  0.00    -0.237 OA
ATOM     92  O   UNL A   1      43.768  37.877  27.329  1.00  0.00    -0.237 OA
ATOM     93  O   UNL A   1      45.962  38.643  28.134  1.00  0.00    -0.744 OA
ENDBRANCH  87  90
ENDBRANCH  60  83
ENDBRANCH  34  35
ENDBRANCH  27  29
ENDBRANCH  26  27
ENDBRANCH  25  26
ENDBRANCH   1  25
TORSDOF 18
ENDMDL
MODEL 3
REMARK VINA RESULT:     -11.7      1.460      2.049
REMARK SMILES Cc1ccc(C#N)cc1S(=O)(=O)Nc1cccc(C(=O)OCCOC(=O)c2ccc(-c3c4nc(c(-c5cccc(S(=O)(=O)[O-])c5F)c5ccc([nH]5)c(-c5cccc(S(=O)(=O)[O-])c5F)c5nc(c(-c6cccc(S(=O)(=O)[O-])c6F)c6ccc3[nH]6)C=C5)C=C4)cc2)c1
REMARK SMILES IDX 22 1 21 2 19 3 20 4 18 5 14 6 15 7 90 8 16 9 17 10 13 11
REMARK SMILES IDX 10 13 11 14 12 15 9 16 1 17 2 18 3 19 4 20 8 21 5 22 6 23
REMARK SMILES IDX 7 24 23 25 24 26 25 27 26 28 27 29 28 30 89 31 29 32 88 33
REMARK SMILES IDX 30 34 31 35 32 36 82 37 33 38 87 39 81 40 83 41 34 42 86 43
REMARK SMILES IDX 80 44 79 45 35 47 67 48 47 49 66 50 48 51 51 52 65 53 84 54
REMARK SMILES IDX 49 55 50 56 64 58 85 59 52 60 36 61 37 62 45 63 38 64 40 65
REMARK SMILES IDX 46 66 39 67 41 68 42 69 43 70 44 71 68 72 69 73 77 74 70 75
REMARK SMILES IDX 72 76 78 77 71 78 73 79 74 80 75 81 76 82 53 83 54 84 62 85
REMARK SMILES IDX 55 86 57 87 63 88 56 89 58 90 59 91 60 92 61 93
REMARK H PARENT 13 12 83 46 51 57
REMARK Flexibility Score: inf
ROOT
ATOM      1  C   UNL A   1      31.209  29.421  24.475  1.00  0.00     0.275 C 
ENDROOT
BRANCH   1   2
ATOM      2  O   UNL A   1      31.701  28.120  24.862  1.00  0.00    -0.458 OA
BRANCH   2   3
ATOM      3  C   UNL A   1      30.822  27.087  24.776  1.00  0.00     0.338 C 
ATOM      4  O   UNL A   1      29.804  27.070  24.103  1.00  0.00    -0.246 OA
BRANCH   3   5
ATOM      5  C   UNL A   1      31.291  25.905  25.555  1.00  0.00     0.062 A 
ATOM      6  C   UNL A   1      33.066  24.402  26.251  1.00  0.00     0.050 A 
ATOM      7  C   UNL A   1      32.132  23.502  26.758  1.00  0.00     0.027 A 
ATOM      8  C   UNL A   1      32.649  25.637  25.731  1.00  0.00     0.042 A 
ATOM      9  C   UNL A   1      30.770  23.790  26.636  1.00  0.00     0.003 A 
ATOM     10  C   UNL A   1      30.351  24.976  26.021  1.00  0.00     0.016 A 
BRANCH   6  11
ATOM     11  N   UNL A   1      34.436  24.110  26.056  1.00  0.00    -0.280 N 
ATOM     12  H   UNL A   1      35.071  24.815  26.317  1.00  0.00     0.180 HD
BRANCH  11  13
ATOM     13  S   UNL A   1      35.103  22.723  25.441  1.00  0.00     0.262 S 
ATOM     14  O   UNL A   1      35.421  21.851  26.553  1.00  0.00    -0.201 OA
ATOM     15  O   UNL A   1      36.163  23.205  24.576  1.00  0.00    -0.201 OA
BRANCH  13  16
ATOM     16  C   UNL A   1      34.004  21.793  24.372  1.00  0.00     0.092 A 
ATOM     17  C   UNL A   1      33.285  23.547  22.591  1.00  0.00     0.046 C 
ATOM     18  C   UNL A   1      33.210  22.236  23.303  1.00  0.00    -0.030 A 
ATOM     19  C   UNL A   1      32.233  21.354  22.784  1.00  0.00     0.006 A 
ATOM     20  C   UNL A   1      32.144  20.026  23.195  1.00  0.00     0.020 A 
ATOM     21  C   UNL A   1      33.937  20.430  24.744  1.00  0.00     0.042 A 
ATOM     22  C   UNL A   1      33.038  19.545  24.142  1.00  0.00     0.053 A 
BRANCH  22  23
ATOM     23  C   UNL A   1      33.048  18.157  24.493  1.00  0.00     0.099 C 
ATOM     24  N   UNL A   1      33.053  17.020  24.737  1.00  0.00    -0.192 NA
ENDBRANCH  22  23
ENDBRANCH  13  16
ENDBRANCH  11  13
ENDBRANCH   6  11
ENDBRANCH   3   5
ENDBRANCH   2   3
ENDBRANCH   1   2
BRANCH   1  25
ATOM     25  C   UNL A   1      31.435  30.486  25.553  1.00  0.00     0.275 C 
BRANCH  25  26
ATOM     26  O   UNL A   1      32.714  30.341  26.191  1.00  0.00    -0.458 OA
BRANCH  26  27
ATOM     27  C   UNL A   1      33.113  31.417  26.907  1.00  0.00     0.338 C 
ATOM     28  O   UNL A   1      32.480  32.439  27.115  1.00  0.00    -0.246 OA
BRANCH  27  29
ATOM     29  C   UNL A   1      34.395  31.120  27.559  1.00  0.00     0.060 A 
ATOM     30  C   UNL A   1      35.309  32.120  27.884  1.00  0.00     0.016 A 
ATOM     31  C   UNL A   1      34.640  29.793  27.913  1.00  0.00     0.016 A 
ATOM     32  C   UNL A   1      36.491  31.770  28.547  1.00  0.00     0.010 A 
ATOM     33  C   UNL A   1      35.796  29.454  28.609  1.00  0.00     0.010 A 
ATOM     34  C   UNL A   1      36.744  30.434  28.922  1.00  0.00    -0.014 A 
BRANCH  34  35
ATOM     35  C   UNL A   1      37.973  30.067  29.678  1.00  0.00     0.031 A 
ATOM     36  C   UNL A   1      38.211  30.578  31.076  1.00  0.00     0.074 A 
ATOM     37  C   UNL A   1      38.906  29.298  29.080  1.00  0.00     0.049 A 
ATOM     38  N   UNL A   1      39.204  30.308  31.886  1.00  0.00    -0.248 NA
ATOM     39  C   UNL A   1      37.232  31.527  31.635  1.00  0.00     0.031 C 
ATOM     40  C   UNL A   1      38.844  28.824  27.695  1.00  0.00     0.029 A 
ATOM     41  N   UNL A   1      40.083  28.777  29.556  1.00  0.00    -0.354 N 
ATOM     42  C   UNL A   1      38.980  31.062  33.031  1.00  0.00     0.074 A 
ATOM     43  C   UNL A   1      37.780  31.834  32.803  1.00  0.00     0.031 C 
ATOM     44  C   UNL A   1      39.907  28.043  27.450  1.00  0.00     0.029 A 
ATOM     45  C   UNL A   1      40.745  27.988  28.644  1.00  0.00     0.049 A 
ATOM     46  H   UNL A   1      40.422  28.953  30.463  1.00  0.00     0.167 HD
ATOM     47  C   UNL A   1      39.690  31.083  34.184  1.00  0.00     0.034 A 
ATOM     48  C   UNL A   1      41.892  27.289  28.752  1.00  0.00     0.034 A 
ATOM     49  C   UNL A   1      40.856  30.281  34.428  1.00  0.00     0.049 A 
ATOM     50  C   UNL A   1      42.639  27.293  30.053  1.00  0.00     0.074 A 
ATOM     51  C   UNL A   1      41.585  30.168  35.598  1.00  0.00     0.029 A 
ATOM     52  N   UNL A   1      41.468  29.465  33.490  1.00  0.00    -0.354 N 
ATOM     53  N   UNL A   1      42.331  27.907  31.169  1.00  0.00    -0.248 NA
ATOM     54  C   UNL A   1      43.872  26.495  30.125  1.00  0.00     0.031 C 
ATOM     55  C   UNL A   1      42.657  29.306  35.360  1.00  0.00     0.029 A 
ATOM     56  C   UNL A   1      42.573  28.855  34.053  1.00  0.00     0.049 A 
ATOM     57  H   UNL A   1      41.162  29.340  32.563  1.00  0.00     0.167 HD
ATOM     58  C   UNL A   1      43.317  27.553  32.081  1.00  0.00     0.074 A 
ATOM     59  C   UNL A   1      44.228  26.663  31.393  1.00  0.00     0.031 C 
ATOM     60  C   UNL A   1      43.451  27.940  33.372  1.00  0.00     0.034 A 
BRANCH  47  61
ATOM     61  C   UNL A   1      39.199  31.946  35.315  1.00  0.00     0.023 A 
ATOM     62  C   UNL A   1      38.335  31.391  36.278  1.00  0.00     0.012 A 
ATOM     63  C   UNL A   1      39.701  33.250  35.499  1.00  0.00     0.148 A 
ATOM     64  C   UNL A   1      37.971  32.121  37.408  1.00  0.00     0.002 A 
ATOM     65  C   UNL A   1      39.356  33.961  36.643  1.00  0.00     0.091 A 
ATOM     66  F   UNL A   1      40.519  33.756  34.566  1.00  0.00    -0.205 F 
ATOM     67  C   UNL A   1      38.492  33.399  37.597  1.00  0.00     0.022 A 
BRANCH  65  68
ATOM     68  S   UNL A   1      40.003  35.598  37.003  1.00  0.00     0.127 S 
ATOM     69  O   UNL A   1      39.313  35.917  38.253  1.00  0.00    -0.237 OA
ATOM     70  O   UNL A   1      41.435  35.337  37.146  1.00  0.00    -0.237 OA
ATOM     71  O   UNL A   1      39.640  36.436  35.869  1.00  0.00    -0.744 OA
ENDBRANCH  65  68
ENDBRANCH  47  61
BRANCH  48  72
ATOM     72  C   UNL A   1      42.352  26.473  27.596  1.00  0.00     0.023 A 
ATOM     73  C   UNL A   1      43.258  27.026  26.672  1.00  0.00     0.012 A 
ATOM     74  C   UNL A   1      41.965  25.126  27.466  1.00  0.00     0.148 A 
ATOM     75  C   UNL A   1      43.774  26.248  25.635  1.00  0.00     0.002 A 
ATOM     76  C   UNL A   1      42.511  24.347  26.454  1.00  0.00     0.091 A 
ATOM     77  F   UNL A   1      41.105  24.626  28.364  1.00  0.00    -0.205 F 
ATOM     78  C   UNL A   1      43.410  24.906  25.533  1.00  0.00     0.022 A 
BRANCH  76  79
ATOM     79  S   UNL A   1      42.173  22.590  26.298  1.00  0.00     0.127 S 
ATOM     80  O   UNL A   1      42.786  22.061  27.515  1.00  0.00    -0.237 OA
ATOM     81  O   UNL A   1      40.711  22.569  26.282  1.00  0.00    -0.237 OA
ATOM     82  O   UNL A   1      42.801  22.174  25.051  1.00  0.00    -0.744 OA
ENDBRANCH  76  79
ENDBRANCH  48  72
BRANCH  60  83
ATOM     83  C   UNL A   1      44.604  27.398  34.168  1.00  0.00     0.023 A 
ATOM     84  C   UNL A   1      45.775  28.166  34.304  1.00  0.00     0.012 A 
ATOM     85  C   UNL A   1      44.453  26.213  34.915  1.00  0.00     0.148 A 
ATOM     86  C   UNL A   1      46.781  27.762  35.179  1.00  0.00     0.002 A 
ATOM     87  C   UNL A   1      45.444  25.835  35.809  1.00  0.00     0.091 A 
ATOM     88  F   UNL A   1      43.324  25.506  34.764  1.00  0.00    -0.205 F 
ATOM     89  C   UNL A   1      46.611  26.607  35.942  1.00  0.00     0.022 A 
BRANCH  87  90
ATOM     90  S   UNL A   1      45.289  24.401  36.878  1.00  0.00     0.127 S 
ATOM     91  O   UNL A   1      46.683  24.158  37.252  1.00  0.00    -0.237 OA
ATOM     92  O   UNL A   1      44.447  24.911  37.959  1.00  0.00    -0.237 OA
ATOM     93  O   UNL A   1      44.680  23.354  36.070  1.00  0.00    -0.744 OA
ENDBRANCH  87  90
ENDBRANCH  60  83
ENDBRANCH  34  35
ENDBRANCH  27  29
ENDBRANCH  26  27
ENDBRANCH  25  26
ENDBRANCH   1  25
TORSDOF 18
ENDMDL
