MODEL 1
REMARK VINA RESULT:      -9.8      0.000      0.000
REMARK SMILES COc1ccc(-n2c(C)nnc2SCC(=O)OCCOC(=O)c2ccc(-c3c4nc(c(-c5cccc(S(=O)(=O)[O-])c5F)c5ccc([nH]5)c(-c5cccc(S(=O)(=O)[O-])c5F)c5nc(c(-c6cccc(S(=O)(=O)[O-])c6F)c6ccc3[nH]6)C=C5)C=C4)cc2)cc1F
REMARK SMILES IDX 18 1 17 2 15 3 16 4 14 5 13 6 12 7 7 8 8 9 9 10 10 11 11 12
REMARK SMILES IDX 6 13 3 14 4 15 87 16 5 17 86 18 88 19 2 20 1 21 19 22 20 23
REMARK SMILES IDX 21 24 22 25 23 26 24 27 85 28 25 29 84 30 26 31 27 32 28 33
REMARK SMILES IDX 78 34 29 35 83 36 77 37 79 38 30 39 82 40 76 41 75 42 31 44
REMARK SMILES IDX 63 45 43 46 62 47 44 48 47 49 61 50 80 51 45 52 46 53 60 55
REMARK SMILES IDX 81 56 48 57 32 58 33 59 41 60 34 61 36 62 42 63 35 64 37 65
REMARK SMILES IDX 38 66 39 67 40 68 64 69 65 70 73 71 66 72 68 73 74 74 67 75
REMARK SMILES IDX 69 76 70 77 71 78 72 79 49 80 50 81 58 82 51 83 53 84 59 85
REMARK SMILES IDX 52 86 54 87 55 88 56 89 57 90
REMARK H PARENT 79 43 47 54
REMARK Flexibility Score: inf
ROOT
ATOM      1  C   UNL A   1      35.455  32.491  28.079  1.00  0.00     0.274 C 
ENDROOT
BRANCH   1   2
ATOM      2  O   UNL A   1      35.902  31.167  27.695  1.00  0.00    -0.461 OA
BRANCH   2   3
ATOM      3  C   UNL A   1      34.955  30.228  27.421  1.00  0.00     0.316 C 
ATOM      4  O   UNL A   1      35.205  29.035  27.271  1.00  0.00    -0.251 OA
BRANCH   3   5
ATOM      5  C   UNL A   1      33.515  30.771  27.369  1.00  0.00     0.200 C 
BRANCH   5   6
ATOM      6  S   UNL A   1      32.296  29.488  27.149  1.00  0.00    -0.074 SA
BRANCH   6   7
ATOM      7  C   UNL A   1      31.874  29.008  25.525  1.00  0.00     0.196 A 
ATOM      8  N   UNL A   1      31.552  27.785  24.903  1.00  0.00    -0.274 N 
ATOM      9  C   UNL A   1      30.527  28.154  24.013  1.00  0.00     0.135 A 
ATOM     10  C   UNL A   1      29.586  27.290  23.263  1.00  0.00     0.090 C 
ATOM     11  N   UNL A   1      30.470  29.462  23.917  1.00  0.00    -0.134 NA
ATOM     12  N   UNL A   1      31.321  29.986  24.827  1.00  0.00    -0.123 NA
BRANCH   8  13
ATOM     13  C   UNL A   1      32.116  26.470  25.026  1.00  0.00     0.053 A 
ATOM     14  C   UNL A   1      33.742  23.101  25.241  1.00  0.00     0.154 A 
ATOM     15  C   UNL A   1      32.503  23.520  26.455  1.00  0.00     0.052 A 
ATOM     16  C   UNL A   1      34.139  24.290  24.055  1.00  0.00     0.167 A 
ATOM     17  C   UNL A   1      31.682  25.365  26.389  1.00  0.00     0.031 A 
ATOM     18  C   UNL A   1      33.364  25.867  23.947  1.00  0.00     0.070 A 
ATOM     19  F   UNL A   1      35.183  24.084  23.235  1.00  0.00    -0.203 F 
BRANCH  14  20
ATOM     20  O   UNL A   1      34.324  21.869  25.256  1.00  0.00    -0.494 OA
ATOM     21  C   UNL A   1      35.475  21.846  26.098  1.00  0.00     0.278 C 
ENDBRANCH  14  20
ENDBRANCH   8  13
ENDBRANCH   6   7
ENDBRANCH   5   6
ENDBRANCH   3   5
ENDBRANCH   2   3
ENDBRANCH   1   2
BRANCH   1  22
ATOM     22  C   UNL A   1      36.119  32.924  29.381  1.00  0.00     0.275 C 
BRANCH  22  23
ATOM     23  O   UNL A   1      36.966  31.841  29.797  1.00  0.00    -0.458 OA
BRANCH  23  24
ATOM     24  C   UNL A   1      36.632  31.474  31.046  1.00  0.00     0.338 C 
ATOM     25  O   UNL A   1      35.475  31.386  31.446  1.00  0.00    -0.246 OA
BRANCH  24  26
ATOM     26  C   UNL A   1      37.857  31.506  32.017  1.00  0.00     0.060 A 
ATOM     27  C   UNL A   1      39.412  32.733  32.439  1.00  0.00     0.016 A 
ATOM     28  C   UNL A   1      38.192  29.791  31.656  1.00  0.00     0.016 A 
ATOM     29  C   UNL A   1      41.081  32.015  32.252  1.00  0.00     0.010 A 
ATOM     30  C   UNL A   1      39.768  29.266  31.527  1.00  0.00     0.010 A 
ATOM     31  C   UNL A   1      41.150  30.299  31.707  1.00  0.00    -0.014 A 
BRANCH  31  32
ATOM     32  C   UNL A   1      42.340  29.563  31.259  1.00  0.00     0.031 A 
ATOM     33  C   UNL A   1      42.926  29.139  32.530  1.00  0.00     0.074 A 
ATOM     34  C   UNL A   1      42.637  29.196  29.963  1.00  0.00     0.049 A 
ATOM     35  N   UNL A   1      43.910  29.728  33.128  1.00  0.00    -0.248 NA
ATOM     36  C   UNL A   1      42.078  28.346  33.454  1.00  0.00     0.031 C 
ATOM     37  C   UNL A   1      41.978  29.573  28.690  1.00  0.00     0.029 A 
ATOM     38  N   UNL A   1      43.569  28.293  29.473  1.00  0.00    -0.354 N 
ATOM     39  C   UNL A   1      44.064  28.952  34.263  1.00  0.00     0.074 A 
ATOM     40  C   UNL A   1      42.752  28.482  34.600  1.00  0.00     0.031 C 
ATOM     41  C   UNL A   1      42.313  28.729  27.683  1.00  0.00     0.029 A 
ATOM     42  C   UNL A   1      43.316  27.805  28.152  1.00  0.00     0.049 A 
ATOM     43  H   UNL A   1      44.351  28.008  29.999  1.00  0.00     0.167 HD
ATOM     44  C   UNL A   1      45.245  28.295  34.404  1.00  0.00     0.034 A 
ATOM     45  C   UNL A   1      43.912  26.749  27.492  1.00  0.00     0.034 A 
ATOM     46  C   UNL A   1      46.265  28.909  33.574  1.00  0.00     0.049 A 
ATOM     47  C   UNL A   1      45.198  26.499  28.178  1.00  0.00     0.074 A 
ATOM     48  C   UNL A   1      46.736  30.199  33.415  1.00  0.00     0.029 A 
ATOM     49  N   UNL A   1      46.557  28.239  32.413  1.00  0.00    -0.354 N 
ATOM     50  N   UNL A   1      46.168  27.370  28.164  1.00  0.00    -0.248 NA
ATOM     51  C   UNL A   1      45.120  25.612  29.325  1.00  0.00     0.031 C 
ATOM     52  C   UNL A   1      46.983  30.351  32.021  1.00  0.00     0.029 A 
ATOM     53  C   UNL A   1      46.813  29.117  31.396  1.00  0.00     0.049 A 
ATOM     54  H   UNL A   1      46.579  27.259  32.325  1.00  0.00     0.167 HD
ATOM     55  C   UNL A   1      46.452  27.526  29.511  1.00  0.00     0.074 A 
ATOM     56  C   UNL A   1      45.778  26.402  30.177  1.00  0.00     0.031 C 
ATOM     57  C   UNL A   1      46.855  28.736  30.000  1.00  0.00     0.034 A 
BRANCH  44  58
ATOM     58  C   UNL A   1      45.336  26.865  34.879  1.00  0.00     0.023 A 
ATOM     59  C   UNL A   1      46.239  26.618  35.924  1.00  0.00     0.012 A 
ATOM     60  C   UNL A   1      44.759  25.731  34.246  1.00  0.00     0.148 A 
ATOM     61  C   UNL A   1      46.530  25.316  36.339  1.00  0.00     0.002 A 
ATOM     62  C   UNL A   1      44.981  24.444  34.716  1.00  0.00     0.091 A 
ATOM     63  F   UNL A   1      44.095  25.858  33.097  1.00  0.00    -0.205 F 
ATOM     64  C   UNL A   1      45.883  24.231  35.755  1.00  0.00     0.022 A 
BRANCH  62  65
ATOM     65  S   UNL A   1      44.136  23.011  34.028  1.00  0.00     0.127 S 
ATOM     66  O   UNL A   1      44.517  23.090  32.620  1.00  0.00    -0.237 OA
ATOM     67  O   UNL A   1      44.758  21.919  34.778  1.00  0.00    -0.237 OA
ATOM     68  O   UNL A   1      42.720  23.202  34.314  1.00  0.00    -0.744 OA
ENDBRANCH  62  65
ENDBRANCH  44  58
BRANCH  45  69
ATOM     69  C   UNL A   1      43.337  25.659  26.611  1.00  0.00     0.023 A 
ATOM     70  C   UNL A   1      44.008  25.202  25.438  1.00  0.00     0.012 A 
ATOM     71  C   UNL A   1      42.314  24.833  27.106  1.00  0.00     0.148 A 
ATOM     72  C   UNL A   1      43.700  23.962  24.835  1.00  0.00     0.002 A 
ATOM     73  C   UNL A   1      42.029  23.595  26.526  1.00  0.00     0.091 A 
ATOM     74  F   UNL A   1      41.665  25.223  28.207  1.00  0.00    -0.205 F 
ATOM     75  C   UNL A   1      42.725  23.146  25.395  1.00  0.00     0.022 A 
BRANCH  73  76
ATOM     76  S   UNL A   1      40.829  22.474  27.260  1.00  0.00     0.127 S 
ATOM     77  O   UNL A   1      41.538  22.012  28.454  1.00  0.00    -0.237 OA
ATOM     78  O   UNL A   1      39.703  23.366  27.521  1.00  0.00    -0.237 OA
ATOM     79  O   UNL A   1      40.591  21.438  26.262  1.00  0.00    -0.744 OA
ENDBRANCH  73  76
ENDBRANCH  45  69
BRANCH  57  80
ATOM     80  C   UNL A   1      47.276  29.821  29.031  1.00  0.00     0.023 A 
ATOM     81  C   UNL A   1      48.526  29.877  28.371  1.00  0.00     0.012 A 
ATOM     82  C   UNL A   1      46.247  30.675  28.605  1.00  0.00     0.148 A 
ATOM     83  C   UNL A   1      48.724  30.761  27.295  1.00  0.00     0.002 A 
ATOM     84  C   UNL A   1      46.431  31.506  27.511  1.00  0.00     0.091 A 
ATOM     85  F   UNL A   1      45.073  30.599  29.246  1.00  0.00    -0.205 F 
ATOM     86  C   UNL A   1      47.669  31.560  26.854  1.00  0.00     0.022 A 
BRANCH  84  87
ATOM     87  S   UNL A   1      45.065  32.439  26.820  1.00  0.00     0.127 S 
ATOM     88  O   UNL A   1      44.650  33.255  27.958  1.00  0.00    -0.237 OA
ATOM     89  O   UNL A   1      45.714  33.178  25.737  1.00  0.00    -0.237 OA
ATOM     90  O   UNL A   1      44.086  31.456  26.372  1.00  0.00    -0.744 OA
ENDBRANCH  84  87
ENDBRANCH  57  80
ENDBRANCH  31  32
ENDBRANCH  24  26
ENDBRANCH  23  24
ENDBRANCH  22  23
ENDBRANCH   1  22
TORSDOF 18
ENDMDL
MODEL 2
REMARK VINA RESULT:      -9.6      4.393      7.809
REMARK SMILES COc1ccc(-n2c(C)nnc2SCC(=O)OCCOC(=O)c2ccc(-c3c4nc(c(-c5cccc(S(=O)(=O)[O-])c5F)c5ccc([nH]5)c(-c5cccc(S(=O)(=O)[O-])c5F)c5nc(c(-c6cccc(S(=O)(=O)[O-])c6F)c6ccc3[nH]6)C=C5)C=C4)cc2)cc1F
REMARK SMILES IDX 18 1 17 2 15 3 16 4 14 5 13 6 12 7 7 8 8 9 9 10 10 11 11 12
REMARK SMILES IDX 6 13 3 14 4 15 87 16 5 17 86 18 88 19 2 20 1 21 19 22 20 23
REMARK SMILES IDX 21 24 22 25 23 26 24 27 85 28 25 29 84 30 26 31 27 32 28 33
REMARK SMILES IDX 78 34 29 35 83 36 77 37 79 38 30 39 82 40 76 41 75 42 31 44
REMARK SMILES IDX 63 45 43 46 62 47 44 48 47 49 61 50 80 51 45 52 46 53 60 55
REMARK SMILES IDX 81 56 48 57 32 58 33 59 41 60 34 61 36 62 42 63 35 64 37 65
REMARK SMILES IDX 38 66 39 67 40 68 64 69 65 70 73 71 66 72 68 73 74 74 67 75
REMARK SMILES IDX 69 76 70 77 71 78 72 79 49 80 50 81 58 82 51 83 53 84 59 85
REMARK SMILES IDX 52 86 54 87 55 88 56 89 57 90
REMARK H PARENT 79 43 47 54
REMARK Flexibility Score: inf
ROOT
ATOM      1  C   UNL A   1      37.807  33.758  33.818  1.00  0.00     0.274 C 
ENDROOT
BRANCH   1   2
ATOM      2  O   UNL A   1      38.745  32.795  34.357  1.00  0.00    -0.461 OA
BRANCH   2   3
ATOM      3  C   UNL A   1      39.940  33.256  34.820  1.00  0.00     0.316 C 
ATOM      4  O   UNL A   1      40.048  34.196  35.603  1.00  0.00    -0.251 OA
BRANCH   3   5
ATOM      5  C   UNL A   1      41.164  32.463  34.325  1.00  0.00     0.200 C 
BRANCH   5   6
ATOM      6  S   UNL A   1      42.643  32.816  35.256  1.00  0.00    -0.074 SA
BRANCH   6   7
ATOM      7  C   UNL A   1      43.489  34.310  34.942  1.00  0.00     0.196 A 
ATOM      8  N   UNL A   1      43.454  35.274  33.914  1.00  0.00    -0.274 N 
ATOM      9  C   UNL A   1      43.596  36.481  34.622  1.00  0.00     0.135 A 
ATOM     10  C   UNL A   1      43.371  37.869  34.155  1.00  0.00     0.090 C 
ATOM     11  N   UNL A   1      43.963  36.233  35.858  1.00  0.00    -0.134 NA
ATOM     12  N   UNL A   1      43.926  34.896  36.045  1.00  0.00    -0.123 NA
BRANCH   8  13
ATOM     13  C   UNL A   1      43.373  35.149  32.487  1.00  0.00     0.053 A 
ATOM     14  C   UNL A   1      42.969  34.858  28.772  1.00  0.00     0.154 A 
ATOM     15  C   UNL A   1      44.600  35.176  29.423  1.00  0.00     0.052 A 
ATOM     16  C   UNL A   1      41.667  34.734  29.897  1.00  0.00     0.167 A 
ATOM     17  C   UNL A   1      44.807  35.412  31.419  1.00  0.00     0.031 A 
ATOM     18  C   UNL A   1      41.861  34.856  31.642  1.00  0.00     0.070 A 
ATOM     19  F   UNL A   1      40.404  34.669  29.442  1.00  0.00    -0.203 F 
BRANCH  14  20
ATOM     20  O   UNL A   1      42.788  34.700  27.431  1.00  0.00    -0.494 OA
ATOM     21  C   UNL A   1      43.117  35.889  26.716  1.00  0.00     0.278 C 
ENDBRANCH  14  20
ENDBRANCH   8  13
ENDBRANCH   6   7
ENDBRANCH   5   6
ENDBRANCH   3   5
ENDBRANCH   2   3
ENDBRANCH   1   2
BRANCH   1  22
ATOM     22  C   UNL A   1      36.386  33.207  33.865  1.00  0.00     0.275 C 
BRANCH  22  23
ATOM     23  O   UNL A   1      36.321  32.145  32.900  1.00  0.00    -0.458 OA
BRANCH  23  24
ATOM     24  C   UNL A   1      36.005  32.658  31.699  1.00  0.00     0.338 C 
ATOM     25  O   UNL A   1      35.341  33.680  31.545  1.00  0.00    -0.246 OA
BRANCH  24  26
ATOM     26  C   UNL A   1      36.272  31.648  30.536  1.00  0.00     0.060 A 
ATOM     27  C   UNL A   1      36.128  29.654  30.212  1.00  0.00     0.016 A 
ATOM     28  C   UNL A   1      37.817  32.465  30.177  1.00  0.00     0.016 A 
ATOM     29  C   UNL A   1      37.668  28.801  29.725  1.00  0.00     0.010 A 
ATOM     30  C   UNL A   1      39.144  31.563  29.728  1.00  0.00     0.010 A 
ATOM     31  C   UNL A   1      39.140  29.834  29.596  1.00  0.00    -0.014 A 
BRANCH  31  32
ATOM     32  C   UNL A   1      40.529  29.376  29.455  1.00  0.00     0.031 A 
ATOM     33  C   UNL A   1      40.964  29.304  30.849  1.00  0.00     0.074 A 
ATOM     34  C   UNL A   1      41.127  28.918  28.299  1.00  0.00     0.049 A 
ATOM     35  N   UNL A   1      41.661  30.207  31.457  1.00  0.00    -0.248 NA
ATOM     36  C   UNL A   1      40.174  28.458  31.779  1.00  0.00     0.031 C 
ATOM     37  C   UNL A   1      40.633  28.925  26.901  1.00  0.00     0.029 A 
ATOM     38  N   UNL A   1      42.315  28.227  28.113  1.00  0.00    -0.354 N 
ATOM     39  C   UNL A   1      41.789  29.668  32.725  1.00  0.00     0.074 A 
ATOM     40  C   UNL A   1      40.585  28.927  32.961  1.00  0.00     0.031 C 
ATOM     41  C   UNL A   1      41.328  28.062  26.120  1.00  0.00     0.029 A 
ATOM     42  C   UNL A   1      42.420  27.507  26.881  1.00  0.00     0.049 A 
ATOM     43  H   UNL A   1      43.037  28.232  28.783  1.00  0.00     0.167 HD
ATOM     44  C   UNL A   1      43.047  29.367  33.142  1.00  0.00     0.034 A 
ATOM     45  C   UNL A   1      43.353  26.558  26.511  1.00  0.00     0.034 A 
ATOM     46  C   UNL A   1      44.026  30.099  32.360  1.00  0.00     0.049 A 
ATOM     47  C   UNL A   1      44.520  26.752  27.399  1.00  0.00     0.074 A 
ATOM     48  C   UNL A   1      44.203  31.431  32.033  1.00  0.00     0.029 A 
ATOM     49  N   UNL A   1      44.666  29.370  31.391  1.00  0.00    -0.354 N 
ATOM     50  N   UNL A   1      45.247  27.832  27.358  1.00  0.00    -0.248 NA
ATOM     51  C   UNL A   1      44.450  26.047  28.667  1.00  0.00     0.031 C 
ATOM     52  C   UNL A   1      44.649  31.441  30.682  1.00  0.00     0.029 A 
ATOM     53  C   UNL A   1      44.886  30.129  30.274  1.00  0.00     0.049 A 
ATOM     54  H   UNL A   1      44.931  28.426  31.486  1.00  0.00     0.167 HD
ATOM     55  C   UNL A   1      45.244  28.248  28.679  1.00  0.00     0.074 A 
ATOM     56  C   UNL A   1      44.745  27.094  29.442  1.00  0.00     0.031 C 
ATOM     57  C   UNL A   1      45.262  29.577  28.990  1.00  0.00     0.034 A 
BRANCH  44  58
ATOM     58  C   UNL A   1      43.384  28.092  33.877  1.00  0.00     0.023 A 
ATOM     59  C   UNL A   1      43.708  26.985  33.078  1.00  0.00     0.012 A 
ATOM     60  C   UNL A   1      43.208  27.852  35.267  1.00  0.00     0.148 A 
ATOM     61  C   UNL A   1      43.878  25.715  33.633  1.00  0.00     0.002 A 
ATOM     62  C   UNL A   1      43.464  26.609  35.829  1.00  0.00     0.091 A 
ATOM     63  F   UNL A   1      42.661  28.779  36.053  1.00  0.00    -0.205 F 
ATOM     64  C   UNL A   1      43.783  25.530  35.009  1.00  0.00     0.022 A 
BRANCH  62  65
ATOM     65  S   UNL A   1      43.400  26.326  37.606  1.00  0.00     0.127 S 
ATOM     66  O   UNL A   1      41.965  26.406  37.867  1.00  0.00    -0.237 OA
ATOM     67  O   UNL A   1      43.975  24.985  37.708  1.00  0.00    -0.237 OA
ATOM     68  O   UNL A   1      44.214  27.373  38.210  1.00  0.00    -0.744 OA
ENDBRANCH  62  65
ENDBRANCH  44  58
BRANCH  45  69
ATOM     69  C   UNL A   1      43.212  25.243  25.774  1.00  0.00     0.023 A 
ATOM     70  C   UNL A   1      44.202  24.781  24.855  1.00  0.00     0.012 A 
ATOM     71  C   UNL A   1      42.289  24.286  26.229  1.00  0.00     0.148 A 
ATOM     72  C   UNL A   1      44.285  23.426  24.464  1.00  0.00     0.002 A 
ATOM     73  C   UNL A   1      42.389  22.942  25.863  1.00  0.00     0.091 A 
ATOM     74  F   UNL A   1      41.350  24.678  27.094  1.00  0.00    -0.205 F 
ATOM     75  C   UNL A   1      43.391  22.500  24.989  1.00  0.00     0.022 A 
BRANCH  73  76
ATOM     76  S   UNL A   1      41.302  21.698  26.574  1.00  0.00     0.127 S 
ATOM     77  O   UNL A   1      41.588  20.532  25.737  1.00  0.00    -0.237 OA
ATOM     78  O   UNL A   1      41.801  21.608  27.944  1.00  0.00    -0.237 OA
ATOM     79  O   UNL A   1      39.950  22.225  26.433  1.00  0.00    -0.744 OA
ENDBRANCH  73  76
ENDBRANCH  45  69
BRANCH  57  80
ATOM     80  C   UNL A   1      45.581  30.585  27.906  1.00  0.00     0.023 A 
ATOM     81  C   UNL A   1      44.622  31.350  27.203  1.00  0.00     0.012 A 
ATOM     82  C   UNL A   1      46.937  30.926  27.787  1.00  0.00     0.148 A 
ATOM     83  C   UNL A   1      45.021  32.444  26.416  1.00  0.00     0.002 A 
ATOM     84  C   UNL A   1      47.321  32.037  27.052  1.00  0.00     0.091 A 
ATOM     85  F   UNL A   1      47.825  30.186  28.465  1.00  0.00    -0.205 F 
ATOM     86  C   UNL A   1      46.370  32.798  26.358  1.00  0.00     0.022 A 
BRANCH  84  87
ATOM     87  S   UNL A   1      49.018  32.614  27.068  1.00  0.00     0.127 S 
ATOM     88  O   UNL A   1      49.221  32.916  28.482  1.00  0.00    -0.237 OA
ATOM     89  O   UNL A   1      49.746  31.444  26.576  1.00  0.00    -0.237 OA
ATOM     90  O   UNL A   1      49.065  33.767  26.176  1.00  0.00    -0.744 OA
ENDBRANCH  84  87
ENDBRANCH  57  80
ENDBRANCH  31  32
ENDBRANCH  24  26
ENDBRANCH  23  24
ENDBRANCH  22  23
ENDBRANCH   1  22
TORSDOF 18
ENDMDL
MODEL 3
REMARK VINA RESULT:      -9.6      8.007     13.352
REMARK SMILES COc1ccc(-n2c(C)nnc2SCC(=O)OCCOC(=O)c2ccc(-c3c4nc(c(-c5cccc(S(=O)(=O)[O-])c5F)c5ccc([nH]5)c(-c5cccc(S(=O)(=O)[O-])c5F)c5nc(c(-c6cccc(S(=O)(=O)[O-])c6F)c6ccc3[nH]6)C=C5)C=C4)cc2)cc1F
REMARK SMILES IDX 18 1 17 2 15 3 16 4 14 5 13 6 12 7 7 8 8 9 9 10 10 11 11 12
REMARK SMILES IDX 6 13 3 14 4 15 87 16 5 17 86 18 88 19 2 20 1 21 19 22 20 23
REMARK SMILES IDX 21 24 22 25 23 26 24 27 85 28 25 29 84 30 26 31 27 32 28 33
REMARK SMILES IDX 78 34 29 35 83 36 77 37 79 38 30 39 82 40 76 41 75 42 31 44
REMARK SMILES IDX 63 45 43 46 62 47 44 48 47 49 61 50 80 51 45 52 46 53 60 55
REMARK SMILES IDX 81 56 48 57 32 58 33 59 41 60 34 61 36 62 42 63 35 64 37 65
REMARK SMILES IDX 38 66 39 67 40 68 64 69 65 70 73 71 66 72 68 73 74 74 67 75
REMARK SMILES IDX 69 76 70 77 71 78 72 79 49 80 50 81 58 82 51 83 53 84 59 85
REMARK SMILES IDX 52 86 54 87 55 88 56 89 57 90
REMARK H PARENT 79 43 47 54
REMARK Flexibility Score: inf
ROOT
ATOM      1  C   UNL A   1      46.806  39.641  25.487  1.00  0.00     0.274 C 
ENDROOT
BRANCH   1   2
ATOM      2  O   UNL A   1      45.541  40.260  25.151  1.00  0.00    -0.461 OA
BRANCH   2   3
ATOM      3  C   UNL A   1      45.511  41.613  24.998  1.00  0.00     0.316 C 
ATOM      4  O   UNL A   1      46.488  42.337  25.169  1.00  0.00    -0.251 OA
BRANCH   3   5
ATOM      5  C   UNL A   1      44.154  42.172  24.534  1.00  0.00     0.200 C 
BRANCH   5   6
ATOM      6  S   UNL A   1      44.316  43.494  23.348  1.00  0.00    -0.074 SA
BRANCH   6   7
ATOM      7  C   UNL A   1      45.014  43.135  21.789  1.00  0.00     0.196 A 
ATOM      8  N   UNL A   1      45.485  43.910  20.710  1.00  0.00    -0.274 N 
ATOM      9  C   UNL A   1      46.621  43.193  20.292  1.00  0.00     0.135 A 
ATOM     10  C   UNL A   1      47.708  43.617  19.379  1.00  0.00     0.090 C 
ATOM     11  N   UNL A   1      46.635  42.009  20.858  1.00  0.00    -0.134 NA
ATOM     12  N   UNL A   1      45.627  41.963  21.757  1.00  0.00    -0.123 NA
BRANCH   8  13
ATOM     13  C   UNL A   1      44.967  45.093  20.082  1.00  0.00     0.053 A 
ATOM     14  C   UNL A   1      43.769  48.278  18.514  1.00  0.00     0.154 A 
ATOM     15  C   UNL A   1      43.142  46.734  17.876  1.00  0.00     0.052 A 
ATOM     16  C   UNL A   1      44.918  48.208  19.799  1.00  0.00     0.167 A 
ATOM     17  C   UNL A   1      43.846  45.014  18.667  1.00  0.00     0.031 A 
ATOM     18  C   UNL A   1      45.468  46.711  20.545  1.00  0.00     0.070 A 
ATOM     19  F   UNL A   1      45.544  49.332  20.190  1.00  0.00    -0.203 F 
BRANCH  14  20
ATOM     20  O   UNL A   1      43.324  49.460  18.002  1.00  0.00    -0.494 OA
ATOM     21  C   UNL A   1      44.147  49.905  16.925  1.00  0.00     0.278 C 
ENDBRANCH  14  20
ENDBRANCH   8  13
ENDBRANCH   6   7
ENDBRANCH   5   6
ENDBRANCH   3   5
ENDBRANCH   2   3
ENDBRANCH   1   2
BRANCH   1  22
ATOM     22  C   UNL A   1      46.619  38.153  25.762  1.00  0.00     0.275 C 
BRANCH  22  23
ATOM     23  O   UNL A   1      46.652  37.986  27.189  1.00  0.00    -0.458 OA
BRANCH  23  24
ATOM     24  C   UNL A   1      46.169  36.772  27.502  1.00  0.00     0.338 C 
ATOM     25  O   UNL A   1      46.426  35.750  26.871  1.00  0.00    -0.246 OA
BRANCH  24  26
ATOM     26  C   UNL A   1      44.992  36.851  28.528  1.00  0.00     0.060 A 
ATOM     27  C   UNL A   1      44.744  36.852  30.538  1.00  0.00     0.016 A 
ATOM     28  C   UNL A   1      44.057  35.687  27.550  1.00  0.00     0.016 A 
ATOM     29  C   UNL A   1      43.689  35.527  31.222  1.00  0.00     0.010 A 
ATOM     30  C   UNL A   1      43.121  34.536  28.306  1.00  0.00     0.010 A 
ATOM     31  C   UNL A   1      42.996  34.368  30.028  1.00  0.00    -0.014 A 
BRANCH  31  32
ATOM     32  C   UNL A   1      42.319  33.098  30.323  1.00  0.00     0.031 A 
ATOM     33  C   UNL A   1      41.017  33.557  30.806  1.00  0.00     0.074 A 
ATOM     34  C   UNL A   1      42.760  31.836  29.983  1.00  0.00     0.049 A 
ATOM     35  N   UNL A   1      40.678  33.657  32.049  1.00  0.00    -0.248 NA
ATOM     36  C   UNL A   1      40.219  34.437  29.915  1.00  0.00     0.031 C 
ATOM     37  C   UNL A   1      44.059  31.400  29.416  1.00  0.00     0.029 A 
ATOM     38  N   UNL A   1      42.092  30.621  29.972  1.00  0.00    -0.354 N 
ATOM     39  C   UNL A   1      39.383  34.133  31.958  1.00  0.00     0.074 A 
ATOM     40  C   UNL A   1      39.347  34.956  30.785  1.00  0.00     0.031 C 
ATOM     41  C   UNL A   1      43.978  30.159  28.875  1.00  0.00     0.029 A 
ATOM     42  C   UNL A   1      42.673  29.608  29.146  1.00  0.00     0.049 A 
ATOM     43  H   UNL A   1      41.274  30.466  30.498  1.00  0.00     0.167 HD
ATOM     44  C   UNL A   1      38.397  33.333  32.445  1.00  0.00     0.034 A 
ATOM     45  C   UNL A   1      42.132  28.401  28.748  1.00  0.00     0.034 A 
ATOM     46  C   UNL A   1      38.948  32.362  33.371  1.00  0.00     0.049 A 
ATOM     47  C   UNL A   1      41.049  28.093  29.707  1.00  0.00     0.074 A 
ATOM     48  C   UNL A   1      39.755  32.442  34.491  1.00  0.00     0.029 A 
ATOM     49  N   UNL A   1      39.100  31.094  32.870  1.00  0.00    -0.354 N 
ATOM     50  N   UNL A   1      41.289  27.848  30.964  1.00  0.00    -0.248 NA
ATOM     51  C   UNL A   1      39.757  28.669  29.379  1.00  0.00     0.031 C 
ATOM     52  C   UNL A   1      40.632  31.323  34.417  1.00  0.00     0.029 A 
ATOM     53  C   UNL A   1      40.237  30.510  33.355  1.00  0.00     0.049 A 
ATOM     54  H   UNL A   1      38.473  30.663  32.244  1.00  0.00     0.167 HD
ATOM     55  C   UNL A   1      40.452  28.743  31.611  1.00  0.00     0.074 A 
ATOM     56  C   UNL A   1      39.521  29.213  30.575  1.00  0.00     0.031 C 
ATOM     57  C   UNL A   1      40.827  29.313  32.794  1.00  0.00     0.034 A 
BRANCH  44  58
ATOM     58  C   UNL A   1      37.086  33.120  31.728  1.00  0.00     0.023 A 
ATOM     59  C   UNL A   1      35.926  33.278  32.502  1.00  0.00     0.012 A 
ATOM     60  C   UNL A   1      36.920  32.583  30.423  1.00  0.00     0.148 A 
ATOM     61  C   UNL A   1      34.666  32.950  31.996  1.00  0.00     0.002 A 
ATOM     62  C   UNL A   1      35.661  32.342  29.891  1.00  0.00     0.091 A 
ATOM     63  F   UNL A   1      37.973  32.168  29.720  1.00  0.00    -0.205 F 
ATOM     64  C   UNL A   1      34.529  32.507  30.684  1.00  0.00     0.022 A 
BRANCH  62  65
ATOM     65  S   UNL A   1      35.424  31.812  28.186  1.00  0.00     0.127 S 
ATOM     66  O   UNL A   1      35.678  33.049  27.453  1.00  0.00    -0.237 OA
ATOM     67  O   UNL A   1      36.460  30.788  28.053  1.00  0.00    -0.237 OA
ATOM     68  O   UNL A   1      34.062  31.298  28.110  1.00  0.00    -0.744 OA
ENDBRANCH  62  65
ENDBRANCH  44  58
BRANCH  45  69
ATOM     69  C   UNL A   1      42.149  27.680  27.417  1.00  0.00     0.023 A 
ATOM     70  C   UNL A   1      42.243  28.382  26.178  1.00  0.00     0.012 A 
ATOM     71  C   UNL A   1      42.423  26.302  27.375  1.00  0.00     0.148 A 
ATOM     72  C   UNL A   1      42.642  27.741  24.983  1.00  0.00     0.002 A 
ATOM     73  C   UNL A   1      42.844  25.676  26.200  1.00  0.00     0.091 A 
ATOM     74  F   UNL A   1      42.351  25.611  28.516  1.00  0.00    -0.205 F 
ATOM     75  C   UNL A   1      42.966  26.390  25.000  1.00  0.00     0.022 A 
BRANCH  73  76
ATOM     76  S   UNL A   1      43.346  23.949  26.192  1.00  0.00     0.127 S 
ATOM     77  O   UNL A   1      42.105  23.272  26.569  1.00  0.00    -0.237 OA
ATOM     78  O   UNL A   1      43.752  23.759  24.802  1.00  0.00    -0.237 OA
ATOM     79  O   UNL A   1      44.414  23.841  27.178  1.00  0.00    -0.744 OA
ENDBRANCH  73  76
ENDBRANCH  45  69
BRANCH  57  80
ATOM     80  C   UNL A   1      42.014  28.747  33.543  1.00  0.00     0.023 A 
ATOM     81  C   UNL A   1      43.305  29.324  33.569  1.00  0.00     0.012 A 
ATOM     82  C   UNL A   1      41.716  27.718  34.450  1.00  0.00     0.148 A 
ATOM     83  C   UNL A   1      44.263  28.886  34.500  1.00  0.00     0.002 A 
ATOM     84  C   UNL A   1      42.646  27.326  35.400  1.00  0.00     0.091 A 
ATOM     85  F   UNL A   1      40.484  27.191  34.406  1.00  0.00    -0.205 F 
ATOM     86  C   UNL A   1      43.925  27.900  35.428  1.00  0.00     0.022 A 
BRANCH  84  87
ATOM     87  S   UNL A   1      42.208  26.172  36.700  1.00  0.00     0.127 S 
ATOM     88  O   UNL A   1      42.598  24.893  36.113  1.00  0.00    -0.237 OA
ATOM     89  O   UNL A   1      43.049  26.624  37.808  1.00  0.00    -0.237 OA
ATOM     90  O   UNL A   1      40.777  26.339  36.928  1.00  0.00    -0.744 OA
ENDBRANCH  84  87
ENDBRANCH  57  80
ENDBRANCH  31  32
ENDBRANCH  24  26
ENDBRANCH  23  24
ENDBRANCH  22  23
ENDBRANCH   1  22
TORSDOF 18
ENDMDL
