MODEL 1
REMARK VINA RESULT:     -12.4      0.000      0.000
REMARK SMILES CS(=O)(=O)Nc1ccc(-c2cc(Cl)cc3c2O[C@H](C(F)(F)F)C(C(=O)OCCOC(=O)c2ccc(-c4c5nc(c(-c6cccc(S(=O)(=O)[O-])c6F)c6ccc([nH]6)c(-c6cccc(S(=O)(=O)[O-])c6F)c6nc(c(-c7cccc(S(=O)(=O)[O-])c7F)c7ccc4[nH]7)C=C6)C=C5)cc2)=C3)cc1
REMARK SMILES IDX 27 1 26 2 24 3 25 4 23 5 10 6 11 7 16 8 12 9 15 10 17 11
REMARK SMILES IDX 13 12 14 13 95 14 18 15 9 16 6 17 7 18 97 19 8 20 96 21 5 22
REMARK SMILES IDX 2 24 1 25 3 26 4 27 19 28 20 29 21 30 22 31 28 32 29 33
REMARK SMILES IDX 30 34 31 35 32 36 33 37 94 38 34 39 93 40 35 41 36 42 37 43
REMARK SMILES IDX 87 44 38 45 92 46 86 47 88 48 39 49 91 50 85 51 84 52 40 54
REMARK SMILES IDX 72 55 52 56 71 57 53 58 56 59 70 60 89 61 54 62 55 63 69 65
REMARK SMILES IDX 90 66 57 67 41 68 42 69 50 70 43 71 45 72 51 73 44 74 46 75
REMARK SMILES IDX 47 76 48 77 49 78 73 79 74 80 82 81 75 82 77 83 83 84 76 85
REMARK SMILES IDX 78 86 79 87 80 88 81 89 58 90 59 91 67 92 60 93 62 94 68 95
REMARK SMILES IDX 61 96 63 97 64 98 65 99 66 100
REMARK H PARENT 5 23 88 53 56 64
REMARK Flexibility Score: inf
ROOT
ATOM      1  C   UNL A   1      31.079  32.352  26.181  1.00  0.00     0.275 C 
ENDROOT
BRANCH   1   2
ATOM      2  O   UNL A   1      31.146  31.050  26.822  1.00  0.00    -0.459 OA
BRANCH   2   3
ATOM      3  C   UNL A   1      31.757  30.104  26.061  1.00  0.00     0.338 C 
ATOM      4  O   UNL A   1      31.553  29.951  24.861  1.00  0.00    -0.246 OA
BRANCH   3   5
ATOM      5  C   UNL A   1      32.710  29.230  26.799  1.00  0.00     0.087 C 
ATOM      6  C   UNL A   1      33.119  25.421  25.505  1.00  0.00     0.026 A 
ATOM      7  C   UNL A   1      31.868  25.280  24.850  1.00  0.00     0.033 A 
ATOM      8  C   UNL A   1      33.205  26.567  26.306  1.00  0.00     0.135 A 
ATOM      9  C   UNL A   1      30.756  26.088  25.121  1.00  0.00     0.042 A 
ATOM     10  C   UNL A   1      32.012  27.172  26.779  1.00  0.00     0.019 A 
ATOM     11  O   UNL A   1      34.361  27.332  26.464  1.00  0.00    -0.475 OA
ATOM     12  Cl  UNL A   1      29.357  26.201  24.139  1.00  0.00    -0.084 Cl
ATOM     13  C   UNL A   1      30.784  26.927  26.201  1.00  0.00     0.032 A 
ATOM     14  C   UNL A   1      32.109  28.367  27.636  1.00  0.00     0.027 C 
ATOM     15  C   UNL A   1      34.091  28.822  26.318  1.00  0.00     0.316 C 
BRANCH   6  16
ATOM     16  C   UNL A   1      34.000  24.200  25.427  1.00  0.00    -0.014 A 
ATOM     17  C   UNL A   1      34.402  21.344  25.261  1.00  0.00     0.048 A 
ATOM     18  C   UNL A   1      34.497  22.158  24.132  1.00  0.00     0.027 A 
ATOM     19  C   UNL A   1      34.260  21.975  26.491  1.00  0.00     0.027 A 
ATOM     20  C   UNL A   1      34.366  23.568  24.227  1.00  0.00     0.011 A 
ATOM     21  C   UNL A   1      34.054  23.372  26.569  1.00  0.00     0.011 A 
BRANCH  17  22
ATOM     22  N   UNL A   1      34.296  19.933  25.079  1.00  0.00    -0.284 N 
ATOM     23  H   UNL A   1      35.118  19.407  25.203  1.00  0.00     0.180 HD
BRANCH  22  24
ATOM     24  S   UNL A   1      32.917  19.089  24.676  1.00  0.00     0.229 S 
ATOM     25  C   UNL A   1      32.907  17.741  25.834  1.00  0.00     0.183 C 
ATOM     26  O   UNL A   1      33.060  18.533  23.340  1.00  0.00    -0.207 OA
ATOM     27  O   UNL A   1      31.806  19.935  25.021  1.00  0.00    -0.207 OA
ENDBRANCH  22  24
ENDBRANCH  17  22
ENDBRANCH   6  16
BRANCH  15  28
ATOM     28  C   UNL A   1      35.061  29.646  27.175  1.00  0.00     0.430 C 
ATOM     29  F   UNL A   1      35.142  29.169  28.443  1.00  0.00    -0.167 F 
ATOM     30  F   UNL A   1      36.311  29.676  26.668  1.00  0.00    -0.167 F 
ATOM     31  F   UNL A   1      34.647  30.938  27.277  1.00  0.00    -0.167 F 
ENDBRANCH  15  28
ENDBRANCH   3   5
ENDBRANCH   2   3
ENDBRANCH   1   2
BRANCH   1  32
ATOM     32  C   UNL A   1      32.156  33.335  26.656  1.00  0.00     0.275 C 
BRANCH  32  33
ATOM     33  O   UNL A   1      32.323  33.307  28.085  1.00  0.00    -0.458 OA
BRANCH  33  34
ATOM     34  C   UNL A   1      33.093  34.314  28.563  1.00  0.00     0.338 C 
ATOM     35  O   UNL A   1      32.740  35.478  28.701  1.00  0.00    -0.246 OA
BRANCH  34  36
ATOM     36  C   UNL A   1      34.405  33.817  29.045  1.00  0.00     0.060 A 
ATOM     37  C   UNL A   1      34.361  32.732  29.911  1.00  0.00     0.016 A 
ATOM     38  C   UNL A   1      35.652  34.363  28.711  1.00  0.00     0.016 A 
ATOM     39  C   UNL A   1      35.552  32.180  30.384  1.00  0.00     0.010 A 
ATOM     40  C   UNL A   1      36.855  33.777  29.188  1.00  0.00     0.010 A 
ATOM     41  C   UNL A   1      36.824  32.642  30.007  1.00  0.00    -0.014 A 
BRANCH  41  42
ATOM     42  C   UNL A   1      38.024  31.915  30.569  1.00  0.00     0.031 A 
ATOM     43  C   UNL A   1      38.333  32.073  32.030  1.00  0.00     0.074 A 
ATOM     44  C   UNL A   1      38.728  30.970  29.898  1.00  0.00     0.049 A 
ATOM     45  N   UNL A   1      39.163  31.388  32.773  1.00  0.00    -0.248 NA
ATOM     46  C   UNL A   1      37.599  33.126  32.749  1.00  0.00     0.031 C 
ATOM     47  C   UNL A   1      38.542  30.647  28.501  1.00  0.00     0.029 A 
ATOM     48  N   UNL A   1      39.684  30.052  30.294  1.00  0.00    -0.354 N 
ATOM     49  C   UNL A   1      39.080  31.952  34.035  1.00  0.00     0.074 A 
ATOM     50  C   UNL A   1      38.065  32.982  33.978  1.00  0.00     0.031 C 
ATOM     51  C   UNL A   1      39.192  29.518  28.185  1.00  0.00     0.029 A 
ATOM     52  C   UNL A   1      40.035  29.139  29.311  1.00  0.00     0.049 A 
ATOM     53  H   UNL A   1      40.082  30.048  31.195  1.00  0.00     0.167 HD
ATOM     54  C   UNL A   1      39.813  31.679  35.136  1.00  0.00     0.034 A 
ATOM     55  C   UNL A   1      40.963  28.155  29.274  1.00  0.00     0.034 A 
ATOM     56  C   UNL A   1      40.897  30.741  35.197  1.00  0.00     0.049 A 
ATOM     57  C   UNL A   1      41.847  27.970  30.482  1.00  0.00     0.074 A 
ATOM     58  C   UNL A   1      41.723  30.469  36.272  1.00  0.00     0.029 A 
ATOM     59  N   UNL A   1      41.344  29.965  34.141  1.00  0.00    -0.354 N 
ATOM     60  N   UNL A   1      41.723  28.491  31.677  1.00  0.00    -0.248 NA
ATOM     61  C   UNL A   1      42.994  27.059  30.341  1.00  0.00     0.031 C 
ATOM     62  C   UNL A   1      42.690  29.549  35.857  1.00  0.00     0.029 A 
ATOM     63  C   UNL A   1      42.427  29.202  34.543  1.00  0.00     0.049 A 
ATOM     64  H   UNL A   1      40.951  29.957  33.239  1.00  0.00     0.167 HD
ATOM     65  C   UNL A   1      42.770  27.969  32.431  1.00  0.00     0.074 A 
ATOM     66  C   UNL A   1      43.485  27.047  31.574  1.00  0.00     0.031 C 
ATOM     67  C   UNL A   1      43.120  28.250  33.711  1.00  0.00     0.034 A 
BRANCH  54  68
ATOM     68  C   UNL A   1      39.505  32.494  36.353  1.00  0.00     0.023 A 
ATOM     69  C   UNL A   1      40.212  33.687  36.600  1.00  0.00     0.012 A 
ATOM     70  C   UNL A   1      38.520  32.060  37.259  1.00  0.00     0.148 A 
ATOM     71  C   UNL A   1      39.960  34.423  37.755  1.00  0.00     0.002 A 
ATOM     72  C   UNL A   1      38.249  32.818  38.386  1.00  0.00     0.091 A 
ATOM     73  F   UNL A   1      37.895  30.900  37.012  1.00  0.00    -0.205 F 
ATOM     74  C   UNL A   1      38.975  33.994  38.642  1.00  0.00     0.022 A 
BRANCH  72  75
ATOM     75  S   UNL A   1      36.969  32.369  39.560  1.00  0.00     0.127 S 
ATOM     76  O   UNL A   1      37.411  31.041  39.981  1.00  0.00    -0.237 OA
ATOM     77  O   UNL A   1      37.110  33.412  40.576  1.00  0.00    -0.237 OA
ATOM     78  O   UNL A   1      35.715  32.401  38.821  1.00  0.00    -0.744 OA
ENDBRANCH  72  75
ENDBRANCH  54  68
BRANCH  55  79
ATOM     79  C   UNL A   1      41.164  27.286  28.058  1.00  0.00     0.023 A 
ATOM     80  C   UNL A   1      41.798  27.801  26.905  1.00  0.00     0.012 A 
ATOM     81  C   UNL A   1      40.693  25.960  28.011  1.00  0.00     0.148 A 
ATOM     82  C   UNL A   1      41.953  27.030  25.748  1.00  0.00     0.002 A 
ATOM     83  C   UNL A   1      40.912  25.173  26.882  1.00  0.00     0.091 A 
ATOM     84  F   UNL A   1      40.023  25.485  29.070  1.00  0.00    -0.205 F 
ATOM     85  C   UNL A   1      41.525  25.711  25.742  1.00  0.00     0.022 A 
BRANCH  83  86
ATOM     86  S   UNL A   1      40.501  23.425  26.842  1.00  0.00     0.127 S 
ATOM     87  O   UNL A   1      39.108  23.458  26.406  1.00  0.00    -0.237 OA
ATOM     88  O   UNL A   1      41.448  22.916  25.850  1.00  0.00    -0.237 OA
ATOM     89  O   UNL A   1      40.733  22.943  28.197  1.00  0.00    -0.744 OA
ENDBRANCH  83  86
ENDBRANCH  55  79
BRANCH  67  90
ATOM     90  C   UNL A   1      44.303  27.525  34.305  1.00  0.00     0.023 A 
ATOM     91  C   UNL A   1      45.591  28.096  34.242  1.00  0.00     0.012 A 
ATOM     92  C   UNL A   1      44.122  26.315  35.007  1.00  0.00     0.148 A 
ATOM     93  C   UNL A   1      46.681  27.457  34.833  1.00  0.00     0.002 A 
ATOM     94  C   UNL A   1      45.202  25.714  35.642  1.00  0.00     0.091 A 
ATOM     95  F   UNL A   1      42.893  25.784  35.059  1.00  0.00    -0.205 F 
ATOM     96  C   UNL A   1      46.485  26.274  35.542  1.00  0.00     0.022 A 
BRANCH  94  97
ATOM     97  S   UNL A   1      45.032  24.251  36.671  1.00  0.00     0.127 S 
ATOM     98  O   UNL A   1      46.420  23.987  37.046  1.00  0.00    -0.237 OA
ATOM     99  O   UNL A   1      44.190  24.743  37.763  1.00  0.00    -0.237 OA
ATOM    100  O   UNL A   1      44.407  23.234  35.837  1.00  0.00    -0.744 OA
ENDBRANCH  94  97
ENDBRANCH  67  90
ENDBRANCH  41  42
ENDBRANCH  34  36
ENDBRANCH  33  34
ENDBRANCH  32  33
ENDBRANCH   1  32
TORSDOF 18
ENDMDL
MODEL 2
REMARK VINA RESULT:     -12.0      2.429      3.120
REMARK SMILES CS(=O)(=O)Nc1ccc(-c2cc(Cl)cc3c2O[C@H](C(F)(F)F)C(C(=O)OCCOC(=O)c2ccc(-c4c5nc(c(-c6cccc(S(=O)(=O)[O-])c6F)c6ccc([nH]6)c(-c6cccc(S(=O)(=O)[O-])c6F)c6nc(c(-c7cccc(S(=O)(=O)[O-])c7F)c7ccc4[nH]7)C=C6)C=C5)cc2)=C3)cc1
REMARK SMILES IDX 27 1 26 2 24 3 25 4 23 5 10 6 11 7 16 8 12 9 15 10 17 11
REMARK SMILES IDX 13 12 14 13 95 14 18 15 9 16 6 17 7 18 97 19 8 20 96 21 5 22
REMARK SMILES IDX 2 24 1 25 3 26 4 27 19 28 20 29 21 30 22 31 28 32 29 33
REMARK SMILES IDX 30 34 31 35 32 36 33 37 94 38 34 39 93 40 35 41 36 42 37 43
REMARK SMILES IDX 87 44 38 45 92 46 86 47 88 48 39 49 91 50 85 51 84 52 40 54
REMARK SMILES IDX 72 55 52 56 71 57 53 58 56 59 70 60 89 61 54 62 55 63 69 65
REMARK SMILES IDX 90 66 57 67 41 68 42 69 50 70 43 71 45 72 51 73 44 74 46 75
REMARK SMILES IDX 47 76 48 77 49 78 73 79 74 80 82 81 75 82 77 83 83 84 76 85
REMARK SMILES IDX 78 86 79 87 80 88 81 89 58 90 59 91 67 92 60 93 62 94 68 95
REMARK SMILES IDX 61 96 63 97 64 98 65 99 66 100
REMARK H PARENT 5 23 88 53 56 64
REMARK Flexibility Score: inf
ROOT
ATOM      1  C   UNL A   1      31.330  29.192  24.869  1.00  0.00     0.275 C 
ENDROOT
BRANCH   1   2
ATOM      2  O   UNL A   1      30.983  28.030  25.669  1.00  0.00    -0.459 OA
BRANCH   2   3
ATOM      3  C   UNL A   1      30.784  26.906  24.930  1.00  0.00     0.338 C 
ATOM      4  O   UNL A   1      29.679  26.427  24.694  1.00  0.00    -0.246 OA
BRANCH   3   5
ATOM      5  C   UNL A   1      32.028  26.267  24.421  1.00  0.00     0.087 C 
ATOM      6  C   UNL A   1      32.189  22.227  24.466  1.00  0.00     0.026 A 
ATOM      7  C   UNL A   1      31.234  21.983  25.487  1.00  0.00     0.033 A 
ATOM      8  C   UNL A   1      32.577  23.569  24.370  1.00  0.00     0.135 A 
ATOM      9  C   UNL A   1      30.858  22.940  26.439  1.00  0.00     0.042 A 
ATOM     10  C   UNL A   1      32.416  24.418  25.496  1.00  0.00     0.019 A 
ATOM     11  O   UNL A   1      32.864  24.222  23.170  1.00  0.00    -0.475 OA
ATOM     12  Cl  UNL A   1      29.485  22.830  27.457  1.00  0.00    -0.084 Cl
ATOM     13  C   UNL A   1      31.571  24.103  26.539  1.00  0.00     0.032 A 
ATOM     14  C   UNL A   1      32.842  25.825  25.395  1.00  0.00     0.027 C 
ATOM     15  C   UNL A   1      32.183  25.580  23.076  1.00  0.00     0.316 C 
BRANCH   6  16
ATOM     16  C   UNL A   1      32.790  20.978  23.869  1.00  0.00    -0.014 A 
ATOM     17  C   UNL A   1      33.139  18.113  23.754  1.00  0.00     0.048 A 
ATOM     18  C   UNL A   1      32.278  18.775  22.879  1.00  0.00     0.027 A 
ATOM     19  C   UNL A   1      33.937  18.897  24.578  1.00  0.00     0.027 A 
ATOM     20  C   UNL A   1      32.159  20.190  22.893  1.00  0.00     0.011 A 
ATOM     21  C   UNL A   1      33.757  20.299  24.640  1.00  0.00     0.011 A 
BRANCH  17  22
ATOM     22  N   UNL A   1      33.040  16.695  23.867  1.00  0.00    -0.284 N 
ATOM     23  H   UNL A   1      32.769  16.203  23.058  1.00  0.00     0.180 HD
BRANCH  22  24
ATOM     24  S   UNL A   1      33.335  15.788  25.234  1.00  0.00     0.229 S 
ATOM     25  C   UNL A   1      35.106  15.818  25.373  1.00  0.00     0.183 C 
ATOM     26  O   UNL A   1      32.925  14.412  25.003  1.00  0.00    -0.207 OA
ATOM     27  O   UNL A   1      32.823  16.547  26.344  1.00  0.00    -0.207 OA
ENDBRANCH  22  24
ENDBRANCH  17  22
ENDBRANCH   6  16
BRANCH  15  28
ATOM     28  C   UNL A   1      33.013  26.557  22.233  1.00  0.00     0.430 C 
ATOM     29  F   UNL A   1      32.369  27.738  22.052  1.00  0.00    -0.167 F 
ATOM     30  F   UNL A   1      34.217  26.826  22.777  1.00  0.00    -0.167 F 
ATOM     31  F   UNL A   1      33.246  26.053  20.991  1.00  0.00    -0.167 F 
ENDBRANCH  15  28
ENDBRANCH   3   5
ENDBRANCH   2   3
ENDBRANCH   1   2
BRANCH   1  32
ATOM     32  C   UNL A   1      31.675  30.436  25.697  1.00  0.00     0.275 C 
BRANCH  32  33
ATOM     33  O   UNL A   1      32.980  30.346  26.294  1.00  0.00    -0.458 OA
BRANCH  33  34
ATOM     34  C   UNL A   1      33.319  31.432  27.029  1.00  0.00     0.338 C 
ATOM     35  O   UNL A   1      32.618  32.418  27.210  1.00  0.00    -0.246 OA
BRANCH  34  36
ATOM     36  C   UNL A   1      34.614  31.236  27.728  1.00  0.00     0.060 A 
ATOM     37  C   UNL A   1      34.877  29.944  28.166  1.00  0.00     0.016 A 
ATOM     38  C   UNL A   1      35.557  32.241  27.985  1.00  0.00     0.016 A 
ATOM     39  C   UNL A   1      36.087  29.667  28.802  1.00  0.00     0.010 A 
ATOM     40  C   UNL A   1      36.792  31.936  28.617  1.00  0.00     0.010 A 
ATOM     41  C   UNL A   1      37.096  30.625  29.002  1.00  0.00    -0.014 A 
BRANCH  41  42
ATOM     42  C   UNL A   1      38.373  30.163  29.668  1.00  0.00     0.031 A 
ATOM     43  C   UNL A   1      38.556  30.446  31.131  1.00  0.00     0.074 A 
ATOM     44  C   UNL A   1      39.278  29.336  29.091  1.00  0.00     0.049 A 
ATOM     45  N   UNL A   1      39.450  29.966  31.955  1.00  0.00    -0.248 NA
ATOM     46  C   UNL A   1      37.597  31.377  31.748  1.00  0.00     0.031 C 
ATOM     47  C   UNL A   1      39.242  28.918  27.707  1.00  0.00     0.029 A 
ATOM     48  N   UNL A   1      40.362  28.635  29.589  1.00  0.00    -0.354 N 
ATOM     49  C   UNL A   1      39.186  30.563  33.175  1.00  0.00     0.074 A 
ATOM     50  C   UNL A   1      38.004  31.381  33.006  1.00  0.00     0.031 C 
ATOM     51  C   UNL A   1      40.108  27.917  27.492  1.00  0.00     0.029 A 
ATOM     52  C   UNL A   1      40.935  27.758  28.680  1.00  0.00     0.049 A 
ATOM     53  H   UNL A   1      40.697  28.748  30.508  1.00  0.00     0.167 HD
ATOM     54  C   UNL A   1      39.888  30.486  34.327  1.00  0.00     0.034 A 
ATOM     55  C   UNL A   1      42.030  26.964  28.749  1.00  0.00     0.034 A 
ATOM     56  C   UNL A   1      41.120  29.773  34.499  1.00  0.00     0.049 A 
ATOM     57  C   UNL A   1      42.856  27.006  30.010  1.00  0.00     0.074 A 
ATOM     58  C   UNL A   1      41.915  29.712  35.630  1.00  0.00     0.029 A 
ATOM     59  N   UNL A   1      41.768  29.045  33.515  1.00  0.00    -0.354 N 
ATOM     60  N   UNL A   1      42.564  27.552  31.164  1.00  0.00    -0.248 NA
ATOM     61  C   UNL A   1      44.158  26.321  29.983  1.00  0.00     0.031 C 
ATOM     62  C   UNL A   1      43.059  28.971  35.320  1.00  0.00     0.029 A 
ATOM     63  C   UNL A   1      42.946  28.518  34.017  1.00  0.00     0.049 A 
ATOM     64  H   UNL A   1      41.440  28.920  32.596  1.00  0.00     0.167 HD
ATOM     65  C   UNL A   1      43.641  27.272  32.001  1.00  0.00     0.074 A 
ATOM     66  C   UNL A   1      44.566  26.461  31.238  1.00  0.00     0.031 C 
ATOM     67  C   UNL A   1      43.853  27.675  33.278  1.00  0.00     0.034 A 
BRANCH  54  68
ATOM     68  C   UNL A   1      39.360  31.287  35.477  1.00  0.00     0.023 A 
ATOM     69  C   UNL A   1      38.311  30.777  36.267  1.00  0.00     0.012 A 
ATOM     70  C   UNL A   1      39.900  32.554  35.757  1.00  0.00     0.148 A 
ATOM     71  C   UNL A   1      37.787  31.539  37.309  1.00  0.00     0.002 A 
ATOM     72  C   UNL A   1      39.398  33.289  36.819  1.00  0.00     0.091 A 
ATOM     73  F   UNL A   1      40.871  33.024  34.960  1.00  0.00    -0.205 F 
ATOM     74  C   UNL A   1      38.334  32.789  37.588  1.00  0.00     0.022 A 
BRANCH  72  75
ATOM     75  S   UNL A   1      40.069  34.887  37.283  1.00  0.00     0.127 S 
ATOM     76  O   UNL A   1      38.977  35.442  38.082  1.00  0.00    -0.237 OA
ATOM     77  O   UNL A   1      41.256  34.508  38.048  1.00  0.00    -0.237 OA
ATOM     78  O   UNL A   1      40.343  35.587  36.035  1.00  0.00    -0.744 OA
ENDBRANCH  72  75
ENDBRANCH  54  68
BRANCH  55  79
ATOM     79  C   UNL A   1      42.462  26.092  27.598  1.00  0.00     0.023 A 
ATOM     80  C   UNL A   1      43.339  26.591  26.609  1.00  0.00     0.012 A 
ATOM     81  C   UNL A   1      41.979  24.778  27.444  1.00  0.00     0.148 A 
ATOM     82  C   UNL A   1      43.716  25.818  25.507  1.00  0.00     0.002 A 
ATOM     83  C   UNL A   1      42.413  23.987  26.383  1.00  0.00     0.091 A 
ATOM     84  F   UNL A   1      41.089  24.320  28.334  1.00  0.00    -0.205 F 
ATOM     85  C   UNL A   1      43.267  24.509  25.402  1.00  0.00     0.022 A 
BRANCH  83  86
ATOM     86  S   UNL A   1      41.977  22.250  26.246  1.00  0.00     0.127 S 
ATOM     87  O   UNL A   1      40.534  22.322  26.037  1.00  0.00    -0.237 OA
ATOM     88  O   UNL A   1      42.752  21.836  25.076  1.00  0.00    -0.237 OA
ATOM     89  O   UNL A   1      42.410  21.643  27.498  1.00  0.00    -0.744 OA
ENDBRANCH  83  86
ENDBRANCH  55  79
BRANCH  67  90
ATOM     90  C   UNL A   1      45.111  27.214  33.975  1.00  0.00     0.023 A 
ATOM     91  C   UNL A   1      46.279  28.002  33.926  1.00  0.00     0.012 A 
ATOM     92  C   UNL A   1      45.108  26.039  34.754  1.00  0.00     0.148 A 
ATOM     93  C   UNL A   1      47.430  27.610  34.609  1.00  0.00     0.002 A 
ATOM     94  C   UNL A   1      46.240  25.684  35.477  1.00  0.00     0.091 A 
ATOM     95  F   UNL A   1      43.991  25.300  34.791  1.00  0.00    -0.205 F 
ATOM     96  C   UNL A   1      47.407  26.458  35.393  1.00  0.00     0.022 A 
BRANCH  94  97
ATOM     97  S   UNL A   1      46.273  24.282  36.602  1.00  0.00     0.127 S 
ATOM     98  O   UNL A   1      45.118  24.557  37.455  1.00  0.00    -0.237 OA
ATOM     99  O   UNL A   1      46.100  23.153  35.687  1.00  0.00    -0.237 OA
ATOM    100  O   UNL A   1      47.566  24.326  37.270  1.00  0.00    -0.744 OA
ENDBRANCH  94  97
ENDBRANCH  67  90
ENDBRANCH  41  42
ENDBRANCH  34  36
ENDBRANCH  33  34
ENDBRANCH  32  33
ENDBRANCH   1  32
TORSDOF 18
ENDMDL
MODEL 3
REMARK VINA RESULT:     -11.2      1.806      2.159
REMARK SMILES CS(=O)(=O)Nc1ccc(-c2cc(Cl)cc3c2O[C@H](C(F)(F)F)C(C(=O)OCCOC(=O)c2ccc(-c4c5nc(c(-c6cccc(S(=O)(=O)[O-])c6F)c6ccc([nH]6)c(-c6cccc(S(=O)(=O)[O-])c6F)c6nc(c(-c7cccc(S(=O)(=O)[O-])c7F)c7ccc4[nH]7)C=C6)C=C5)cc2)=C3)cc1
REMARK SMILES IDX 27 1 26 2 24 3 25 4 23 5 10 6 11 7 16 8 12 9 15 10 17 11
REMARK SMILES IDX 13 12 14 13 95 14 18 15 9 16 6 17 7 18 97 19 8 20 96 21 5 22
REMARK SMILES IDX 2 24 1 25 3 26 4 27 19 28 20 29 21 30 22 31 28 32 29 33
REMARK SMILES IDX 30 34 31 35 32 36 33 37 94 38 34 39 93 40 35 41 36 42 37 43
REMARK SMILES IDX 87 44 38 45 92 46 86 47 88 48 39 49 91 50 85 51 84 52 40 54
REMARK SMILES IDX 72 55 52 56 71 57 53 58 56 59 70 60 89 61 54 62 55 63 69 65
REMARK SMILES IDX 90 66 57 67 41 68 42 69 50 70 43 71 45 72 51 73 44 74 46 75
REMARK SMILES IDX 47 76 48 77 49 78 73 79 74 80 82 81 75 82 77 83 83 84 76 85
REMARK SMILES IDX 78 86 79 87 80 88 81 89 58 90 59 91 67 92 60 93 62 94 68 95
REMARK SMILES IDX 61 96 63 97 64 98 65 99 66 100
REMARK H PARENT 5 23 88 53 56 64
REMARK Flexibility Score: inf
ROOT
ATOM      1  C   UNL A   1      31.582  31.476  27.076  1.00  0.00     0.275 C 
ENDROOT
BRANCH   1   2
ATOM      2  O   UNL A   1      31.089  30.930  25.824  1.00  0.00    -0.459 OA
BRANCH   2   3
ATOM      3  C   UNL A   1      31.870  29.936  25.324  1.00  0.00     0.338 C 
ATOM      4  O   UNL A   1      31.968  29.676  24.128  1.00  0.00    -0.246 OA
BRANCH   3   5
ATOM      5  C   UNL A   1      32.611  29.150  26.348  1.00  0.00     0.087 C 
ATOM      6  C   UNL A   1      33.107  25.198  25.653  1.00  0.00     0.026 A 
ATOM      7  C   UNL A   1      32.013  24.994  24.772  1.00  0.00     0.033 A 
ATOM      8  C   UNL A   1      33.078  26.437  26.305  1.00  0.00     0.135 A 
ATOM      9  C   UNL A   1      30.907  25.850  24.702  1.00  0.00     0.042 A 
ATOM     10  C   UNL A   1      31.841  27.119  26.438  1.00  0.00     0.019 A 
ATOM     11  O   UNL A   1      34.210  27.196  26.606  1.00  0.00    -0.475 OA
ATOM     12  Cl  UNL A   1      29.746  25.857  23.442  1.00  0.00    -0.084 Cl
ATOM     13  C   UNL A   1      30.748  26.822  25.651  1.00  0.00     0.032 A 
ATOM     14  C   UNL A   1      31.812  28.415  27.141  1.00  0.00     0.027 C 
ATOM     15  C   UNL A   1      34.041  28.659  26.222  1.00  0.00     0.316 C 
BRANCH   6  16
ATOM     16  C   UNL A   1      33.931  23.961  25.914  1.00  0.00    -0.014 A 
ATOM     17  C   UNL A   1      34.370  21.109  25.789  1.00  0.00     0.048 A 
ATOM     18  C   UNL A   1      34.964  21.976  24.873  1.00  0.00     0.027 A 
ATOM     19  C   UNL A   1      33.685  21.681  26.855  1.00  0.00     0.027 A 
ATOM     20  C   UNL A   1      34.802  23.383  24.976  1.00  0.00     0.011 A 
ATOM     21  C   UNL A   1      33.463  23.076  26.909  1.00  0.00     0.011 A 
BRANCH  17  22
ATOM     22  N   UNL A   1      34.360  19.712  25.501  1.00  0.00    -0.284 N 
ATOM     23  H   UNL A   1      35.154  19.198  25.772  1.00  0.00     0.180 HD
BRANCH  22  24
ATOM     24  S   UNL A   1      33.137  18.866  24.749  1.00  0.00     0.229 S 
ATOM     25  C   UNL A   1      34.002  17.590  23.865  1.00  0.00     0.183 C 
ATOM     26  O   UNL A   1      32.480  19.723  23.775  1.00  0.00    -0.207 OA
ATOM     27  O   UNL A   1      32.394  18.211  25.793  1.00  0.00    -0.207 OA
ENDBRANCH  22  24
ENDBRANCH  17  22
ENDBRANCH   6  16
BRANCH  15  28
ATOM     28  C   UNL A   1      34.850  29.571  27.154  1.00  0.00     0.430 C 
ATOM     29  F   UNL A   1      36.186  29.434  26.957  1.00  0.00    -0.167 F 
ATOM     30  F   UNL A   1      34.546  30.876  27.003  1.00  0.00    -0.167 F 
ATOM     31  F   UNL A   1      34.620  29.262  28.459  1.00  0.00    -0.167 F 
ENDBRANCH  15  28
ENDBRANCH   3   5
ENDBRANCH   2   3
ENDBRANCH   1   2
BRANCH   1  32
ATOM     32  C   UNL A   1      31.666  33.007  27.098  1.00  0.00     0.275 C 
BRANCH  32  33
ATOM     33  O   UNL A   1      33.012  33.473  27.295  1.00  0.00    -0.458 OA
BRANCH  33  34
ATOM     34  C   UNL A   1      33.225  34.024  28.514  1.00  0.00     0.338 C 
ATOM     35  O   UNL A   1      32.421  34.699  29.142  1.00  0.00    -0.246 OA
BRANCH  34  36
ATOM     36  C   UNL A   1      34.524  33.594  29.088  1.00  0.00     0.060 A 
ATOM     37  C   UNL A   1      34.488  32.462  29.891  1.00  0.00     0.016 A 
ATOM     38  C   UNL A   1      35.751  34.245  28.895  1.00  0.00     0.016 A 
ATOM     39  C   UNL A   1      35.672  31.971  30.442  1.00  0.00     0.010 A 
ATOM     40  C   UNL A   1      36.949  33.720  29.448  1.00  0.00     0.010 A 
ATOM     41  C   UNL A   1      36.933  32.542  30.204  1.00  0.00    -0.014 A 
BRANCH  41  42
ATOM     42  C   UNL A   1      38.132  31.871  30.836  1.00  0.00     0.031 A 
ATOM     43  C   UNL A   1      38.393  32.105  32.295  1.00  0.00     0.074 A 
ATOM     44  C   UNL A   1      38.877  30.912  30.232  1.00  0.00     0.049 A 
ATOM     45  N   UNL A   1      39.215  31.476  33.094  1.00  0.00    -0.248 NA
ATOM     46  C   UNL A   1      37.614  33.173  32.941  1.00  0.00     0.031 C 
ATOM     47  C   UNL A   1      38.741  30.519  28.846  1.00  0.00     0.029 A 
ATOM     48  N   UNL A   1      39.842  30.038  30.699  1.00  0.00    -0.354 N 
ATOM     49  C   UNL A   1      39.080  32.097  34.325  1.00  0.00     0.074 A 
ATOM     50  C   UNL A   1      38.045  33.099  34.189  1.00  0.00     0.031 C 
ATOM     51  C   UNL A   1      39.426  29.393  28.604  1.00  0.00     0.029 A 
ATOM     52  C   UNL A   1      40.242  29.088  29.771  1.00  0.00     0.049 A 
ATOM     53  H   UNL A   1      40.212  30.086  31.610  1.00  0.00     0.167 HD
ATOM     54  C   UNL A   1      39.786  31.894  35.459  1.00  0.00     0.034 A 
ATOM     55  C   UNL A   1      41.193  28.126  29.809  1.00  0.00     0.034 A 
ATOM     56  C   UNL A   1      40.888  30.986  35.596  1.00  0.00     0.049 A 
ATOM     57  C   UNL A   1      42.044  28.019  31.049  1.00  0.00     0.074 A 
ATOM     58  C   UNL A   1      41.688  30.785  36.707  1.00  0.00     0.029 A 
ATOM     59  N   UNL A   1      41.385  30.172  34.593  1.00  0.00    -0.354 N 
ATOM     60  N   UNL A   1      41.872  28.593  32.214  1.00  0.00    -0.248 NA
ATOM     61  C   UNL A   1      43.215  27.130  30.986  1.00  0.00     0.031 C 
ATOM     62  C   UNL A   1      42.688  29.870  36.365  1.00  0.00     0.029 A 
ATOM     63  C   UNL A   1      42.472  29.455  35.062  1.00  0.00     0.049 A 
ATOM     64  H   UNL A   1      41.020  30.112  33.681  1.00  0.00     0.167 HD
ATOM     65  C   UNL A   1      42.907  28.132  33.022  1.00  0.00     0.074 A 
ATOM     66  C   UNL A   1      43.669  27.189  32.232  1.00  0.00     0.031 C 
ATOM     67  C   UNL A   1      43.211  28.482  34.297  1.00  0.00     0.034 A 
BRANCH  54  68
ATOM     68  C   UNL A   1      39.423  32.758  36.626  1.00  0.00     0.023 A 
ATOM     69  C   UNL A   1      39.992  34.040  36.757  1.00  0.00     0.012 A 
ATOM     70  C   UNL A   1      38.526  32.283  37.600  1.00  0.00     0.148 A 
ATOM     71  C   UNL A   1      39.691  34.828  37.866  1.00  0.00     0.002 A 
ATOM     72  C   UNL A   1      38.203  33.088  38.680  1.00  0.00     0.091 A 
ATOM     73  F   UNL A   1      38.035  31.043  37.463  1.00  0.00    -0.205 F 
ATOM     74  C   UNL A   1      38.792  34.355  38.821  1.00  0.00     0.022 A 
BRANCH  72  75
ATOM     75  S   UNL A   1      37.024  32.584  39.934  1.00  0.00     0.127 S 
ATOM     76  O   UNL A   1      36.833  33.831  40.674  1.00  0.00    -0.237 OA
ATOM     77  O   UNL A   1      35.878  32.171  39.125  1.00  0.00    -0.237 OA
ATOM     78  O   UNL A   1      37.664  31.510  40.681  1.00  0.00    -0.744 OA
ENDBRANCH  72  75
ENDBRANCH  54  68
BRANCH  55  79
ATOM     79  C   UNL A   1      41.451  27.206  28.642  1.00  0.00     0.023 A 
ATOM     80  C   UNL A   1      40.737  25.993  28.513  1.00  0.00     0.012 A 
ATOM     81  C   UNL A   1      42.431  27.496  27.674  1.00  0.00     0.148 A 
ATOM     82  C   UNL A   1      40.991  25.101  27.467  1.00  0.00     0.002 A 
ATOM     83  C   UNL A   1      42.632  26.638  26.594  1.00  0.00     0.091 A 
ATOM     84  F   UNL A   1      43.167  28.605  27.827  1.00  0.00    -0.205 F 
ATOM     85  C   UNL A   1      41.927  25.431  26.498  1.00  0.00     0.022 A 
BRANCH  83  86
ATOM     86  S   UNL A   1      43.732  27.054  25.237  1.00  0.00     0.127 S 
ATOM     87  O   UNL A   1      44.334  25.758  24.935  1.00  0.00    -0.237 OA
ATOM     88  O   UNL A   1      42.794  27.549  24.230  1.00  0.00    -0.237 OA
ATOM     89  O   UNL A   1      44.635  28.067  25.767  1.00  0.00    -0.744 OA
ENDBRANCH  83  86
ENDBRANCH  55  79
BRANCH  67  90
ATOM     90  C   UNL A   1      44.392  27.815  34.960  1.00  0.00     0.023 A 
ATOM     91  C   UNL A   1      44.225  26.595  35.647  1.00  0.00     0.012 A 
ATOM     92  C   UNL A   1      45.689  28.353  34.823  1.00  0.00     0.148 A 
ATOM     93  C   UNL A   1      45.320  25.945  36.218  1.00  0.00     0.002 A 
ATOM     94  C   UNL A   1      46.781  27.672  35.345  1.00  0.00     0.091 A 
ATOM     95  F   UNL A   1      45.833  29.513  34.167  1.00  0.00    -0.205 F 
ATOM     96  C   UNL A   1      46.597  26.477  36.057  1.00  0.00     0.022 A 
BRANCH  94  97
ATOM     97  S   UNL A   1      48.475  28.217  35.094  1.00  0.00     0.127 S 
ATOM     98  O   UNL A   1      49.224  27.227  35.867  1.00  0.00    -0.237 OA
ATOM     99  O   UNL A   1      48.623  28.094  33.643  1.00  0.00    -0.237 OA
ATOM    100  O   UNL A   1      48.545  29.581  35.596  1.00  0.00    -0.744 OA
ENDBRANCH  94  97
ENDBRANCH  67  90
ENDBRANCH  41  42
ENDBRANCH  34  36
ENDBRANCH  33  34
ENDBRANCH  32  33
ENDBRANCH   1  32
TORSDOF 18
ENDMDL
