MODEL 1
REMARK VINA RESULT:     -13.1      0.000      0.000
REMARK SMILES O=C(OCCOC(=O)c1ccc(-c2c3nc(c(-c4cccc(S(=O)(=O)[O-])c4F)c4ccc([nH]4)c(-c4cccc(S(=O)(=O)[O-])c4F)c4nc(c(-c5cccc(S(=O)(=O)[O-])c5F)c5ccc2[nH]5)C=C4)C=C3)cc1)c1ccc(/C=C/c2ccnc(-c3cccc([N+](=O)[O-])c3)[n+]2[O-])cc1
REMARK SMILES IDX 4 1 3 2 2 3 1 4 72 5 73 6 95 7 74 8 94 9 75 10 76 11 77 12
REMARK SMILES IDX 78 13 79 14 92 15 80 16 82 17 93 18 81 19 83 20 84 21 91 22
REMARK SMILES IDX 85 23 87 24 86 25 88 26 89 27 90 28 5 29 6 30 7 31 8 32 9 33
REMARK SMILES IDX 10 34 71 35 11 36 70 37 12 38 13 39 14 40 64 41 15 42 69 43
REMARK SMILES IDX 63 44 65 45 16 46 68 47 62 48 61 49 17 51 49 52 29 53 48 54
REMARK SMILES IDX 30 55 33 56 47 57 66 58 31 59 32 60 46 62 67 63 34 64 18 65
REMARK SMILES IDX 19 66 27 67 20 68 22 69 28 70 21 71 23 72 24 73 25 74 26 75
REMARK SMILES IDX 50 76 51 77 59 78 52 79 54 80 60 81 53 82 55 83 56 84 57 85
REMARK SMILES IDX 58 86 35 87 36 88 44 89 37 90 39 91 45 92 38 93 40 94 41 95
REMARK SMILES IDX 42 96 43 97
REMARK H PARENT 65 50 33 61
REMARK Flexibility Score: inf
ROOT
ATOM      1  C   UNL A   1      42.967  20.246  25.927  1.00  0.00     0.275 C 
ENDROOT
BRANCH   1   2
ATOM      2  O   UNL A   1      41.555  20.402  25.706  1.00  0.00    -0.458 OA
BRANCH   2   3
ATOM      3  C   UNL A   1      40.595  20.922  26.511  1.00  0.00     0.338 C 
ATOM      4  O   UNL A   1      40.770  20.858  27.727  1.00  0.00    -0.246 OA
BRANCH   3   5
ATOM      5  C   UNL A   1      39.276  21.445  26.019  1.00  0.00     0.060 A 
ATOM      6  C   UNL A   1      38.373  20.777  25.192  1.00  0.00     0.016 A 
ATOM      7  C   UNL A   1      38.897  22.717  26.479  1.00  0.00     0.016 A 
ATOM      8  C   UNL A   1      37.080  21.263  24.983  1.00  0.00     0.009 A 
ATOM      9  C   UNL A   1      37.621  23.232  26.217  1.00  0.00     0.009 A 
ATOM     10  C   UNL A   1      36.669  22.463  25.552  1.00  0.00    -0.025 A 
BRANCH  10  11
ATOM     11  C   UNL A   1      35.304  22.960  25.378  1.00  0.00     0.012 C 
ATOM     12  C   UNL A   1      34.874  24.170  25.785  1.00  0.00     0.053 C 
BRANCH  12  13
ATOM     13  C   UNL A   1      33.442  24.514  25.797  1.00  0.00     0.134 A 
ATOM     14  C   UNL A   1      32.489  23.577  26.192  1.00  0.00     0.100 A 
ATOM     15  N   UNL A   1      33.041  25.778  25.330  1.00  0.00    -0.228 N 
ATOM     16  C   UNL A   1      31.168  23.964  26.177  1.00  0.00     0.259 A 
ATOM     17  C   UNL A   1      31.690  26.111  25.415  1.00  0.00     0.333 A 
ATOM     18  O   UNL A   1      33.893  26.556  24.761  1.00  0.00    -0.710 OA
ATOM     19  N   UNL A   1      30.752  25.195  25.822  1.00  0.00    -0.049 NA
BRANCH  17  20
ATOM     20  C   UNL A   1      31.243  27.455  25.049  1.00  0.00     0.076 A 
ATOM     21  C   UNL A   1      31.788  28.585  25.682  1.00  0.00     0.017 A 
ATOM     22  C   UNL A   1      30.335  27.658  23.995  1.00  0.00     0.102 A 
ATOM     23  C   UNL A   1      31.475  29.877  25.247  1.00  0.00     0.008 A 
ATOM     24  C   UNL A   1      30.029  28.952  23.559  1.00  0.00     0.270 A 
ATOM     25  C   UNL A   1      30.598  30.066  24.181  1.00  0.00     0.085 A 
BRANCH  24  26
ATOM     26  N   UNL A   1      29.109  29.130  22.431  1.00  0.00     0.062 N 
ATOM     27  O   UNL A   1      29.529  29.723  21.424  1.00  0.00    -0.258 OA
ATOM     28  O   UNL A   1      27.939  28.735  22.560  1.00  0.00    -0.258 OA
ENDBRANCH  24  26
ENDBRANCH  17  20
ENDBRANCH  12  13
ENDBRANCH  10  11
ENDBRANCH   3   5
ENDBRANCH   2   3
ENDBRANCH   1   2
BRANCH   1  29
ATOM     29  C   UNL A   1      43.826  21.335  25.270  1.00  0.00     0.275 C 
BRANCH  29  30
ATOM     30  O   UNL A   1      43.073  22.485  24.848  1.00  0.00    -0.458 OA
BRANCH  30  31
ATOM     31  C   UNL A   1      43.749  23.667  24.878  1.00  0.00     0.338 C 
ATOM     32  O   UNL A   1      44.679  23.976  24.162  1.00  0.00    -0.246 OA
BRANCH  31  33
ATOM     33  C   UNL A   1      43.113  24.606  25.844  1.00  0.00     0.060 A 
ATOM     34  C   UNL A   1      43.573  25.930  25.878  1.00  0.00     0.016 A 
ATOM     35  C   UNL A   1      42.093  24.210  26.712  1.00  0.00     0.016 A 
ATOM     36  C   UNL A   1      43.034  26.850  26.787  1.00  0.00     0.010 A 
ATOM     37  C   UNL A   1      41.549  25.135  27.615  1.00  0.00     0.010 A 
ATOM     38  C   UNL A   1      42.030  26.459  27.682  1.00  0.00    -0.014 A 
BRANCH  38  39
ATOM     39  C   UNL A   1      41.566  27.361  28.776  1.00  0.00     0.031 A 
ATOM     40  C   UNL A   1      42.326  27.382  30.074  1.00  0.00     0.074 A 
ATOM     41  C   UNL A   1      40.460  28.126  28.670  1.00  0.00     0.049 A 
ATOM     42  N   UNL A   1      42.057  28.026  31.180  1.00  0.00    -0.248 NA
ATOM     43  C   UNL A   1      43.549  26.567  30.131  1.00  0.00     0.031 C 
ATOM     44  C   UNL A   1      39.636  28.251  27.477  1.00  0.00     0.029 A 
ATOM     45  N   UNL A   1      39.820  28.918  29.596  1.00  0.00    -0.354 N 
ATOM     46  C   UNL A   1      43.065  27.682  32.070  1.00  0.00     0.074 A 
ATOM     47  C   UNL A   1      43.930  26.743  31.386  1.00  0.00     0.031 C 
ATOM     48  C   UNL A   1      38.557  29.003  27.756  1.00  0.00     0.029 A 
ATOM     49  C   UNL A   1      38.624  29.433  29.152  1.00  0.00     0.049 A 
ATOM     50  H   UNL A   1      40.184  29.098  30.493  1.00  0.00     0.167 HD
ATOM     51  C   UNL A   1      43.276  28.125  33.333  1.00  0.00     0.034 A 
ATOM     52  C   UNL A   1      37.685  30.166  29.788  1.00  0.00     0.034 A 
ATOM     53  C   UNL A   1      42.444  29.074  34.019  1.00  0.00     0.049 A 
ATOM     54  C   UNL A   1      37.911  30.608  31.210  1.00  0.00     0.074 A 
ATOM     55  C   UNL A   1      42.625  29.616  35.281  1.00  0.00     0.029 A 
ATOM     56  N   UNL A   1      41.268  29.609  33.521  1.00  0.00    -0.354 N 
ATOM     57  N   UNL A   1      38.934  30.373  31.993  1.00  0.00    -0.248 NA
ATOM     58  C   UNL A   1      36.876  31.459  31.820  1.00  0.00     0.031 C 
ATOM     59  C   UNL A   1      41.537  30.448  35.560  1.00  0.00     0.029 A 
ATOM     60  C   UNL A   1      40.701  30.458  34.457  1.00  0.00     0.049 A 
ATOM     61  H   UNL A   1      40.891  29.414  32.632  1.00  0.00     0.167 HD
ATOM     62  C   UNL A   1      38.696  31.090  33.161  1.00  0.00     0.074 A 
ATOM     63  C   UNL A   1      37.427  31.765  32.988  1.00  0.00     0.031 C 
ATOM     64  C   UNL A   1      39.468  31.179  34.271  1.00  0.00     0.034 A 
BRANCH  51  65
ATOM     65  C   UNL A   1      44.481  27.584  34.052  1.00  0.00     0.023 A 
ATOM     66  C   UNL A   1      45.707  28.276  33.986  1.00  0.00     0.012 A 
ATOM     67  C   UNL A   1      44.391  26.403  34.810  1.00  0.00     0.148 A 
ATOM     68  C   UNL A   1      46.838  27.774  34.627  1.00  0.00     0.002 A 
ATOM     69  C   UNL A   1      45.510  25.935  35.486  1.00  0.00     0.091 A 
ATOM     70  F   UNL A   1      43.223  25.745  34.837  1.00  0.00    -0.205 F 
ATOM     71  C   UNL A   1      46.737  26.610  35.384  1.00  0.00     0.022 A 
BRANCH  69  72
ATOM     72  S   UNL A   1      45.452  24.488  36.546  1.00  0.00     0.127 S 
ATOM     73  O   UNL A   1      45.011  23.455  35.609  1.00  0.00    -0.237 OA
ATOM     74  O   UNL A   1      46.843  24.366  36.980  1.00  0.00    -0.237 OA
ATOM     75  O   UNL A   1      44.513  24.812  37.611  1.00  0.00    -0.744 OA
ENDBRANCH  69  72
ENDBRANCH  51  65
BRANCH  52  76
ATOM     76  C   UNL A   1      36.448  30.577  29.065  1.00  0.00     0.023 A 
ATOM     77  C   UNL A   1      35.626  29.599  28.474  1.00  0.00     0.012 A 
ATOM     78  C   UNL A   1      36.089  31.934  28.960  1.00  0.00     0.148 A 
ATOM     79  C   UNL A   1      34.480  29.967  27.767  1.00  0.00     0.002 A 
ATOM     80  C   UNL A   1      34.924  32.290  28.291  1.00  0.00     0.091 A 
ATOM     81  F   UNL A   1      36.900  32.849  29.512  1.00  0.00    -0.205 F 
ATOM     82  C   UNL A   1      34.123  31.309  27.684  1.00  0.00     0.022 A 
BRANCH  80  83
ATOM     83  S   UNL A   1      34.338  33.986  28.215  1.00  0.00     0.127 S 
ATOM     84  O   UNL A   1      32.936  33.803  27.850  1.00  0.00    -0.237 OA
ATOM     85  O   UNL A   1      34.568  34.444  29.585  1.00  0.00    -0.237 OA
ATOM     86  O   UNL A   1      35.167  34.634  27.209  1.00  0.00    -0.744 OA
ENDBRANCH  80  83
ENDBRANCH  52  76
BRANCH  64  87
ATOM     87  C   UNL A   1      39.016  32.081  35.393  1.00  0.00     0.023 A 
ATOM     88  C   UNL A   1      38.136  31.601  36.382  1.00  0.00     0.012 A 
ATOM     89  C   UNL A   1      39.559  33.377  35.524  1.00  0.00     0.148 A 
ATOM     90  C   UNL A   1      37.790  32.400  37.472  1.00  0.00     0.002 A 
ATOM     91  C   UNL A   1      39.249  34.148  36.638  1.00  0.00     0.091 A 
ATOM     92  F   UNL A   1      40.379  33.825  34.562  1.00  0.00    -0.205 F 
ATOM     93  C   UNL A   1      38.357  33.665  37.609  1.00  0.00     0.022 A 
BRANCH  91  94
ATOM     94  S   UNL A   1      40.010  35.746  36.950  1.00  0.00     0.127 S 
ATOM     95  O   UNL A   1      39.650  36.488  35.744  1.00  0.00    -0.237 OA
ATOM     96  O   UNL A   1      39.321  36.184  38.165  1.00  0.00    -0.237 OA
ATOM     97  O   UNL A   1      41.433  35.489  37.121  1.00  0.00    -0.744 OA
ENDBRANCH  91  94
ENDBRANCH  64  87
ENDBRANCH  38  39
ENDBRANCH  31  33
ENDBRANCH  30  31
ENDBRANCH  29  30
ENDBRANCH   1  29
TORSDOF 18
ENDMDL
MODEL 2
REMARK VINA RESULT:     -12.6      1.536      2.133
REMARK SMILES O=C(OCCOC(=O)c1ccc(-c2c3nc(c(-c4cccc(S(=O)(=O)[O-])c4F)c4ccc([nH]4)c(-c4cccc(S(=O)(=O)[O-])c4F)c4nc(c(-c5cccc(S(=O)(=O)[O-])c5F)c5ccc2[nH]5)C=C4)C=C3)cc1)c1ccc(/C=C/c2ccnc(-c3cccc([N+](=O)[O-])c3)[n+]2[O-])cc1
REMARK SMILES IDX 4 1 3 2 2 3 1 4 72 5 73 6 95 7 74 8 94 9 75 10 76 11 77 12
REMARK SMILES IDX 78 13 79 14 92 15 80 16 82 17 93 18 81 19 83 20 84 21 91 22
REMARK SMILES IDX 85 23 87 24 86 25 88 26 89 27 90 28 5 29 6 30 7 31 8 32 9 33
REMARK SMILES IDX 10 34 71 35 11 36 70 37 12 38 13 39 14 40 64 41 15 42 69 43
REMARK SMILES IDX 63 44 65 45 16 46 68 47 62 48 61 49 17 51 49 52 29 53 48 54
REMARK SMILES IDX 30 55 33 56 47 57 66 58 31 59 32 60 46 62 67 63 34 64 18 65
REMARK SMILES IDX 19 66 27 67 20 68 22 69 28 70 21 71 23 72 24 73 25 74 26 75
REMARK SMILES IDX 50 76 51 77 59 78 52 79 54 80 60 81 53 82 55 83 56 84 57 85
REMARK SMILES IDX 58 86 35 87 36 88 44 89 37 90 39 91 45 92 38 93 40 94 41 95
REMARK SMILES IDX 42 96 43 97
REMARK H PARENT 65 50 33 61
REMARK Flexibility Score: inf
ROOT
ATOM      1  C   UNL A   1      44.320  20.060  25.381  1.00  0.00     0.275 C 
ENDROOT
BRANCH   1   2
ATOM      2  O   UNL A   1      42.929  19.712  25.283  1.00  0.00    -0.458 OA
BRANCH   2   3
ATOM      3  C   UNL A   1      41.974  19.641  26.244  1.00  0.00     0.338 C 
ATOM      4  O   UNL A   1      42.213  18.958  27.240  1.00  0.00    -0.246 OA
BRANCH   3   5
ATOM      5  C   UNL A   1      40.598  20.227  26.111  1.00  0.00     0.060 A 
ATOM      6  C   UNL A   1      40.210  21.524  26.449  1.00  0.00     0.016 A 
ATOM      7  C   UNL A   1      39.617  19.397  25.543  1.00  0.00     0.016 A 
ATOM      8  C   UNL A   1      38.966  22.033  26.073  1.00  0.00     0.009 A 
ATOM      9  C   UNL A   1      38.346  19.892  25.223  1.00  0.00     0.009 A 
ATOM     10  C   UNL A   1      38.047  21.242  25.393  1.00  0.00    -0.025 A 
BRANCH  10  11
ATOM     11  C   UNL A   1      36.758  21.777  24.954  1.00  0.00     0.012 C 
ATOM     12  C   UNL A   1      35.608  21.660  25.644  1.00  0.00     0.053 C 
BRANCH  12  13
ATOM     13  C   UNL A   1      34.310  22.007  25.040  1.00  0.00     0.134 A 
ATOM     14  C   UNL A   1      33.598  21.069  24.295  1.00  0.00     0.100 A 
ATOM     15  N   UNL A   1      33.832  23.324  25.160  1.00  0.00    -0.228 N 
ATOM     16  C   UNL A   1      32.393  21.460  23.756  1.00  0.00     0.259 A 
ATOM     17  C   UNL A   1      32.570  23.615  24.644  1.00  0.00     0.333 A 
ATOM     18  O   UNL A   1      34.588  24.242  25.654  1.00  0.00    -0.710 OA
ATOM     19  N   UNL A   1      31.861  22.686  23.926  1.00  0.00    -0.049 NA
BRANCH  17  20
ATOM     20  C   UNL A   1      31.985  24.941  24.846  1.00  0.00     0.076 A 
ATOM     21  C   UNL A   1      31.398  25.280  26.077  1.00  0.00     0.017 A 
ATOM     22  C   UNL A   1      32.079  25.936  23.858  1.00  0.00     0.102 A 
ATOM     23  C   UNL A   1      30.961  26.583  26.332  1.00  0.00     0.008 A 
ATOM     24  C   UNL A   1      31.646  27.241  24.119  1.00  0.00     0.270 A 
ATOM     25  C   UNL A   1      31.086  27.571  25.356  1.00  0.00     0.085 A 
BRANCH  24  26
ATOM     26  N   UNL A   1      31.793  28.267  23.083  1.00  0.00     0.062 N 
ATOM     27  O   UNL A   1      30.874  29.090  22.942  1.00  0.00    -0.258 OA
ATOM     28  O   UNL A   1      32.799  28.227  22.356  1.00  0.00    -0.258 OA
ENDBRANCH  24  26
ENDBRANCH  17  20
ENDBRANCH  12  13
ENDBRANCH  10  11
ENDBRANCH   3   5
ENDBRANCH   2   3
ENDBRANCH   1   2
BRANCH   1  29
ATOM     29  C   UNL A   1      44.639  21.491  24.925  1.00  0.00     0.275 C 
BRANCH  29  30
ATOM     30  O   UNL A   1      43.865  22.496  25.602  1.00  0.00    -0.458 OA
BRANCH  30  31
ATOM     31  C   UNL A   1      44.129  23.781  25.233  1.00  0.00     0.338 C 
ATOM     32  O   UNL A   1      44.724  24.129  24.235  1.00  0.00    -0.246 OA
BRANCH  31  33
ATOM     33  C   UNL A   1      43.475  24.735  26.171  1.00  0.00     0.060 A 
ATOM     34  C   UNL A   1      43.921  26.065  26.176  1.00  0.00     0.016 A 
ATOM     35  C   UNL A   1      42.452  24.350  27.040  1.00  0.00     0.016 A 
ATOM     36  C   UNL A   1      43.365  27.001  27.059  1.00  0.00     0.010 A 
ATOM     37  C   UNL A   1      41.891  25.291  27.916  1.00  0.00     0.010 A 
ATOM     38  C   UNL A   1      42.357  26.621  27.954  1.00  0.00    -0.014 A 
BRANCH  38  39
ATOM     39  C   UNL A   1      41.875  27.545  29.023  1.00  0.00     0.031 A 
ATOM     40  C   UNL A   1      42.546  27.514  30.369  1.00  0.00     0.074 A 
ATOM     41  C   UNL A   1      40.826  28.375  28.849  1.00  0.00     0.049 A 
ATOM     42  N   UNL A   1      42.242  28.169  31.460  1.00  0.00    -0.248 NA
ATOM     43  C   UNL A   1      43.711  26.628  30.501  1.00  0.00     0.031 C 
ATOM     44  C   UNL A   1      40.093  28.554  27.605  1.00  0.00     0.029 A 
ATOM     45  N   UNL A   1      40.174  29.199  29.737  1.00  0.00    -0.354 N 
ATOM     46  C   UNL A   1      43.165  27.761  32.413  1.00  0.00     0.074 A 
ATOM     47  C   UNL A   1      44.016  26.774  31.780  1.00  0.00     0.031 C 
ATOM     48  C   UNL A   1      39.045  29.368  27.817  1.00  0.00     0.029 A 
ATOM     49  C   UNL A   1      39.043  29.787  29.218  1.00  0.00     0.049 A 
ATOM     50  H   UNL A   1      40.486  29.353  30.658  1.00  0.00     0.167 HD
ATOM     51  C   UNL A   1      43.315  28.184  33.690  1.00  0.00     0.034 A 
ATOM     52  C   UNL A   1      38.108  30.572  29.795  1.00  0.00     0.034 A 
ATOM     53  C   UNL A   1      42.497  29.178  34.327  1.00  0.00     0.049 A 
ATOM     54  C   UNL A   1      38.264  30.994  31.233  1.00  0.00     0.074 A 
ATOM     55  C   UNL A   1      42.625  29.703  35.603  1.00  0.00     0.029 A 
ATOM     56  N   UNL A   1      41.392  29.785  33.756  1.00  0.00    -0.354 N 
ATOM     57  N   UNL A   1      39.216  30.694  32.081  1.00  0.00    -0.248 NA
ATOM     58  C   UNL A   1      37.242  31.902  31.780  1.00  0.00     0.031 C 
ATOM     59  C   UNL A   1      41.572  30.598  35.815  1.00  0.00     0.029 A 
ATOM     60  C   UNL A   1      40.814  30.662  34.659  1.00  0.00     0.049 A 
ATOM     61  H   UNL A   1      41.065  29.617  32.842  1.00  0.00     0.167 HD
ATOM     62  C   UNL A   1      38.942  31.419  33.236  1.00  0.00     0.074 A 
ATOM     63  C   UNL A   1      37.731  32.170  32.985  1.00  0.00     0.031 C 
ATOM     64  C   UNL A   1      39.641  31.457  34.397  1.00  0.00     0.034 A 
BRANCH  51  65
ATOM     65  C   UNL A   1      44.435  27.569  34.484  1.00  0.00     0.023 A 
ATOM     66  C   UNL A   1      45.703  28.185  34.503  1.00  0.00     0.012 A 
ATOM     67  C   UNL A   1      44.224  26.394  35.228  1.00  0.00     0.148 A 
ATOM     68  C   UNL A   1      46.757  27.613  35.214  1.00  0.00     0.002 A 
ATOM     69  C   UNL A   1      45.264  25.857  35.973  1.00  0.00     0.091 A 
ATOM     70  F   UNL A   1      43.018  25.810  35.173  1.00  0.00    -0.205 F 
ATOM     71  C   UNL A   1      46.535  26.456  35.956  1.00  0.00     0.022 A 
BRANCH  69  72
ATOM     72  S   UNL A   1      45.048  24.414  37.019  1.00  0.00     0.127 S 
ATOM     73  O   UNL A   1      44.056  24.895  37.980  1.00  0.00    -0.237 OA
ATOM     74  O   UNL A   1      44.549  23.418  36.071  1.00  0.00    -0.237 OA
ATOM     75  O   UNL A   1      46.364  24.120  37.568  1.00  0.00    -0.744 OA
ENDBRANCH  69  72
ENDBRANCH  51  65
BRANCH  52  76
ATOM     76  C   UNL A   1      36.950  31.060  28.995  1.00  0.00     0.023 A 
ATOM     77  C   UNL A   1      36.804  32.437  28.744  1.00  0.00     0.012 A 
ATOM     78  C   UNL A   1      35.993  30.161  28.487  1.00  0.00     0.148 A 
ATOM     79  C   UNL A   1      35.709  32.916  28.022  1.00  0.00     0.002 A 
ATOM     80  C   UNL A   1      34.927  30.641  27.733  1.00  0.00     0.091 A 
ATOM     81  F   UNL A   1      36.141  28.856  28.757  1.00  0.00    -0.205 F 
ATOM     82  C   UNL A   1      34.777  32.019  27.509  1.00  0.00     0.022 A 
BRANCH  80  83
ATOM     83  S   UNL A   1      33.732  29.551  26.953  1.00  0.00     0.127 S 
ATOM     84  O   UNL A   1      32.896  30.497  26.220  1.00  0.00    -0.237 OA
ATOM     85  O   UNL A   1      34.592  28.709  26.122  1.00  0.00    -0.237 OA
ATOM     86  O   UNL A   1      33.075  28.855  28.050  1.00  0.00    -0.744 OA
ENDBRANCH  80  83
ENDBRANCH  52  76
BRANCH  64  87
ATOM     87  C   UNL A   1      39.169  32.379  35.493  1.00  0.00     0.023 A 
ATOM     88  C   UNL A   1      38.283  31.913  36.483  1.00  0.00     0.012 A 
ATOM     89  C   UNL A   1      39.698  33.683  35.601  1.00  0.00     0.148 A 
ATOM     90  C   UNL A   1      37.918  32.732  37.552  1.00  0.00     0.002 A 
ATOM     91  C   UNL A   1      39.369  34.475  36.695  1.00  0.00     0.091 A 
ATOM     92  F   UNL A   1      40.525  34.117  34.638  1.00  0.00    -0.205 F 
ATOM     93  C   UNL A   1      38.472  34.006  37.666  1.00  0.00     0.022 A 
BRANCH  91  94
ATOM     94  S   UNL A   1      40.112  36.087  36.979  1.00  0.00     0.127 S 
ATOM     95  O   UNL A   1      41.523  35.741  37.137  1.00  0.00    -0.237 OA
ATOM     96  O   UNL A   1      39.793  36.797  35.739  1.00  0.00    -0.237 OA
ATOM     97  O   UNL A   1      39.467  36.626  38.168  1.00  0.00    -0.744 OA
ENDBRANCH  91  94
ENDBRANCH  64  87
ENDBRANCH  38  39
ENDBRANCH  31  33
ENDBRANCH  30  31
ENDBRANCH  29  30
ENDBRANCH   1  29
TORSDOF 18
ENDMDL
MODEL 3
REMARK VINA RESULT:     -11.8      4.457     10.622
REMARK SMILES O=C(OCCOC(=O)c1ccc(-c2c3nc(c(-c4cccc(S(=O)(=O)[O-])c4F)c4ccc([nH]4)c(-c4cccc(S(=O)(=O)[O-])c4F)c4nc(c(-c5cccc(S(=O)(=O)[O-])c5F)c5ccc2[nH]5)C=C4)C=C3)cc1)c1ccc(/C=C/c2ccnc(-c3cccc([N+](=O)[O-])c3)[n+]2[O-])cc1
REMARK SMILES IDX 4 1 3 2 2 3 1 4 72 5 73 6 95 7 74 8 94 9 75 10 76 11 77 12
REMARK SMILES IDX 78 13 79 14 92 15 80 16 82 17 93 18 81 19 83 20 84 21 91 22
REMARK SMILES IDX 85 23 87 24 86 25 88 26 89 27 90 28 5 29 6 30 7 31 8 32 9 33
REMARK SMILES IDX 10 34 71 35 11 36 70 37 12 38 13 39 14 40 64 41 15 42 69 43
REMARK SMILES IDX 63 44 65 45 16 46 68 47 62 48 61 49 17 51 49 52 29 53 48 54
REMARK SMILES IDX 30 55 33 56 47 57 66 58 31 59 32 60 46 62 67 63 34 64 18 65
REMARK SMILES IDX 19 66 27 67 20 68 22 69 28 70 21 71 23 72 24 73 25 74 26 75
REMARK SMILES IDX 50 76 51 77 59 78 52 79 54 80 60 81 53 82 55 83 56 84 57 85
REMARK SMILES IDX 58 86 35 87 36 88 44 89 37 90 39 91 45 92 38 93 40 94 41 95
REMARK SMILES IDX 42 96 43 97
REMARK H PARENT 65 50 33 61
REMARK Flexibility Score: inf
ROOT
ATOM      1  C   UNL A   1      34.835  30.549  27.778  1.00  0.00     0.275 C 
ENDROOT
BRANCH   1   2
ATOM      2  O   UNL A   1      35.939  30.645  28.693  1.00  0.00    -0.458 OA
BRANCH   2   3
ATOM      3  C   UNL A   1      36.593  29.676  29.381  1.00  0.00     0.338 C 
ATOM      4  O   UNL A   1      36.189  29.404  30.511  1.00  0.00    -0.246 OA
BRANCH   3   5
ATOM      5  C   UNL A   1      37.854  29.011  28.910  1.00  0.00     0.060 A 
ATOM      6  C   UNL A   1      38.461  27.887  29.469  1.00  0.00     0.016 A 
ATOM      7  C   UNL A   1      38.454  29.552  27.760  1.00  0.00     0.016 A 
ATOM      8  C   UNL A   1      39.500  27.220  28.817  1.00  0.00     0.009 A 
ATOM      9  C   UNL A   1      39.537  28.917  27.141  1.00  0.00     0.009 A 
ATOM     10  C   UNL A   1      40.002  27.690  27.609  1.00  0.00    -0.025 A 
BRANCH  10  11
ATOM     11  C   UNL A   1      41.059  26.975  26.893  1.00  0.00     0.012 C 
ATOM     12  C   UNL A   1      40.948  25.718  26.425  1.00  0.00     0.053 C 
BRANCH  12  13
ATOM     13  C   UNL A   1      42.119  24.975  25.930  1.00  0.00     0.134 A 
ATOM     14  C   UNL A   1      43.203  25.647  25.368  1.00  0.00     0.100 A 
ATOM     15  N   UNL A   1      42.098  23.569  25.961  1.00  0.00    -0.228 N 
ATOM     16  C   UNL A   1      44.264  24.891  24.923  1.00  0.00     0.259 A 
ATOM     17  C   UNL A   1      43.243  22.885  25.554  1.00  0.00     0.333 A 
ATOM     18  O   UNL A   1      41.015  22.947  26.271  1.00  0.00    -0.710 OA
ATOM     19  N   UNL A   1      44.318  23.548  25.018  1.00  0.00    -0.049 NA
BRANCH  17  20
ATOM     20  C   UNL A   1      43.308  21.429  25.676  1.00  0.00     0.076 A 
ATOM     21  C   UNL A   1      42.224  20.709  26.205  1.00  0.00     0.017 A 
ATOM     22  C   UNL A   1      44.407  20.706  25.182  1.00  0.00     0.102 A 
ATOM     23  C   UNL A   1      42.214  19.311  26.200  1.00  0.00     0.008 A 
ATOM     24  C   UNL A   1      44.392  19.307  25.171  1.00  0.00     0.270 A 
ATOM     25  C   UNL A   1      43.296  18.603  25.679  1.00  0.00     0.085 A 
BRANCH  24  26
ATOM     26  N   UNL A   1      45.536  18.580  24.613  1.00  0.00     0.062 N 
ATOM     27  O   UNL A   1      45.845  18.798  23.430  1.00  0.00    -0.258 OA
ATOM     28  O   UNL A   1      46.103  17.739  25.329  1.00  0.00    -0.258 OA
ENDBRANCH  24  26
ENDBRANCH  17  20
ENDBRANCH  12  13
ENDBRANCH  10  11
ENDBRANCH   3   5
ENDBRANCH   2   3
ENDBRANCH   1   2
BRANCH   1  29
ATOM     29  C   UNL A   1      33.847  31.722  27.867  1.00  0.00     0.275 C 
BRANCH  29  30
ATOM     30  O   UNL A   1      34.486  33.002  28.008  1.00  0.00    -0.458 OA
BRANCH  30  31
ATOM     31  C   UNL A   1      34.204  33.670  29.163  1.00  0.00     0.338 C 
ATOM     32  O   UNL A   1      33.172  34.257  29.414  1.00  0.00    -0.246 OA
BRANCH  31  33
ATOM     33  C   UNL A   1      35.303  33.485  30.151  1.00  0.00     0.060 A 
ATOM     34  C   UNL A   1      36.523  34.132  29.909  1.00  0.00     0.016 A 
ATOM     35  C   UNL A   1      35.160  32.692  31.292  1.00  0.00     0.016 A 
ATOM     36  C   UNL A   1      37.604  33.971  30.788  1.00  0.00     0.010 A 
ATOM     37  C   UNL A   1      36.239  32.540  32.174  1.00  0.00     0.010 A 
ATOM     38  C   UNL A   1      37.481  33.156  31.921  1.00  0.00    -0.014 A 
BRANCH  38  39
ATOM     39  C   UNL A   1      38.661  32.823  32.772  1.00  0.00     0.031 A 
ATOM     40  C   UNL A   1      39.727  31.918  32.218  1.00  0.00     0.074 A 
ATOM     41  C   UNL A   1      38.790  33.261  34.041  1.00  0.00     0.049 A 
ATOM     42  N   UNL A   1      40.792  31.436  32.806  1.00  0.00    -0.248 NA
ATOM     43  C   UNL A   1      39.569  31.500  30.817  1.00  0.00     0.031 C 
ATOM     44  C   UNL A   1      37.873  34.170  34.714  1.00  0.00     0.029 A 
ATOM     45  N   UNL A   1      39.730  32.970  35.003  1.00  0.00    -0.354 N 
ATOM     46  C   UNL A   1      41.421  30.645  31.855  1.00  0.00     0.074 A 
ATOM     47  C   UNL A   1      40.598  30.682  30.664  1.00  0.00     0.031 C 
ATOM     48  C   UNL A   1      38.242  34.305  35.999  1.00  0.00     0.029 A 
ATOM     49  C   UNL A   1      39.441  33.504  36.239  1.00  0.00     0.049 A 
ATOM     50  H   UNL A   1      40.533  32.430  34.825  1.00  0.00     0.167 HD
ATOM     51  C   UNL A   1      42.591  29.970  31.947  1.00  0.00     0.034 A 
ATOM     52  C   UNL A   1      40.062  33.366  37.429  1.00  0.00     0.034 A 
ATOM     53  C   UNL A   1      43.433  29.941  33.111  1.00  0.00     0.049 A 
ATOM     54  C   UNL A   1      41.337  32.569  37.526  1.00  0.00     0.074 A 
ATOM     55  C   UNL A   1      44.664  29.325  33.262  1.00  0.00     0.029 A 
ATOM     56  N   UNL A   1      43.131  30.530  34.327  1.00  0.00    -0.354 N 
ATOM     57  N   UNL A   1      41.982  31.930  36.582  1.00  0.00    -0.248 NA
ATOM     58  C   UNL A   1      41.996  32.515  38.841  1.00  0.00     0.031 C 
ATOM     59  C   UNL A   1      45.087  29.510  34.581  1.00  0.00     0.029 A 
ATOM     60  C   UNL A   1      44.140  30.275  35.240  1.00  0.00     0.049 A 
ATOM     61  H   UNL A   1      42.318  31.053  34.514  1.00  0.00     0.167 HD
ATOM     62  C   UNL A   1      43.147  31.451  37.172  1.00  0.00     0.074 A 
ATOM     63  C   UNL A   1      43.119  31.865  38.558  1.00  0.00     0.031 C 
ATOM     64  C   UNL A   1      44.148  30.733  36.606  1.00  0.00     0.034 A 
BRANCH  51  65
ATOM     65  C   UNL A   1      43.036  29.210  30.728  1.00  0.00     0.023 A 
ATOM     66  C   UNL A   1      42.824  27.819  30.651  1.00  0.00     0.012 A 
ATOM     67  C   UNL A   1      43.645  29.879  29.651  1.00  0.00     0.148 A 
ATOM     68  C   UNL A   1      43.254  27.098  29.538  1.00  0.00     0.002 A 
ATOM     69  C   UNL A   1      44.026  29.162  28.524  1.00  0.00     0.091 A 
ATOM     70  F   UNL A   1      43.863  31.198  29.756  1.00  0.00    -0.205 F 
ATOM     71  C   UNL A   1      43.845  27.770  28.472  1.00  0.00     0.022 A 
BRANCH  69  72
ATOM     72  S   UNL A   1      44.724  29.957  27.074  1.00  0.00     0.127 S 
ATOM     73  O   UNL A   1      43.612  30.803  26.640  1.00  0.00    -0.237 OA
ATOM     74  O   UNL A   1      45.862  30.684  27.637  1.00  0.00    -0.237 OA
ATOM     75  O   UNL A   1      45.085  28.879  26.165  1.00  0.00    -0.744 OA
ENDBRANCH  69  72
ENDBRANCH  51  65
BRANCH  52  76
ATOM     76  C   UNL A   1      39.512  34.045  38.637  1.00  0.00     0.023 A 
ATOM     77  C   UNL A   1      39.915  35.358  38.944  1.00  0.00     0.012 A 
ATOM     78  C   UNL A   1      38.596  33.389  39.480  1.00  0.00     0.148 A 
ATOM     79  C   UNL A   1      39.434  35.999  40.088  1.00  0.00     0.002 A 
ATOM     80  C   UNL A   1      38.089  34.049  40.595  1.00  0.00     0.091 A 
ATOM     81  F   UNL A   1      38.245  32.131  39.179  1.00  0.00    -0.205 F 
ATOM     82  C   UNL A   1      38.515  35.350  40.907  1.00  0.00     0.022 A 
BRANCH  80  83
ATOM     83  S   UNL A   1      36.831  33.325  41.651  1.00  0.00     0.127 S 
ATOM     84  O   UNL A   1      36.618  34.384  42.634  1.00  0.00    -0.237 OA
ATOM     85  O   UNL A   1      35.730  33.121  40.711  1.00  0.00    -0.237 OA
ATOM     86  O   UNL A   1      37.423  32.101  42.170  1.00  0.00    -0.744 OA
ENDBRANCH  80  83
ENDBRANCH  52  76
BRANCH  64  87
ATOM     87  C   UNL A   1      45.348  30.381  37.449  1.00  0.00     0.023 A 
ATOM     88  C   UNL A   1      46.382  31.317  37.641  1.00  0.00     0.012 A 
ATOM     89  C   UNL A   1      45.391  29.154  38.145  1.00  0.00     0.148 A 
ATOM     90  C   UNL A   1      47.447  31.033  38.497  1.00  0.00     0.002 A 
ATOM     91  C   UNL A   1      46.430  28.899  39.034  1.00  0.00     0.091 A 
ATOM     92  F   UNL A   1      44.408  28.267  37.935  1.00  0.00    -0.205 F 
ATOM     93  C   UNL A   1      47.463  29.832  39.204  1.00  0.00     0.022 A 
BRANCH  91  94
ATOM     94  S   UNL A   1      46.480  27.426  40.063  1.00  0.00     0.127 S 
ATOM     95  O   UNL A   1      47.558  27.750  40.994  1.00  0.00    -0.237 OA
ATOM     96  O   UNL A   1      45.142  27.419  40.656  1.00  0.00    -0.237 OA
ATOM     97  O   UNL A   1      46.750  26.313  39.163  1.00  0.00    -0.744 OA
ENDBRANCH  91  94
ENDBRANCH  64  87
ENDBRANCH  38  39
ENDBRANCH  31  33
ENDBRANCH  30  31
ENDBRANCH  29  30
ENDBRANCH   1  29
TORSDOF 18
ENDMDL
