MODEL 1
REMARK VINA RESULT:     -13.2      0.000      0.000
REMARK SMILES O=C(OCCOC(=O)[C@@H]1CC=CC[C@H]1C(=O)N1CC[NH+](Cc2ccc3c(c2)OCO3)CC1)c1ccc(-c2c3nc(c(-c4cccc(S(=O)(=O)[O-])c4F)c4ccc([nH]4)c(-c4cccc(S(=O)(=O)[O-])c4F)c4nc(c(-c5cccc(S(=O)(=O)[O-])c5F)c5ccc2[nH]5)C=C4)C=C3)cc1
REMARK SMILES IDX 4 1 3 2 2 3 1 4 33 5 34 6 95 7 35 8 94 9 36 10 37 11 38 12
REMARK SMILES IDX 88 13 39 14 93 15 87 16 89 17 40 18 92 19 86 20 85 21 41 23
REMARK SMILES IDX 73 24 53 25 72 26 54 27 57 28 71 29 90 30 55 31 56 32 70 34
REMARK SMILES IDX 91 35 58 36 42 37 43 38 51 39 44 40 46 41 52 42 45 43 47 44
REMARK SMILES IDX 48 45 49 46 50 47 74 48 75 49 83 50 76 51 78 52 84 53 77 54
REMARK SMILES IDX 79 55 80 56 81 57 82 58 59 59 60 60 68 61 61 62 63 63 69 64
REMARK SMILES IDX 62 65 64 66 65 67 66 68 67 69 5 70 6 71 7 72 8 73 9 74 10 75
REMARK SMILES IDX 14 76 11 77 13 78 12 79 15 80 16 81 17 82 18 83 32 84 19 85
REMARK SMILES IDX 31 86 20 87 21 89 22 90 23 91 27 92 24 93 26 94 25 95 28 96
REMARK SMILES IDX 30 97 29 98
REMARK H PARENT 89 22 57 33 20 88
REMARK Flexibility Score: inf
ROOT
ATOM      1  C   UNL A   1      31.828  27.981  27.168  1.00  0.00     0.275 C 
ENDROOT
BRANCH   1   2
ATOM      2  O   UNL A   1      32.563  29.000  26.400  1.00  0.00    -0.458 OA
BRANCH   2   3
ATOM      3  C   UNL A   1      32.673  30.346  26.716  1.00  0.00     0.338 C 
ATOM      4  O   UNL A   1      31.718  31.127  26.651  1.00  0.00    -0.246 OA
BRANCH   3   5
ATOM      5  C   UNL A   1      34.077  30.686  27.316  1.00  0.00     0.060 A 
ATOM      6  C   UNL A   1      34.776  29.589  27.685  1.00  0.00     0.016 A 
ATOM      7  C   UNL A   1      34.760  31.835  27.731  1.00  0.00     0.016 A 
ATOM      8  C   UNL A   1      36.010  29.562  28.374  1.00  0.00     0.010 A 
ATOM      9  C   UNL A   1      36.065  31.785  28.518  1.00  0.00     0.010 A 
ATOM     10  C   UNL A   1      36.725  30.591  28.895  1.00  0.00    -0.014 A 
BRANCH  10  11
ATOM     11  C   UNL A   1      37.954  30.136  29.805  1.00  0.00     0.031 A 
ATOM     12  C   UNL A   1      38.938  29.013  29.384  1.00  0.00     0.074 A 
ATOM     13  C   UNL A   1      38.719  30.915  30.649  1.00  0.00     0.049 A 
ATOM     14  N   UNL A   1      40.192  28.880  29.774  1.00  0.00    -0.248 NA
ATOM     15  C   UNL A   1      38.594  28.106  28.290  1.00  0.00     0.031 C 
ATOM     16  C   UNL A   1      38.911  32.354  30.772  1.00  0.00     0.029 A 
ATOM     17  N   UNL A   1      39.465  30.512  31.740  1.00  0.00    -0.354 N 
ATOM     18  C   UNL A   1      40.819  28.034  28.884  1.00  0.00     0.074 A 
ATOM     19  C   UNL A   1      39.794  27.631  27.944  1.00  0.00     0.031 C 
ATOM     20  C   UNL A   1      39.214  32.712  32.026  1.00  0.00     0.029 A 
ATOM     21  C   UNL A   1      39.536  31.489  32.710  1.00  0.00     0.049 A 
ATOM     22  H   UNL A   1      39.896  29.631  31.816  1.00  0.00     0.167 HD
ATOM     23  C   UNL A   1      42.112  27.611  28.885  1.00  0.00     0.034 A 
ATOM     24  C   UNL A   1      39.850  31.410  34.009  1.00  0.00     0.034 A 
ATOM     25  C   UNL A   1      42.869  27.491  30.109  1.00  0.00     0.049 A 
ATOM     26  C   UNL A   1      40.735  30.282  34.364  1.00  0.00     0.074 A 
ATOM     27  C   UNL A   1      43.875  26.580  30.391  1.00  0.00     0.029 A 
ATOM     28  N   UNL A   1      42.567  28.129  31.305  1.00  0.00    -0.354 N 
ATOM     29  N   UNL A   1      41.314  29.477  33.513  1.00  0.00    -0.248 NA
ATOM     30  C   UNL A   1      41.135  30.093  35.756  1.00  0.00     0.031 C 
ATOM     31  C   UNL A   1      44.011  26.510  31.784  1.00  0.00     0.029 A 
ATOM     32  C   UNL A   1      43.223  27.497  32.353  1.00  0.00     0.049 A 
ATOM     33  H   UNL A   1      41.977  28.911  31.396  1.00  0.00     0.167 HD
ATOM     34  C   UNL A   1      42.208  28.732  34.241  1.00  0.00     0.074 A 
ATOM     35  C   UNL A   1      42.061  29.146  35.624  1.00  0.00     0.031 C 
ATOM     36  C   UNL A   1      43.092  27.839  33.751  1.00  0.00     0.034 A 
BRANCH  23  37
ATOM     37  C   UNL A   1      42.598  26.880  27.664  1.00  0.00     0.023 A 
ATOM     38  C   UNL A   1      43.223  27.551  26.593  1.00  0.00     0.012 A 
ATOM     39  C   UNL A   1      42.388  25.493  27.581  1.00  0.00     0.148 A 
ATOM     40  C   UNL A   1      43.566  26.853  25.429  1.00  0.00     0.002 A 
ATOM     41  C   UNL A   1      42.712  24.811  26.421  1.00  0.00     0.091 A 
ATOM     42  F   UNL A   1      41.818  24.884  28.629  1.00  0.00    -0.205 F 
ATOM     43  C   UNL A   1      43.294  25.487  25.336  1.00  0.00     0.022 A 
BRANCH  41  44
ATOM     44  S   UNL A   1      42.323  23.075  26.213  1.00  0.00     0.127 S 
ATOM     45  O   UNL A   1      43.007  22.490  27.365  1.00  0.00    -0.237 OA
ATOM     46  O   UNL A   1      40.864  23.074  26.297  1.00  0.00    -0.237 OA
ATOM     47  O   UNL A   1      42.864  22.693  24.917  1.00  0.00    -0.744 OA
ENDBRANCH  41  44
ENDBRANCH  23  37
BRANCH  24  48
ATOM     48  C   UNL A   1      39.259  32.374  34.964  1.00  0.00     0.023 A 
ATOM     49  C   UNL A   1      38.052  32.139  35.635  1.00  0.00     0.012 A 
ATOM     50  C   UNL A   1      39.958  33.583  35.196  1.00  0.00     0.148 A 
ATOM     51  C   UNL A   1      37.542  33.104  36.513  1.00  0.00     0.002 A 
ATOM     52  C   UNL A   1      39.459  34.525  36.085  1.00  0.00     0.091 A 
ATOM     53  F   UNL A   1      41.097  33.796  34.522  1.00  0.00    -0.205 F 
ATOM     54  C   UNL A   1      38.244  34.290  36.740  1.00  0.00     0.022 A 
BRANCH  52  55
ATOM     55  S   UNL A   1      40.331  36.051  36.459  1.00  0.00     0.127 S 
ATOM     56  O   UNL A   1      39.658  36.484  37.682  1.00  0.00    -0.237 OA
ATOM     57  O   UNL A   1      41.702  35.579  36.645  1.00  0.00    -0.237 OA
ATOM     58  O   UNL A   1      40.142  36.912  35.299  1.00  0.00    -0.744 OA
ENDBRANCH  52  55
ENDBRANCH  24  48
BRANCH  36  59
ATOM     59  C   UNL A   1      44.013  27.167  34.717  1.00  0.00     0.023 A 
ATOM     60  C   UNL A   1      43.664  25.928  35.283  1.00  0.00     0.012 A 
ATOM     61  C   UNL A   1      45.291  27.710  34.943  1.00  0.00     0.148 A 
ATOM     62  C   UNL A   1      44.585  25.233  36.064  1.00  0.00     0.002 A 
ATOM     63  C   UNL A   1      46.221  26.985  35.669  1.00  0.00     0.091 A 
ATOM     64  F   UNL A   1      45.576  28.913  34.422  1.00  0.00    -0.205 F 
ATOM     65  C   UNL A   1      45.869  25.750  36.238  1.00  0.00     0.022 A 
BRANCH  63  66
ATOM     66  S   UNL A   1      47.927  27.517  35.826  1.00  0.00     0.127 S 
ATOM     67  O   UNL A   1      48.334  27.620  34.426  1.00  0.00    -0.237 OA
ATOM     68  O   UNL A   1      47.785  28.799  36.517  1.00  0.00    -0.237 OA
ATOM     69  O   UNL A   1      48.603  26.486  36.599  1.00  0.00    -0.744 OA
ENDBRANCH  63  66
ENDBRANCH  36  59
ENDBRANCH  10  11
ENDBRANCH   3   5
ENDBRANCH   2   3
ENDBRANCH   1   2
BRANCH   1  70
ATOM     70  C   UNL A   1      31.618  26.630  26.387  1.00  0.00     0.274 C 
BRANCH  70  71
ATOM     71  O   UNL A   1      32.507  25.615  26.839  1.00  0.00    -0.462 OA
BRANCH  71  72
ATOM     72  C   UNL A   1      33.469  25.319  25.932  1.00  0.00     0.310 C 
ATOM     73  O   UNL A   1      34.270  26.127  25.460  1.00  0.00    -0.252 OA
BRANCH  72  74
ATOM     74  C   UNL A   1      33.580  23.840  25.848  1.00  0.00     0.115 C 
ATOM     75  C   UNL A   1      34.604  23.324  26.894  1.00  0.00     0.043 C 
ATOM     76  C   UNL A   1      33.633  23.316  24.383  1.00  0.00     0.097 C 
ATOM     77  C   UNL A   1      34.630  21.840  26.960  1.00  0.00    -0.030 C 
ATOM     78  C   UNL A   1      34.278  21.874  24.505  1.00  0.00     0.041 C 
ATOM     79  C   UNL A   1      34.497  21.172  25.820  1.00  0.00    -0.030 C 
BRANCH  76  80
ATOM     80  C   UNL A   1      32.431  23.791  23.102  1.00  0.00     0.227 C 
ATOM     81  O   UNL A   1      32.238  22.938  22.217  1.00  0.00    -0.275 OA
ATOM     82  N   UNL A   1      31.571  24.963  23.041  1.00  0.00    -0.331 N 
ATOM     83  C   UNL A   1      30.085  24.838  23.124  1.00  0.00     0.181 C 
ATOM     84  C   UNL A   1      31.805  26.176  22.209  1.00  0.00     0.181 C 
ATOM     85  C   UNL A   1      29.399  26.103  23.742  1.00  0.00     0.284 C 
ATOM     86  C   UNL A   1      31.174  27.519  22.799  1.00  0.00     0.284 C 
ATOM     87  N   UNL A   1      29.830  27.439  23.374  1.00  0.00    -0.328 N 
ATOM     88  H   UNL A   1      30.104  27.971  24.200  1.00  0.00     0.348 HD
BRANCH  87  89
ATOM     89  C   UNL A   1      28.734  28.366  23.035  1.00  0.00     0.299 C 
BRANCH  89  90
ATOM     90  C   UNL A   1      29.316  29.735  22.754  1.00  0.00     0.010 A 
ATOM     91  C   UNL A   1      29.394  30.660  23.823  1.00  0.00     0.013 A 
ATOM     92  C   UNL A   1      29.225  30.163  21.427  1.00  0.00     0.060 A 
ATOM     93  C   UNL A   1      29.037  31.986  23.602  1.00  0.00     0.051 A 
ATOM     94  C   UNL A   1      28.793  31.449  21.262  1.00  0.00     0.166 A 
ATOM     95  C   UNL A   1      28.658  32.321  22.321  1.00  0.00     0.165 A 
ATOM     96  O   UNL A   1      28.225  31.919  20.117  1.00  0.00    -0.454 OA
ATOM     97  O   UNL A   1      27.986  33.449  21.962  1.00  0.00    -0.454 OA
ATOM     98  C   UNL A   1      27.556  33.083  20.635  1.00  0.00     0.468 C 
ENDBRANCH  89  90
ENDBRANCH  87  89
ENDBRANCH  76  80
ENDBRANCH  72  74
ENDBRANCH  71  72
ENDBRANCH  70  71
ENDBRANCH   1  70
TORSDOF 17
ENDMDL
MODEL 2
REMARK VINA RESULT:     -13.1      2.431      5.534
REMARK SMILES O=C(OCCOC(=O)[C@@H]1CC=CC[C@H]1C(=O)N1CC[NH+](Cc2ccc3c(c2)OCO3)CC1)c1ccc(-c2c3nc(c(-c4cccc(S(=O)(=O)[O-])c4F)c4ccc([nH]4)c(-c4cccc(S(=O)(=O)[O-])c4F)c4nc(c(-c5cccc(S(=O)(=O)[O-])c5F)c5ccc2[nH]5)C=C4)C=C3)cc1
REMARK SMILES IDX 4 1 3 2 2 3 1 4 33 5 34 6 95 7 35 8 94 9 36 10 37 11 38 12
REMARK SMILES IDX 88 13 39 14 93 15 87 16 89 17 40 18 92 19 86 20 85 21 41 23
REMARK SMILES IDX 73 24 53 25 72 26 54 27 57 28 71 29 90 30 55 31 56 32 70 34
REMARK SMILES IDX 91 35 58 36 42 37 43 38 51 39 44 40 46 41 52 42 45 43 47 44
REMARK SMILES IDX 48 45 49 46 50 47 74 48 75 49 83 50 76 51 78 52 84 53 77 54
REMARK SMILES IDX 79 55 80 56 81 57 82 58 59 59 60 60 68 61 61 62 63 63 69 64
REMARK SMILES IDX 62 65 64 66 65 67 66 68 67 69 5 70 6 71 7 72 8 73 9 74 10 75
REMARK SMILES IDX 14 76 11 77 13 78 12 79 15 80 16 81 17 82 18 83 32 84 19 85
REMARK SMILES IDX 31 86 20 87 21 89 22 90 23 91 27 92 24 93 26 94 25 95 28 96
REMARK SMILES IDX 30 97 29 98
REMARK H PARENT 89 22 57 33 20 88
REMARK Flexibility Score: inf
ROOT
ATOM      1  C   UNL A   1      32.140  29.592  26.945  1.00  0.00     0.275 C 
ENDROOT
BRANCH   1   2
ATOM      2  O   UNL A   1      33.367  29.909  27.696  1.00  0.00    -0.458 OA
BRANCH   2   3
ATOM      3  C   UNL A   1      34.022  31.131  27.720  1.00  0.00     0.338 C 
ATOM      4  O   UNL A   1      33.426  32.209  27.640  1.00  0.00    -0.246 OA
BRANCH   3   5
ATOM      5  C   UNL A   1      35.545  30.963  28.031  1.00  0.00     0.060 A 
ATOM      6  C   UNL A   1      35.849  29.758  28.566  1.00  0.00     0.016 A 
ATOM      7  C   UNL A   1      36.680  31.783  28.058  1.00  0.00     0.016 A 
ATOM      8  C   UNL A   1      37.101  29.348  29.075  1.00  0.00     0.010 A 
ATOM      9  C   UNL A   1      38.010  31.340  28.658  1.00  0.00     0.010 A 
ATOM     10  C   UNL A   1      38.243  30.066  29.229  1.00  0.00    -0.014 A 
BRANCH  10  11
ATOM     11  C   UNL A   1      39.380  29.313  30.058  1.00  0.00     0.031 A 
ATOM     12  C   UNL A   1      40.091  28.037  29.536  1.00  0.00     0.074 A 
ATOM     13  C   UNL A   1      40.320  29.865  30.903  1.00  0.00     0.049 A 
ATOM     14  N   UNL A   1      41.302  27.624  29.860  1.00  0.00    -0.248 NA
ATOM     15  C   UNL A   1      39.527  27.287  28.416  1.00  0.00     0.031 C 
ATOM     16  C   UNL A   1      40.814  31.224  31.089  1.00  0.00     0.029 A 
ATOM     17  N   UNL A   1      41.003  29.253  31.937  1.00  0.00    -0.354 N 
ATOM     18  C   UNL A   1      41.706  26.720  28.901  1.00  0.00     0.074 A 
ATOM     19  C   UNL A   1      40.587  26.594  27.990  1.00  0.00     0.031 C 
ATOM     20  C   UNL A   1      41.229  31.437  32.344  1.00  0.00     0.029 A 
ATOM     21  C   UNL A   1      41.311  30.136  32.950  1.00  0.00     0.049 A 
ATOM     22  H   UNL A   1      41.242  28.299  31.948  1.00  0.00     0.167 HD
ATOM     23  C   UNL A   1      42.880  26.038  28.821  1.00  0.00     0.034 A 
ATOM     24  C   UNL A   1      41.647  29.918  34.228  1.00  0.00     0.034 A 
ATOM     25  C   UNL A   1      43.638  25.692  30.001  1.00  0.00     0.049 A 
ATOM     26  C   UNL A   1      42.287  28.612  34.485  1.00  0.00     0.074 A 
ATOM     27  C   UNL A   1      44.440  24.578  30.190  1.00  0.00     0.029 A 
ATOM     28  N   UNL A   1      43.518  26.308  31.240  1.00  0.00    -0.354 N 
ATOM     29  N   UNL A   1      42.654  27.755  33.568  1.00  0.00    -0.248 NA
ATOM     30  C   UNL A   1      42.687  28.263  35.845  1.00  0.00     0.031 C 
ATOM     31  C   UNL A   1      44.606  24.399  31.569  1.00  0.00     0.029 A 
ATOM     32  C   UNL A   1      44.063  25.493  32.223  1.00  0.00     0.049 A 
ATOM     33  H   UNL A   1      43.109  27.189  31.397  1.00  0.00     0.167 HD
ATOM     34  C   UNL A   1      43.397  26.799  34.216  1.00  0.00     0.074 A 
ATOM     35  C   UNL A   1      43.388  27.153  35.624  1.00  0.00     0.031 C 
ATOM     36  C   UNL A   1      44.056  25.772  33.641  1.00  0.00     0.034 A 
BRANCH  23  37
ATOM     37  C   UNL A   1      43.159  25.295  27.544  1.00  0.00     0.023 A 
ATOM     38  C   UNL A   1      42.256  24.347  27.020  1.00  0.00     0.012 A 
ATOM     39  C   UNL A   1      44.374  25.531  26.879  1.00  0.00     0.148 A 
ATOM     40  C   UNL A   1      42.599  23.599  25.887  1.00  0.00     0.002 A 
ATOM     41  C   UNL A   1      44.716  24.776  25.770  1.00  0.00     0.091 A 
ATOM     42  F   UNL A   1      45.194  26.459  27.388  1.00  0.00    -0.205 F 
ATOM     43  C   UNL A   1      43.836  23.801  25.273  1.00  0.00     0.022 A 
BRANCH  41  44
ATOM     44  S   UNL A   1      46.316  24.937  24.982  1.00  0.00     0.127 S 
ATOM     45  O   UNL A   1      46.272  26.327  24.529  1.00  0.00    -0.237 OA
ATOM     46  O   UNL A   1      47.233  24.679  26.091  1.00  0.00    -0.237 OA
ATOM     47  O   UNL A   1      46.343  23.945  23.917  1.00  0.00    -0.744 OA
ENDBRANCH  41  44
ENDBRANCH  23  37
BRANCH  24  48
ATOM     48  C   UNL A   1      41.305  30.926  35.256  1.00  0.00     0.023 A 
ATOM     49  C   UNL A   1      42.251  31.789  35.822  1.00  0.00     0.012 A 
ATOM     50  C   UNL A   1      39.954  31.008  35.672  1.00  0.00     0.148 A 
ATOM     51  C   UNL A   1      41.860  32.709  36.802  1.00  0.00     0.002 A 
ATOM     52  C   UNL A   1      39.568  31.937  36.628  1.00  0.00     0.091 A 
ATOM     53  F   UNL A   1      39.072  30.154  35.135  1.00  0.00    -0.205 F 
ATOM     54  C   UNL A   1      40.523  32.786  37.202  1.00  0.00     0.022 A 
BRANCH  52  55
ATOM     55  S   UNL A   1      37.860  32.122  37.155  1.00  0.00     0.127 S 
ATOM     56  O   UNL A   1      37.560  30.785  37.662  1.00  0.00    -0.237 OA
ATOM     57  O   UNL A   1      37.969  33.159  38.180  1.00  0.00    -0.237 OA
ATOM     58  O   UNL A   1      37.119  32.525  35.967  1.00  0.00    -0.744 OA
ENDBRANCH  52  55
ENDBRANCH  24  48
BRANCH  36  59
ATOM     59  C   UNL A   1      44.849  24.868  34.529  1.00  0.00     0.023 A 
ATOM     60  C   UNL A   1      44.245  23.739  35.111  1.00  0.00     0.012 A 
ATOM     61  C   UNL A   1      46.234  25.073  34.660  1.00  0.00     0.148 A 
ATOM     62  C   UNL A   1      45.018  22.818  35.813  1.00  0.00     0.002 A 
ATOM     63  C   UNL A   1      47.005  24.121  35.308  1.00  0.00     0.091 A 
ATOM     64  F   UNL A   1      46.771  26.182  34.129  1.00  0.00    -0.205 F 
ATOM     65  C   UNL A   1      46.399  22.998  35.892  1.00  0.00     0.022 A 
BRANCH  63  66
ATOM     66  S   UNL A   1      48.796  24.212  35.338  1.00  0.00     0.127 S 
ATOM     67  O   UNL A   1      49.142  22.987  36.056  1.00  0.00    -0.237 OA
ATOM     68  O   UNL A   1      49.128  24.201  33.913  1.00  0.00    -0.237 OA
ATOM     69  O   UNL A   1      49.127  25.453  36.026  1.00  0.00    -0.744 OA
ENDBRANCH  63  66
ENDBRANCH  36  59
ENDBRANCH  10  11
ENDBRANCH   3   5
ENDBRANCH   2   3
ENDBRANCH   1   2
BRANCH   1  70
ATOM     70  C   UNL A   1      32.327  29.629  25.382  1.00  0.00     0.274 C 
BRANCH  70  71
ATOM     71  O   UNL A   1      31.337  28.858  24.713  1.00  0.00    -0.462 OA
BRANCH  71  72
ATOM     72  C   UNL A   1      31.550  28.775  23.378  1.00  0.00     0.310 C 
ATOM     73  O   UNL A   1      32.580  28.351  22.851  1.00  0.00    -0.252 OA
BRANCH  72  74
ATOM     74  C   UNL A   1      30.251  28.987  22.691  1.00  0.00     0.115 C 
ATOM     75  C   UNL A   1      30.136  30.458  22.212  1.00  0.00     0.043 C 
ATOM     76  C   UNL A   1      29.056  28.312  23.428  1.00  0.00     0.097 C 
ATOM     77  C   UNL A   1      28.926  30.678  21.378  1.00  0.00    -0.030 C 
ATOM     78  C   UNL A   1      27.779  29.078  22.886  1.00  0.00     0.041 C 
ATOM     79  C   UNL A   1      27.816  30.036  21.724  1.00  0.00    -0.030 C 
BRANCH  76  80
ATOM     80  C   UNL A   1      29.054  26.571  23.955  1.00  0.00     0.227 C 
ATOM     81  O   UNL A   1      28.013  25.941  23.695  1.00  0.00    -0.275 OA
ATOM     82  N   UNL A   1      30.140  25.781  24.514  1.00  0.00    -0.331 N 
ATOM     83  C   UNL A   1      30.720  24.624  23.768  1.00  0.00     0.181 C 
ATOM     84  C   UNL A   1      30.320  25.435  25.952  1.00  0.00     0.181 C 
ATOM     85  C   UNL A   1      32.224  24.364  24.116  1.00  0.00     0.284 C 
ATOM     86  C   UNL A   1      31.836  25.199  26.395  1.00  0.00     0.284 C 
ATOM     87  N   UNL A   1      32.696  24.441  25.486  1.00  0.00    -0.328 N 
ATOM     88  H   UNL A   1      33.455  25.116  25.569  1.00  0.00     0.348 HD
BRANCH  87  89
ATOM     89  C   UNL A   1      33.543  23.309  25.908  1.00  0.00     0.299 C 
BRANCH  89  90
ATOM     90  C   UNL A   1      34.824  23.325  25.101  1.00  0.00     0.010 A 
ATOM     91  C   UNL A   1      35.136  22.186  24.321  1.00  0.00     0.013 A 
ATOM     92  C   UNL A   1      35.824  24.173  25.583  1.00  0.00     0.060 A 
ATOM     93  C   UNL A   1      36.440  21.704  24.313  1.00  0.00     0.051 A 
ATOM     94  C   UNL A   1      37.076  23.624  25.630  1.00  0.00     0.166 A 
ATOM     95  C   UNL A   1      37.366  22.406  25.053  1.00  0.00     0.165 A 
ATOM     96  O   UNL A   1      38.074  24.076  26.437  1.00  0.00    -0.454 OA
ATOM     97  O   UNL A   1      38.590  21.948  25.434  1.00  0.00    -0.454 OA
ATOM     98  C   UNL A   1      38.923  22.914  26.450  1.00  0.00     0.468 C 
ENDBRANCH  89  90
ENDBRANCH  87  89
ENDBRANCH  76  80
ENDBRANCH  72  74
ENDBRANCH  71  72
ENDBRANCH  70  71
ENDBRANCH   1  70
TORSDOF 17
ENDMDL
MODEL 3
REMARK VINA RESULT:     -13.1      2.274      5.518
REMARK SMILES O=C(OCCOC(=O)[C@@H]1CC=CC[C@H]1C(=O)N1CC[NH+](Cc2ccc3c(c2)OCO3)CC1)c1ccc(-c2c3nc(c(-c4cccc(S(=O)(=O)[O-])c4F)c4ccc([nH]4)c(-c4cccc(S(=O)(=O)[O-])c4F)c4nc(c(-c5cccc(S(=O)(=O)[O-])c5F)c5ccc2[nH]5)C=C4)C=C3)cc1
REMARK SMILES IDX 4 1 3 2 2 3 1 4 33 5 34 6 95 7 35 8 94 9 36 10 37 11 38 12
REMARK SMILES IDX 88 13 39 14 93 15 87 16 89 17 40 18 92 19 86 20 85 21 41 23
REMARK SMILES IDX 73 24 53 25 72 26 54 27 57 28 71 29 90 30 55 31 56 32 70 34
REMARK SMILES IDX 91 35 58 36 42 37 43 38 51 39 44 40 46 41 52 42 45 43 47 44
REMARK SMILES IDX 48 45 49 46 50 47 74 48 75 49 83 50 76 51 78 52 84 53 77 54
REMARK SMILES IDX 79 55 80 56 81 57 82 58 59 59 60 60 68 61 61 62 63 63 69 64
REMARK SMILES IDX 62 65 64 66 65 67 66 68 67 69 5 70 6 71 7 72 8 73 9 74 10 75
REMARK SMILES IDX 14 76 11 77 13 78 12 79 15 80 16 81 17 82 18 83 32 84 19 85
REMARK SMILES IDX 31 86 20 87 21 89 22 90 23 91 27 92 24 93 26 94 25 95 28 96
REMARK SMILES IDX 30 97 29 98
REMARK H PARENT 89 22 57 33 20 88
REMARK Flexibility Score: inf
ROOT
ATOM      1  C   UNL A   1      33.261  29.955  26.396  1.00  0.00     0.275 C 
ENDROOT
BRANCH   1   2
ATOM      2  O   UNL A   1      33.243  31.209  27.168  1.00  0.00    -0.458 OA
BRANCH   2   3
ATOM      3  C   UNL A   1      34.206  31.631  28.073  1.00  0.00     0.338 C 
ATOM      4  O   UNL A   1      34.025  32.576  28.848  1.00  0.00    -0.246 OA
BRANCH   3   5
ATOM      5  C   UNL A   1      35.437  30.668  28.097  1.00  0.00     0.060 A 
ATOM      6  C   UNL A   1      35.830  30.340  29.350  1.00  0.00     0.016 A 
ATOM      7  C   UNL A   1      36.361  30.166  27.173  1.00  0.00     0.016 A 
ATOM      8  C   UNL A   1      36.979  29.602  29.712  1.00  0.00     0.010 A 
ATOM      9  C   UNL A   1      37.623  29.416  27.586  1.00  0.00     0.010 A 
ATOM     10  C   UNL A   1      37.983  29.135  28.926  1.00  0.00    -0.014 A 
BRANCH  10  11
ATOM     11  C   UNL A   1      39.226  28.548  29.737  1.00  0.00     0.031 A 
ATOM     12  C   UNL A   1      39.978  27.263  29.302  1.00  0.00     0.074 A 
ATOM     13  C   UNL A   1      40.189  29.247  30.435  1.00  0.00     0.049 A 
ATOM     14  N   UNL A   1      41.234  26.959  29.570  1.00  0.00    -0.248 NA
ATOM     15  C   UNL A   1      39.381  26.357  28.322  1.00  0.00     0.031 C 
ATOM     16  C   UNL A   1      40.605  30.643  30.427  1.00  0.00     0.029 A 
ATOM     17  N   UNL A   1      40.987  28.798  31.470  1.00  0.00    -0.354 N 
ATOM     18  C   UNL A   1      41.623  25.974  28.686  1.00  0.00     0.074 A 
ATOM     19  C   UNL A   1      40.449  25.681  27.891  1.00  0.00     0.031 C 
ATOM     20  C   UNL A   1      41.099  31.023  31.613  1.00  0.00     0.029 A 
ATOM     21  C   UNL A   1      41.311  29.808  32.351  1.00  0.00     0.049 A 
ATOM     22  H   UNL A   1      41.287  27.866  31.568  1.00  0.00     0.167 HD
ATOM     23  C   UNL A   1      42.830  25.355  28.586  1.00  0.00     0.034 A 
ATOM     24  C   UNL A   1      41.756  29.758  33.613  1.00  0.00     0.034 A 
ATOM     25  C   UNL A   1      43.696  25.192  29.731  1.00  0.00     0.049 A 
ATOM     26  C   UNL A   1      42.499  28.529  33.959  1.00  0.00     0.074 A 
ATOM     27  C   UNL A   1      44.580  24.153  29.976  1.00  0.00     0.029 A 
ATOM     28  N   UNL A   1      43.629  25.938  30.900  1.00  0.00    -0.354 N 
ATOM     29  N   UNL A   1      42.850  27.594  33.116  1.00  0.00    -0.248 NA
ATOM     30  C   UNL A   1      43.022  28.363  35.312  1.00  0.00     0.031 C 
ATOM     31  C   UNL A   1      44.862  24.145  31.348  1.00  0.00     0.029 A 
ATOM     32  C   UNL A   1      44.299  25.275  31.919  1.00  0.00     0.049 A 
ATOM     33  H   UNL A   1      43.176  26.808  30.991  1.00  0.00     0.167 HD
ATOM     34  C   UNL A   1      43.701  26.763  33.803  1.00  0.00     0.074 A 
ATOM     35  C   UNL A   1      43.775  27.276  35.158  1.00  0.00     0.031 C 
ATOM     36  C   UNL A   1      44.381  25.715  33.293  1.00  0.00     0.034 A 
BRANCH  23  37
ATOM     37  C   UNL A   1      43.060  24.486  27.381  1.00  0.00     0.023 A 
ATOM     38  C   UNL A   1      43.665  24.982  26.208  1.00  0.00     0.012 A 
ATOM     39  C   UNL A   1      42.624  23.151  27.420  1.00  0.00     0.148 A 
ATOM     40  C   UNL A   1      43.766  24.173  25.070  1.00  0.00     0.002 A 
ATOM     41  C   UNL A   1      42.710  22.360  26.287  1.00  0.00     0.091 A 
ATOM     42  F   UNL A   1      42.081  22.705  28.560  1.00  0.00    -0.205 F 
ATOM     43  C   UNL A   1      43.272  22.868  25.105  1.00  0.00     0.022 A 
BRANCH  41  44
ATOM     44  S   UNL A   1      42.029  20.704  26.245  1.00  0.00     0.127 S 
ATOM     45  O   UNL A   1      42.788  20.111  25.145  1.00  0.00    -0.237 OA
ATOM     46  O   UNL A   1      42.370  20.197  27.573  1.00  0.00    -0.237 OA
ATOM     47  O   UNL A   1      40.603  20.860  25.994  1.00  0.00    -0.744 OA
ENDBRANCH  41  44
ENDBRANCH  23  37
BRANCH  24  48
ATOM     48  C   UNL A   1      41.427  30.858  34.547  1.00  0.00     0.023 A 
ATOM     49  C   UNL A   1      42.357  31.831  34.937  1.00  0.00     0.012 A 
ATOM     50  C   UNL A   1      40.108  30.914  35.058  1.00  0.00     0.148 A 
ATOM     51  C   UNL A   1      41.980  32.834  35.838  1.00  0.00     0.002 A 
ATOM     52  C   UNL A   1      39.736  31.924  35.933  1.00  0.00     0.091 A 
ATOM     53  F   UNL A   1      39.244  29.957  34.690  1.00  0.00    -0.205 F 
ATOM     54  C   UNL A   1      40.675  32.884  36.332  1.00  0.00     0.022 A 
BRANCH  52  55
ATOM     55  S   UNL A   1      38.062  32.076  36.571  1.00  0.00     0.127 S 
ATOM     56  O   UNL A   1      38.164  33.284  37.386  1.00  0.00    -0.237 OA
ATOM     57  O   UNL A   1      37.282  32.225  35.344  1.00  0.00    -0.237 OA
ATOM     58  O   UNL A   1      37.803  30.844  37.304  1.00  0.00    -0.744 OA
ENDBRANCH  52  55
ENDBRANCH  24  48
BRANCH  36  59
ATOM     59  C   UNL A   1      45.295  24.967  34.208  1.00  0.00     0.023 A 
ATOM     60  C   UNL A   1      44.807  23.895  34.976  1.00  0.00     0.012 A 
ATOM     61  C   UNL A   1      46.673  25.246  34.184  1.00  0.00     0.148 A 
ATOM     62  C   UNL A   1      45.687  23.105  35.710  1.00  0.00     0.002 A 
ATOM     63  C   UNL A   1      47.549  24.419  34.868  1.00  0.00     0.091 A 
ATOM     64  F   UNL A   1      47.100  26.301  33.474  1.00  0.00    -0.205 F 
ATOM     65  C   UNL A   1      47.058  23.353  35.639  1.00  0.00     0.022 A 
BRANCH  63  66
ATOM     66  S   UNL A   1      49.328  24.591  34.721  1.00  0.00     0.127 S 
ATOM     67  O   UNL A   1      49.526  24.396  33.286  1.00  0.00    -0.237 OA
ATOM     68  O   UNL A   1      49.543  25.960  35.189  1.00  0.00    -0.237 OA
ATOM     69  O   UNL A   1      49.906  23.563  35.576  1.00  0.00    -0.744 OA
ENDBRANCH  63  66
ENDBRANCH  36  59
ENDBRANCH  10  11
ENDBRANCH   3   5
ENDBRANCH   2   3
ENDBRANCH   1   2
BRANCH   1  70
ATOM     70  C   UNL A   1      31.830  29.357  26.127  1.00  0.00     0.274 C 
BRANCH  70  71
ATOM     71  O   UNL A   1      31.214  29.952  24.992  1.00  0.00    -0.462 OA
BRANCH  71  72
ATOM     72  C   UNL A   1      31.509  29.307  23.837  1.00  0.00     0.310 C 
ATOM     73  O   UNL A   1      32.541  28.669  23.627  1.00  0.00    -0.252 OA
BRANCH  72  74
ATOM     74  C   UNL A   1      30.273  29.250  23.015  1.00  0.00     0.115 C 
ATOM     75  C   UNL A   1      29.864  30.679  22.570  1.00  0.00     0.043 C 
ATOM     76  C   UNL A   1      29.202  28.278  23.593  1.00  0.00     0.097 C 
ATOM     77  C   UNL A   1      28.728  30.658  21.612  1.00  0.00    -0.030 C 
ATOM     78  C   UNL A   1      27.843  28.756  22.935  1.00  0.00     0.041 C 
ATOM     79  C   UNL A   1      27.772  29.758  21.812  1.00  0.00    -0.030 C 
BRANCH  76  80
ATOM     80  C   UNL A   1      29.557  26.557  24.066  1.00  0.00     0.227 C 
ATOM     81  O   UNL A   1      28.580  25.912  24.483  1.00  0.00    -0.275 OA
ATOM     82  N   UNL A   1      30.786  25.796  23.900  1.00  0.00    -0.331 N 
ATOM     83  C   UNL A   1      30.848  24.616  22.986  1.00  0.00     0.181 C 
ATOM     84  C   UNL A   1      31.785  25.504  24.966  1.00  0.00     0.181 C 
ATOM     85  C   UNL A   1      32.276  24.379  22.390  1.00  0.00     0.284 C 
ATOM     86  C   UNL A   1      33.278  25.296  24.440  1.00  0.00     0.284 C 
ATOM     87  N   UNL A   1      33.461  24.510  23.219  1.00  0.00    -0.328 N 
ATOM     88  H   UNL A   1      34.105  25.193  22.822  1.00  0.00     0.348 HD
BRANCH  87  89
ATOM     89  C   UNL A   1      34.424  23.400  23.091  1.00  0.00     0.299 C 
BRANCH  89  90
ATOM     90  C   UNL A   1      34.133  22.370  24.162  1.00  0.00     0.010 A 
ATOM     91  C   UNL A   1      35.219  21.870  24.920  1.00  0.00     0.013 A 
ATOM     92  C   UNL A   1      32.973  21.616  23.967  1.00  0.00     0.060 A 
ATOM     93  C   UNL A   1      35.291  20.507  25.188  1.00  0.00     0.051 A 
ATOM     94  C   UNL A   1      33.117  20.271  24.165  1.00  0.00     0.166 A 
ATOM     95  C   UNL A   1      34.258  19.727  24.716  1.00  0.00     0.165 A 
ATOM     96  O   UNL A   1      32.291  19.331  23.629  1.00  0.00    -0.454 OA
ATOM     97  O   UNL A   1      34.281  18.372  24.589  1.00  0.00    -0.454 OA
ATOM     98  C   UNL A   1      33.138  18.172  23.733  1.00  0.00     0.468 C 
ENDBRANCH  89  90
ENDBRANCH  87  89
ENDBRANCH  76  80
ENDBRANCH  72  74
ENDBRANCH  71  72
ENDBRANCH  70  71
ENDBRANCH   1  70
TORSDOF 17
ENDMDL
