MODEL 1
REMARK VINA RESULT:     -12.5      0.000      0.000
REMARK SMILES [NH3+][C@@]1(C(=O)OCCOC(=O)c2ccc(-c3c4nc(c(-c5cccc(S(=O)(=O)[O-])c5F)c5ccc([nH]5)c(-c5cccc(S(=O)(=O)[O-])c5F)c5nc(c(-c6cccc(S(=O)(=O)[O-])c6F)c6ccc3[nH]6)C=C5)C=C4)cc2)CC[N@H+](Cc2ccc(OCC(=O)N3CCCCC3)cc2)C1
REMARK SMILES IDX 6 1 5 2 3 3 4 4 2 5 74 6 94 7 75 8 76 9 1 11 77 15 78 16
REMARK SMILES IDX 79 17 93 18 80 19 92 20 81 21 82 22 83 23 84 24 85 25 86 26
REMARK SMILES IDX 87 27 91 28 88 29 90 30 89 31 7 32 8 33 9 34 10 35 11 36
REMARK SMILES IDX 12 37 73 38 13 39 72 40 14 41 15 42 16 43 66 44 17 45 71 46
REMARK SMILES IDX 65 47 67 48 18 49 70 50 64 51 63 52 19 54 51 55 31 56 50 57
REMARK SMILES IDX 32 58 35 59 49 60 68 61 33 62 34 63 48 65 69 66 36 67 20 68
REMARK SMILES IDX 21 69 29 70 22 71 24 72 30 73 23 74 25 75 26 76 27 77 28 78
REMARK SMILES IDX 52 79 53 80 61 81 54 82 56 83 62 84 55 85 57 86 58 87 59 88
REMARK SMILES IDX 60 89 37 90 38 91 46 92 39 93 41 94 47 95 40 96 42 97 43 98
REMARK SMILES IDX 44 99 45 100
REMARK H PARENT 76 10 1 12 1 13 1 14 67 53 35 64
REMARK Flexibility Score: inf
ROOT
ATOM      1  C   UNL A   1      36.462  22.467  23.768  1.00  0.00     0.274 C 
ENDROOT
BRANCH   1   2
ATOM      2  O   UNL A   1      35.098  22.221  24.113  1.00  0.00    -0.457 OA
BRANCH   2   3
ATOM      3  C   UNL A   1      34.595  22.870  25.189  1.00  0.00     0.374 C 
ATOM      4  O   UNL A   1      34.562  24.088  25.308  1.00  0.00    -0.244 OA
BRANCH   3   5
ATOM      5  C   UNL A   1      34.003  21.850  26.199  1.00  0.00     0.246 C 
ATOM      6  C   UNL A   1      33.355  20.695  25.440  1.00  0.00     0.148 C 
ATOM      7  C   UNL A   1      32.795  22.442  26.967  1.00  0.00     0.344 C 
ATOM      8  C   UNL A   1      32.006  21.278  25.042  1.00  0.00     0.270 C 
ATOM      9  N   UNL A   1      31.607  22.110  26.171  1.00  0.00    -0.325 N 
ATOM     10  H   UNL A   1      30.990  21.543  26.753  1.00  0.00     0.348 HD
BRANCH   5  11
ATOM     11  N   UNL A   1      35.090  21.359  27.078  1.00  0.00    -0.338 N 
ATOM     12  H   UNL A   1      34.861  21.565  28.050  1.00  0.00     0.345 HD
ATOM     13  H   UNL A   1      35.964  21.823  26.829  1.00  0.00     0.345 HD
ATOM     14  H   UNL A   1      35.194  20.351  26.959  1.00  0.00     0.345 HD
ENDBRANCH   5  11
BRANCH   9  15
ATOM     15  C   UNL A   1      30.633  23.180  25.936  1.00  0.00     0.299 C 
BRANCH  15  16
ATOM     16  C   UNL A   1      31.134  24.555  25.515  1.00  0.00     0.006 A 
ATOM     17  C   UNL A   1      31.285  24.875  24.160  1.00  0.00     0.013 A 
ATOM     18  C   UNL A   1      31.500  25.538  26.448  1.00  0.00     0.013 A 
ATOM     19  C   UNL A   1      31.649  26.171  23.765  1.00  0.00     0.047 A 
ATOM     20  C   UNL A   1      31.810  26.852  26.053  1.00  0.00     0.047 A 
ATOM     21  C   UNL A   1      31.804  27.193  24.706  1.00  0.00     0.120 A 
BRANCH  21  22
ATOM     22  O   UNL A   1      31.823  28.454  24.175  1.00  0.00    -0.484 OA
BRANCH  22  23
ATOM     23  C   UNL A   1      30.615  29.180  24.032  1.00  0.00     0.329 C 
BRANCH  23  24
ATOM     24  C   UNL A   1      29.900  29.395  22.669  1.00  0.00     0.260 C 
ATOM     25  O   UNL A   1      30.041  28.533  21.795  1.00  0.00    -0.271 OA
ATOM     26  N   UNL A   1      29.041  30.479  22.494  1.00  0.00    -0.340 N 
ATOM     27  C   UNL A   1      28.085  30.440  21.381  1.00  0.00     0.119 C 
ATOM     28  C   UNL A   1      28.880  31.619  23.395  1.00  0.00     0.119 C 
ATOM     29  C   UNL A   1      28.134  31.712  20.549  1.00  0.00     0.022 C 
ATOM     30  C   UNL A   1      28.783  32.957  22.644  1.00  0.00     0.022 C 
ATOM     31  C   UNL A   1      27.871  32.935  21.422  1.00  0.00     0.004 C 
ENDBRANCH  23  24
ENDBRANCH  22  23
ENDBRANCH  21  22
ENDBRANCH  15  16
ENDBRANCH   9  15
ENDBRANCH   3   5
ENDBRANCH   2   3
ENDBRANCH   1   2
BRANCH   1  32
ATOM     32  C   UNL A   1      37.292  21.316  24.357  1.00  0.00     0.275 C 
BRANCH  32  33
ATOM     33  O   UNL A   1      37.635  21.623  25.715  1.00  0.00    -0.458 OA
BRANCH  33  34
ATOM     34  C   UNL A   1      38.905  21.281  26.027  1.00  0.00     0.338 C 
ATOM     35  O   UNL A   1      39.544  20.321  25.632  1.00  0.00    -0.246 OA
BRANCH  34  36
ATOM     36  C   UNL A   1      39.502  22.462  26.655  1.00  0.00     0.060 A 
ATOM     37  C   UNL A   1      39.018  23.702  26.241  1.00  0.00     0.016 A 
ATOM     38  C   UNL A   1      40.493  22.361  27.626  1.00  0.00     0.016 A 
ATOM     39  C   UNL A   1      39.602  24.866  26.704  1.00  0.00     0.010 A 
ATOM     40  C   UNL A   1      41.056  23.532  28.125  1.00  0.00     0.010 A 
ATOM     41  C   UNL A   1      40.646  24.784  27.627  1.00  0.00    -0.014 A 
BRANCH  41  42
ATOM     42  C   UNL A   1      41.396  26.007  27.973  1.00  0.00     0.031 A 
ATOM     43  C   UNL A   1      40.695  27.082  28.751  1.00  0.00     0.074 A 
ATOM     44  C   UNL A   1      42.688  26.129  27.622  1.00  0.00     0.049 A 
ATOM     45  N   UNL A   1      41.094  28.292  29.031  1.00  0.00    -0.248 NA
ATOM     46  C   UNL A   1      39.356  26.753  29.275  1.00  0.00     0.031 C 
ATOM     47  C   UNL A   1      43.472  25.115  26.916  1.00  0.00     0.029 A 
ATOM     48  N   UNL A   1      43.561  27.171  27.793  1.00  0.00    -0.354 N 
ATOM     49  C   UNL A   1      40.040  28.887  29.712  1.00  0.00     0.074 A 
ATOM     50  C   UNL A   1      38.981  27.907  29.807  1.00  0.00     0.031 C 
ATOM     51  C   UNL A   1      44.706  25.594  26.693  1.00  0.00     0.029 A 
ATOM     52  C   UNL A   1      44.775  26.966  27.183  1.00  0.00     0.049 A 
ATOM     53  H   UNL A   1      43.341  27.984  28.304  1.00  0.00     0.167 HD
ATOM     54  C   UNL A   1      39.973  30.137  30.222  1.00  0.00     0.034 A 
ATOM     55  C   UNL A   1      45.803  27.815  26.995  1.00  0.00     0.034 A 
ATOM     56  C   UNL A   1      41.057  31.077  30.162  1.00  0.00     0.049 A 
ATOM     57  C   UNL A   1      45.688  29.212  27.540  1.00  0.00     0.074 A 
ATOM     58  C   UNL A   1      41.112  32.362  30.667  1.00  0.00     0.029 A 
ATOM     59  N   UNL A   1      42.283  30.826  29.561  1.00  0.00    -0.354 N 
ATOM     60  N   UNL A   1      44.708  29.751  28.225  1.00  0.00    -0.248 NA
ATOM     61  C   UNL A   1      46.821  30.114  27.298  1.00  0.00     0.031 C 
ATOM     62  C   UNL A   1      42.367  32.896  30.355  1.00  0.00     0.029 A 
ATOM     63  C   UNL A   1      43.098  31.937  29.671  1.00  0.00     0.049 A 
ATOM     64  H   UNL A   1      42.534  29.982  29.121  1.00  0.00     0.167 HD
ATOM     65  C   UNL A   1      45.108  31.052  28.504  1.00  0.00     0.074 A 
ATOM     66  C   UNL A   1      46.437  31.205  27.946  1.00  0.00     0.031 C 
ATOM     67  C   UNL A   1      44.432  32.042  29.137  1.00  0.00     0.034 A 
BRANCH  54  68
ATOM     68  C   UNL A   1      38.697  30.550  30.902  1.00  0.00     0.023 A 
ATOM     69  C   UNL A   1      38.534  30.324  32.283  1.00  0.00     0.012 A 
ATOM     70  C   UNL A   1      37.677  31.204  30.182  1.00  0.00     0.148 A 
ATOM     71  C   UNL A   1      37.367  30.725  32.935  1.00  0.00     0.002 A 
ATOM     72  C   UNL A   1      36.535  31.637  30.845  1.00  0.00     0.091 A 
ATOM     73  F   UNL A   1      37.841  31.384  28.864  1.00  0.00    -0.205 F 
ATOM     74  C   UNL A   1      36.375  31.390  32.219  1.00  0.00     0.022 A 
BRANCH  72  75
ATOM     75  S   UNL A   1      35.226  32.557  30.030  1.00  0.00     0.127 S 
ATOM     76  O   UNL A   1      35.943  33.742  29.565  1.00  0.00    -0.237 OA
ATOM     77  O   UNL A   1      34.819  31.635  28.969  1.00  0.00    -0.237 OA
ATOM     78  O   UNL A   1      34.213  32.802  31.046  1.00  0.00    -0.744 OA
ENDBRANCH  72  75
ENDBRANCH  54  68
BRANCH  55  79
ATOM     79  C   UNL A   1      47.007  27.368  26.241  1.00  0.00     0.023 A 
ATOM     80  C   UNL A   1      47.147  27.703  24.882  1.00  0.00     0.012 A 
ATOM     81  C   UNL A   1      48.035  26.639  26.876  1.00  0.00     0.148 A 
ATOM     82  C   UNL A   1      48.275  27.301  24.163  1.00  0.00     0.002 A 
ATOM     83  C   UNL A   1      49.182  26.296  26.171  1.00  0.00     0.091 A 
ATOM     84  F   UNL A   1      47.875  26.302  28.164  1.00  0.00    -0.205 F 
ATOM     85  C   UNL A   1      49.297  26.611  24.810  1.00  0.00     0.022 A 
BRANCH  83  86
ATOM     86  S   UNL A   1      50.597  25.536  26.976  1.00  0.00     0.127 S 
ATOM     87  O   UNL A   1      51.511  25.337  25.854  1.00  0.00    -0.237 OA
ATOM     88  O   UNL A   1      51.007  26.571  27.926  1.00  0.00    -0.237 OA
ATOM     89  O   UNL A   1      50.082  24.326  27.602  1.00  0.00    -0.744 OA
ENDBRANCH  83  86
ENDBRANCH  55  79
BRANCH  67  90
ATOM     90  C   UNL A   1      45.119  33.374  29.259  1.00  0.00     0.023 A 
ATOM     91  C   UNL A   1      45.943  33.626  30.373  1.00  0.00     0.012 A 
ATOM     92  C   UNL A   1      45.011  34.339  28.239  1.00  0.00     0.148 A 
ATOM     93  C   UNL A   1      46.631  34.833  30.486  1.00  0.00     0.002 A 
ATOM     94  C   UNL A   1      45.736  35.520  28.336  1.00  0.00     0.091 A 
ATOM     95  F   UNL A   1      44.210  34.082  27.197  1.00  0.00    -0.205 F 
ATOM     96  C   UNL A   1      46.537  35.774  29.462  1.00  0.00     0.022 A 
BRANCH  94  97
ATOM     97  S   UNL A   1      45.752  36.751  27.028  1.00  0.00     0.127 S 
ATOM     98  O   UNL A   1      46.658  37.758  27.578  1.00  0.00    -0.237 OA
ATOM     99  O   UNL A   1      46.293  35.994  25.898  1.00  0.00    -0.237 OA
ATOM    100  O   UNL A   1      44.370  37.179  26.862  1.00  0.00    -0.744 OA
ENDBRANCH  94  97
ENDBRANCH  67  90
ENDBRANCH  41  42
ENDBRANCH  34  36
ENDBRANCH  33  34
ENDBRANCH  32  33
ENDBRANCH   1  32
TORSDOF 20
ENDMDL
MODEL 2
REMARK VINA RESULT:     -12.2      4.815     10.504
REMARK SMILES [NH3+][C@@]1(C(=O)OCCOC(=O)c2ccc(-c3c4nc(c(-c5cccc(S(=O)(=O)[O-])c5F)c5ccc([nH]5)c(-c5cccc(S(=O)(=O)[O-])c5F)c5nc(c(-c6cccc(S(=O)(=O)[O-])c6F)c6ccc3[nH]6)C=C5)C=C4)cc2)CC[N@H+](Cc2ccc(OCC(=O)N3CCCCC3)cc2)C1
REMARK SMILES IDX 6 1 5 2 3 3 4 4 2 5 74 6 94 7 75 8 76 9 1 11 77 15 78 16
REMARK SMILES IDX 79 17 93 18 80 19 92 20 81 21 82 22 83 23 84 24 85 25 86 26
REMARK SMILES IDX 87 27 91 28 88 29 90 30 89 31 7 32 8 33 9 34 10 35 11 36
REMARK SMILES IDX 12 37 73 38 13 39 72 40 14 41 15 42 16 43 66 44 17 45 71 46
REMARK SMILES IDX 65 47 67 48 18 49 70 50 64 51 63 52 19 54 51 55 31 56 50 57
REMARK SMILES IDX 32 58 35 59 49 60 68 61 33 62 34 63 48 65 69 66 36 67 20 68
REMARK SMILES IDX 21 69 29 70 22 71 24 72 30 73 23 74 25 75 26 76 27 77 28 78
REMARK SMILES IDX 52 79 53 80 61 81 54 82 56 83 62 84 55 85 57 86 58 87 59 88
REMARK SMILES IDX 60 89 37 90 38 91 46 92 39 93 41 94 47 95 40 96 42 97 43 98
REMARK SMILES IDX 44 99 45 100
REMARK H PARENT 76 10 1 12 1 13 1 14 67 53 35 64
REMARK Flexibility Score: inf
ROOT
ATOM      1  C   UNL A   1      31.747  28.589  26.851  1.00  0.00     0.274 C 
ENDROOT
BRANCH   1   2
ATOM      2  O   UNL A   1      31.569  28.014  25.555  1.00  0.00    -0.457 OA
BRANCH   2   3
ATOM      3  C   UNL A   1      32.677  27.634  24.878  1.00  0.00     0.374 C 
ATOM      4  O   UNL A   1      33.433  26.741  25.236  1.00  0.00    -0.244 OA
BRANCH   3   5
ATOM      5  C   UNL A   1      32.798  28.441  23.556  1.00  0.00     0.246 C 
ATOM      6  C   UNL A   1      31.412  28.897  23.107  1.00  0.00     0.148 C 
ATOM      7  C   UNL A   1      33.232  27.538  22.375  1.00  0.00     0.344 C 
ATOM      8  C   UNL A   1      30.852  27.647  22.443  1.00  0.00     0.270 C 
ATOM      9  N   UNL A   1      31.992  27.033  21.773  1.00  0.00    -0.325 N 
ATOM     10  H   UNL A   1      31.967  27.344  20.802  1.00  0.00     0.348 HD
BRANCH   5  11
ATOM     11  N   UNL A   1      33.688  29.602  23.782  1.00  0.00    -0.338 N 
ATOM     12  H   UNL A   1      33.488  30.325  23.091  1.00  0.00     0.345 HD
ATOM     13  H   UNL A   1      34.661  29.307  23.694  1.00  0.00     0.345 HD
ATOM     14  H   UNL A   1      33.530  29.975  24.719  1.00  0.00     0.345 HD
ENDBRANCH   5  11
BRANCH   9  15
ATOM     15  C   UNL A   1      31.927  25.601  21.463  1.00  0.00     0.299 C 
BRANCH  15  16
ATOM     16  C   UNL A   1      32.386  24.598  22.513  1.00  0.00     0.006 A 
ATOM     17  C   UNL A   1      33.628  23.962  22.396  1.00  0.00     0.013 A 
ATOM     18  C   UNL A   1      31.584  24.237  23.607  1.00  0.00     0.013 A 
ATOM     19  C   UNL A   1      34.099  23.114  23.410  1.00  0.00     0.047 A 
ATOM     20  C   UNL A   1      32.078  23.432  24.650  1.00  0.00     0.047 A 
ATOM     21  C   UNL A   1      33.374  22.934  24.591  1.00  0.00     0.120 A 
BRANCH  21  22
ATOM     22  O   UNL A   1      34.086  22.370  25.614  1.00  0.00    -0.484 OA
BRANCH  22  23
ATOM     23  C   UNL A   1      33.713  21.101  26.122  1.00  0.00     0.329 C 
BRANCH  23  24
ATOM     24  C   UNL A   1      32.873  20.069  25.321  1.00  0.00     0.260 C 
ATOM     25  O   UNL A   1      31.645  20.205  25.303  1.00  0.00    -0.271 OA
ATOM     26  N   UNL A   1      33.510  19.088  24.562  1.00  0.00    -0.340 N 
ATOM     27  C   UNL A   1      32.739  18.404  23.517  1.00  0.00     0.119 C 
ATOM     28  C   UNL A   1      34.932  18.750  24.589  1.00  0.00     0.119 C 
ATOM     29  C   UNL A   1      32.865  16.892  23.622  1.00  0.00     0.022 C 
ATOM     30  C   UNL A   1      35.180  17.233  24.562  1.00  0.00     0.022 C 
ATOM     31  C   UNL A   1      34.329  16.468  23.554  1.00  0.00     0.004 C 
ENDBRANCH  23  24
ENDBRANCH  22  23
ENDBRANCH  21  22
ENDBRANCH  15  16
ENDBRANCH   9  15
ENDBRANCH   3   5
ENDBRANCH   2   3
ENDBRANCH   1   2
BRANCH   1  32
ATOM     32  C   UNL A   1      31.743  30.115  26.672  1.00  0.00     0.275 C 
BRANCH  32  33
ATOM     33  O   UNL A   1      33.079  30.569  26.416  1.00  0.00    -0.458 OA
BRANCH  33  34
ATOM     34  C   UNL A   1      33.428  31.633  27.173  1.00  0.00     0.338 C 
ATOM     35  O   UNL A   1      32.711  32.525  27.592  1.00  0.00    -0.246 OA
BRANCH  34  36
ATOM     36  C   UNL A   1      34.763  31.339  27.699  1.00  0.00     0.060 A 
ATOM     37  C   UNL A   1      35.046  30.002  27.974  1.00  0.00     0.016 A 
ATOM     38  C   UNL A   1      35.713  32.335  27.903  1.00  0.00     0.016 A 
ATOM     39  C   UNL A   1      36.243  29.654  28.572  1.00  0.00     0.010 A 
ATOM     40  C   UNL A   1      36.935  31.982  28.467  1.00  0.00     0.010 A 
ATOM     41  C   UNL A   1      37.181  30.649  28.850  1.00  0.00    -0.014 A 
BRANCH  41  42
ATOM     42  C   UNL A   1      38.368  30.311  29.659  1.00  0.00     0.031 A 
ATOM     43  C   UNL A   1      39.383  29.368  29.082  1.00  0.00     0.074 A 
ATOM     44  C   UNL A   1      38.541  30.868  30.870  1.00  0.00     0.049 A 
ATOM     45  N   UNL A   1      40.412  28.811  29.659  1.00  0.00    -0.248 NA
ATOM     46  C   UNL A   1      39.210  28.993  27.667  1.00  0.00     0.031 C 
ATOM     47  C   UNL A   1      37.639  31.840  31.490  1.00  0.00     0.029 A 
ATOM     48  N   UNL A   1      39.524  30.678  31.803  1.00  0.00    -0.354 N 
ATOM     49  C   UNL A   1      40.975  27.979  28.699  1.00  0.00     0.074 A 
ATOM     50  C   UNL A   1      40.176  28.103  27.501  1.00  0.00     0.031 C 
ATOM     51  C   UNL A   1      38.099  32.144  32.714  1.00  0.00     0.029 A 
ATOM     52  C   UNL A   1      39.288  31.342  32.983  1.00  0.00     0.049 A 
ATOM     53  H   UNL A   1      40.322  30.122  31.645  1.00  0.00     0.167 HD
ATOM     54  C   UNL A   1      42.069  27.192  28.812  1.00  0.00     0.034 A 
ATOM     55  C   UNL A   1      39.930  31.265  34.164  1.00  0.00     0.034 A 
ATOM     56  C   UNL A   1      42.878  27.125  29.996  1.00  0.00     0.049 A 
ATOM     57  C   UNL A   1      41.122  30.354  34.272  1.00  0.00     0.074 A 
ATOM     58  C   UNL A   1      44.023  26.383  30.215  1.00  0.00     0.029 A 
ATOM     59  N   UNL A   1      42.625  27.832  31.163  1.00  0.00    -0.354 N 
ATOM     60  N   UNL A   1      41.677  29.607  33.347  1.00  0.00    -0.248 NA
ATOM     61  C   UNL A   1      41.785  30.281  35.581  1.00  0.00     0.031 C 
ATOM     62  C   UNL A   1      44.454  26.629  31.524  1.00  0.00     0.029 A 
ATOM     63  C   UNL A   1      43.585  27.536  32.112  1.00  0.00     0.049 A 
ATOM     64  H   UNL A   1      41.872  28.452  31.295  1.00  0.00     0.167 HD
ATOM     65  C   UNL A   1      42.758  28.983  33.957  1.00  0.00     0.074 A 
ATOM     66  C   UNL A   1      42.800  29.470  35.322  1.00  0.00     0.031 C 
ATOM     67  C   UNL A   1      43.621  28.069  33.450  1.00  0.00     0.034 A 
BRANCH  54  68
ATOM     68  C   UNL A   1      42.461  26.363  27.620  1.00  0.00     0.023 A 
ATOM     69  C   UNL A   1      43.281  26.918  26.619  1.00  0.00     0.012 A 
ATOM     70  C   UNL A   1      42.057  25.017  27.517  1.00  0.00     0.148 A 
ATOM     71  C   UNL A   1      43.677  26.154  25.521  1.00  0.00     0.002 A 
ATOM     72  C   UNL A   1      42.488  24.250  26.441  1.00  0.00     0.091 A 
ATOM     73  F   UNL A   1      41.255  24.516  28.466  1.00  0.00    -0.205 F 
ATOM     74  C   UNL A   1      43.290  24.819  25.438  1.00  0.00     0.022 A 
BRANCH  72  75
ATOM     75  S   UNL A   1      42.097  22.505  26.272  1.00  0.00     0.127 S 
ATOM     76  O   UNL A   1      40.638  22.535  26.194  1.00  0.00    -0.237 OA
ATOM     77  O   UNL A   1      42.768  22.161  25.018  1.00  0.00    -0.237 OA
ATOM     78  O   UNL A   1      42.643  21.854  27.455  1.00  0.00    -0.744 OA
ENDBRANCH  72  75
ENDBRANCH  54  68
BRANCH  55  79
ATOM     79  C   UNL A   1      39.440  32.052  35.329  1.00  0.00     0.023 A 
ATOM     80  C   UNL A   1      38.592  31.449  36.276  1.00  0.00     0.012 A 
ATOM     81  C   UNL A   1      39.841  33.390  35.523  1.00  0.00     0.148 A 
ATOM     82  C   UNL A   1      38.133  32.170  37.379  1.00  0.00     0.002 A 
ATOM     83  C   UNL A   1      39.430  34.082  36.656  1.00  0.00     0.091 A 
ATOM     84  F   UNL A   1      40.627  33.961  34.598  1.00  0.00    -0.205 F 
ATOM     85  C   UNL A   1      38.562  33.480  37.577  1.00  0.00     0.022 A 
BRANCH  83  86
ATOM     86  S   UNL A   1      40.060  35.719  37.047  1.00  0.00     0.127 S 
ATOM     87  O   UNL A   1      39.368  36.016  38.299  1.00  0.00    -0.237 OA
ATOM     88  O   UNL A   1      41.497  35.475  37.181  1.00  0.00    -0.237 OA
ATOM     89  O   UNL A   1      39.704  36.552  35.907  1.00  0.00    -0.744 OA
ENDBRANCH  83  86
ENDBRANCH  55  79
BRANCH  67  90
ATOM     90  C   UNL A   1      44.682  27.539  34.374  1.00  0.00     0.023 A 
ATOM     91  C   UNL A   1      45.867  28.277  34.558  1.00  0.00     0.012 A 
ATOM     92  C   UNL A   1      44.473  26.359  35.113  1.00  0.00     0.148 A 
ATOM     93  C   UNL A   1      46.845  27.833  35.447  1.00  0.00     0.002 A 
ATOM     94  C   UNL A   1      45.431  25.948  36.032  1.00  0.00     0.091 A 
ATOM     95  F   UNL A   1      43.343  25.668  34.910  1.00  0.00    -0.205 F 
ATOM     96  C   UNL A   1      46.622  26.677  36.191  1.00  0.00     0.022 A 
BRANCH  94  97
ATOM     97  S   UNL A   1      45.193  24.526  37.101  1.00  0.00     0.127 S 
ATOM     98  O   UNL A   1      46.523  24.371  37.691  1.00  0.00    -0.237 OA
ATOM     99  O   UNL A   1      44.166  25.003  38.028  1.00  0.00    -0.237 OA
ATOM    100  O   UNL A   1      44.765  23.437  36.233  1.00  0.00    -0.744 OA
ENDBRANCH  94  97
ENDBRANCH  67  90
ENDBRANCH  41  42
ENDBRANCH  34  36
ENDBRANCH  33  34
ENDBRANCH  32  33
ENDBRANCH   1  32
TORSDOF 20
ENDMDL
MODEL 3
REMARK VINA RESULT:     -11.7      5.400     10.609
REMARK SMILES [NH3+][C@@]1(C(=O)OCCOC(=O)c2ccc(-c3c4nc(c(-c5cccc(S(=O)(=O)[O-])c5F)c5ccc([nH]5)c(-c5cccc(S(=O)(=O)[O-])c5F)c5nc(c(-c6cccc(S(=O)(=O)[O-])c6F)c6ccc3[nH]6)C=C5)C=C4)cc2)CC[N@H+](Cc2ccc(OCC(=O)N3CCCCC3)cc2)C1
REMARK SMILES IDX 6 1 5 2 3 3 4 4 2 5 74 6 94 7 75 8 76 9 1 11 77 15 78 16
REMARK SMILES IDX 79 17 93 18 80 19 92 20 81 21 82 22 83 23 84 24 85 25 86 26
REMARK SMILES IDX 87 27 91 28 88 29 90 30 89 31 7 32 8 33 9 34 10 35 11 36
REMARK SMILES IDX 12 37 73 38 13 39 72 40 14 41 15 42 16 43 66 44 17 45 71 46
REMARK SMILES IDX 65 47 67 48 18 49 70 50 64 51 63 52 19 54 51 55 31 56 50 57
REMARK SMILES IDX 32 58 35 59 49 60 68 61 33 62 34 63 48 65 69 66 36 67 20 68
REMARK SMILES IDX 21 69 29 70 22 71 24 72 30 73 23 74 25 75 26 76 27 77 28 78
REMARK SMILES IDX 52 79 53 80 61 81 54 82 56 83 62 84 55 85 57 86 58 87 59 88
REMARK SMILES IDX 60 89 37 90 38 91 46 92 39 93 41 94 47 95 40 96 42 97 43 98
REMARK SMILES IDX 44 99 45 100
REMARK H PARENT 76 10 1 12 1 13 1 14 67 53 35 64
REMARK Flexibility Score: inf
ROOT
ATOM      1  C   UNL A   1      34.096  34.865  29.070  1.00  0.00     0.274 C 
ENDROOT
BRANCH   1   2
ATOM      2  O   UNL A   1      33.293  34.712  30.241  1.00  0.00    -0.457 OA
BRANCH   2   3
ATOM      3  C   UNL A   1      32.957  35.831  30.924  1.00  0.00     0.374 C 
ATOM      4  O   UNL A   1      32.559  36.865  30.403  1.00  0.00    -0.244 OA
BRANCH   3   5
ATOM      5  C   UNL A   1      33.078  35.582  32.452  1.00  0.00     0.246 C 
ATOM      6  C   UNL A   1      34.220  36.422  33.018  1.00  0.00     0.148 C 
ATOM      7  C   UNL A   1      33.560  34.142  32.759  1.00  0.00     0.344 C 
ATOM      8  C   UNL A   1      35.447  35.597  32.657  1.00  0.00     0.270 C 
ATOM      9  N   UNL A   1      35.026  34.209  32.809  1.00  0.00    -0.325 N 
ATOM     10  H   UNL A   1      35.321  33.911  33.739  1.00  0.00     0.348 HD
BRANCH   5  11
ATOM     11  N   UNL A   1      31.793  35.934  33.099  1.00  0.00    -0.338 N 
ATOM     12  H   UNL A   1      31.023  35.512  32.579  1.00  0.00     0.345 HD
ATOM     13  H   UNL A   1      31.682  36.948  33.106  1.00  0.00     0.345 HD
ATOM     14  H   UNL A   1      31.788  35.585  34.057  1.00  0.00     0.345 HD
ENDBRANCH   5  11
BRANCH   9  15
ATOM     15  C   UNL A   1      35.774  33.173  32.088  1.00  0.00     0.299 C 
BRANCH  15  16
ATOM     16  C   UNL A   1      37.151  33.510  31.533  1.00  0.00     0.006 A 
ATOM     17  C   UNL A   1      38.173  33.955  32.381  1.00  0.00     0.013 A 
ATOM     18  C   UNL A   1      37.448  33.430  30.163  1.00  0.00     0.013 A 
ATOM     19  C   UNL A   1      39.470  34.169  31.891  1.00  0.00     0.047 A 
ATOM     20  C   UNL A   1      38.759  33.590  29.681  1.00  0.00     0.047 A 
ATOM     21  C   UNL A   1      39.793  33.880  30.562  1.00  0.00     0.120 A 
BRANCH  21  22
ATOM     22  O   UNL A   1      41.136  33.810  30.308  1.00  0.00    -0.484 OA
BRANCH  22  23
ATOM     23  C   UNL A   1      41.733  32.564  29.991  1.00  0.00     0.329 C 
BRANCH  23  24
ATOM     24  C   UNL A   1      43.268  32.326  29.985  1.00  0.00     0.260 C 
ATOM     25  O   UNL A   1      44.002  33.247  30.357  1.00  0.00    -0.271 OA
ATOM     26  N   UNL A   1      43.779  31.068  29.667  1.00  0.00    -0.340 N 
ATOM     27  C   UNL A   1      45.159  30.757  30.056  1.00  0.00     0.119 C 
ATOM     28  C   UNL A   1      43.035  29.942  29.104  1.00  0.00     0.119 C 
ATOM     29  C   UNL A   1      45.960  30.196  28.890  1.00  0.00     0.022 C 
ATOM     30  C   UNL A   1      43.815  29.213  27.998  1.00  0.00     0.022 C 
ATOM     31  C   UNL A   1      45.283  28.953  28.322  1.00  0.00     0.004 C 
ENDBRANCH  23  24
ENDBRANCH  22  23
ENDBRANCH  21  22
ENDBRANCH  15  16
ENDBRANCH   9  15
ENDBRANCH   3   5
ENDBRANCH   2   3
ENDBRANCH   1   2
BRANCH   1  32
ATOM     32  C   UNL A   1      33.896  33.602  28.217  1.00  0.00     0.275 C 
BRANCH  32  33
ATOM     33  O   UNL A   1      34.476  32.476  28.890  1.00  0.00    -0.458 OA
BRANCH  33  34
ATOM     34  C   UNL A   1      34.408  31.338  28.164  1.00  0.00     0.338 C 
ATOM     35  O   UNL A   1      33.663  31.082  27.234  1.00  0.00    -0.246 OA
BRANCH  34  36
ATOM     36  C   UNL A   1      35.631  30.590  28.465  1.00  0.00     0.060 A 
ATOM     37  C   UNL A   1      35.638  29.852  29.649  1.00  0.00     0.016 A 
ATOM     38  C   UNL A   1      36.730  30.595  27.611  1.00  0.00     0.016 A 
ATOM     39  C   UNL A   1      36.789  29.207  30.058  1.00  0.00     0.010 A 
ATOM     40  C   UNL A   1      37.878  29.912  28.002  1.00  0.00     0.010 A 
ATOM     41  C   UNL A   1      37.925  29.260  29.250  1.00  0.00    -0.014 A 
BRANCH  41  42
ATOM     42  C   UNL A   1      39.204  28.739  29.772  1.00  0.00     0.031 A 
ATOM     43  C   UNL A   1      39.788  29.376  30.998  1.00  0.00     0.074 A 
ATOM     44  C   UNL A   1      39.804  27.698  29.171  1.00  0.00     0.049 A 
ATOM     45  N   UNL A   1      40.961  29.195  31.542  1.00  0.00    -0.248 NA
ATOM     46  C   UNL A   1      38.942  30.356  31.703  1.00  0.00     0.031 C 
ATOM     47  C   UNL A   1      39.284  26.976  28.009  1.00  0.00     0.029 A 
ATOM     48  N   UNL A   1      40.996  27.081  29.445  1.00  0.00    -0.354 N 
ATOM     49  C   UNL A   1      41.016  30.076  32.615  1.00  0.00     0.074 A 
ATOM     50  C   UNL A   1      39.760  30.791  32.650  1.00  0.00     0.031 C 
ATOM     51  C   UNL A   1      40.165  26.027  27.653  1.00  0.00     0.029 A 
ATOM     52  C   UNL A   1      41.332  26.119  28.522  1.00  0.00     0.049 A 
ATOM     53  H   UNL A   1      41.554  27.302  30.225  1.00  0.00     0.167 HD
ATOM     54  C   UNL A   1      42.025  30.258  33.496  1.00  0.00     0.034 A 
ATOM     55  C   UNL A   1      42.480  25.432  28.368  1.00  0.00     0.034 A 
ATOM     56  C   UNL A   1      43.243  29.499  33.474  1.00  0.00     0.049 A 
ATOM     57  C   UNL A   1      43.601  25.681  29.340  1.00  0.00     0.074 A 
ATOM     58  C   UNL A   1      44.324  29.579  34.332  1.00  0.00     0.029 A 
ATOM     59  N   UNL A   1      43.540  28.514  32.543  1.00  0.00    -0.354 N 
ATOM     60  N   UNL A   1      43.628  26.480  30.380  1.00  0.00    -0.248 NA
ATOM     61  C   UNL A   1      44.843  24.928  29.127  1.00  0.00     0.031 C 
ATOM     62  C   UNL A   1      45.283  28.652  33.908  1.00  0.00     0.029 A 
ATOM     63  C   UNL A   1      44.792  27.986  32.796  1.00  0.00     0.049 A 
ATOM     64  H   UNL A   1      42.946  28.234  31.809  1.00  0.00     0.167 HD
ATOM     65  C   UNL A   1      44.884  26.321  30.951  1.00  0.00     0.074 A 
ATOM     66  C   UNL A   1      45.574  25.319  30.162  1.00  0.00     0.031 C 
ATOM     67  C   UNL A   1      45.433  26.961  32.013  1.00  0.00     0.034 A 
BRANCH  54  68
ATOM     68  C   UNL A   1      41.843  31.301  34.565  1.00  0.00     0.023 A 
ATOM     69  C   UNL A   1      41.311  30.936  35.817  1.00  0.00     0.012 A 
ATOM     70  C   UNL A   1      42.244  32.634  34.344  1.00  0.00     0.148 A 
ATOM     71  C   UNL A   1      41.161  31.886  36.828  1.00  0.00     0.002 A 
ATOM     72  C   UNL A   1      42.129  33.566  35.369  1.00  0.00     0.091 A 
ATOM     73  F   UNL A   1      42.722  32.965  33.137  1.00  0.00    -0.205 F 
ATOM     74  C   UNL A   1      41.579  33.196  36.607  1.00  0.00     0.022 A 
BRANCH  72  75
ATOM     75  S   UNL A   1      42.696  35.263  35.209  1.00  0.00     0.127 S 
ATOM     76  O   UNL A   1      41.745  35.801  34.237  1.00  0.00    -0.237 OA
ATOM     77  O   UNL A   1      42.530  35.770  36.571  1.00  0.00    -0.237 OA
ATOM     78  O   UNL A   1      44.075  35.184  34.750  1.00  0.00    -0.744 OA
ENDBRANCH  72  75
ENDBRANCH  54  68
BRANCH  55  79
ATOM     79  C   UNL A   1      42.625  24.472  27.238  1.00  0.00     0.023 A 
ATOM     80  C   UNL A   1      43.349  24.844  26.091  1.00  0.00     0.012 A 
ATOM     81  C   UNL A   1      42.077  23.175  27.312  1.00  0.00     0.148 A 
ATOM     82  C   UNL A   1      43.503  23.952  25.028  1.00  0.00     0.002 A 
ATOM     83  C   UNL A   1      42.287  22.271  26.277  1.00  0.00     0.091 A 
ATOM     84  F   UNL A   1      41.366  22.843  28.399  1.00  0.00    -0.205 F 
ATOM     85  C   UNL A   1      42.986  22.663  25.126  1.00  0.00     0.022 A 
BRANCH  83  86
ATOM     86  S   UNL A   1      41.774  20.554  26.400  1.00  0.00     0.127 S 
ATOM     87  O   UNL A   1      40.334  20.653  26.180  1.00  0.00    -0.237 OA
ATOM     88  O   UNL A   1      42.521  19.928  25.307  1.00  0.00    -0.237 OA
ATOM     89  O   UNL A   1      42.191  20.120  27.726  1.00  0.00    -0.744 OA
ENDBRANCH  83  86
ENDBRANCH  55  79
BRANCH  67  90
ATOM     90  C   UNL A   1      46.845  26.597  32.380  1.00  0.00     0.023 A 
ATOM     91  C   UNL A   1      47.911  27.351  31.850  1.00  0.00     0.012 A 
ATOM     92  C   UNL A   1      47.110  25.568  33.303  1.00  0.00     0.148 A 
ATOM     93  C   UNL A   1      49.226  27.067  32.214  1.00  0.00     0.002 A 
ATOM     94  C   UNL A   1      48.419  25.321  33.696  1.00  0.00     0.091 A 
ATOM     95  F   UNL A   1      46.080  24.857  33.782  1.00  0.00    -0.205 F 
ATOM     96  C   UNL A   1      49.479  26.062  33.145  1.00  0.00     0.022 A 
BRANCH  94  97
ATOM     97  S   UNL A   1      48.836  24.112  34.956  1.00  0.00     0.127 S 
ATOM     98  O   UNL A   1      50.295  24.205  34.987  1.00  0.00    -0.237 OA
ATOM     99  O   UNL A   1      48.164  24.652  36.139  1.00  0.00    -0.237 OA
ATOM    100  O   UNL A   1      48.303  22.841  34.485  1.00  0.00    -0.744 OA
ENDBRANCH  94  97
ENDBRANCH  67  90
ENDBRANCH  41  42
ENDBRANCH  34  36
ENDBRANCH  33  34
ENDBRANCH  32  33
ENDBRANCH   1  32
TORSDOF 20
ENDMDL
