MODEL 1
REMARK VINA RESULT:     -11.9      0.000      0.000
REMARK SMILES NC(=O)c1ccccc1NC(=O)[C@@H]1CC=CC[C@@H]1C(=O)OCCOC(=O)c1ccc(-c2c3nc(c(-c4cccc(S(=O)(=O)[O-])c4F)c4ccc([nH]4)c(-c4cccc(S(=O)(=O)[O-])c4F)c4nc(c(-c5cccc(S(=O)(=O)[O-])c5F)c5ccc2[nH]5)C=C4)C=C3)cc1
REMARK SMILES IDX 22 1 21 2 19 3 20 4 18 5 13 6 14 7 15 8 17 9 16 10 11 11
REMARK SMILES IDX 10 12 12 14 9 15 4 16 5 17 6 18 8 19 7 20 2 21 1 22 3 25
REMARK SMILES IDX 23 26 24 27 25 28 26 29 27 30 28 31 89 32 29 33 88 34 30 35
REMARK SMILES IDX 31 36 32 37 82 38 33 39 87 40 81 41 83 42 34 43 86 44 80 45
REMARK SMILES IDX 79 46 35 48 67 49 47 50 66 51 48 52 51 53 65 54 84 55 49 56
REMARK SMILES IDX 50 57 64 59 85 60 52 61 36 62 37 63 45 64 38 65 40 66 46 67
REMARK SMILES IDX 39 68 41 69 42 70 43 71 44 72 68 73 69 74 77 75 70 76 72 77
REMARK SMILES IDX 78 78 71 79 73 80 74 81 75 82 76 83 53 84 54 85 62 86 55 87
REMARK SMILES IDX 57 88 63 89 56 90 58 91 59 92 60 93 61 94
REMARK H PARENT 10 13 1 23 1 24 83 47 51 58
REMARK Flexibility Score: inf
ROOT
ATOM      1  C   UNL A   1      35.373  22.223  26.060  1.00  0.00     0.274 C 
ENDROOT
BRANCH   1   2
ATOM      2  O   UNL A   1      34.912  23.228  25.134  1.00  0.00    -0.462 OA
BRANCH   2   3
ATOM      3  C   UNL A   1      33.838  23.963  25.517  1.00  0.00     0.310 C 
ATOM      4  O   UNL A   1      33.799  24.652  26.529  1.00  0.00    -0.252 OA
BRANCH   3   5
ATOM      5  C   UNL A   1      32.677  23.894  24.525  1.00  0.00     0.116 C 
ATOM      6  C   UNL A   1      31.385  23.271  25.087  1.00  0.00     0.097 C 
ATOM      7  C   UNL A   1      31.555  21.755  25.306  1.00  0.00     0.041 C 
ATOM      8  C   UNL A   1      32.154  21.073  24.111  1.00  0.00    -0.030 C 
ATOM      9  C   UNL A   1      33.056  23.217  23.197  1.00  0.00     0.043 C 
ATOM     10  C   UNL A   1      32.803  21.739  23.147  1.00  0.00    -0.030 C 
BRANCH   6  11
ATOM     11  C   UNL A   1      30.884  24.006  26.319  1.00  0.00     0.228 C 
ATOM     12  N   UNL A   1      30.540  25.322  26.308  1.00  0.00    -0.325 N 
ATOM     13  H   UNL A   1      30.186  25.630  27.174  1.00  0.00     0.169 HD
ATOM     14  O   UNL A   1      30.739  23.427  27.399  1.00  0.00    -0.274 OA
BRANCH  12  15
ATOM     15  C   UNL A   1      30.576  26.346  25.341  1.00  0.00     0.053 A 
ATOM     16  C   UNL A   1      31.263  27.537  25.648  1.00  0.00     0.063 A 
ATOM     17  C   UNL A   1      31.084  28.683  24.860  1.00  0.00     0.016 A 
ATOM     18  C   UNL A   1      30.304  28.625  23.709  1.00  0.00     0.001 A 
ATOM     19  C   UNL A   1      29.913  26.276  24.113  1.00  0.00     0.027 A 
ATOM     20  C   UNL A   1      29.755  27.411  23.314  1.00  0.00     0.002 A 
BRANCH  16  21
ATOM     21  C   UNL A   1      32.168  27.664  26.820  1.00  0.00     0.250 C 
ATOM     22  N   UNL A   1      33.509  27.738  26.540  1.00  0.00    -0.366 N 
ATOM     23  H   UNL A   1      34.160  27.823  27.273  1.00  0.00     0.159 HD
ATOM     24  H   UNL A   1      33.818  27.707  25.605  1.00  0.00     0.159 HD
ATOM     25  O   UNL A   1      31.745  27.748  27.960  1.00  0.00    -0.269 OA
ENDBRANCH  16  21
ENDBRANCH  12  15
ENDBRANCH   6  11
ENDBRANCH   3   5
ENDBRANCH   2   3
ENDBRANCH   1   2
BRANCH   1  26
ATOM     26  C   UNL A   1      36.183  21.156  25.332  1.00  0.00     0.275 C 
BRANCH  26  27
ATOM     27  O   UNL A   1      37.470  21.691  24.980  1.00  0.00    -0.458 OA
BRANCH  27  28
ATOM     28  C   UNL A   1      38.509  21.257  25.724  1.00  0.00     0.338 C 
ATOM     29  O   UNL A   1      38.929  20.115  25.828  1.00  0.00    -0.246 OA
BRANCH  28  30
ATOM     30  C   UNL A   1      39.146  22.403  26.385  1.00  0.00     0.060 A 
ATOM     31  C   UNL A   1      38.701  23.689  26.084  1.00  0.00     0.016 A 
ATOM     32  C   UNL A   1      40.268  22.216  27.185  1.00  0.00     0.016 A 
ATOM     33  C   UNL A   1      39.438  24.794  26.477  1.00  0.00     0.010 A 
ATOM     34  C   UNL A   1      40.939  23.335  27.687  1.00  0.00     0.010 A 
ATOM     35  C   UNL A   1      40.551  24.633  27.308  1.00  0.00    -0.014 A 
BRANCH  35  36
ATOM     36  C   UNL A   1      41.286  25.830  27.782  1.00  0.00     0.031 A 
ATOM     37  C   UNL A   1      40.595  26.860  28.629  1.00  0.00     0.074 A 
ATOM     38  C   UNL A   1      42.579  25.988  27.435  1.00  0.00     0.049 A 
ATOM     39  N   UNL A   1      41.030  28.027  29.022  1.00  0.00    -0.248 NA
ATOM     40  C   UNL A   1      39.229  26.547  29.084  1.00  0.00     0.031 C 
ATOM     41  C   UNL A   1      43.355  25.051  26.614  1.00  0.00     0.029 A 
ATOM     42  N   UNL A   1      43.466  26.997  27.708  1.00  0.00    -0.354 N 
ATOM     43  C   UNL A   1      39.971  28.622  29.696  1.00  0.00     0.074 A 
ATOM     44  C   UNL A   1      38.875  27.677  29.682  1.00  0.00     0.031 C 
ATOM     45  C   UNL A   1      44.599  25.524  26.458  1.00  0.00     0.029 A 
ATOM     46  C   UNL A   1      44.689  26.829  27.100  1.00  0.00     0.049 A 
ATOM     47  H   UNL A   1      43.250  27.765  28.284  1.00  0.00     0.167 HD
ATOM     48  C   UNL A   1      39.923  29.843  30.275  1.00  0.00     0.034 A 
ATOM     49  C   UNL A   1      45.752  27.651  27.026  1.00  0.00     0.034 A 
ATOM     50  C   UNL A   1      41.044  30.741  30.351  1.00  0.00     0.049 A 
ATOM     51  C   UNL A   1      45.682  28.982  27.717  1.00  0.00     0.074 A 
ATOM     52  C   UNL A   1      41.120  31.970  30.983  1.00  0.00     0.029 A 
ATOM     53  N   UNL A   1      42.285  30.506  29.782  1.00  0.00    -0.354 N 
ATOM     54  N   UNL A   1      44.702  29.489  28.426  1.00  0.00    -0.248 NA
ATOM     55  C   UNL A   1      46.863  29.847  27.614  1.00  0.00     0.031 C 
ATOM     56  C   UNL A   1      42.406  32.482  30.786  1.00  0.00     0.029 A 
ATOM     57  C   UNL A   1      43.134  31.569  30.040  1.00  0.00     0.049 A 
ATOM     58  H   UNL A   1      42.529  29.701  29.270  1.00  0.00     0.167 HD
ATOM     59  C   UNL A   1      45.151  30.728  28.861  1.00  0.00     0.074 A 
ATOM     60  C   UNL A   1      46.506  30.877  28.369  1.00  0.00     0.031 C 
ATOM     61  C   UNL A   1      44.494  31.673  29.578  1.00  0.00     0.034 A 
BRANCH  48  62
ATOM     62  C   UNL A   1      38.623  30.281  30.895  1.00  0.00     0.023 A 
ATOM     63  C   UNL A   1      38.370  30.018  32.254  1.00  0.00     0.012 A 
ATOM     64  C   UNL A   1      37.686  31.019  30.144  1.00  0.00     0.148 A 
ATOM     65  C   UNL A   1      37.194  30.468  32.855  1.00  0.00     0.002 A 
ATOM     66  C   UNL A   1      36.534  31.495  30.759  1.00  0.00     0.091 A 
ATOM     67  F   UNL A   1      37.936  31.236  28.845  1.00  0.00    -0.205 F 
ATOM     68  C   UNL A   1      36.283  31.215  32.112  1.00  0.00     0.022 A 
BRANCH  66  69
ATOM     69  S   UNL A   1      35.334  32.524  29.904  1.00  0.00     0.127 S 
ATOM     70  O   UNL A   1      36.163  33.649  29.474  1.00  0.00    -0.237 OA
ATOM     71  O   UNL A   1      34.891  31.646  28.821  1.00  0.00    -0.237 OA
ATOM     72  O   UNL A   1      34.306  32.843  30.885  1.00  0.00    -0.744 OA
ENDBRANCH  66  69
ENDBRANCH  48  62
BRANCH  49  73
ATOM     73  C   UNL A   1      46.965  27.227  26.273  1.00  0.00     0.023 A 
ATOM     74  C   UNL A   1      47.105  27.589  24.921  1.00  0.00     0.012 A 
ATOM     75  C   UNL A   1      48.006  26.518  26.905  1.00  0.00     0.148 A 
ATOM     76  C   UNL A   1      48.251  27.235  24.205  1.00  0.00     0.002 A 
ATOM     77  C   UNL A   1      49.171  26.223  26.204  1.00  0.00     0.091 A 
ATOM     78  F   UNL A   1      47.849  26.158  28.186  1.00  0.00    -0.205 F 
ATOM     79  C   UNL A   1      49.289  26.567  24.850  1.00  0.00     0.022 A 
BRANCH  77  80
ATOM     80  S   UNL A   1      50.601  25.504  27.020  1.00  0.00     0.127 S 
ATOM     81  O   UNL A   1      50.967  26.553  27.967  1.00  0.00    -0.237 OA
ATOM     82  O   UNL A   1      50.043  24.295  27.626  1.00  0.00    -0.237 OA
ATOM     83  O   UNL A   1      51.554  25.244  25.949  1.00  0.00    -0.744 OA
ENDBRANCH  77  80
ENDBRANCH  49  73
BRANCH  61  84
ATOM     84  C   UNL A   1      45.234  32.947  29.874  1.00  0.00     0.023 A 
ATOM     85  C   UNL A   1      46.000  33.042  31.052  1.00  0.00     0.012 A 
ATOM     86  C   UNL A   1      45.219  34.022  28.966  1.00  0.00     0.148 A 
ATOM     87  C   UNL A   1      46.719  34.201  31.336  1.00  0.00     0.002 A 
ATOM     88  C   UNL A   1      45.973  35.159  29.236  1.00  0.00     0.091 A 
ATOM     89  F   UNL A   1      44.464  33.921  27.863  1.00  0.00    -0.205 F 
ATOM     90  C   UNL A   1      46.714  35.255  30.425  1.00  0.00     0.022 A 
BRANCH  88  91
ATOM     91  S   UNL A   1      46.086  36.519  28.069  1.00  0.00     0.127 S 
ATOM     92  O   UNL A   1      44.723  37.045  28.087  1.00  0.00    -0.237 OA
ATOM     93  O   UNL A   1      47.085  37.389  28.692  1.00  0.00    -0.237 OA
ATOM     94  O   UNL A   1      46.518  35.921  26.811  1.00  0.00    -0.744 OA
ENDBRANCH  88  91
ENDBRANCH  61  84
ENDBRANCH  35  36
ENDBRANCH  28  30
ENDBRANCH  27  28
ENDBRANCH  26  27
ENDBRANCH   1  26
TORSDOF 17
ENDMDL
MODEL 2
REMARK VINA RESULT:     -11.4      4.581      9.576
REMARK SMILES NC(=O)c1ccccc1NC(=O)[C@@H]1CC=CC[C@@H]1C(=O)OCCOC(=O)c1ccc(-c2c3nc(c(-c4cccc(S(=O)(=O)[O-])c4F)c4ccc([nH]4)c(-c4cccc(S(=O)(=O)[O-])c4F)c4nc(c(-c5cccc(S(=O)(=O)[O-])c5F)c5ccc2[nH]5)C=C4)C=C3)cc1
REMARK SMILES IDX 22 1 21 2 19 3 20 4 18 5 13 6 14 7 15 8 17 9 16 10 11 11
REMARK SMILES IDX 10 12 12 14 9 15 4 16 5 17 6 18 8 19 7 20 2 21 1 22 3 25
REMARK SMILES IDX 23 26 24 27 25 28 26 29 27 30 28 31 89 32 29 33 88 34 30 35
REMARK SMILES IDX 31 36 32 37 82 38 33 39 87 40 81 41 83 42 34 43 86 44 80 45
REMARK SMILES IDX 79 46 35 48 67 49 47 50 66 51 48 52 51 53 65 54 84 55 49 56
REMARK SMILES IDX 50 57 64 59 85 60 52 61 36 62 37 63 45 64 38 65 40 66 46 67
REMARK SMILES IDX 39 68 41 69 42 70 43 71 44 72 68 73 69 74 77 75 70 76 72 77
REMARK SMILES IDX 78 78 71 79 73 80 74 81 75 82 76 83 53 84 54 85 62 86 55 87
REMARK SMILES IDX 57 88 63 89 56 90 58 91 59 92 60 93 61 94
REMARK H PARENT 10 13 1 23 1 24 83 47 51 58
REMARK Flexibility Score: inf
ROOT
ATOM      1  C   UNL A   1      31.804  28.267  27.533  1.00  0.00     0.274 C 
ENDROOT
BRANCH   1   2
ATOM      2  O   UNL A   1      31.062  27.095  27.138  1.00  0.00    -0.462 OA
BRANCH   2   3
ATOM      3  C   UNL A   1      31.670  26.255  26.264  1.00  0.00     0.310 C 
ATOM      4  O   UNL A   1      32.884  26.153  26.135  1.00  0.00    -0.252 OA
BRANCH   3   5
ATOM      5  C   UNL A   1      30.685  25.393  25.475  1.00  0.00     0.116 C 
ATOM      6  C   UNL A   1      31.094  23.913  25.332  1.00  0.00     0.097 C 
ATOM      7  C   UNL A   1      32.299  23.764  24.385  1.00  0.00     0.041 C 
ATOM      8  C   UNL A   1      32.113  24.525  23.106  1.00  0.00    -0.030 C 
ATOM      9  C   UNL A   1      30.338  25.979  24.096  1.00  0.00     0.043 C 
ATOM     10  C   UNL A   1      31.207  25.502  22.970  1.00  0.00    -0.030 C 
BRANCH   6  11
ATOM     11  C   UNL A   1      31.301  23.245  26.682  1.00  0.00     0.228 C 
ATOM     12  N   UNL A   1      32.473  22.660  27.046  1.00  0.00    -0.325 N 
ATOM     13  H   UNL A   1      32.458  22.321  27.971  1.00  0.00     0.169 HD
ATOM     14  O   UNL A   1      30.409  23.224  27.533  1.00  0.00    -0.274 OA
BRANCH  12  15
ATOM     15  C   UNL A   1      33.705  22.427  26.403  1.00  0.00     0.053 A 
ATOM     16  C   UNL A   1      33.956  21.145  25.875  1.00  0.00     0.063 A 
ATOM     17  C   UNL A   1      35.255  20.775  25.497  1.00  0.00     0.016 A 
ATOM     18  C   UNL A   1      36.288  21.705  25.544  1.00  0.00     0.001 A 
ATOM     19  C   UNL A   1      34.724  23.378  26.312  1.00  0.00     0.027 A 
ATOM     20  C   UNL A   1      36.013  23.017  25.911  1.00  0.00     0.002 A 
BRANCH  16  21
ATOM     21  C   UNL A   1      32.895  20.115  25.728  1.00  0.00     0.250 C 
ATOM     22  N   UNL A   1      33.024  19.000  26.518  1.00  0.00    -0.366 N 
ATOM     23  H   UNL A   1      32.354  18.281  26.467  1.00  0.00     0.159 HD
ATOM     24  H   UNL A   1      33.787  18.922  27.136  1.00  0.00     0.159 HD
ATOM     25  O   UNL A   1      31.940  20.268  24.987  1.00  0.00    -0.269 OA
ENDBRANCH  16  21
ENDBRANCH  12  15
ENDBRANCH   6  11
ENDBRANCH   3   5
ENDBRANCH   2   3
ENDBRANCH   1   2
BRANCH   1  26
ATOM     26  C   UNL A   1      31.575  29.405  26.544  1.00  0.00     0.275 C 
BRANCH  26  27
ATOM     27  O   UNL A   1      32.837  30.005  26.207  1.00  0.00    -0.458 OA
BRANCH  27  28
ATOM     28  C   UNL A   1      33.200  31.066  26.957  1.00  0.00     0.338 C 
ATOM     29  O   UNL A   1      32.536  32.056  27.225  1.00  0.00    -0.246 OA
BRANCH  28  30
ATOM     30  C   UNL A   1      34.551  30.846  27.490  1.00  0.00     0.060 A 
ATOM     31  C   UNL A   1      34.966  29.543  27.757  1.00  0.00     0.016 A 
ATOM     32  C   UNL A   1      35.345  31.927  27.859  1.00  0.00     0.016 A 
ATOM     33  C   UNL A   1      36.115  29.313  28.497  1.00  0.00     0.010 A 
ATOM     34  C   UNL A   1      36.567  31.688  28.494  1.00  0.00     0.010 A 
ATOM     35  C   UNL A   1      36.945  30.381  28.851  1.00  0.00    -0.014 A 
BRANCH  35  36
ATOM     36  C   UNL A   1      38.209  30.112  29.578  1.00  0.00     0.031 A 
ATOM     37  C   UNL A   1      39.260  29.226  28.972  1.00  0.00     0.074 A 
ATOM     38  C   UNL A   1      38.398  30.664  30.793  1.00  0.00     0.049 A 
ATOM     39  N   UNL A   1      40.360  28.771  29.510  1.00  0.00    -0.248 NA
ATOM     40  C   UNL A   1      39.042  28.778  27.586  1.00  0.00     0.031 C 
ATOM     41  C   UNL A   1      37.446  31.542  31.481  1.00  0.00     0.029 A 
ATOM     42  N   UNL A   1      39.443  30.558  31.675  1.00  0.00    -0.354 N 
ATOM     43  C   UNL A   1      40.923  27.922  28.565  1.00  0.00     0.074 A 
ATOM     44  C   UNL A   1      40.056  27.942  27.407  1.00  0.00     0.031 C 
ATOM     45  C   UNL A   1      37.951  31.899  32.670  1.00  0.00     0.029 A 
ATOM     46  C   UNL A   1      39.224  31.218  32.863  1.00  0.00     0.049 A 
ATOM     47  H   UNL A   1      40.268  30.059  31.478  1.00  0.00     0.167 HD
ATOM     48  C   UNL A   1      42.061  27.197  28.659  1.00  0.00     0.034 A 
ATOM     49  C   UNL A   1      39.944  31.239  34.000  1.00  0.00     0.034 A 
ATOM     50  C   UNL A   1      42.956  27.248  29.784  1.00  0.00     0.049 A 
ATOM     51  C   UNL A   1      41.224  30.458  34.055  1.00  0.00     0.074 A 
ATOM     52  C   UNL A   1      44.173  26.611  29.944  1.00  0.00     0.029 A 
ATOM     53  N   UNL A   1      42.733  27.981  30.939  1.00  0.00    -0.354 N 
ATOM     54  N   UNL A   1      41.786  29.732  33.118  1.00  0.00    -0.248 NA
ATOM     55  C   UNL A   1      41.980  30.510  35.312  1.00  0.00     0.031 C 
ATOM     56  C   UNL A   1      44.681  26.950  31.201  1.00  0.00     0.029 A 
ATOM     57  C   UNL A   1      43.785  27.807  31.821  1.00  0.00     0.049 A 
ATOM     58  H   UNL A   1      41.942  28.543  31.108  1.00  0.00     0.167 HD
ATOM     59  C   UNL A   1      42.964  29.247  33.669  1.00  0.00     0.074 A 
ATOM     60  C   UNL A   1      43.055  29.796  35.007  1.00  0.00     0.031 C 
ATOM     61  C   UNL A   1      43.875  28.401  33.130  1.00  0.00     0.034 A 
BRANCH  48  62
ATOM     62  C   UNL A   1      42.423  26.299  27.507  1.00  0.00     0.023 A 
ATOM     63  C   UNL A   1      43.233  26.786  26.464  1.00  0.00     0.012 A 
ATOM     64  C   UNL A   1      42.021  24.948  27.500  1.00  0.00     0.148 A 
ATOM     65  C   UNL A   1      43.623  25.948  25.420  1.00  0.00     0.002 A 
ATOM     66  C   UNL A   1      42.443  24.109  26.476  1.00  0.00     0.091 A 
ATOM     67  F   UNL A   1      41.229  24.512  28.490  1.00  0.00    -0.205 F 
ATOM     68  C   UNL A   1      43.239  24.609  25.432  1.00  0.00     0.022 A 
BRANCH  66  69
ATOM     69  S   UNL A   1      42.057  22.355  26.438  1.00  0.00     0.127 S 
ATOM     70  O   UNL A   1      42.944  21.880  25.376  1.00  0.00    -0.237 OA
ATOM     71  O   UNL A   1      42.437  21.926  27.785  1.00  0.00    -0.237 OA
ATOM     72  O   UNL A   1      40.633  22.263  26.152  1.00  0.00    -0.744 OA
ENDBRANCH  66  69
ENDBRANCH  48  62
BRANCH  49  73
ATOM     73  C   UNL A   1      39.463  32.032  35.166  1.00  0.00     0.023 A 
ATOM     74  C   UNL A   1      38.640  31.420  36.129  1.00  0.00     0.012 A 
ATOM     75  C   UNL A   1      39.864  33.369  35.355  1.00  0.00     0.148 A 
ATOM     76  C   UNL A   1      38.209  32.132  37.250  1.00  0.00     0.002 A 
ATOM     77  C   UNL A   1      39.482  34.053  36.504  1.00  0.00     0.091 A 
ATOM     78  F   UNL A   1      40.627  33.947  34.416  1.00  0.00    -0.205 F 
ATOM     79  C   UNL A   1      38.641  33.442  37.445  1.00  0.00     0.022 A 
BRANCH  77  80
ATOM     80  S   UNL A   1      40.131  35.684  36.886  1.00  0.00     0.127 S 
ATOM     81  O   UNL A   1      41.567  35.426  36.962  1.00  0.00    -0.237 OA
ATOM     82  O   UNL A   1      39.708  36.471  35.727  1.00  0.00    -0.237 OA
ATOM     83  O   UNL A   1      39.480  36.066  38.132  1.00  0.00    -0.744 OA
ENDBRANCH  77  80
ENDBRANCH  49  73
BRANCH  61  84
ATOM     84  C   UNL A   1      45.049  28.021  33.988  1.00  0.00     0.023 A 
ATOM     85  C   UNL A   1      46.249  28.750  33.878  1.00  0.00     0.012 A 
ATOM     86  C   UNL A   1      44.949  26.986  34.937  1.00  0.00     0.148 A 
ATOM     87  C   UNL A   1      47.343  28.437  34.682  1.00  0.00     0.002 A 
ATOM     88  C   UNL A   1      46.030  26.708  35.765  1.00  0.00     0.091 A 
ATOM     89  F   UNL A   1      43.807  26.288  35.008  1.00  0.00    -0.205 F 
ATOM     90  C   UNL A   1      47.231  27.424  35.632  1.00  0.00     0.022 A 
BRANCH  88  91
ATOM     91  S   UNL A   1      45.932  25.478  37.070  1.00  0.00     0.127 S 
ATOM     92  O   UNL A   1      44.734  25.902  37.792  1.00  0.00    -0.237 OA
ATOM     93  O   UNL A   1      45.783  24.230  36.319  1.00  0.00    -0.237 OA
ATOM     94  O   UNL A   1      47.186  25.586  37.805  1.00  0.00    -0.744 OA
ENDBRANCH  88  91
ENDBRANCH  61  84
ENDBRANCH  35  36
ENDBRANCH  28  30
ENDBRANCH  27  28
ENDBRANCH  26  27
ENDBRANCH   1  26
TORSDOF 17
ENDMDL
MODEL 3
REMARK VINA RESULT:     -11.0      1.487      1.818
REMARK SMILES NC(=O)c1ccccc1NC(=O)[C@@H]1CC=CC[C@@H]1C(=O)OCCOC(=O)c1ccc(-c2c3nc(c(-c4cccc(S(=O)(=O)[O-])c4F)c4ccc([nH]4)c(-c4cccc(S(=O)(=O)[O-])c4F)c4nc(c(-c5cccc(S(=O)(=O)[O-])c5F)c5ccc2[nH]5)C=C4)C=C3)cc1
REMARK SMILES IDX 22 1 21 2 19 3 20 4 18 5 13 6 14 7 15 8 17 9 16 10 11 11
REMARK SMILES IDX 10 12 12 14 9 15 4 16 5 17 6 18 8 19 7 20 2 21 1 22 3 25
REMARK SMILES IDX 23 26 24 27 25 28 26 29 27 30 28 31 89 32 29 33 88 34 30 35
REMARK SMILES IDX 31 36 32 37 82 38 33 39 87 40 81 41 83 42 34 43 86 44 80 45
REMARK SMILES IDX 79 46 35 48 67 49 47 50 66 51 48 52 51 53 65 54 84 55 49 56
REMARK SMILES IDX 50 57 64 59 85 60 52 61 36 62 37 63 45 64 38 65 40 66 46 67
REMARK SMILES IDX 39 68 41 69 42 70 43 71 44 72 68 73 69 74 77 75 70 76 72 77
REMARK SMILES IDX 78 78 71 79 73 80 74 81 75 82 76 83 53 84 54 85 62 86 55 87
REMARK SMILES IDX 57 88 63 89 56 90 58 91 59 92 60 93 61 94
REMARK H PARENT 10 13 1 23 1 24 83 47 51 58
REMARK Flexibility Score: inf
ROOT
ATOM      1  C   UNL A   1      36.506  22.107  23.918  1.00  0.00     0.274 C 
ENDROOT
BRANCH   1   2
ATOM      2  O   UNL A   1      35.087  22.072  23.667  1.00  0.00    -0.462 OA
BRANCH   2   3
ATOM      3  C   UNL A   1      34.498  23.247  23.330  1.00  0.00     0.310 C 
ATOM      4  O   UNL A   1      35.111  24.257  23.005  1.00  0.00    -0.252 OA
BRANCH   3   5
ATOM      5  C   UNL A   1      32.971  23.180  23.342  1.00  0.00     0.116 C 
ATOM      6  C   UNL A   1      32.337  23.153  24.746  1.00  0.00     0.097 C 
ATOM      7  C   UNL A   1      32.604  21.807  25.445  1.00  0.00     0.041 C 
ATOM      8  C   UNL A   1      32.298  20.636  24.557  1.00  0.00    -0.030 C 
ATOM      9  C   UNL A   1      32.410  22.032  22.487  1.00  0.00     0.043 C 
ATOM     10  C   UNL A   1      32.180  20.748  23.228  1.00  0.00    -0.030 C 
BRANCH   6  11
ATOM     11  C   UNL A   1      32.744  24.357  25.580  1.00  0.00     0.228 C 
ATOM     12  N   UNL A   1      32.185  25.587  25.427  1.00  0.00    -0.325 N 
ATOM     13  H   UNL A   1      32.523  26.242  26.082  1.00  0.00     0.169 HD
ATOM     14  O   UNL A   1      33.596  24.266  26.468  1.00  0.00    -0.274 OA
BRANCH  12  15
ATOM     15  C   UNL A   1      31.234  26.140  24.547  1.00  0.00     0.053 A 
ATOM     16  C   UNL A   1      31.676  27.046  23.563  1.00  0.00     0.063 A 
ATOM     17  C   UNL A   1      30.755  27.841  22.865  1.00  0.00     0.016 A 
ATOM     18  C   UNL A   1      29.389  27.669  23.068  1.00  0.00     0.001 A 
ATOM     19  C   UNL A   1      29.862  25.890  24.632  1.00  0.00     0.027 A 
ATOM     20  C   UNL A   1      28.944  26.664  23.918  1.00  0.00     0.002 A 
BRANCH  16  21
ATOM     21  C   UNL A   1      33.113  27.242  23.237  1.00  0.00     0.250 C 
ATOM     22  N   UNL A   1      33.555  26.647  22.083  1.00  0.00    -0.366 N 
ATOM     23  H   UNL A   1      34.497  26.739  21.812  1.00  0.00     0.159 HD
ATOM     24  H   UNL A   1      32.930  26.128  21.527  1.00  0.00     0.159 HD
ATOM     25  O   UNL A   1      33.845  27.932  23.925  1.00  0.00    -0.269 OA
ENDBRANCH  16  21
ENDBRANCH  12  15
ENDBRANCH   6  11
ENDBRANCH   3   5
ENDBRANCH   2   3
ENDBRANCH   1   2
BRANCH   1  26
ATOM     26  C   UNL A   1      36.931  20.909  24.761  1.00  0.00     0.275 C 
BRANCH  26  27
ATOM     27  O   UNL A   1      37.511  21.373  25.991  1.00  0.00    -0.458 OA
BRANCH  27  28
ATOM     28  C   UNL A   1      38.845  21.210  26.108  1.00  0.00     0.338 C 
ATOM     29  O   UNL A   1      39.511  20.238  25.786  1.00  0.00    -0.246 OA
BRANCH  28  30
ATOM     30  C   UNL A   1      39.440  22.439  26.649  1.00  0.00     0.060 A 
ATOM     31  C   UNL A   1      38.929  23.671  26.243  1.00  0.00     0.016 A 
ATOM     32  C   UNL A   1      40.585  22.377  27.437  1.00  0.00     0.016 A 
ATOM     33  C   UNL A   1      39.621  24.839  26.519  1.00  0.00     0.010 A 
ATOM     34  C   UNL A   1      41.212  23.566  27.821  1.00  0.00     0.010 A 
ATOM     35  C   UNL A   1      40.756  24.805  27.335  1.00  0.00    -0.014 A 
BRANCH  35  36
ATOM     36  C   UNL A   1      41.443  26.072  27.682  1.00  0.00     0.031 A 
ATOM     37  C   UNL A   1      40.766  27.088  28.557  1.00  0.00     0.074 A 
ATOM     38  C   UNL A   1      42.678  26.305  27.195  1.00  0.00     0.049 A 
ATOM     39  N   UNL A   1      41.149  28.300  28.856  1.00  0.00    -0.248 NA
ATOM     40  C   UNL A   1      39.481  26.700  29.165  1.00  0.00     0.031 C 
ATOM     41  C   UNL A   1      43.434  25.390  26.334  1.00  0.00     0.029 A 
ATOM     42  N   UNL A   1      43.509  27.387  27.334  1.00  0.00    -0.354 N 
ATOM     43  C   UNL A   1      40.123  28.848  29.616  1.00  0.00     0.074 A 
ATOM     44  C   UNL A   1      39.106  27.828  29.754  1.00  0.00     0.031 C 
ATOM     45  C   UNL A   1      44.616  25.942  26.030  1.00  0.00     0.029 A 
ATOM     46  C   UNL A   1      44.673  27.279  26.608  1.00  0.00     0.049 A 
ATOM     47  H   UNL A   1      43.295  28.163  27.900  1.00  0.00     0.167 HD
ATOM     48  C   UNL A   1      40.041  30.089  30.148  1.00  0.00     0.034 A 
ATOM     49  C   UNL A   1      45.657  28.170  26.390  1.00  0.00     0.034 A 
ATOM     50  C   UNL A   1      41.094  31.067  30.072  1.00  0.00     0.049 A 
ATOM     51  C   UNL A   1      45.557  29.523  27.033  1.00  0.00     0.074 A 
ATOM     52  C   UNL A   1      41.140  32.326  30.644  1.00  0.00     0.029 A 
ATOM     53  N   UNL A   1      42.284  30.894  29.384  1.00  0.00    -0.354 N 
ATOM     54  N   UNL A   1      44.619  29.991  27.821  1.00  0.00    -0.248 NA
ATOM     55  C   UNL A   1      46.653  30.465  26.772  1.00  0.00     0.031 C 
ATOM     56  C   UNL A   1      42.357  32.919  30.293  1.00  0.00     0.029 A 
ATOM     57  C   UNL A   1      43.071  32.026  29.510  1.00  0.00     0.049 A 
ATOM     58  H   UNL A   1      42.534  30.086  28.880  1.00  0.00     0.167 HD
ATOM     59  C   UNL A   1      45.015  31.278  28.159  1.00  0.00     0.074 A 
ATOM     60  C   UNL A   1      46.298  31.500  27.521  1.00  0.00     0.031 C 
ATOM     61  C   UNL A   1      44.365  32.205  28.903  1.00  0.00     0.034 A 
BRANCH  48  62
ATOM     62  C   UNL A   1      38.782  30.461  30.884  1.00  0.00     0.023 A 
ATOM     63  C   UNL A   1      38.670  30.194  32.262  1.00  0.00     0.012 A 
ATOM     64  C   UNL A   1      37.742  31.143  30.222  1.00  0.00     0.148 A 
ATOM     65  C   UNL A   1      37.532  30.585  32.968  1.00  0.00     0.002 A 
ATOM     66  C   UNL A   1      36.628  31.561  30.939  1.00  0.00     0.091 A 
ATOM     67  F   UNL A   1      37.859  31.364  28.905  1.00  0.00    -0.205 F 
ATOM     68  C   UNL A   1      36.518  31.277  32.311  1.00  0.00     0.022 A 
BRANCH  66  69
ATOM     69  S   UNL A   1      35.301  32.518  30.196  1.00  0.00     0.127 S 
ATOM     70  O   UNL A   1      36.012  33.720  29.760  1.00  0.00    -0.237 OA
ATOM     71  O   UNL A   1      34.860  31.644  29.109  1.00  0.00    -0.237 OA
ATOM     72  O   UNL A   1      34.315  32.722  31.248  1.00  0.00    -0.744 OA
ENDBRANCH  66  69
ENDBRANCH  48  62
BRANCH  49  73
ATOM     73  C   UNL A   1      46.816  27.800  25.530  1.00  0.00     0.023 A 
ATOM     74  C   UNL A   1      46.751  28.024  24.143  1.00  0.00     0.012 A 
ATOM     75  C   UNL A   1      48.002  27.281  26.087  1.00  0.00     0.148 A 
ATOM     76  C   UNL A   1      47.839  27.719  23.322  1.00  0.00     0.002 A 
ATOM     77  C   UNL A   1      49.103  27.038  25.273  1.00  0.00     0.091 A 
ATOM     78  F   UNL A   1      48.041  27.048  27.407  1.00  0.00    -0.205 F 
ATOM     79  C   UNL A   1      49.019  27.242  23.888  1.00  0.00     0.022 A 
BRANCH  77  80
ATOM     80  S   UNL A   1      50.695  26.571  25.961  1.00  0.00     0.127 S 
ATOM     81  O   UNL A   1      50.989  27.704  26.835  1.00  0.00    -0.237 OA
ATOM     82  O   UNL A   1      50.383  25.323  26.657  1.00  0.00    -0.237 OA
ATOM     83  O   UNL A   1      51.570  26.404  24.808  1.00  0.00    -0.744 OA
ENDBRANCH  77  80
ENDBRANCH  49  73
BRANCH  61  84
ATOM     84  C   UNL A   1      45.034  33.541  29.071  1.00  0.00     0.023 A 
ATOM     85  C   UNL A   1      44.741  34.578  28.163  1.00  0.00     0.012 A 
ATOM     86  C   UNL A   1      45.902  33.788  30.151  1.00  0.00     0.148 A 
ATOM     87  C   UNL A   1      45.325  35.834  28.312  1.00  0.00     0.002 A 
ATOM     88  C   UNL A   1      46.447  35.056  30.317  1.00  0.00     0.091 A 
ATOM     89  F   UNL A   1      46.186  32.781  30.989  1.00  0.00    -0.205 F 
ATOM     90  C   UNL A   1      46.169  36.077  29.394  1.00  0.00     0.022 A 
BRANCH  88  91
ATOM     91  S   UNL A   1      47.471  35.468  31.734  1.00  0.00     0.127 S 
ATOM     92  O   UNL A   1      47.767  36.878  31.491  1.00  0.00    -0.237 OA
ATOM     93  O   UNL A   1      46.569  35.219  32.860  1.00  0.00    -0.237 OA
ATOM     94  O   UNL A   1      48.610  34.561  31.671  1.00  0.00    -0.744 OA
ENDBRANCH  88  91
ENDBRANCH  61  84
ENDBRANCH  35  36
ENDBRANCH  28  30
ENDBRANCH  27  28
ENDBRANCH  26  27
ENDBRANCH   1  26
TORSDOF 17
ENDMDL
