MODEL 1
REMARK VINA RESULT:     -11.8      0.000      0.000
REMARK SMILES CC(C)(C)OC(=O)N1CCC[C@H]1C(=O)N[C@@H](Cc1ccccc1)C(=O)OCCOC(=O)c1ccc(-c2c3nc(c(-c4cccc(S(=O)(=O)[O-])c4F)c4ccc([nH]4)c(-c4cccc(S(=O)(=O)[O-])c4F)c4nc(c(-c5cccc(S(=O)(=O)[O-])c5F)c5ccc2[nH]5)C=C4)C=C3)cc1
REMARK SMILES IDX 27 1 26 2 24 3 25 4 16 5 15 6 13 7 14 8 12 10 8 11 9 12
REMARK SMILES IDX 10 13 11 14 6 15 7 16 5 17 2 18 1 19 3 20 4 21 17 22 18 23
REMARK SMILES IDX 19 24 23 25 20 26 22 27 21 28 28 29 29 30 30 31 31 32 32 33
REMARK SMILES IDX 33 34 94 35 34 36 93 37 35 38 36 39 37 40 87 41 38 42 92 43
REMARK SMILES IDX 86 44 88 45 39 46 91 47 85 48 84 49 40 51 72 52 52 53 71 54
REMARK SMILES IDX 53 55 56 56 70 57 89 58 54 59 55 60 69 62 90 63 57 64 41 65
REMARK SMILES IDX 42 66 50 67 43 68 45 69 51 70 44 71 46 72 47 73 48 74 49 75
REMARK SMILES IDX 73 76 74 77 82 78 75 79 77 80 83 81 76 82 78 83 79 84 80 85
REMARK SMILES IDX 81 86 58 87 59 88 67 89 60 90 62 91 68 92 61 93 63 94 64 95
REMARK SMILES IDX 65 96 66 97
REMARK H PARENT 15 9 88 50 56 61
REMARK Flexibility Score: inf
ROOT
ATOM      1  C   UNL A   1      31.558  28.734  25.756  1.00  0.00     0.274 C 
ENDROOT
BRANCH   1   2
ATOM      2  O   UNL A   1      31.776  29.349  24.474  1.00  0.00    -0.461 OA
BRANCH   2   3
ATOM      3  C   UNL A   1      32.616  28.659  23.656  1.00  0.00     0.329 C 
ATOM      4  O   UNL A   1      33.818  28.516  23.858  1.00  0.00    -0.250 OA
BRANCH   3   5
ATOM      5  C   UNL A   1      31.908  28.060  22.437  1.00  0.00     0.196 C 
BRANCH   5   6
ATOM      6  N   UNL A   1      32.613  26.980  21.746  1.00  0.00    -0.341 N 
ATOM      7  C   UNL A   1      33.111  25.796  22.195  1.00  0.00     0.243 C 
ATOM      8  O   UNL A   1      33.895  25.237  21.415  1.00  0.00    -0.273 OA
ATOM      9  H   UNL A   1      32.750  27.139  20.784  1.00  0.00     0.164 HD
BRANCH   7  10
ATOM     10  C   UNL A   1      32.899  25.219  23.637  1.00  0.00     0.178 C 
ATOM     11  N   UNL A   1      32.390  23.860  23.785  1.00  0.00    -0.296 N 
ATOM     12  C   UNL A   1      33.485  22.925  23.867  1.00  0.00     0.124 C 
ATOM     13  C   UNL A   1      34.589  23.687  24.572  1.00  0.00     0.024 C 
ATOM     14  C   UNL A   1      34.259  25.168  24.368  1.00  0.00     0.037 C 
BRANCH  11  15
ATOM     15  C   UNL A   1      31.053  23.572  23.950  1.00  0.00     0.410 C 
ATOM     16  O   UNL A   1      30.243  23.760  23.049  1.00  0.00    -0.224 OA
BRANCH  15  17
ATOM     17  O   UNL A   1      30.785  22.930  25.117  1.00  0.00    -0.444 OA
BRANCH  17  18
ATOM     18  C   UNL A   1      30.580  23.600  26.408  1.00  0.00     0.106 C 
ATOM     19  C   UNL A   1      31.889  23.430  27.188  1.00  0.00     0.056 C 
ATOM     20  C   UNL A   1      29.468  22.871  27.175  1.00  0.00     0.056 C 
ATOM     21  C   UNL A   1      30.238  25.091  26.349  1.00  0.00     0.056 C 
ENDBRANCH  17  18
ENDBRANCH  15  17
ENDBRANCH  11  15
ENDBRANCH   7  10
ENDBRANCH   5   6
BRANCH   5  22
ATOM     22  C   UNL A   1      30.467  27.651  22.798  1.00  0.00     0.072 C 
BRANCH  22  23
ATOM     23  C   UNL A   1      29.448  28.750  22.586  1.00  0.00    -0.045 A 
ATOM     24  C   UNL A   1      28.174  28.675  23.161  1.00  0.00     0.004 A 
ATOM     25  C   UNL A   1      29.792  29.889  21.842  1.00  0.00     0.004 A 
ATOM     26  C   UNL A   1      27.272  29.730  23.010  1.00  0.00     0.000 A 
ATOM     27  C   UNL A   1      28.896  30.948  21.706  1.00  0.00     0.000 A 
ATOM     28  C   UNL A   1      27.637  30.869  22.292  1.00  0.00     0.000 A 
ENDBRANCH  22  23
ENDBRANCH   5  22
ENDBRANCH   3   5
ENDBRANCH   2   3
ENDBRANCH   1   2
BRANCH   1  29
ATOM     29  C   UNL A   1      32.026  29.662  26.872  1.00  0.00     0.275 C 
BRANCH  29  30
ATOM     30  O   UNL A   1      32.716  30.806  26.331  1.00  0.00    -0.458 OA
BRANCH  30  31
ATOM     31  C   UNL A   1      33.250  31.646  27.252  1.00  0.00     0.338 C 
ATOM     32  O   UNL A   1      32.716  32.635  27.728  1.00  0.00    -0.246 OA
BRANCH  31  33
ATOM     33  C   UNL A   1      34.616  31.229  27.637  1.00  0.00     0.060 A 
ATOM     34  C   UNL A   1      34.903  29.900  27.923  1.00  0.00     0.016 A 
ATOM     35  C   UNL A   1      35.589  32.206  27.872  1.00  0.00     0.016 A 
ATOM     36  C   UNL A   1      36.117  29.575  28.541  1.00  0.00     0.010 A 
ATOM     37  C   UNL A   1      36.832  31.859  28.428  1.00  0.00     0.010 A 
ATOM     38  C   UNL A   1      37.094  30.542  28.836  1.00  0.00    -0.014 A 
BRANCH  38  39
ATOM     39  C   UNL A   1      38.298  30.193  29.666  1.00  0.00     0.031 A 
ATOM     40  C   UNL A   1      39.452  29.420  29.061  1.00  0.00     0.074 A 
ATOM     41  C   UNL A   1      38.435  30.626  30.939  1.00  0.00     0.049 A 
ATOM     42  N   UNL A   1      40.487  28.882  29.657  1.00  0.00    -0.248 NA
ATOM     43  C   UNL A   1      39.443  29.226  27.601  1.00  0.00     0.031 C 
ATOM     44  C   UNL A   1      37.463  31.440  31.661  1.00  0.00     0.029 A 
ATOM     45  N   UNL A   1      39.467  30.478  31.842  1.00  0.00    -0.354 N 
ATOM     46  C   UNL A   1      41.189  28.199  28.670  1.00  0.00     0.074 A 
ATOM     47  C   UNL A   1      40.493  28.434  27.424  1.00  0.00     0.031 C 
ATOM     48  C   UNL A   1      37.985  31.818  32.837  1.00  0.00     0.029 A 
ATOM     49  C   UNL A   1      39.270  31.154  33.028  1.00  0.00     0.049 A 
ATOM     50  H   UNL A   1      40.270  29.940  31.657  1.00  0.00     0.167 HD
ATOM     51  C   UNL A   1      42.300  27.432  28.790  1.00  0.00     0.034 A 
ATOM     52  C   UNL A   1      40.006  31.201  34.160  1.00  0.00     0.034 A 
ATOM     53  C   UNL A   1      43.042  27.253  30.010  1.00  0.00     0.049 A 
ATOM     54  C   UNL A   1      41.230  30.333  34.273  1.00  0.00     0.074 A 
ATOM     55  C   UNL A   1      44.131  26.429  30.243  1.00  0.00     0.029 A 
ATOM     56  N   UNL A   1      42.796  27.929  31.193  1.00  0.00    -0.354 N 
ATOM     57  N   UNL A   1      41.823  29.612  33.353  1.00  0.00    -0.248 NA
ATOM     58  C   UNL A   1      41.866  30.255  35.598  1.00  0.00     0.031 C 
ATOM     59  C   UNL A   1      44.542  26.608  31.569  1.00  0.00     0.029 A 
ATOM     60  C   UNL A   1      43.717  27.553  32.155  1.00  0.00     0.049 A 
ATOM     61  H   UNL A   1      42.072  28.583  31.329  1.00  0.00     0.167 HD
ATOM     62  C   UNL A   1      42.891  28.988  33.990  1.00  0.00     0.074 A 
ATOM     63  C   UNL A   1      42.901  29.461  35.358  1.00  0.00     0.031 C 
ATOM     64  C   UNL A   1      43.755  28.068  33.499  1.00  0.00     0.034 A 
BRANCH  51  65
ATOM     65  C   UNL A   1      42.777  26.693  27.569  1.00  0.00     0.023 A 
ATOM     66  C   UNL A   1      43.627  27.326  26.643  1.00  0.00     0.012 A 
ATOM     67  C   UNL A   1      42.426  25.341  27.378  1.00  0.00     0.148 A 
ATOM     68  C   UNL A   1      44.107  26.627  25.533  1.00  0.00     0.002 A 
ATOM     69  C   UNL A   1      42.935  24.641  26.292  1.00  0.00     0.091 A 
ATOM     70  F   UNL A   1      41.597  24.767  28.263  1.00  0.00    -0.205 F 
ATOM     71  C   UNL A   1      43.771  25.285  25.364  1.00  0.00     0.022 A 
BRANCH  69  72
ATOM     72  S   UNL A   1      42.610  22.894  26.029  1.00  0.00     0.127 S 
ATOM     73  O   UNL A   1      43.060  22.716  24.649  1.00  0.00    -0.237 OA
ATOM     74  O   UNL A   1      43.467  22.265  27.035  1.00  0.00    -0.237 OA
ATOM     75  O   UNL A   1      41.183  22.714  26.250  1.00  0.00    -0.744 OA
ENDBRANCH  69  72
ENDBRANCH  51  65
BRANCH  52  76
ATOM     76  C   UNL A   1      39.596  32.072  35.303  1.00  0.00     0.023 A 
ATOM     77  C   UNL A   1      38.830  31.527  36.353  1.00  0.00     0.012 A 
ATOM     78  C   UNL A   1      39.961  33.430  35.372  1.00  0.00     0.148 A 
ATOM     79  C   UNL A   1      38.427  32.317  37.433  1.00  0.00     0.002 A 
ATOM     80  C   UNL A   1      39.637  34.186  36.492  1.00  0.00     0.091 A 
ATOM     81  F   UNL A   1      40.631  33.968  34.342  1.00  0.00    -0.205 F 
ATOM     82  C   UNL A   1      38.850  33.641  37.514  1.00  0.00     0.022 A 
BRANCH  80  83
ATOM     83  S   UNL A   1      40.341  35.821  36.729  1.00  0.00     0.127 S 
ATOM     84  O   UNL A   1      39.889  36.157  38.076  1.00  0.00    -0.237 OA
ATOM     85  O   UNL A   1      41.777  35.569  36.604  1.00  0.00    -0.237 OA
ATOM     86  O   UNL A   1      39.787  36.619  35.640  1.00  0.00    -0.744 OA
ENDBRANCH  80  83
ENDBRANCH  52  76
BRANCH  64  87
ATOM     87  C   UNL A   1      44.789  27.510  34.439  1.00  0.00     0.023 A 
ATOM     88  C   UNL A   1      45.989  28.220  34.647  1.00  0.00     0.012 A 
ATOM     89  C   UNL A   1      44.555  26.323  35.159  1.00  0.00     0.148 A 
ATOM     90  C   UNL A   1      46.951  27.743  35.535  1.00  0.00     0.002 A 
ATOM     91  C   UNL A   1      45.502  25.874  36.074  1.00  0.00     0.091 A 
ATOM     92  F   UNL A   1      43.417  25.652  34.932  1.00  0.00    -0.205 F 
ATOM     93  C   UNL A   1      46.704  26.577  36.256  1.00  0.00     0.022 A 
BRANCH  91  94
ATOM     94  S   UNL A   1      45.235  24.426  37.102  1.00  0.00     0.127 S 
ATOM     95  O   UNL A   1      44.123  24.860  37.945  1.00  0.00    -0.237 OA
ATOM     96  O   UNL A   1      44.888  23.402  36.115  1.00  0.00    -0.237 OA
ATOM     97  O   UNL A   1      46.495  24.192  37.796  1.00  0.00    -0.744 OA
ENDBRANCH  91  94
ENDBRANCH  64  87
ENDBRANCH  38  39
ENDBRANCH  31  33
ENDBRANCH  30  31
ENDBRANCH  29  30
ENDBRANCH   1  29
TORSDOF 21
ENDMDL
MODEL 2
REMARK VINA RESULT:     -11.7      4.550      9.723
REMARK SMILES CC(C)(C)OC(=O)N1CCC[C@H]1C(=O)N[C@@H](Cc1ccccc1)C(=O)OCCOC(=O)c1ccc(-c2c3nc(c(-c4cccc(S(=O)(=O)[O-])c4F)c4ccc([nH]4)c(-c4cccc(S(=O)(=O)[O-])c4F)c4nc(c(-c5cccc(S(=O)(=O)[O-])c5F)c5ccc2[nH]5)C=C4)C=C3)cc1
REMARK SMILES IDX 27 1 26 2 24 3 25 4 16 5 15 6 13 7 14 8 12 10 8 11 9 12
REMARK SMILES IDX 10 13 11 14 6 15 7 16 5 17 2 18 1 19 3 20 4 21 17 22 18 23
REMARK SMILES IDX 19 24 23 25 20 26 22 27 21 28 28 29 29 30 30 31 31 32 32 33
REMARK SMILES IDX 33 34 94 35 34 36 93 37 35 38 36 39 37 40 87 41 38 42 92 43
REMARK SMILES IDX 86 44 88 45 39 46 91 47 85 48 84 49 40 51 72 52 52 53 71 54
REMARK SMILES IDX 53 55 56 56 70 57 89 58 54 59 55 60 69 62 90 63 57 64 41 65
REMARK SMILES IDX 42 66 50 67 43 68 45 69 51 70 44 71 46 72 47 73 48 74 49 75
REMARK SMILES IDX 73 76 74 77 82 78 75 79 77 80 83 81 76 82 78 83 79 84 80 85
REMARK SMILES IDX 81 86 58 87 59 88 67 89 60 90 62 91 68 92 61 93 63 94 64 95
REMARK SMILES IDX 65 96 66 97
REMARK H PARENT 15 9 88 50 56 61
REMARK Flexibility Score: inf
ROOT
ATOM      1  C   UNL A   1      34.466  22.398  24.149  1.00  0.00     0.274 C 
ENDROOT
BRANCH   1   2
ATOM      2  O   UNL A   1      33.942  23.630  24.675  1.00  0.00    -0.461 OA
BRANCH   2   3
ATOM      3  C   UNL A   1      32.819  24.076  24.050  1.00  0.00     0.329 C 
ATOM      4  O   UNL A   1      32.318  23.544  23.063  1.00  0.00    -0.250 OA
BRANCH   3   5
ATOM      5  C   UNL A   1      32.223  25.324  24.706  1.00  0.00     0.196 C 
BRANCH   5   6
ATOM      6  N   UNL A   1      30.762  25.401  24.741  1.00  0.00    -0.341 N 
ATOM      7  C   UNL A   1      29.885  26.202  24.076  1.00  0.00     0.243 C 
ATOM      8  O   UNL A   1      28.735  26.205  24.539  1.00  0.00    -0.273 OA
ATOM      9  H   UNL A   1      30.338  24.759  25.355  1.00  0.00     0.164 HD
BRANCH   7  10
ATOM     10  C   UNL A   1      30.269  27.202  22.931  1.00  0.00     0.178 C 
ATOM     11  N   UNL A   1      31.003  28.415  23.272  1.00  0.00    -0.296 N 
ATOM     12  C   UNL A   1      32.423  28.182  23.173  1.00  0.00     0.124 C 
ATOM     13  C   UNL A   1      32.571  27.179  22.047  1.00  0.00     0.024 C 
ATOM     14  C   UNL A   1      31.208  26.491  21.932  1.00  0.00     0.037 C 
BRANCH  11  15
ATOM     15  C   UNL A   1      30.387  29.622  23.518  1.00  0.00     0.410 C 
ATOM     16  O   UNL A   1      30.527  30.205  24.587  1.00  0.00    -0.224 OA
BRANCH  15  17
ATOM     17  O   UNL A   1      29.769  30.140  22.424  1.00  0.00    -0.444 OA
BRANCH  17  18
ATOM     18  C   UNL A   1      28.363  30.564  22.383  1.00  0.00     0.106 C 
ATOM     19  C   UNL A   1      27.538  29.343  22.804  1.00  0.00     0.056 C 
ATOM     20  C   UNL A   1      27.993  30.915  20.935  1.00  0.00     0.056 C 
ATOM     21  C   UNL A   1      27.986  31.742  23.285  1.00  0.00     0.056 C 
ENDBRANCH  17  18
ENDBRANCH  15  17
ENDBRANCH  11  15
ENDBRANCH   7  10
ENDBRANCH   5   6
BRANCH   5  22
ATOM     22  C   UNL A   1      32.832  25.540  26.106  1.00  0.00     0.072 C 
BRANCH  22  23
ATOM     23  C   UNL A   1      32.879  26.992  26.534  1.00  0.00    -0.045 A 
ATOM     24  C   UNL A   1      33.997  27.789  26.260  1.00  0.00     0.004 A 
ATOM     25  C   UNL A   1      31.772  27.569  27.172  1.00  0.00     0.004 A 
ATOM     26  C   UNL A   1      33.994  29.142  26.603  1.00  0.00     0.000 A 
ATOM     27  C   UNL A   1      31.765  28.924  27.499  1.00  0.00     0.000 A 
ATOM     28  C   UNL A   1      32.876  29.711  27.212  1.00  0.00     0.000 A 
ENDBRANCH  22  23
ENDBRANCH   5  22
ENDBRANCH   3   5
ENDBRANCH   2   3
ENDBRANCH   1   2
BRANCH   1  29
ATOM     29  C   UNL A   1      35.520  21.828  25.092  1.00  0.00     0.275 C 
BRANCH  29  30
ATOM     30  O   UNL A   1      36.840  21.968  24.530  1.00  0.00    -0.458 OA
BRANCH  30  31
ATOM     31  C   UNL A   1      37.848  21.489  25.300  1.00  0.00     0.338 C 
ATOM     32  O   UNL A   1      38.217  20.328  25.372  1.00  0.00    -0.246 OA
BRANCH  31  33
ATOM     33  C   UNL A   1      38.483  22.566  26.092  1.00  0.00     0.060 A 
ATOM     34  C   UNL A   1      37.911  23.830  26.165  1.00  0.00     0.016 A 
ATOM     35  C   UNL A   1      39.753  22.355  26.638  1.00  0.00     0.016 A 
ATOM     36  C   UNL A   1      38.657  24.894  26.685  1.00  0.00     0.010 A 
ATOM     37  C   UNL A   1      40.466  23.417  27.221  1.00  0.00     0.010 A 
ATOM     38  C   UNL A   1      39.957  24.724  27.195  1.00  0.00    -0.014 A 
BRANCH  38  39
ATOM     39  C   UNL A   1      40.799  25.912  27.570  1.00  0.00     0.031 A 
ATOM     40  C   UNL A   1      40.281  26.944  28.551  1.00  0.00     0.074 A 
ATOM     41  C   UNL A   1      42.066  26.055  27.124  1.00  0.00     0.049 A 
ATOM     42  N   UNL A   1      40.785  28.113  28.862  1.00  0.00    -0.248 NA
ATOM     43  C   UNL A   1      39.039  26.625  29.275  1.00  0.00     0.031 C 
ATOM     44  C   UNL A   1      42.756  25.126  26.234  1.00  0.00     0.029 A 
ATOM     45  N   UNL A   1      43.019  27.016  27.389  1.00  0.00    -0.354 N 
ATOM     46  C   UNL A   1      39.874  28.708  29.727  1.00  0.00     0.074 A 
ATOM     47  C   UNL A   1      38.809  27.752  29.936  1.00  0.00     0.031 C 
ATOM     48  C   UNL A   1      44.042  25.489  26.122  1.00  0.00     0.029 A 
ATOM     49  C   UNL A   1      44.243  26.761  26.807  1.00  0.00     0.049 A 
ATOM     50  H   UNL A   1      42.842  27.810  27.943  1.00  0.00     0.167 HD
ATOM     51  C   UNL A   1      39.909  29.945  30.282  1.00  0.00     0.034 A 
ATOM     52  C   UNL A   1      45.384  27.483  26.780  1.00  0.00     0.034 A 
ATOM     53  C   UNL A   1      40.998  30.874  30.139  1.00  0.00     0.049 A 
ATOM     54  C   UNL A   1      45.395  28.858  27.395  1.00  0.00     0.074 A 
ATOM     55  C   UNL A   1      41.083  32.179  30.598  1.00  0.00     0.029 A 
ATOM     56  N   UNL A   1      42.204  30.592  29.521  1.00  0.00    -0.354 N 
ATOM     57  N   UNL A   1      44.481  29.446  28.126  1.00  0.00    -0.248 NA
ATOM     58  C   UNL A   1      46.587  29.685  27.145  1.00  0.00     0.031 C 
ATOM     59  C   UNL A   1      42.343  32.685  30.255  1.00  0.00     0.029 A 
ATOM     60  C   UNL A   1      43.044  31.691  29.595  1.00  0.00     0.049 A 
ATOM     61  H   UNL A   1      42.431  29.736  29.092  1.00  0.00     0.167 HD
ATOM     62  C   UNL A   1      44.981  30.712  28.413  1.00  0.00     0.074 A 
ATOM     63  C   UNL A   1      46.303  30.786  27.828  1.00  0.00     0.031 C 
ATOM     64  C   UNL A   1      44.379  31.739  29.059  1.00  0.00     0.034 A 
BRANCH  51  65
ATOM     65  C   UNL A   1      38.713  30.388  31.081  1.00  0.00     0.023 A 
ATOM     66  C   UNL A   1      38.653  30.141  32.465  1.00  0.00     0.012 A 
ATOM     67  C   UNL A   1      37.675  31.110  30.458  1.00  0.00     0.148 A 
ATOM     68  C   UNL A   1      37.566  30.592  33.215  1.00  0.00     0.002 A 
ATOM     69  C   UNL A   1      36.613  31.587  31.217  1.00  0.00     0.091 A 
ATOM     70  F   UNL A   1      37.744  31.314  29.134  1.00  0.00    -0.205 F 
ATOM     71  C   UNL A   1      36.553  31.323  32.595  1.00  0.00     0.022 A 
BRANCH  69  72
ATOM     72  S   UNL A   1      35.299  32.592  30.516  1.00  0.00     0.127 S 
ATOM     73  O   UNL A   1      34.851  31.755  29.403  1.00  0.00    -0.237 OA
ATOM     74  O   UNL A   1      34.354  32.684  31.629  1.00  0.00    -0.237 OA
ATOM     75  O   UNL A   1      35.918  33.854  30.139  1.00  0.00    -0.744 OA
ENDBRANCH  69  72
ENDBRANCH  51  65
BRANCH  52  76
ATOM     76  C   UNL A   1      46.613  26.949  26.117  1.00  0.00     0.023 A 
ATOM     77  C   UNL A   1      46.750  27.054  24.718  1.00  0.00     0.012 A 
ATOM     78  C   UNL A   1      47.652  26.346  26.851  1.00  0.00     0.148 A 
ATOM     79  C   UNL A   1      47.885  26.558  24.069  1.00  0.00     0.002 A 
ATOM     80  C   UNL A   1      48.817  25.940  26.211  1.00  0.00     0.091 A 
ATOM     81  F   UNL A   1      47.494  26.184  28.173  1.00  0.00    -0.205 F 
ATOM     82  C   UNL A   1      48.928  26.022  24.818  1.00  0.00     0.022 A 
BRANCH  80  83
ATOM     83  S   UNL A   1      50.259  25.445  27.161  1.00  0.00     0.127 S 
ATOM     84  O   UNL A   1      49.791  24.226  27.814  1.00  0.00    -0.237 OA
ATOM     85  O   UNL A   1      51.268  25.240  26.122  1.00  0.00    -0.237 OA
ATOM     86  O   UNL A   1      50.532  26.584  28.030  1.00  0.00    -0.744 OA
ENDBRANCH  80  83
ENDBRANCH  52  76
BRANCH  64  87
ATOM     87  C   UNL A   1      45.140  33.032  29.176  1.00  0.00     0.023 A 
ATOM     88  C   UNL A   1      46.092  33.183  30.204  1.00  0.00     0.012 A 
ATOM     89  C   UNL A   1      44.960  34.070  28.242  1.00  0.00     0.148 A 
ATOM     90  C   UNL A   1      46.833  34.358  30.318  1.00  0.00     0.002 A 
ATOM     91  C   UNL A   1      45.731  35.223  28.337  1.00  0.00     0.091 A 
ATOM     92  F   UNL A   1      44.035  33.915  27.283  1.00  0.00    -0.205 F 
ATOM     93  C   UNL A   1      46.661  35.373  29.380  1.00  0.00     0.022 A 
BRANCH  91  94
ATOM     94  S   UNL A   1      45.633  36.549  27.129  1.00  0.00     0.127 S 
ATOM     95  O   UNL A   1      44.199  36.589  26.847  1.00  0.00    -0.237 OA
ATOM     96  O   UNL A   1      46.139  37.696  27.883  1.00  0.00    -0.237 OA
ATOM     97  O   UNL A   1      46.481  36.138  26.017  1.00  0.00    -0.744 OA
ENDBRANCH  91  94
ENDBRANCH  64  87
ENDBRANCH  38  39
ENDBRANCH  31  33
ENDBRANCH  30  31
ENDBRANCH  29  30
ENDBRANCH   1  29
TORSDOF 21
ENDMDL
MODEL 3
REMARK VINA RESULT:     -11.4      5.317      8.555
REMARK SMILES CC(C)(C)OC(=O)N1CCC[C@H]1C(=O)N[C@@H](Cc1ccccc1)C(=O)OCCOC(=O)c1ccc(-c2c3nc(c(-c4cccc(S(=O)(=O)[O-])c4F)c4ccc([nH]4)c(-c4cccc(S(=O)(=O)[O-])c4F)c4nc(c(-c5cccc(S(=O)(=O)[O-])c5F)c5ccc2[nH]5)C=C4)C=C3)cc1
REMARK SMILES IDX 27 1 26 2 24 3 25 4 16 5 15 6 13 7 14 8 12 10 8 11 9 12
REMARK SMILES IDX 10 13 11 14 6 15 7 16 5 17 2 18 1 19 3 20 4 21 17 22 18 23
REMARK SMILES IDX 19 24 23 25 20 26 22 27 21 28 28 29 29 30 30 31 31 32 32 33
REMARK SMILES IDX 33 34 94 35 34 36 93 37 35 38 36 39 37 40 87 41 38 42 92 43
REMARK SMILES IDX 86 44 88 45 39 46 91 47 85 48 84 49 40 51 72 52 52 53 71 54
REMARK SMILES IDX 53 55 56 56 70 57 89 58 54 59 55 60 69 62 90 63 57 64 41 65
REMARK SMILES IDX 42 66 50 67 43 68 45 69 51 70 44 71 46 72 47 73 48 74 49 75
REMARK SMILES IDX 73 76 74 77 82 78 75 79 77 80 83 81 76 82 78 83 79 84 80 85
REMARK SMILES IDX 81 86 58 87 59 88 67 89 60 90 62 91 68 92 61 93 63 94 64 95
REMARK SMILES IDX 65 96 66 97
REMARK H PARENT 15 9 88 50 56 61
REMARK Flexibility Score: inf
ROOT
ATOM      1  C   UNL A   1      37.120  21.833  25.752  1.00  0.00     0.274 C 
ENDROOT
BRANCH   1   2
ATOM      2  O   UNL A   1      35.913  21.237  25.245  1.00  0.00    -0.461 OA
BRANCH   2   3
ATOM      3  C   UNL A   1      34.793  21.550  25.952  1.00  0.00     0.329 C 
ATOM      4  O   UNL A   1      34.728  21.562  27.178  1.00  0.00    -0.250 OA
BRANCH   3   5
ATOM      5  C   UNL A   1      33.599  21.899  25.059  1.00  0.00     0.196 C 
BRANCH   5   6
ATOM      6  N   UNL A   1      33.909  22.268  23.678  1.00  0.00    -0.341 N 
ATOM      7  C   UNL A   1      33.505  23.319  22.913  1.00  0.00     0.243 C 
ATOM      8  O   UNL A   1      33.725  23.189  21.700  1.00  0.00    -0.273 OA
ATOM      9  H   UNL A   1      34.518  21.645  23.221  1.00  0.00     0.164 HD
BRANCH   7  10
ATOM     10  C   UNL A   1      32.664  24.538  23.430  1.00  0.00     0.178 C 
ATOM     11  N   UNL A   1      33.324  25.827  23.601  1.00  0.00    -0.296 N 
ATOM     12  C   UNL A   1      33.211  26.609  22.395  1.00  0.00     0.124 C 
ATOM     13  C   UNL A   1      31.871  26.215  21.807  1.00  0.00     0.024 C 
ATOM     14  C   UNL A   1      31.544  24.848  22.413  1.00  0.00     0.037 C 
BRANCH  11  15
ATOM     15  C   UNL A   1      33.853  26.247  24.802  1.00  0.00     0.410 C 
ATOM     16  O   UNL A   1      34.469  25.479  25.533  1.00  0.00    -0.224 OA
BRANCH  15  17
ATOM     17  O   UNL A   1      33.756  27.590  24.988  1.00  0.00    -0.444 OA
BRANCH  17  18
ATOM     18  C   UNL A   1      32.746  28.243  25.830  1.00  0.00     0.106 C 
ATOM     19  C   UNL A   1      31.436  27.484  25.591  1.00  0.00     0.056 C 
ATOM     20  C   UNL A   1      32.557  29.688  25.349  1.00  0.00     0.056 C 
ATOM     21  C   UNL A   1      33.030  28.262  27.335  1.00  0.00     0.056 C 
ENDBRANCH  17  18
ENDBRANCH  15  17
ENDBRANCH  11  15
ENDBRANCH   7  10
ENDBRANCH   5   6
BRANCH   5  22
ATOM     22  C   UNL A   1      32.538  20.782  25.119  1.00  0.00     0.072 C 
BRANCH  22  23
ATOM     23  C   UNL A   1      32.890  19.560  24.298  1.00  0.00    -0.045 A 
ATOM     24  C   UNL A   1      33.856  18.647  24.738  1.00  0.00     0.004 A 
ATOM     25  C   UNL A   1      32.209  19.303  23.098  1.00  0.00     0.004 A 
ATOM     26  C   UNL A   1      34.118  17.492  24.000  1.00  0.00     0.000 A 
ATOM     27  C   UNL A   1      32.460  18.141  22.372  1.00  0.00     0.000 A 
ATOM     28  C   UNL A   1      33.414  17.234  22.824  1.00  0.00     0.000 A 
ENDBRANCH  22  23
ENDBRANCH   5  22
ENDBRANCH   3   5
ENDBRANCH   2   3
ENDBRANCH   1   2
BRANCH   1  29
ATOM     29  C   UNL A   1      38.339  21.091  25.214  1.00  0.00     0.275 C 
BRANCH  29  30
ATOM     30  O   UNL A   1      38.883  20.206  26.214  1.00  0.00    -0.458 OA
BRANCH  30  31
ATOM     31  C   UNL A   1      40.220  19.993  26.129  1.00  0.00     0.338 C 
ATOM     32  O   UNL A   1      40.768  18.964  25.767  1.00  0.00    -0.246 OA
BRANCH  31  33
ATOM     33  C   UNL A   1      40.986  21.187  26.547  1.00  0.00     0.060 A 
ATOM     34  C   UNL A   1      40.803  21.748  27.805  1.00  0.00     0.016 A 
ATOM     35  C   UNL A   1      41.783  21.852  25.609  1.00  0.00     0.016 A 
ATOM     36  C   UNL A   1      41.328  23.018  28.075  1.00  0.00     0.010 A 
ATOM     37  C   UNL A   1      42.362  23.095  25.915  1.00  0.00     0.010 A 
ATOM     38  C   UNL A   1      42.089  23.734  27.134  1.00  0.00    -0.014 A 
BRANCH  38  39
ATOM     39  C   UNL A   1      42.476  25.165  27.385  1.00  0.00     0.031 A 
ATOM     40  C   UNL A   1      43.777  25.718  26.841  1.00  0.00     0.074 A 
ATOM     41  C   UNL A   1      41.648  26.026  28.017  1.00  0.00     0.049 A 
ATOM     42  N   UNL A   1      44.357  26.865  27.096  1.00  0.00    -0.248 NA
ATOM     43  C   UNL A   1      44.523  24.877  25.890  1.00  0.00     0.031 C 
ATOM     44  C   UNL A   1      40.328  25.692  28.543  1.00  0.00     0.029 A 
ATOM     45  N   UNL A   1      41.773  27.371  28.290  1.00  0.00    -0.354 N 
ATOM     46  C   UNL A   1      45.577  26.837  26.429  1.00  0.00     0.074 A 
ATOM     47  C   UNL A   1      45.633  25.582  25.712  1.00  0.00     0.031 C 
ATOM     48  C   UNL A   1      39.720  26.811  28.963  1.00  0.00     0.029 A 
ATOM     49  C   UNL A   1      40.657  27.926  28.881  1.00  0.00     0.049 A 
ATOM     50  H   UNL A   1      42.585  27.888  28.083  1.00  0.00     0.167 HD
ATOM     51  C   UNL A   1      46.568  27.762  26.426  1.00  0.00     0.034 A 
ATOM     52  C   UNL A   1      40.422  29.171  29.349  1.00  0.00     0.034 A 
ATOM     53  C   UNL A   1      46.491  29.044  27.075  1.00  0.00     0.049 A 
ATOM     54  C   UNL A   1      41.541  30.178  29.344  1.00  0.00     0.074 A 
ATOM     55  C   UNL A   1      47.478  30.010  27.195  1.00  0.00     0.029 A 
ATOM     56  N   UNL A   1      45.359  29.557  27.685  1.00  0.00    -0.354 N 
ATOM     57  N   UNL A   1      42.728  30.095  28.795  1.00  0.00    -0.248 NA
ATOM     58  C   UNL A   1      41.299  31.439  30.063  1.00  0.00     0.031 C 
ATOM     59  C   UNL A   1      46.939  31.107  27.878  1.00  0.00     0.029 A 
ATOM     60  C   UNL A   1      45.615  30.828  28.171  1.00  0.00     0.049 A 
ATOM     61  H   UNL A   1      44.497  29.086  27.760  1.00  0.00     0.167 HD
ATOM     62  C   UNL A   1      43.376  31.285  29.110  1.00  0.00     0.074 A 
ATOM     63  C   UNL A   1      42.431  32.097  29.848  1.00  0.00     0.031 C 
ATOM     64  C   UNL A   1      44.655  31.652  28.856  1.00  0.00     0.034 A 
BRANCH  51  65
ATOM     65  C   UNL A   1      47.850  27.413  25.720  1.00  0.00     0.023 A 
ATOM     66  C   UNL A   1      48.905  26.802  26.422  1.00  0.00     0.012 A 
ATOM     67  C   UNL A   1      47.977  27.637  24.333  1.00  0.00     0.148 A 
ATOM     68  C   UNL A   1      50.077  26.436  25.758  1.00  0.00     0.002 A 
ATOM     69  C   UNL A   1      49.131  27.238  23.672  1.00  0.00     0.091 A 
ATOM     70  F   UNL A   1      46.966  28.240  23.690  1.00  0.00    -0.205 F 
ATOM     71  C   UNL A   1      50.186  26.643  24.384  1.00  0.00     0.022 A 
BRANCH  69  72
ATOM     72  S   UNL A   1      49.333  27.404  21.895  1.00  0.00     0.127 S 
ATOM     73  O   UNL A   1      49.185  28.848  21.716  1.00  0.00    -0.237 OA
ATOM     74  O   UNL A   1      50.691  26.901  21.689  1.00  0.00    -0.237 OA
ATOM     75  O   UNL A   1      48.287  26.589  21.294  1.00  0.00    -0.744 OA
ENDBRANCH  69  72
ENDBRANCH  51  65
BRANCH  52  76
ATOM     76  C   UNL A   1      39.082  29.542  29.900  1.00  0.00     0.023 A 
ATOM     77  C   UNL A   1      38.765  29.216  31.234  1.00  0.00     0.012 A 
ATOM     78  C   UNL A   1      38.121  30.219  29.126  1.00  0.00     0.148 A 
ATOM     79  C   UNL A   1      37.519  29.544  31.776  1.00  0.00     0.002 A 
ATOM     80  C   UNL A   1      36.921  30.625  29.699  1.00  0.00     0.091 A 
ATOM     81  F   UNL A   1      38.395  30.469  27.837  1.00  0.00    -0.205 F 
ATOM     82  C   UNL A   1      36.606  30.269  31.016  1.00  0.00     0.022 A 
BRANCH  80  83
ATOM     83  S   UNL A   1      35.818  31.738  28.821  1.00  0.00     0.127 S 
ATOM     84  O   UNL A   1      36.711  32.837  28.466  1.00  0.00    -0.237 OA
ATOM     85  O   UNL A   1      35.370  30.918  27.695  1.00  0.00    -0.237 OA
ATOM     86  O   UNL A   1      34.765  32.041  29.783  1.00  0.00    -0.744 OA
ENDBRANCH  80  83
ENDBRANCH  52  76
BRANCH  64  87
ATOM     87  C   UNL A   1      45.113  32.989  29.371  1.00  0.00     0.023 A 
ATOM     88  C   UNL A   1      45.736  33.068  30.632  1.00  0.00     0.012 A 
ATOM     89  C   UNL A   1      44.984  34.154  28.589  1.00  0.00     0.148 A 
ATOM     90  C   UNL A   1      46.198  34.289  31.121  1.00  0.00     0.002 A 
ATOM     91  C   UNL A   1      45.483  35.361  29.066  1.00  0.00     0.091 A 
ATOM     92  F   UNL A   1      44.370  34.062  27.401  1.00  0.00    -0.205 F 
ATOM     93  C   UNL A   1      46.082  35.433  30.335  1.00  0.00     0.022 A 
BRANCH  91  94
ATOM     94  S   UNL A   1      45.447  36.869  28.090  1.00  0.00     0.127 S 
ATOM     95  O   UNL A   1      46.032  37.837  29.016  1.00  0.00    -0.237 OA
ATOM     96  O   UNL A   1      46.297  36.524  26.950  1.00  0.00    -0.237 OA
ATOM     97  O   UNL A   1      44.047  37.091  27.751  1.00  0.00    -0.744 OA
ENDBRANCH  91  94
ENDBRANCH  64  87
ENDBRANCH  38  39
ENDBRANCH  31  33
ENDBRANCH  30  31
ENDBRANCH  29  30
ENDBRANCH   1  29
TORSDOF 21
ENDMDL
