MODEL 1
REMARK VINA RESULT:     -12.7      0.000      0.000
REMARK SMILES Cc1ccc(NC(=O)[C@H]2CC=CC[C@H]2C(=O)OCCOC(=O)c2ccc(-c3c4nc(c(-c5cccc(S(=O)(=O)[O-])c5F)c5ccc([nH]5)c(-c5cccc(S(=O)(=O)[O-])c5F)c5nc(c(-c6cccc(S(=O)(=O)[O-])c6F)c6ccc3[nH]6)C=C5)C=C4)cc2)cc1F
REMARK SMILES IDX 19 1 18 2 17 3 15 4 16 5 14 6 9 7 10 8 11 9 13 10 12 11 7 12
REMARK SMILES IDX 6 13 8 15 5 16 1 17 2 18 3 19 87 20 4 21 86 22 88 23 20 24
REMARK SMILES IDX 21 25 22 26 23 27 24 28 85 29 25 30 84 31 26 32 27 33 28 34
REMARK SMILES IDX 78 35 29 36 83 37 77 38 79 39 30 40 82 41 76 42 75 43 31 45
REMARK SMILES IDX 63 46 43 47 62 48 44 49 47 50 61 51 80 52 45 53 46 54 60 56
REMARK SMILES IDX 81 57 48 58 32 59 33 60 41 61 34 62 36 63 42 64 35 65 37 66
REMARK SMILES IDX 38 67 39 68 40 69 64 70 65 71 73 72 66 73 68 74 74 75 67 76
REMARK SMILES IDX 69 77 70 78 71 79 72 80 49 81 50 82 58 83 51 84 53 85 59 86
REMARK SMILES IDX 52 87 54 88 55 89 56 90 57 91
REMARK H PARENT 6 14 79 44 47 55
REMARK Flexibility Score: inf
ROOT
ATOM      1  C   UNL A   1      38.638  21.911  25.860  1.00  0.00     0.275 C 
ENDROOT
BRANCH   1   2
ATOM      2  C   UNL A   1      37.295  21.614  25.215  1.00  0.00     0.274 C 
BRANCH   2   3
ATOM      3  O   UNL A   1      36.654  22.847  24.885  1.00  0.00    -0.462 OA
BRANCH   3   4
ATOM      4  C   UNL A   1      35.479  23.060  25.530  1.00  0.00     0.310 C 
ATOM      5  O   UNL A   1      35.241  22.686  26.673  1.00  0.00    -0.252 OA
BRANCH   4   6
ATOM      6  C   UNL A   1      34.560  23.944  24.706  1.00  0.00     0.116 C 
ATOM      7  C   UNL A   1      33.167  23.341  24.422  1.00  0.00     0.097 C 
ATOM      8  C   UNL A   1      32.157  24.367  23.858  1.00  0.00     0.041 C 
ATOM      9  C   UNL A   1      32.463  25.818  24.077  1.00  0.00    -0.030 C 
ATOM     10  C   UNL A   1      34.544  25.339  25.339  1.00  0.00     0.043 C 
ATOM     11  C   UNL A   1      33.531  26.260  24.747  1.00  0.00    -0.030 C 
BRANCH   7  12
ATOM     12  C   UNL A   1      32.555  22.611  25.621  1.00  0.00     0.228 C 
ATOM     13  N   UNL A   1      32.566  21.252  25.788  1.00  0.00    -0.326 N 
ATOM     14  H   UNL A   1      32.139  20.983  26.634  1.00  0.00     0.169 HD
ATOM     15  O   UNL A   1      32.086  23.292  26.544  1.00  0.00    -0.274 OA
BRANCH  13  16
ATOM     16  C   UNL A   1      33.035  20.141  25.058  1.00  0.00     0.044 A 
ATOM     17  C   UNL A   1      34.222  16.552  22.908  1.00  0.00     0.047 C 
ATOM     18  C   UNL A   1      33.764  17.812  23.577  1.00  0.00    -0.015 A 
ATOM     19  C   UNL A   1      32.535  18.414  23.358  1.00  0.00     0.008 A 
ATOM     20  C   UNL A   1      34.596  18.431  24.493  1.00  0.00     0.128 A 
ATOM     21  C   UNL A   1      32.186  19.576  24.082  1.00  0.00     0.026 A 
ATOM     22  C   UNL A   1      34.275  19.572  25.211  1.00  0.00     0.065 A 
ATOM     23  F   UNL A   1      35.782  17.905  24.727  1.00  0.00    -0.207 F 
ENDBRANCH  13  16
ENDBRANCH   7  12
ENDBRANCH   4   6
ENDBRANCH   3   4
ENDBRANCH   2   3
ENDBRANCH   1   2
BRANCH   1  24
ATOM     24  O   UNL A   1      38.846  23.219  26.434  1.00  0.00    -0.458 OA
BRANCH  24  25
ATOM     25  C   UNL A   1      39.857  23.574  27.258  1.00  0.00     0.338 C 
ATOM     26  O   UNL A   1      40.679  22.870  27.818  1.00  0.00    -0.246 OA
BRANCH  25  27
ATOM     27  C   UNL A   1      39.682  25.023  27.500  1.00  0.00     0.060 A 
ATOM     28  C   UNL A   1      40.212  25.962  26.596  1.00  0.00     0.016 A 
ATOM     29  C   UNL A   1      39.163  25.433  28.729  1.00  0.00     0.016 A 
ATOM     30  C   UNL A   1      40.335  27.307  26.977  1.00  0.00     0.010 A 
ATOM     31  C   UNL A   1      39.299  26.753  29.108  1.00  0.00     0.010 A 
ATOM     32  C   UNL A   1      39.926  27.686  28.257  1.00  0.00    -0.014 A 
BRANCH  32  33
ATOM     33  C   UNL A   1      40.164  28.989  28.884  1.00  0.00     0.031 A 
ATOM     34  C   UNL A   1      39.126  30.036  28.755  1.00  0.00     0.074 A 
ATOM     35  C   UNL A   1      41.127  29.158  29.826  1.00  0.00     0.049 A 
ATOM     36  N   UNL A   1      39.309  31.275  29.066  1.00  0.00    -0.248 NA
ATOM     37  C   UNL A   1      37.799  29.784  28.192  1.00  0.00     0.031 C 
ATOM     38  C   UNL A   1      41.062  30.081  30.959  1.00  0.00     0.029 A 
ATOM     39  N   UNL A   1      42.390  28.593  29.956  1.00  0.00    -0.354 N 
ATOM     40  C   UNL A   1      38.064  31.849  29.151  1.00  0.00     0.074 A 
ATOM     41  C   UNL A   1      37.205  30.963  28.403  1.00  0.00     0.031 C 
ATOM     42  C   UNL A   1      42.275  30.185  31.518  1.00  0.00     0.029 A 
ATOM     43  C   UNL A   1      43.211  29.453  30.687  1.00  0.00     0.049 A 
ATOM     44  H   UNL A   1      42.663  27.722  29.588  1.00  0.00     0.167 HD
ATOM     45  C   UNL A   1      37.866  32.890  30.012  1.00  0.00     0.034 A 
ATOM     46  C   UNL A   1      44.432  29.905  30.284  1.00  0.00     0.034 A 
ATOM     47  C   UNL A   1      39.131  33.378  30.567  1.00  0.00     0.049 A 
ATOM     48  C   UNL A   1      44.431  31.403  30.073  1.00  0.00     0.074 A 
ATOM     49  C   UNL A   1      39.679  33.365  31.838  1.00  0.00     0.029 A 
ATOM     50  N   UNL A   1      40.149  33.787  29.708  1.00  0.00    -0.354 N 
ATOM     51  N   UNL A   1      43.366  32.135  30.231  1.00  0.00    -0.248 NA
ATOM     52  C   UNL A   1      45.565  32.185  29.586  1.00  0.00     0.031 C 
ATOM     53  C   UNL A   1      41.061  33.679  31.719  1.00  0.00     0.029 A 
ATOM     54  C   UNL A   1      41.343  33.929  30.386  1.00  0.00     0.049 A 
ATOM     55  H   UNL A   1      40.031  33.955  28.745  1.00  0.00     0.167 HD
ATOM     56  C   UNL A   1      43.594  33.401  29.776  1.00  0.00     0.074 A 
ATOM     57  C   UNL A   1      45.005  33.401  29.442  1.00  0.00     0.031 C 
ATOM     58  C   UNL A   1      42.569  34.297  29.672  1.00  0.00     0.034 A 
BRANCH  45  59
ATOM     59  C   UNL A   1      36.503  33.320  30.542  1.00  0.00     0.023 A 
ATOM     60  C   UNL A   1      36.138  33.209  31.905  1.00  0.00     0.012 A 
ATOM     61  C   UNL A   1      35.557  33.962  29.710  1.00  0.00     0.148 A 
ATOM     62  C   UNL A   1      34.909  33.646  32.410  1.00  0.00     0.002 A 
ATOM     63  C   UNL A   1      34.353  34.457  30.229  1.00  0.00     0.091 A 
ATOM     64  F   UNL A   1      35.812  34.121  28.404  1.00  0.00    -0.205 F 
ATOM     65  C   UNL A   1      34.014  34.282  31.571  1.00  0.00     0.022 A 
BRANCH  63  66
ATOM     66  S   UNL A   1      33.251  35.401  29.171  1.00  0.00     0.127 S 
ATOM     67  O   UNL A   1      34.163  36.322  28.501  1.00  0.00    -0.237 OA
ATOM     68  O   UNL A   1      32.618  34.377  28.347  1.00  0.00    -0.237 OA
ATOM     69  O   UNL A   1      32.343  36.046  30.123  1.00  0.00    -0.744 OA
ENDBRANCH  63  66
ENDBRANCH  45  59
BRANCH  46  70
ATOM     70  C   UNL A   1      45.246  28.923  29.535  1.00  0.00     0.023 A 
ATOM     71  C   UNL A   1      46.279  28.215  30.172  1.00  0.00     0.012 A 
ATOM     72  C   UNL A   1      45.242  29.018  28.128  1.00  0.00     0.148 A 
ATOM     73  C   UNL A   1      47.349  27.713  29.424  1.00  0.00     0.002 A 
ATOM     74  C   UNL A   1      46.317  28.536  27.392  1.00  0.00     0.091 A 
ATOM     75  F   UNL A   1      44.215  29.639  27.528  1.00  0.00    -0.205 F 
ATOM     76  C   UNL A   1      47.381  27.897  28.039  1.00  0.00     0.022 A 
BRANCH  74  77
ATOM     77  S   UNL A   1      46.418  28.889  25.630  1.00  0.00     0.127 S 
ATOM     78  O   UNL A   1      45.272  28.162  25.095  1.00  0.00    -0.237 OA
ATOM     79  O   UNL A   1      46.353  30.346  25.562  1.00  0.00    -0.237 OA
ATOM     80  O   UNL A   1      47.718  28.337  25.243  1.00  0.00    -0.744 OA
ENDBRANCH  74  77
ENDBRANCH  46  70
BRANCH  58  81
ATOM     81  C   UNL A   1      42.642  35.634  28.975  1.00  0.00     0.023 A 
ATOM     82  C   UNL A   1      41.996  35.770  27.720  1.00  0.00     0.012 A 
ATOM     83  C   UNL A   1      43.354  36.751  29.436  1.00  0.00     0.148 A 
ATOM     84  C   UNL A   1      42.030  36.958  26.985  1.00  0.00     0.002 A 
ATOM     85  C   UNL A   1      43.285  37.969  28.761  1.00  0.00     0.091 A 
ATOM     86  F   UNL A   1      44.163  36.648  30.499  1.00  0.00    -0.205 F 
ATOM     87  C   UNL A   1      42.647  38.077  27.524  1.00  0.00     0.022 A 
BRANCH  85  88
ATOM     88  S   UNL A   1      43.893  39.439  29.591  1.00  0.00     0.127 S 
ATOM     89  O   UNL A   1      43.390  40.515  28.740  1.00  0.00    -0.237 OA
ATOM     90  O   UNL A   1      43.307  39.342  30.924  1.00  0.00    -0.237 OA
ATOM     91  O   UNL A   1      45.346  39.275  29.556  1.00  0.00    -0.744 OA
ENDBRANCH  85  88
ENDBRANCH  58  81
ENDBRANCH  32  33
ENDBRANCH  25  27
ENDBRANCH  24  25
ENDBRANCH   1  24
TORSDOF 16
ENDMDL
MODEL 2
REMARK VINA RESULT:     -12.6      2.727      4.711
REMARK SMILES Cc1ccc(NC(=O)[C@H]2CC=CC[C@H]2C(=O)OCCOC(=O)c2ccc(-c3c4nc(c(-c5cccc(S(=O)(=O)[O-])c5F)c5ccc([nH]5)c(-c5cccc(S(=O)(=O)[O-])c5F)c5nc(c(-c6cccc(S(=O)(=O)[O-])c6F)c6ccc3[nH]6)C=C5)C=C4)cc2)cc1F
REMARK SMILES IDX 19 1 18 2 17 3 15 4 16 5 14 6 9 7 10 8 11 9 13 10 12 11 7 12
REMARK SMILES IDX 6 13 8 15 5 16 1 17 2 18 3 19 87 20 4 21 86 22 88 23 20 24
REMARK SMILES IDX 21 25 22 26 23 27 24 28 85 29 25 30 84 31 26 32 27 33 28 34
REMARK SMILES IDX 78 35 29 36 83 37 77 38 79 39 30 40 82 41 76 42 75 43 31 45
REMARK SMILES IDX 63 46 43 47 62 48 44 49 47 50 61 51 80 52 45 53 46 54 60 56
REMARK SMILES IDX 81 57 48 58 32 59 33 60 41 61 34 62 36 63 42 64 35 65 37 66
REMARK SMILES IDX 38 67 39 68 40 69 64 70 65 71 73 72 66 73 68 74 74 75 67 76
REMARK SMILES IDX 69 77 70 78 71 79 72 80 49 81 50 82 58 83 51 84 53 85 59 86
REMARK SMILES IDX 52 87 54 88 55 89 56 90 57 91
REMARK H PARENT 6 14 79 44 47 55
REMARK Flexibility Score: inf
ROOT
ATOM      1  C   UNL A   1      39.167  20.936  25.587  1.00  0.00     0.275 C 
ENDROOT
BRANCH   1   2
ATOM      2  C   UNL A   1      38.179  22.061  25.840  1.00  0.00     0.274 C 
BRANCH   2   3
ATOM      3  O   UNL A   1      36.931  21.732  25.229  1.00  0.00    -0.462 OA
BRANCH   3   4
ATOM      4  C   UNL A   1      35.850  22.316  25.806  1.00  0.00     0.310 C 
ATOM      5  O   UNL A   1      35.838  23.457  26.253  1.00  0.00    -0.252 OA
BRANCH   4   6
ATOM      6  C   UNL A   1      34.627  21.423  25.693  1.00  0.00     0.116 C 
ATOM      7  C   UNL A   1      33.375  22.114  25.110  1.00  0.00     0.097 C 
ATOM      8  C   UNL A   1      32.253  21.124  24.721  1.00  0.00     0.041 C 
ATOM      9  C   UNL A   1      32.645  19.692  24.518  1.00  0.00    -0.030 C 
ATOM     10  C   UNL A   1      35.042  20.131  24.982  1.00  0.00     0.043 C 
ATOM     11  C   UNL A   1      33.899  19.242  24.628  1.00  0.00    -0.030 C 
BRANCH   7  12
ATOM     12  C   UNL A   1      33.676  23.050  23.936  1.00  0.00     0.228 C 
ATOM     13  N   UNL A   1      33.531  24.411  23.973  1.00  0.00    -0.326 N 
ATOM     14  H   UNL A   1      33.796  24.832  23.123  1.00  0.00     0.169 HD
ATOM     15  O   UNL A   1      34.159  22.559  22.906  1.00  0.00    -0.274 OA
BRANCH  13  16
ATOM     16  C   UNL A   1      33.099  25.362  24.920  1.00  0.00     0.044 A 
ATOM     17  C   UNL A   1      31.544  28.391  27.626  1.00  0.00     0.047 C 
ATOM     18  C   UNL A   1      32.017  27.291  26.726  1.00  0.00    -0.015 A 
ATOM     19  C   UNL A   1      31.202  26.300  26.203  1.00  0.00     0.008 A 
ATOM     20  C   UNL A   1      33.351  27.244  26.360  1.00  0.00     0.128 A 
ATOM     21  C   UNL A   1      31.746  25.338  25.322  1.00  0.00     0.026 A 
ATOM     22  C   UNL A   1      33.906  26.309  25.502  1.00  0.00     0.065 A 
ATOM     23  F   UNL A   1      34.172  28.157  26.842  1.00  0.00    -0.207 F 
ENDBRANCH  13  16
ENDBRANCH   7  12
ENDBRANCH   4   6
ENDBRANCH   3   4
ENDBRANCH   2   3
ENDBRANCH   1   2
BRANCH   1  24
ATOM     24  O   UNL A   1      40.261  20.766  26.511  1.00  0.00    -0.458 OA
BRANCH  24  25
ATOM     25  C   UNL A   1      41.572  20.696  26.188  1.00  0.00     0.338 C 
ATOM     26  O   UNL A   1      42.179  19.808  25.617  1.00  0.00    -0.246 OA
BRANCH  25  27
ATOM     27  C   UNL A   1      42.202  21.875  26.825  1.00  0.00     0.060 A 
ATOM     28  C   UNL A   1      42.271  21.971  28.227  1.00  0.00     0.016 A 
ATOM     29  C   UNL A   1      42.540  22.963  26.019  1.00  0.00     0.016 A 
ATOM     30  C   UNL A   1      42.561  23.204  28.829  1.00  0.00     0.010 A 
ATOM     31  C   UNL A   1      42.811  24.178  26.613  1.00  0.00     0.010 A 
ATOM     32  C   UNL A   1      42.778  24.319  28.016  1.00  0.00    -0.014 A 
BRANCH  32  33
ATOM     33  C   UNL A   1      42.894  25.706  28.473  1.00  0.00     0.031 A 
ATOM     34  C   UNL A   1      41.677  26.548  28.494  1.00  0.00     0.074 A 
ATOM     35  C   UNL A   1      43.980  26.137  29.165  1.00  0.00     0.049 A 
ATOM     36  N   UNL A   1      41.689  27.828  28.660  1.00  0.00    -0.248 NA
ATOM     37  C   UNL A   1      40.334  26.021  28.256  1.00  0.00     0.031 C 
ATOM     38  C   UNL A   1      43.977  27.161  30.210  1.00  0.00     0.029 A 
ATOM     39  N   UNL A   1      45.325  25.804  29.058  1.00  0.00    -0.354 N 
ATOM     40  C   UNL A   1      40.403  28.196  28.971  1.00  0.00     0.074 A 
ATOM     41  C   UNL A   1      39.588  27.103  28.500  1.00  0.00     0.031 C 
ATOM     42  C   UNL A   1      45.238  27.524  30.480  1.00  0.00     0.029 A 
ATOM     43  C   UNL A   1      46.105  26.864  29.523  1.00  0.00     0.049 A 
ATOM     44  H   UNL A   1      45.673  24.953  28.708  1.00  0.00     0.167 HD
ATOM     45  C   UNL A   1      40.195  29.283  29.771  1.00  0.00     0.034 A 
ATOM     46  C   UNL A   1      47.114  27.460  28.829  1.00  0.00     0.034 A 
ATOM     47  C   UNL A   1      41.434  30.031  29.997  1.00  0.00     0.049 A 
ATOM     48  C   UNL A   1      46.796  28.903  28.508  1.00  0.00     0.074 A 
ATOM     49  C   UNL A   1      42.221  30.253  31.114  1.00  0.00     0.029 A 
ATOM     50  N   UNL A   1      42.165  30.500  28.907  1.00  0.00    -0.354 N 
ATOM     51  N   UNL A   1      45.669  29.465  28.838  1.00  0.00    -0.248 NA
ATOM     52  C   UNL A   1      47.644  29.799  27.725  1.00  0.00     0.031 C 
ATOM     53  C   UNL A   1      43.469  30.773  30.672  1.00  0.00     0.029 A 
ATOM     54  C   UNL A   1      43.425  30.911  29.294  1.00  0.00     0.049 A 
ATOM     55  H   UNL A   1      41.826  30.535  27.983  1.00  0.00     0.167 HD
ATOM     56  C   UNL A   1      45.564  30.691  28.249  1.00  0.00     0.074 A 
ATOM     57  C   UNL A   1      46.854  30.883  27.614  1.00  0.00     0.031 C 
ATOM     58  C   UNL A   1      44.392  31.390  28.303  1.00  0.00     0.034 A 
BRANCH  45  59
ATOM     59  C   UNL A   1      38.912  29.543  30.553  1.00  0.00     0.023 A 
ATOM     60  C   UNL A   1      38.579  28.846  31.738  1.00  0.00     0.012 A 
ATOM     61  C   UNL A   1      38.026  30.584  30.191  1.00  0.00     0.148 A 
ATOM     62  C   UNL A   1      37.428  29.112  32.489  1.00  0.00     0.002 A 
ATOM     63  C   UNL A   1      36.908  30.892  30.978  1.00  0.00     0.091 A 
ATOM     64  F   UNL A   1      38.258  31.308  29.087  1.00  0.00    -0.205 F 
ATOM     65  C   UNL A   1      36.593  30.145  32.114  1.00  0.00     0.022 A 
BRANCH  63  66
ATOM     66  S   UNL A   1      35.898  32.319  30.568  1.00  0.00     0.127 S 
ATOM     67  O   UNL A   1      35.420  31.997  29.228  1.00  0.00    -0.237 OA
ATOM     68  O   UNL A   1      34.907  32.346  31.638  1.00  0.00    -0.237 OA
ATOM     69  O   UNL A   1      36.853  33.429  30.612  1.00  0.00    -0.744 OA
ENDBRANCH  63  66
ENDBRANCH  45  59
BRANCH  46  70
ATOM     70  C   UNL A   1      47.927  26.544  27.998  1.00  0.00     0.023 A 
ATOM     71  C   UNL A   1      49.199  26.128  28.426  1.00  0.00     0.012 A 
ATOM     72  C   UNL A   1      47.591  26.442  26.632  1.00  0.00     0.148 A 
ATOM     73  C   UNL A   1      50.155  25.726  27.488  1.00  0.00     0.002 A 
ATOM     74  C   UNL A   1      48.552  26.062  25.703  1.00  0.00     0.091 A 
ATOM     75  F   UNL A   1      46.352  26.781  26.246  1.00  0.00    -0.205 F 
ATOM     76  C   UNL A   1      49.841  25.719  26.127  1.00  0.00     0.022 A 
BRANCH  74  77
ATOM     77  S   UNL A   1      48.185  26.179  23.945  1.00  0.00     0.127 S 
ATOM     78  O   UNL A   1      47.711  24.836  23.630  1.00  0.00    -0.237 OA
ATOM     79  O   UNL A   1      47.199  27.253  23.866  1.00  0.00    -0.237 OA
ATOM     80  O   UNL A   1      49.477  26.520  23.347  1.00  0.00    -0.744 OA
ENDBRANCH  74  77
ENDBRANCH  46  70
BRANCH  58  81
ATOM     81  C   UNL A   1      44.075  32.632  27.505  1.00  0.00     0.023 A 
ATOM     82  C   UNL A   1      44.142  32.554  26.091  1.00  0.00     0.012 A 
ATOM     83  C   UNL A   1      43.776  33.890  28.049  1.00  0.00     0.148 A 
ATOM     84  C   UNL A   1      43.895  33.656  25.268  1.00  0.00     0.002 A 
ATOM     85  C   UNL A   1      43.411  34.955  27.225  1.00  0.00     0.091 A 
ATOM     86  F   UNL A   1      43.899  34.107  29.365  1.00  0.00    -0.205 F 
ATOM     87  C   UNL A   1      43.490  34.855  25.834  1.00  0.00     0.022 A 
BRANCH  85  88
ATOM     88  S   UNL A   1      42.678  36.406  27.983  1.00  0.00     0.127 S 
ATOM     89  O   UNL A   1      43.797  36.971  28.735  1.00  0.00    -0.237 OA
ATOM     90  O   UNL A   1      42.209  37.184  26.841  1.00  0.00    -0.237 OA
ATOM     91  O   UNL A   1      41.612  35.854  28.818  1.00  0.00    -0.744 OA
ENDBRANCH  85  88
ENDBRANCH  58  81
ENDBRANCH  32  33
ENDBRANCH  25  27
ENDBRANCH  24  25
ENDBRANCH   1  24
TORSDOF 16
ENDMDL
MODEL 3
REMARK VINA RESULT:     -12.5      4.501      9.713
REMARK SMILES Cc1ccc(NC(=O)[C@H]2CC=CC[C@H]2C(=O)OCCOC(=O)c2ccc(-c3c4nc(c(-c5cccc(S(=O)(=O)[O-])c5F)c5ccc([nH]5)c(-c5cccc(S(=O)(=O)[O-])c5F)c5nc(c(-c6cccc(S(=O)(=O)[O-])c6F)c6ccc3[nH]6)C=C5)C=C4)cc2)cc1F
REMARK SMILES IDX 19 1 18 2 17 3 15 4 16 5 14 6 9 7 10 8 11 9 13 10 12 11 7 12
REMARK SMILES IDX 6 13 8 15 5 16 1 17 2 18 3 19 87 20 4 21 86 22 88 23 20 24
REMARK SMILES IDX 21 25 22 26 23 27 24 28 85 29 25 30 84 31 26 32 27 33 28 34
REMARK SMILES IDX 78 35 29 36 83 37 77 38 79 39 30 40 82 41 76 42 75 43 31 45
REMARK SMILES IDX 63 46 43 47 62 48 44 49 47 50 61 51 80 52 45 53 46 54 60 56
REMARK SMILES IDX 81 57 48 58 32 59 33 60 41 61 34 62 36 63 42 64 35 65 37 66
REMARK SMILES IDX 38 67 39 68 40 69 64 70 65 71 73 72 66 73 68 74 74 75 67 76
REMARK SMILES IDX 69 77 70 78 71 79 72 80 49 81 50 82 58 83 51 84 53 85 59 86
REMARK SMILES IDX 52 87 54 88 55 89 56 90 57 91
REMARK H PARENT 6 14 79 44 47 55
REMARK Flexibility Score: inf
ROOT
ATOM      1  C   UNL A   1      32.964  31.745  27.528  1.00  0.00     0.275 C 
ENDROOT
BRANCH   1   2
ATOM      2  C   UNL A   1      33.649  30.456  27.108  1.00  0.00     0.274 C 
BRANCH   2   3
ATOM      3  O   UNL A   1      32.698  29.614  26.454  1.00  0.00    -0.462 OA
BRANCH   3   4
ATOM      4  C   UNL A   1      33.173  28.979  25.353  1.00  0.00     0.310 C 
ATOM      5  O   UNL A   1      34.276  28.447  25.284  1.00  0.00    -0.252 OA
BRANCH   4   6
ATOM      6  C   UNL A   1      32.106  28.888  24.277  1.00  0.00     0.116 C 
ATOM      7  C   UNL A   1      31.589  27.460  23.998  1.00  0.00     0.097 C 
ATOM      8  C   UNL A   1      30.305  27.430  23.136  1.00  0.00     0.041 C 
ATOM      9  C   UNL A   1      29.496  28.690  23.070  1.00  0.00    -0.030 C 
ATOM     10  C   UNL A   1      31.018  29.919  24.595  1.00  0.00     0.043 C 
ATOM     11  C   UNL A   1      29.809  29.810  23.728  1.00  0.00    -0.030 C 
BRANCH   7  12
ATOM     12  C   UNL A   1      31.389  26.619  25.261  1.00  0.00     0.228 C 
ATOM     13  N   UNL A   1      32.139  25.520  25.587  1.00  0.00    -0.326 N 
ATOM     14  H   UNL A   1      31.866  25.131  26.449  1.00  0.00     0.169 HD
ATOM     15  O   UNL A   1      30.547  26.995  26.089  1.00  0.00    -0.274 OA
BRANCH  13  16
ATOM     16  C   UNL A   1      33.205  24.807  25.000  1.00  0.00     0.044 A 
ATOM     17  C   UNL A   1      36.669  22.875  23.215  1.00  0.00     0.047 C 
ATOM     18  C   UNL A   1      35.508  23.518  23.911  1.00  0.00    -0.015 A 
ATOM     19  C   UNL A   1      35.573  24.110  25.163  1.00  0.00     0.008 A 
ATOM     20  C   UNL A   1      34.278  23.555  23.279  1.00  0.00     0.128 A 
ATOM     21  C   UNL A   1      34.426  24.732  25.704  1.00  0.00     0.026 A 
ATOM     22  C   UNL A   1      33.139  24.156  23.793  1.00  0.00     0.065 A 
ATOM     23  F   UNL A   1      34.159  22.994  22.092  1.00  0.00    -0.207 F 
ENDBRANCH  13  16
ENDBRANCH   7  12
ENDBRANCH   4   6
ENDBRANCH   3   4
ENDBRANCH   2   3
ENDBRANCH   1   2
BRANCH   1  24
ATOM     24  O   UNL A   1      33.779  32.918  27.728  1.00  0.00    -0.458 OA
BRANCH  24  25
ATOM     25  C   UNL A   1      33.892  33.622  28.876  1.00  0.00     0.338 C 
ATOM     26  O   UNL A   1      33.119  34.426  29.367  1.00  0.00    -0.246 OA
BRANCH  25  27
ATOM     27  C   UNL A   1      35.259  33.353  29.375  1.00  0.00     0.060 A 
ATOM     28  C   UNL A   1      36.379  33.735  28.614  1.00  0.00     0.016 A 
ATOM     29  C   UNL A   1      35.407  32.546  30.504  1.00  0.00     0.016 A 
ATOM     30  C   UNL A   1      37.642  33.203  28.914  1.00  0.00     0.010 A 
ATOM     31  C   UNL A   1      36.647  32.012  30.788  1.00  0.00     0.010 A 
ATOM     32  C   UNL A   1      37.760  32.298  29.972  1.00  0.00    -0.014 A 
BRANCH  32  33
ATOM     33  C   UNL A   1      38.948  31.503  30.294  1.00  0.00     0.031 A 
ATOM     34  C   UNL A   1      39.077  30.153  29.702  1.00  0.00     0.074 A 
ATOM     35  C   UNL A   1      40.056  32.071  30.836  1.00  0.00     0.049 A 
ATOM     36  N   UNL A   1      39.952  29.282  30.078  1.00  0.00    -0.248 NA
ATOM     37  C   UNL A   1      38.174  29.640  28.672  1.00  0.00     0.031 C 
ATOM     38  C   UNL A   1      41.436  31.650  30.598  1.00  0.00     0.029 A 
ATOM     39  N   UNL A   1      40.199  33.103  31.756  1.00  0.00    -0.354 N 
ATOM     40  C   UNL A   1      40.001  28.323  29.096  1.00  0.00     0.074 A 
ATOM     41  C   UNL A   1      38.757  28.472  28.381  1.00  0.00     0.031 C 
ATOM     42  C   UNL A   1      42.242  32.243  31.489  1.00  0.00     0.029 A 
ATOM     43  C   UNL A   1      41.408  32.955  32.437  1.00  0.00     0.049 A 
ATOM     44  H   UNL A   1      39.548  33.826  31.904  1.00  0.00     0.167 HD
ATOM     45  C   UNL A   1      41.171  27.656  28.874  1.00  0.00     0.034 A 
ATOM     46  C   UNL A   1      41.548  32.923  33.792  1.00  0.00     0.034 A 
ATOM     47  C   UNL A   1      42.162  27.941  29.915  1.00  0.00     0.049 A 
ATOM     48  C   UNL A   1      42.050  31.580  34.272  1.00  0.00     0.074 A 
ATOM     49  C   UNL A   1      43.374  28.609  29.917  1.00  0.00     0.029 A 
ATOM     50  N   UNL A   1      41.843  27.708  31.251  1.00  0.00    -0.354 N 
ATOM     51  N   UNL A   1      42.276  30.584  33.463  1.00  0.00    -0.248 NA
ATOM     52  C   UNL A   1      42.247  31.205  35.670  1.00  0.00     0.031 C 
ATOM     53  C   UNL A   1      43.732  28.858  31.271  1.00  0.00     0.029 A 
ATOM     54  C   UNL A   1      42.764  28.301  32.091  1.00  0.00     0.049 A 
ATOM     55  H   UNL A   1      41.065  27.188  31.555  1.00  0.00     0.167 HD
ATOM     56  C   UNL A   1      42.515  29.446  34.176  1.00  0.00     0.074 A 
ATOM     57  C   UNL A   1      42.551  29.898  35.553  1.00  0.00     0.031 C 
ATOM     58  C   UNL A   1      42.599  28.237  33.546  1.00  0.00     0.034 A 
BRANCH  45  59
ATOM     59  C   UNL A   1      41.512  26.925  27.580  1.00  0.00     0.023 A 
ATOM     60  C   UNL A   1      41.933  27.593  26.407  1.00  0.00     0.012 A 
ATOM     61  C   UNL A   1      41.529  25.512  27.513  1.00  0.00     0.148 A 
ATOM     62  C   UNL A   1      42.295  26.928  25.230  1.00  0.00     0.002 A 
ATOM     63  C   UNL A   1      41.953  24.845  26.356  1.00  0.00     0.091 A 
ATOM     64  F   UNL A   1      41.152  24.787  28.576  1.00  0.00    -0.205 F 
ATOM     65  C   UNL A   1      42.314  25.547  25.205  1.00  0.00     0.022 A 
BRANCH  63  66
ATOM     66  S   UNL A   1      42.107  23.056  26.367  1.00  0.00     0.127 S 
ATOM     67  O   UNL A   1      42.648  22.774  25.041  1.00  0.00    -0.237 OA
ATOM     68  O   UNL A   1      42.980  22.802  27.507  1.00  0.00    -0.237 OA
ATOM     69  O   UNL A   1      40.728  22.602  26.558  1.00  0.00    -0.744 OA
ENDBRANCH  63  66
ENDBRANCH  45  59
BRANCH  46  70
ATOM     70  C   UNL A   1      40.642  33.828  34.535  1.00  0.00     0.023 A 
ATOM     71  C   UNL A   1      41.111  35.051  35.044  1.00  0.00     0.012 A 
ATOM     72  C   UNL A   1      39.462  33.268  35.065  1.00  0.00     0.148 A 
ATOM     73  C   UNL A   1      40.475  35.642  36.140  1.00  0.00     0.002 A 
ATOM     74  C   UNL A   1      38.846  33.849  36.167  1.00  0.00     0.091 A 
ATOM     75  F   UNL A   1      38.988  32.134  34.526  1.00  0.00    -0.205 F 
ATOM     76  C   UNL A   1      39.361  35.028  36.718  1.00  0.00     0.022 A 
BRANCH  74  77
ATOM     77  S   UNL A   1      37.495  32.988  36.987  1.00  0.00     0.127 S 
ATOM     78  O   UNL A   1      37.644  33.415  38.374  1.00  0.00    -0.237 OA
ATOM     79  O   UNL A   1      36.305  33.459  36.286  1.00  0.00    -0.237 OA
ATOM     80  O   UNL A   1      37.797  31.575  36.755  1.00  0.00    -0.744 OA
ENDBRANCH  74  77
ENDBRANCH  46  70
BRANCH  58  81
ATOM     81  C   UNL A   1      42.626  26.892  34.232  1.00  0.00     0.023 A 
ATOM     82  C   UNL A   1      41.557  26.564  35.102  1.00  0.00     0.012 A 
ATOM     83  C   UNL A   1      43.661  25.951  34.129  1.00  0.00     0.148 A 
ATOM     84  C   UNL A   1      41.506  25.356  35.804  1.00  0.00     0.002 A 
ATOM     85  C   UNL A   1      43.549  24.698  34.733  1.00  0.00     0.091 A 
ATOM     86  F   UNL A   1      44.803  26.263  33.502  1.00  0.00    -0.205 F 
ATOM     87  C   UNL A   1      42.488  24.401  35.591  1.00  0.00     0.022 A 
BRANCH  85  88
ATOM     88  S   UNL A   1      44.710  23.416  34.258  1.00  0.00     0.127 S 
ATOM     89  O   UNL A   1      44.489  23.306  32.817  1.00  0.00    -0.237 OA
ATOM     90  O   UNL A   1      46.000  23.956  34.675  1.00  0.00    -0.237 OA
ATOM     91  O   UNL A   1      44.265  22.252  35.024  1.00  0.00    -0.744 OA
ENDBRANCH  85  88
ENDBRANCH  58  81
ENDBRANCH  32  33
ENDBRANCH  25  27
ENDBRANCH  24  25
ENDBRANCH   1  24
TORSDOF 16
ENDMDL
