MODEL 1
REMARK VINA RESULT:     -10.4      0.000      0.000
REMARK SMILES Cc1oc2c(c1C(=O)NCCCC(=O)OCCOC(=O)c1ccc(-c3c4nc(c(-c5cccc(S(=O)(=O)[O-])c5F)c5ccc([nH]5)c(-c5cccc(S(=O)(=O)[O-])c5F)c5nc(c(-c6cccc(S(=O)(=O)[O-])c6F)c6ccc3[nH]6)C=C5)C=C4)cc1)CCCC2
REMARK SMILES IDX 16 1 15 2 13 3 14 4 12 5 11 6 10 7 9 8 7 9 8 10 6 12 1 13
REMARK SMILES IDX 2 14 3 15 4 16 5 17 87 18 84 19 86 20 85 21 17 22 18 23
REMARK SMILES IDX 19 24 20 25 21 26 22 27 83 28 23 29 82 30 24 31 25 32 26 33
REMARK SMILES IDX 76 34 27 35 81 36 75 37 77 38 28 39 80 40 74 41 73 42 29 44
REMARK SMILES IDX 61 45 41 46 60 47 42 48 45 49 59 50 78 51 43 52 44 53 58 55
REMARK SMILES IDX 79 56 46 57 30 58 31 59 39 60 32 61 34 62 40 63 33 64 35 65
REMARK SMILES IDX 36 66 37 67 38 68 62 69 63 70 71 71 64 72 66 73 72 74 65 75
REMARK SMILES IDX 67 76 68 77 69 78 70 79 47 80 48 81 56 82 49 83 51 84 57 85
REMARK SMILES IDX 50 86 52 87 53 88 54 89 55 90
REMARK H PARENT 9 11 77 43 45 54
REMARK Flexibility Score: inf
ROOT
ATOM      1  C   UNL A   1      42.180  19.940  26.236  1.00  0.00     0.274 C 
ENDROOT
BRANCH   1   2
ATOM      2  O   UNL A   1      42.680  19.370  25.011  1.00  0.00    -0.462 OA
BRANCH   2   3
ATOM      3  C   UNL A   1      44.010  19.097  24.964  1.00  0.00     0.305 C 
ATOM      4  O   UNL A   1      44.556  18.152  25.523  1.00  0.00    -0.252 OA
BRANCH   3   5
ATOM      5  C   UNL A   1      44.769  20.160  24.205  1.00  0.00     0.124 C 
BRANCH   5   6
ATOM      6  C   UNL A   1      45.760  20.989  25.012  1.00  0.00     0.033 C 
BRANCH   6   7
ATOM      7  C   UNL A   1      45.178  21.937  26.058  1.00  0.00     0.117 C 
BRANCH   7   8
ATOM      8  N   UNL A   1      44.390  22.990  25.478  1.00  0.00    -0.352 N 
ATOM      9  C   UNL A   1      44.293  24.335  25.686  1.00  0.00     0.255 C 
ATOM     10  O   UNL A   1      43.438  24.869  24.967  1.00  0.00    -0.269 OA
ATOM     11  H   UNL A   1      43.783  22.669  24.772  1.00  0.00     0.163 HD
BRANCH   9  12
ATOM     12  C   UNL A   1      45.070  25.155  26.634  1.00  0.00     0.084 A 
ATOM     13  C   UNL A   1      45.189  24.182  29.158  1.00  0.00     0.088 C 
ATOM     14  C   UNL A   1      45.408  25.075  27.994  1.00  0.00     0.114 A 
ATOM     15  O   UNL A   1      46.162  26.157  28.371  1.00  0.00    -0.465 OA
ATOM     16  C   UNL A   1      46.330  26.927  27.292  1.00  0.00     0.108 A 
ATOM     17  C   UNL A   1      45.719  26.381  26.198  1.00  0.00     0.007 A 
ATOM     18  C   UNL A   1      47.105  28.178  27.388  1.00  0.00     0.076 C 
ATOM     19  C   UNL A   1      45.756  27.066  24.871  1.00  0.00     0.040 C 
ATOM     20  C   UNL A   1      46.790  29.043  26.155  1.00  0.00     0.008 C 
ATOM     21  C   UNL A   1      46.795  28.211  24.856  1.00  0.00     0.005 C 
ENDBRANCH   9  12
ENDBRANCH   7   8
ENDBRANCH   6   7
ENDBRANCH   5   6
ENDBRANCH   3   5
ENDBRANCH   2   3
ENDBRANCH   1   2
BRANCH   1  22
ATOM     22  C   UNL A   1      40.944  20.801  26.001  1.00  0.00     0.275 C 
BRANCH  22  23
ATOM     23  O   UNL A   1      41.243  22.189  26.138  1.00  0.00    -0.458 OA
BRANCH  23  24
ATOM     24  C   UNL A   1      40.233  22.934  26.641  1.00  0.00     0.338 C 
ATOM     25  O   UNL A   1      39.050  22.656  26.650  1.00  0.00    -0.246 OA
BRANCH  24  26
ATOM     26  C   UNL A   1      40.732  24.251  27.039  1.00  0.00     0.060 A 
ATOM     27  C   UNL A   1      41.619  24.319  28.122  1.00  0.00     0.016 A 
ATOM     28  C   UNL A   1      40.128  25.391  26.502  1.00  0.00     0.016 A 
ATOM     29  C   UNL A   1      41.818  25.536  28.744  1.00  0.00     0.010 A 
ATOM     30  C   UNL A   1      40.311  26.597  27.134  1.00  0.00     0.010 A 
ATOM     31  C   UNL A   1      41.112  26.647  28.279  1.00  0.00    -0.014 A 
BRANCH  31  32
ATOM     32  C   UNL A   1      41.274  27.918  28.958  1.00  0.00     0.031 A 
ATOM     33  C   UNL A   1      42.327  28.787  28.378  1.00  0.00     0.074 A 
ATOM     34  C   UNL A   1      40.375  28.327  29.876  1.00  0.00     0.049 A 
ATOM     35  N   UNL A   1      43.351  29.310  28.969  1.00  0.00    -0.248 NA
ATOM     36  C   UNL A   1      42.305  28.995  26.920  1.00  0.00     0.031 C 
ATOM     37  C   UNL A   1      39.127  27.640  30.232  1.00  0.00     0.029 A 
ATOM     38  N   UNL A   1      40.280  29.516  30.534  1.00  0.00    -0.354 N 
ATOM     39  C   UNL A   1      43.953  30.114  28.001  1.00  0.00     0.074 A 
ATOM     40  C   UNL A   1      43.413  29.709  26.734  1.00  0.00     0.031 C 
ATOM     41  C   UNL A   1      38.291  28.524  30.815  1.00  0.00     0.029 A 
ATOM     42  C   UNL A   1      38.986  29.790  30.970  1.00  0.00     0.049 A 
ATOM     43  H   UNL A   1      41.044  30.118  30.686  1.00  0.00     0.167 HD
ATOM     44  C   UNL A   1      44.601  31.260  28.343  1.00  0.00     0.034 A 
ATOM     45  C   UNL A   1      38.488  30.995  31.335  1.00  0.00     0.034 A 
ATOM     46  C   UNL A   1      44.957  31.267  29.739  1.00  0.00     0.049 A 
ATOM     47  C   UNL A   1      39.630  31.893  31.609  1.00  0.00     0.074 A 
ATOM     48  C   UNL A   1      45.719  30.479  30.572  1.00  0.00     0.029 A 
ATOM     49  N   UNL A   1      44.191  32.068  30.547  1.00  0.00    -0.354 N 
ATOM     50  N   UNL A   1      40.443  31.757  32.618  1.00  0.00    -0.248 NA
ATOM     51  C   UNL A   1      40.085  32.789  30.556  1.00  0.00     0.031 C 
ATOM     52  C   UNL A   1      45.112  30.586  31.857  1.00  0.00     0.029 A 
ATOM     53  C   UNL A   1      44.019  31.449  31.751  1.00  0.00     0.049 A 
ATOM     54  H   UNL A   1      43.824  32.947  30.299  1.00  0.00     0.167 HD
ATOM     55  C   UNL A   1      41.670  32.183  32.131  1.00  0.00     0.074 A 
ATOM     56  C   UNL A   1      41.353  32.956  30.937  1.00  0.00     0.031 C 
ATOM     57  C   UNL A   1      42.831  31.609  32.565  1.00  0.00     0.034 A 
BRANCH  44  58
ATOM     58  C   UNL A   1      44.510  32.561  27.558  1.00  0.00     0.023 A 
ATOM     59  C   UNL A   1      45.581  32.841  26.677  1.00  0.00     0.012 A 
ATOM     60  C   UNL A   1      43.648  33.639  27.868  1.00  0.00     0.148 A 
ATOM     61  C   UNL A   1      45.840  34.137  26.219  1.00  0.00     0.002 A 
ATOM     62  C   UNL A   1      43.866  34.910  27.349  1.00  0.00     0.091 A 
ATOM     63  F   UNL A   1      42.677  33.496  28.772  1.00  0.00    -0.205 F 
ATOM     64  C   UNL A   1      44.984  35.175  26.558  1.00  0.00     0.022 A 
BRANCH  62  65
ATOM     65  S   UNL A   1      42.759  36.276  27.728  1.00  0.00     0.127 S 
ATOM     66  O   UNL A   1      43.268  37.316  26.839  1.00  0.00    -0.237 OA
ATOM     67  O   UNL A   1      41.457  35.721  27.356  1.00  0.00    -0.237 OA
ATOM     68  O   UNL A   1      42.915  36.517  29.158  1.00  0.00    -0.744 OA
ENDBRANCH  62  65
ENDBRANCH  44  58
BRANCH  45  69
ATOM     69  C   UNL A   1      37.096  31.497  31.272  1.00  0.00     0.023 A 
ATOM     70  C   UNL A   1      36.438  31.862  32.462  1.00  0.00     0.012 A 
ATOM     71  C   UNL A   1      36.488  31.841  30.043  1.00  0.00     0.148 A 
ATOM     72  C   UNL A   1      35.228  32.565  32.431  1.00  0.00     0.002 A 
ATOM     73  C   UNL A   1      35.274  32.522  30.016  1.00  0.00     0.091 A 
ATOM     74  F   UNL A   1      37.140  31.579  28.902  1.00  0.00    -0.205 F 
ATOM     75  C   UNL A   1      34.648  32.898  31.210  1.00  0.00     0.022 A 
BRANCH  73  76
ATOM     76  S   UNL A   1      34.462  32.974  28.477  1.00  0.00     0.127 S 
ATOM     77  O   UNL A   1      34.161  31.666  27.895  1.00  0.00    -0.237 OA
ATOM     78  O   UNL A   1      33.297  33.714  28.954  1.00  0.00    -0.237 OA
ATOM     79  O   UNL A   1      35.441  33.749  27.725  1.00  0.00    -0.744 OA
ENDBRANCH  73  76
ENDBRANCH  45  69
BRANCH  57  80
ATOM     80  C   UNL A   1      42.802  30.834  33.854  1.00  0.00     0.023 A 
ATOM     81  C   UNL A   1      42.937  31.456  35.112  1.00  0.00     0.012 A 
ATOM     82  C   UNL A   1      42.462  29.470  33.802  1.00  0.00     0.148 A 
ATOM     83  C   UNL A   1      42.763  30.727  36.290  1.00  0.00     0.002 A 
ATOM     84  C   UNL A   1      42.238  28.762  34.975  1.00  0.00     0.091 A 
ATOM     85  F   UNL A   1      42.334  28.893  32.596  1.00  0.00    -0.205 F 
ATOM     86  C   UNL A   1      42.399  29.384  36.222  1.00  0.00     0.022 A 
BRANCH  84  87
ATOM     87  S   UNL A   1      41.631  27.073  34.944  1.00  0.00     0.127 S 
ATOM     88  O   UNL A   1      41.256  26.856  36.339  1.00  0.00    -0.237 OA
ATOM     89  O   UNL A   1      40.504  27.158  34.013  1.00  0.00    -0.237 OA
ATOM     90  O   UNL A   1      42.741  26.264  34.455  1.00  0.00    -0.744 OA
ENDBRANCH  84  87
ENDBRANCH  57  80
ENDBRANCH  31  32
ENDBRANCH  24  26
ENDBRANCH  23  24
ENDBRANCH  22  23
ENDBRANCH   1  22
TORSDOF 18
ENDMDL
MODEL 2
REMARK VINA RESULT:     -10.4      4.790     10.501
REMARK SMILES Cc1oc2c(c1C(=O)NCCCC(=O)OCCOC(=O)c1ccc(-c3c4nc(c(-c5cccc(S(=O)(=O)[O-])c5F)c5ccc([nH]5)c(-c5cccc(S(=O)(=O)[O-])c5F)c5nc(c(-c6cccc(S(=O)(=O)[O-])c6F)c6ccc3[nH]6)C=C5)C=C4)cc1)CCCC2
REMARK SMILES IDX 16 1 15 2 13 3 14 4 12 5 11 6 10 7 9 8 7 9 8 10 6 12 1 13
REMARK SMILES IDX 2 14 3 15 4 16 5 17 87 18 84 19 86 20 85 21 17 22 18 23
REMARK SMILES IDX 19 24 20 25 21 26 22 27 83 28 23 29 82 30 24 31 25 32 26 33
REMARK SMILES IDX 76 34 27 35 81 36 75 37 77 38 28 39 80 40 74 41 73 42 29 44
REMARK SMILES IDX 61 45 41 46 60 47 42 48 45 49 59 50 78 51 43 52 44 53 58 55
REMARK SMILES IDX 79 56 46 57 30 58 31 59 39 60 32 61 34 62 40 63 33 64 35 65
REMARK SMILES IDX 36 66 37 67 38 68 62 69 63 70 71 71 64 72 66 73 72 74 65 75
REMARK SMILES IDX 67 76 68 77 69 78 70 79 47 80 48 81 56 82 49 83 51 84 57 85
REMARK SMILES IDX 50 86 52 87 53 88 54 89 55 90
REMARK H PARENT 9 11 77 43 45 54
REMARK Flexibility Score: inf
ROOT
ATOM      1  C   UNL A   1      33.310  31.892  27.410  1.00  0.00     0.274 C 
ENDROOT
BRANCH   1   2
ATOM      2  O   UNL A   1      32.440  30.743  27.408  1.00  0.00    -0.462 OA
BRANCH   2   3
ATOM      3  C   UNL A   1      32.345  30.053  26.241  1.00  0.00     0.305 C 
ATOM      4  O   UNL A   1      31.409  30.128  25.452  1.00  0.00    -0.252 OA
BRANCH   3   5
ATOM      5  C   UNL A   1      33.501  29.096  26.065  1.00  0.00     0.124 C 
BRANCH   5   6
ATOM      6  C   UNL A   1      33.202  27.623  26.312  1.00  0.00     0.033 C 
BRANCH   6   7
ATOM      7  C   UNL A   1      31.752  27.254  26.615  1.00  0.00     0.117 C 
BRANCH   7   8
ATOM      8  N   UNL A   1      31.220  26.283  25.698  1.00  0.00    -0.352 N 
ATOM      9  C   UNL A   1      30.814  26.323  24.396  1.00  0.00     0.255 C 
ATOM     10  O   UNL A   1      30.382  25.232  23.998  1.00  0.00    -0.269 OA
ATOM     11  H   UNL A   1      31.128  25.389  26.099  1.00  0.00     0.163 HD
BRANCH   9  12
ATOM     12  C   UNL A   1      30.843  27.479  23.481  1.00  0.00     0.084 A 
ATOM     13  C   UNL A   1      33.286  28.092  22.489  1.00  0.00     0.088 C 
ATOM     14  C   UNL A   1      31.827  28.157  22.744  1.00  0.00     0.114 A 
ATOM     15  O   UNL A   1      31.278  29.208  22.055  1.00  0.00    -0.465 OA
ATOM     16  C   UNL A   1      29.968  29.222  22.317  1.00  0.00     0.108 A 
ATOM     17  C   UNL A   1      29.622  28.197  23.154  1.00  0.00     0.007 A 
ATOM     18  C   UNL A   1      29.103  30.253  21.713  1.00  0.00     0.076 C 
ATOM     19  C   UNL A   1      28.209  28.011  23.602  1.00  0.00     0.040 C 
ATOM     20  C   UNL A   1      27.775  30.291  22.490  1.00  0.00     0.008 C 
ATOM     21  C   UNL A   1      27.234  28.874  22.770  1.00  0.00     0.005 C 
ENDBRANCH   9  12
ENDBRANCH   7   8
ENDBRANCH   6   7
ENDBRANCH   5   6
ENDBRANCH   3   5
ENDBRANCH   2   3
ENDBRANCH   1   2
BRANCH   1  22
ATOM     22  C   UNL A   1      32.529  33.197  27.319  1.00  0.00     0.275 C 
BRANCH  22  23
ATOM     23  O   UNL A   1      32.272  33.742  28.613  1.00  0.00    -0.458 OA
BRANCH  23  24
ATOM     24  C   UNL A   1      32.981  34.854  28.906  1.00  0.00     0.338 C 
ATOM     25  O   UNL A   1      32.638  36.008  28.737  1.00  0.00    -0.246 OA
BRANCH  24  26
ATOM     26  C   UNL A   1      34.340  34.491  29.311  1.00  0.00     0.060 A 
ATOM     27  C   UNL A   1      35.364  34.616  28.363  1.00  0.00     0.016 A 
ATOM     28  C   UNL A   1      34.524  33.811  30.518  1.00  0.00     0.016 A 
ATOM     29  C   UNL A   1      36.557  33.956  28.581  1.00  0.00     0.010 A 
ATOM     30  C   UNL A   1      35.704  33.138  30.724  1.00  0.00     0.010 A 
ATOM     31  C   UNL A   1      36.687  33.174  29.731  1.00  0.00    -0.014 A 
BRANCH  31  32
ATOM     32  C   UNL A   1      37.917  32.436  29.944  1.00  0.00     0.031 A 
ATOM     33  C   UNL A   1      37.861  31.021  29.502  1.00  0.00     0.074 A 
ATOM     34  C   UNL A   1      39.051  33.075  30.296  1.00  0.00     0.049 A 
ATOM     35  N   UNL A   1      38.103  29.955  30.191  1.00  0.00    -0.248 NA
ATOM     36  C   UNL A   1      37.342  30.756  28.149  1.00  0.00     0.031 C 
ATOM     37  C   UNL A   1      39.226  34.529  30.413  1.00  0.00     0.029 A 
ATOM     38  N   UNL A   1      40.319  32.593  30.429  1.00  0.00    -0.354 N 
ATOM     39  C   UNL A   1      38.007  28.906  29.276  1.00  0.00     0.074 A 
ATOM     40  C   UNL A   1      37.329  29.425  28.122  1.00  0.00     0.031 C 
ATOM     41  C   UNL A   1      40.541  34.820  30.331  1.00  0.00     0.029 A 
ATOM     42  C   UNL A   1      41.290  33.578  30.271  1.00  0.00     0.049 A 
ATOM     43  H   UNL A   1      40.526  31.649  30.618  1.00  0.00     0.167 HD
ATOM     44  C   UNL A   1      38.773  27.790  29.404  1.00  0.00     0.034 A 
ATOM     45  C   UNL A   1      42.604  33.389  30.003  1.00  0.00     0.034 A 
ATOM     46  C   UNL A   1      39.284  27.653  30.743  1.00  0.00     0.049 A 
ATOM     47  C   UNL A   1      42.935  31.984  30.327  1.00  0.00     0.074 A 
ATOM     48  C   UNL A   1      38.744  27.538  32.005  1.00  0.00     0.029 A 
ATOM     49  N   UNL A   1      40.611  27.957  30.910  1.00  0.00    -0.354 N 
ATOM     50  N   UNL A   1      42.958  31.497  31.536  1.00  0.00    -0.248 NA
ATOM     51  C   UNL A   1      42.932  30.999  29.256  1.00  0.00     0.031 C 
ATOM     52  C   UNL A   1      39.693  28.138  32.882  1.00  0.00     0.029 A 
ATOM     53  C   UNL A   1      40.777  28.575  32.116  1.00  0.00     0.049 A 
ATOM     54  H   UNL A   1      41.329  27.761  30.265  1.00  0.00     0.167 HD
ATOM     55  C   UNL A   1      42.529  30.186  31.387  1.00  0.00     0.074 A 
ATOM     56  C   UNL A   1      42.697  29.895  29.969  1.00  0.00     0.031 C 
ATOM     57  C   UNL A   1      41.794  29.577  32.363  1.00  0.00     0.034 A 
BRANCH  44  58
ATOM     58  C   UNL A   1      39.443  27.074  28.240  1.00  0.00     0.023 A 
ATOM     59  C   UNL A   1      39.289  25.668  28.192  1.00  0.00     0.012 A 
ATOM     60  C   UNL A   1      40.451  27.628  27.416  1.00  0.00     0.148 A 
ATOM     61  C   UNL A   1      40.157  24.855  27.454  1.00  0.00     0.002 A 
ATOM     62  C   UNL A   1      41.261  26.821  26.625  1.00  0.00     0.091 A 
ATOM     63  F   UNL A   1      40.739  28.929  27.476  1.00  0.00    -0.205 F 
ATOM     64  C   UNL A   1      41.147  25.432  26.671  1.00  0.00     0.022 A 
BRANCH  62  65
ATOM     65  S   UNL A   1      42.531  27.527  25.564  1.00  0.00     0.127 S 
ATOM     66  O   UNL A   1      43.546  27.907  26.541  1.00  0.00    -0.237 OA
ATOM     67  O   UNL A   1      42.880  26.388  24.715  1.00  0.00    -0.237 OA
ATOM     68  O   UNL A   1      41.879  28.621  24.853  1.00  0.00    -0.744 OA
ENDBRANCH  62  65
ENDBRANCH  44  58
BRANCH  45  69
ATOM     69  C   UNL A   1      43.559  34.274  29.297  1.00  0.00     0.023 A 
ATOM     70  C   UNL A   1      44.198  35.309  30.006  1.00  0.00     0.012 A 
ATOM     71  C   UNL A   1      44.024  33.971  27.996  1.00  0.00     0.148 A 
ATOM     72  C   UNL A   1      45.278  36.004  29.451  1.00  0.00     0.002 A 
ATOM     73  C   UNL A   1      45.085  34.679  27.439  1.00  0.00     0.091 A 
ATOM     74  F   UNL A   1      43.486  32.935  27.340  1.00  0.00    -0.205 F 
ATOM     75  C   UNL A   1      45.724  35.688  28.170  1.00  0.00     0.022 A 
BRANCH  73  76
ATOM     76  S   UNL A   1      45.707  34.334  25.787  1.00  0.00     0.127 S 
ATOM     77  O   UNL A   1      46.176  32.955  25.921  1.00  0.00    -0.237 OA
ATOM     78  O   UNL A   1      44.507  34.497  24.970  1.00  0.00    -0.237 OA
ATOM     79  O   UNL A   1      46.770  35.304  25.553  1.00  0.00    -0.744 OA
ENDBRANCH  73  76
ENDBRANCH  45  69
BRANCH  57  80
ATOM     80  C   UNL A   1      41.818  30.170  33.746  1.00  0.00     0.023 A 
ATOM     81  C   UNL A   1      42.829  29.864  34.680  1.00  0.00     0.012 A 
ATOM     82  C   UNL A   1      40.894  31.186  34.049  1.00  0.00     0.148 A 
ATOM     83  C   UNL A   1      42.899  30.540  35.900  1.00  0.00     0.002 A 
ATOM     84  C   UNL A   1      41.000  31.891  35.240  1.00  0.00     0.091 A 
ATOM     85  F   UNL A   1      39.940  31.467  33.148  1.00  0.00    -0.205 F 
ATOM     86  C   UNL A   1      41.995  31.563  36.174  1.00  0.00     0.022 A 
BRANCH  84  87
ATOM     87  S   UNL A   1      39.953  33.309  35.582  1.00  0.00     0.127 S 
ATOM     88  O   UNL A   1      38.627  32.700  35.659  1.00  0.00    -0.237 OA
ATOM     89  O   UNL A   1      40.480  33.791  36.860  1.00  0.00    -0.237 OA
ATOM     90  O   UNL A   1      40.162  34.230  34.472  1.00  0.00    -0.744 OA
ENDBRANCH  84  87
ENDBRANCH  57  80
ENDBRANCH  31  32
ENDBRANCH  24  26
ENDBRANCH  23  24
ENDBRANCH  22  23
ENDBRANCH   1  22
TORSDOF 18
ENDMDL
MODEL 3
REMARK VINA RESULT:     -10.3      4.242     10.518
REMARK SMILES Cc1oc2c(c1C(=O)NCCCC(=O)OCCOC(=O)c1ccc(-c3c4nc(c(-c5cccc(S(=O)(=O)[O-])c5F)c5ccc([nH]5)c(-c5cccc(S(=O)(=O)[O-])c5F)c5nc(c(-c6cccc(S(=O)(=O)[O-])c6F)c6ccc3[nH]6)C=C5)C=C4)cc1)CCCC2
REMARK SMILES IDX 16 1 15 2 13 3 14 4 12 5 11 6 10 7 9 8 7 9 8 10 6 12 1 13
REMARK SMILES IDX 2 14 3 15 4 16 5 17 87 18 84 19 86 20 85 21 17 22 18 23
REMARK SMILES IDX 19 24 20 25 21 26 22 27 83 28 23 29 82 30 24 31 25 32 26 33
REMARK SMILES IDX 76 34 27 35 81 36 75 37 77 38 28 39 80 40 74 41 73 42 29 44
REMARK SMILES IDX 61 45 41 46 60 47 42 48 45 49 59 50 78 51 43 52 44 53 58 55
REMARK SMILES IDX 79 56 46 57 30 58 31 59 39 60 32 61 34 62 40 63 33 64 35 65
REMARK SMILES IDX 36 66 37 67 38 68 62 69 63 70 71 71 64 72 66 73 72 74 65 75
REMARK SMILES IDX 67 76 68 77 69 78 70 79 47 80 48 81 56 82 49 83 51 84 57 85
REMARK SMILES IDX 50 86 52 87 53 88 54 89 55 90
REMARK H PARENT 9 11 77 43 45 54
REMARK Flexibility Score: inf
ROOT
ATOM      1  C   UNL A   1      32.657  30.010  25.962  1.00  0.00     0.274 C 
ENDROOT
BRANCH   1   2
ATOM      2  O   UNL A   1      31.448  29.291  26.273  1.00  0.00    -0.462 OA
BRANCH   2   3
ATOM      3  C   UNL A   1      31.596  28.090  26.892  1.00  0.00     0.305 C 
ATOM      4  O   UNL A   1      31.427  27.890  28.090  1.00  0.00    -0.252 OA
BRANCH   3   5
ATOM      5  C   UNL A   1      32.087  27.028  25.936  1.00  0.00     0.124 C 
BRANCH   5   6
ATOM      6  C   UNL A   1      31.825  25.583  26.341  1.00  0.00     0.033 C 
BRANCH   6   7
ATOM      7  C   UNL A   1      30.733  24.839  25.576  1.00  0.00     0.117 C 
BRANCH   7   8
ATOM      8  N   UNL A   1      30.967  23.422  25.507  1.00  0.00    -0.352 N 
ATOM      9  C   UNL A   1      31.916  22.639  24.917  1.00  0.00     0.255 C 
ATOM     10  O   UNL A   1      31.711  21.430  25.090  1.00  0.00    -0.269 OA
ATOM     11  H   UNL A   1      30.290  22.899  25.996  1.00  0.00     0.163 HD
BRANCH   9  12
ATOM     12  C   UNL A   1      33.088  23.081  24.140  1.00  0.00     0.084 A 
ATOM     13  C   UNL A   1      32.546  24.822  22.140  1.00  0.00     0.088 C 
ATOM     14  C   UNL A   1      33.312  23.939  23.052  1.00  0.00     0.114 A 
ATOM     15  O   UNL A   1      34.642  23.966  22.720  1.00  0.00    -0.465 OA
ATOM     16  C   UNL A   1      35.285  23.158  23.568  1.00  0.00     0.108 A 
ATOM     17  C   UNL A   1      34.421  22.602  24.469  1.00  0.00     0.007 A 
ATOM     18  C   UNL A   1      36.745  22.977  23.455  1.00  0.00     0.076 C 
ATOM     19  C   UNL A   1      34.904  21.650  25.515  1.00  0.00     0.040 C 
ATOM     20  C   UNL A   1      37.143  21.720  24.247  1.00  0.00     0.008 C 
ATOM     21  C   UNL A   1      36.446  21.664  25.622  1.00  0.00     0.005 C 
ENDBRANCH   9  12
ENDBRANCH   7   8
ENDBRANCH   6   7
ENDBRANCH   5   6
ENDBRANCH   3   5
ENDBRANCH   2   3
ENDBRANCH   1   2
BRANCH   1  22
ATOM     22  C   UNL A   1      33.287  30.630  27.204  1.00  0.00     0.275 C 
BRANCH  22  23
ATOM     23  O   UNL A   1      34.704  30.465  27.207  1.00  0.00    -0.458 OA
BRANCH  23  24
ATOM     24  C   UNL A   1      35.378  31.405  27.906  1.00  0.00     0.338 C 
ATOM     25  O   UNL A   1      35.188  32.605  27.893  1.00  0.00    -0.246 OA
BRANCH  24  26
ATOM     26  C   UNL A   1      36.527  30.799  28.581  1.00  0.00     0.060 A 
ATOM     27  C   UNL A   1      37.536  31.650  29.052  1.00  0.00     0.016 A 
ATOM     28  C   UNL A   1      36.697  29.414  28.512  1.00  0.00     0.016 A 
ATOM     29  C   UNL A   1      38.772  31.113  29.356  1.00  0.00     0.010 A 
ATOM     30  C   UNL A   1      37.932  28.884  28.794  1.00  0.00     0.010 A 
ATOM     31  C   UNL A   1      38.970  29.744  29.163  1.00  0.00    -0.014 A 
BRANCH  31  32
ATOM     32  C   UNL A   1      40.279  29.179  29.429  1.00  0.00     0.031 A 
ATOM     33  C   UNL A   1      40.558  28.942  30.866  1.00  0.00     0.074 A 
ATOM     34  C   UNL A   1      41.044  28.713  28.421  1.00  0.00     0.049 A 
ATOM     35  N   UNL A   1      41.545  29.382  31.575  1.00  0.00    -0.248 NA
ATOM     36  C   UNL A   1      39.533  28.225  31.644  1.00  0.00     0.031 C 
ATOM     37  C   UNL A   1      40.655  28.621  27.008  1.00  0.00     0.029 A 
ATOM     38  N   UNL A   1      42.234  28.050  28.464  1.00  0.00    -0.354 N 
ATOM     39  C   UNL A   1      41.386  28.782  32.824  1.00  0.00     0.074 A 
ATOM     40  C   UNL A   1      40.042  28.281  32.873  1.00  0.00     0.031 C 
ATOM     41  C   UNL A   1      41.449  27.721  26.392  1.00  0.00     0.029 A 
ATOM     42  C   UNL A   1      42.459  27.269  27.333  1.00  0.00     0.049 A 
ATOM     43  H   UNL A   1      42.868  28.116  29.215  1.00  0.00     0.167 HD
ATOM     44  C   UNL A   1      42.462  28.461  33.592  1.00  0.00     0.034 A 
ATOM     45  C   UNL A   1      43.341  26.250  27.211  1.00  0.00     0.034 A 
ATOM     46  C   UNL A   1      43.634  29.192  33.187  1.00  0.00     0.049 A 
ATOM     47  C   UNL A   1      44.325  26.367  28.308  1.00  0.00     0.074 A 
ATOM     48  C   UNL A   1      43.990  30.519  33.084  1.00  0.00     0.029 A 
ATOM     49  N   UNL A   1      44.571  28.478  32.485  1.00  0.00    -0.354 N 
ATOM     50  N   UNL A   1      45.210  27.320  28.400  1.00  0.00    -0.248 NA
ATOM     51  C   UNL A   1      44.121  25.584  29.518  1.00  0.00     0.031 C 
ATOM     52  C   UNL A   1      44.928  30.579  32.013  1.00  0.00     0.029 A 
ATOM     53  C   UNL A   1      45.116  29.283  31.526  1.00  0.00     0.049 A 
ATOM     54  H   UNL A   1      44.812  27.538  32.646  1.00  0.00     0.167 HD
ATOM     55  C   UNL A   1      45.340  27.538  29.764  1.00  0.00     0.074 A 
ATOM     56  C   UNL A   1      44.788  26.343  30.390  1.00  0.00     0.031 C 
ATOM     57  C   UNL A   1      45.592  28.789  30.250  1.00  0.00     0.034 A 
BRANCH  44  58
ATOM     58  C   UNL A   1      42.588  27.172  34.391  1.00  0.00     0.023 A 
ATOM     59  C   UNL A   1      42.350  27.268  35.783  1.00  0.00     0.012 A 
ATOM     60  C   UNL A   1      43.227  25.994  33.939  1.00  0.00     0.148 A 
ATOM     61  C   UNL A   1      42.817  26.301  36.679  1.00  0.00     0.002 A 
ATOM     62  C   UNL A   1      43.621  25.000  34.826  1.00  0.00     0.091 A 
ATOM     63  F   UNL A   1      43.588  25.864  32.661  1.00  0.00    -0.205 F 
ATOM     64  C   UNL A   1      43.457  25.166  36.201  1.00  0.00     0.022 A 
BRANCH  62  65
ATOM     65  S   UNL A   1      44.418  23.494  34.249  1.00  0.00     0.127 S 
ATOM     66  O   UNL A   1      44.606  22.768  35.501  1.00  0.00    -0.237 OA
ATOM     67  O   UNL A   1      43.400  22.940  33.355  1.00  0.00    -0.237 OA
ATOM     68  O   UNL A   1      45.631  23.932  33.568  1.00  0.00    -0.744 OA
ENDBRANCH  62  65
ENDBRANCH  44  58
BRANCH  45  69
ATOM     69  C   UNL A   1      43.288  25.058  26.333  1.00  0.00     0.023 A 
ATOM     70  C   UNL A   1      44.166  24.966  25.237  1.00  0.00     0.012 A 
ATOM     71  C   UNL A   1      42.548  23.908  26.692  1.00  0.00     0.148 A 
ATOM     72  C   UNL A   1      44.322  23.765  24.535  1.00  0.00     0.002 A 
ATOM     73  C   UNL A   1      42.689  22.721  25.978  1.00  0.00     0.091 A 
ATOM     74  F   UNL A   1      41.772  23.951  27.783  1.00  0.00    -0.205 F 
ATOM     75  C   UNL A   1      43.587  22.642  24.907  1.00  0.00     0.022 A 
BRANCH  73  76
ATOM     76  S   UNL A   1      41.765  21.236  26.394  1.00  0.00     0.127 S 
ATOM     77  O   UNL A   1      42.109  21.048  27.804  1.00  0.00    -0.237 OA
ATOM     78  O   UNL A   1      40.388  21.656  26.150  1.00  0.00    -0.237 OA
ATOM     79  O   UNL A   1      42.275  20.191  25.513  1.00  0.00    -0.744 OA
ENDBRANCH  73  76
ENDBRANCH  45  69
BRANCH  57  80
ATOM     80  C   UNL A   1      46.143  29.821  29.303  1.00  0.00     0.023 A 
ATOM     81  C   UNL A   1      47.521  29.939  29.035  1.00  0.00     0.012 A 
ATOM     82  C   UNL A   1      45.232  30.576  28.542  1.00  0.00     0.148 A 
ATOM     83  C   UNL A   1      47.982  30.811  28.047  1.00  0.00     0.002 A 
ATOM     84  C   UNL A   1      45.692  31.402  27.525  1.00  0.00     0.091 A 
ATOM     85  F   UNL A   1      43.923  30.451  28.809  1.00  0.00    -0.205 F 
ATOM     86  C   UNL A   1      47.068  31.531  27.282  1.00  0.00     0.022 A 
BRANCH  84  87
ATOM     87  S   UNL A   1      44.555  32.242  26.419  1.00  0.00     0.127 S 
ATOM     88  O   UNL A   1      43.605  31.181  26.091  1.00  0.00    -0.237 OA
ATOM     89  O   UNL A   1      44.015  33.306  27.267  1.00  0.00    -0.237 OA
ATOM     90  O   UNL A   1      45.368  32.727  25.310  1.00  0.00    -0.744 OA
ENDBRANCH  84  87
ENDBRANCH  57  80
ENDBRANCH  31  32
ENDBRANCH  24  26
ENDBRANCH  23  24
ENDBRANCH  22  23
ENDBRANCH   1  22
TORSDOF 18
ENDMDL
