MODEL 1
REMARK VINA RESULT:     -12.2      0.000      0.000
REMARK SMILES O=C(OCCOC(=O)[C@H]1CSCN1C(=O)c1occc1-c1ccccc1)c1ccc(-c2c3nc(c(-c4cccc(S(=O)(=O)[O-])c4F)c4ccc([nH]4)c(-c4cccc(S(=O)(=O)[O-])c4F)c4nc(c(-c5cccc(S(=O)(=O)[O-])c5F)c5ccc2[nH]5)C=C4)C=C3)cc1
REMARK SMILES IDX 4 1 3 2 2 3 1 4 27 5 28 6 89 7 29 8 88 9 30 10 31 11 32 12
REMARK SMILES IDX 82 13 33 14 87 15 81 16 83 17 34 18 86 19 80 20 79 21 35 23
REMARK SMILES IDX 67 24 47 25 66 26 48 27 51 28 65 29 84 30 49 31 50 32 64 34
REMARK SMILES IDX 85 35 52 36 36 37 37 38 45 39 38 40 40 41 46 42 39 43 41 44
REMARK SMILES IDX 42 45 43 46 44 47 68 48 69 49 77 50 70 51 72 52 78 53 71 54
REMARK SMILES IDX 73 55 74 56 75 57 76 58 53 59 54 60 62 61 55 62 57 63 63 64
REMARK SMILES IDX 56 65 58 66 59 67 60 68 61 69 5 70 6 71 7 72 8 73 9 74 10 75
REMARK SMILES IDX 13 76 11 77 12 78 14 79 15 80 16 81 17 82 20 83 18 84 19 85
REMARK SMILES IDX 21 86 22 87 26 88 23 89 25 90 24 91
REMARK H PARENT 83 22 51 33
REMARK Flexibility Score: inf
ROOT
ATOM      1  C   UNL A   1      35.047  21.436  26.457  1.00  0.00     0.275 C 
ENDROOT
BRANCH   1   2
ATOM      2  O   UNL A   1      35.956  20.823  25.517  1.00  0.00    -0.458 OA
BRANCH   2   3
ATOM      3  C   UNL A   1      37.275  20.982  25.271  1.00  0.00     0.338 C 
ATOM      4  O   UNL A   1      37.870  20.081  24.684  1.00  0.00    -0.246 OA
BRANCH   3   5
ATOM      5  C   UNL A   1      38.097  22.143  25.711  1.00  0.00     0.060 A 
ATOM      6  C   UNL A   1      37.591  23.888  25.607  1.00  0.00     0.016 A 
ATOM      7  C   UNL A   1      39.694  21.735  26.502  1.00  0.00     0.016 A 
ATOM      8  C   UNL A   1      38.657  25.204  26.309  1.00  0.00     0.010 A 
ATOM      9  C   UNL A   1      40.777  23.086  27.190  1.00  0.00     0.010 A 
ATOM     10  C   UNL A   1      40.228  24.821  27.089  1.00  0.00    -0.014 A 
BRANCH  10  11
ATOM     11  C   UNL A   1      41.061  25.975  27.566  1.00  0.00     0.031 A 
ATOM     12  C   UNL A   1      40.571  26.934  28.605  1.00  0.00     0.074 A 
ATOM     13  C   UNL A   1      42.345  26.131  27.196  1.00  0.00     0.049 A 
ATOM     14  N   UNL A   1      40.953  28.166  28.823  1.00  0.00    -0.248 NA
ATOM     15  C   UNL A   1      39.532  26.461  29.523  1.00  0.00     0.031 C 
ATOM     16  C   UNL A   1      43.087  25.171  26.411  1.00  0.00     0.029 A 
ATOM     17  N   UNL A   1      43.267  27.120  27.448  1.00  0.00    -0.354 N 
ATOM     18  C   UNL A   1      40.048  28.678  29.741  1.00  0.00     0.074 A 
ATOM     19  C   UNL A   1      39.177  27.590  30.123  1.00  0.00     0.031 C 
ATOM     20  C   UNL A   1      44.336  25.604  26.205  1.00  0.00     0.029 A 
ATOM     21  C   UNL A   1      44.481  26.913  26.831  1.00  0.00     0.049 A 
ATOM     22  H   UNL A   1      43.077  27.902  28.016  1.00  0.00     0.167 HD
ATOM     23  C   UNL A   1      39.950  29.952  30.185  1.00  0.00     0.034 A 
ATOM     24  C   UNL A   1      45.586  27.685  26.764  1.00  0.00     0.034 A 
ATOM     25  C   UNL A   1      40.991  30.931  30.009  1.00  0.00     0.049 A 
ATOM     26  C   UNL A   1      45.597  28.995  27.500  1.00  0.00     0.074 A 
ATOM     27  C   UNL A   1      41.007  32.267  30.367  1.00  0.00     0.029 A 
ATOM     28  N   UNL A   1      42.256  30.630  29.530  1.00  0.00    -0.354 N 
ATOM     29  N   UNL A   1      44.619  29.563  28.164  1.00  0.00    -0.248 NA
ATOM     30  C   UNL A   1      46.853  29.757  27.516  1.00  0.00     0.031 C 
ATOM     31  C   UNL A   1      42.310  32.751  30.178  1.00  0.00     0.029 A 
ATOM     32  C   UNL A   1      43.091  31.722  29.674  1.00  0.00     0.049 A 
ATOM     33  H   UNL A   1      42.523  29.764  29.145  1.00  0.00     0.167 HD
ATOM     34  C   UNL A   1      45.137  30.745  28.677  1.00  0.00     0.074 A 
ATOM     35  C   UNL A   1      46.532  30.793  28.284  1.00  0.00     0.031 C 
ATOM     36  C   UNL A   1      44.498  31.721  29.366  1.00  0.00     0.034 A 
BRANCH  23  37
ATOM     37  C   UNL A   1      38.678  30.354  30.876  1.00  0.00     0.023 A 
ATOM     38  C   UNL A   1      38.425  29.990  32.209  1.00  0.00     0.012 A 
ATOM     39  C   UNL A   1      37.723  31.126  30.181  1.00  0.00     0.148 A 
ATOM     40  C   UNL A   1      37.229  30.360  32.828  1.00  0.00     0.002 A 
ATOM     41  C   UNL A   1      36.556  31.532  30.819  1.00  0.00     0.091 A 
ATOM     42  F   UNL A   1      37.953  31.439  28.896  1.00  0.00    -0.205 F 
ATOM     43  C   UNL A   1      36.299  31.140  32.139  1.00  0.00     0.022 A 
BRANCH  41  44
ATOM     44  S   UNL A   1      35.394  32.616  29.976  1.00  0.00     0.127 S 
ATOM     45  O   UNL A   1      35.037  31.830  28.799  1.00  0.00    -0.237 OA
ATOM     46  O   UNL A   1      34.315  32.768  30.954  1.00  0.00    -0.237 OA
ATOM     47  O   UNL A   1      36.148  33.841  29.732  1.00  0.00    -0.744 OA
ENDBRANCH  41  44
ENDBRANCH  23  37
BRANCH  24  48
ATOM     48  C   UNL A   1      46.783  27.173  26.033  1.00  0.00     0.023 A 
ATOM     49  C   UNL A   1      47.498  26.078  26.555  1.00  0.00     0.012 A 
ATOM     50  C   UNL A   1      47.134  27.675  24.764  1.00  0.00     0.148 A 
ATOM     51  C   UNL A   1      48.541  25.498  25.831  1.00  0.00     0.002 A 
ATOM     52  C   UNL A   1      48.129  27.048  24.019  1.00  0.00     0.091 A 
ATOM     53  F   UNL A   1      46.462  28.733  24.286  1.00  0.00    -0.205 F 
ATOM     54  C   UNL A   1      48.842  25.967  24.555  1.00  0.00     0.022 A 
BRANCH  52  55
ATOM     55  S   UNL A   1      48.428  27.481  22.299  1.00  0.00     0.127 S 
ATOM     56  O   UNL A   1      49.639  28.291  22.396  1.00  0.00    -0.237 OA
ATOM     57  O   UNL A   1      48.611  26.171  21.672  1.00  0.00    -0.237 OA
ATOM     58  O   UNL A   1      47.218  28.175  21.873  1.00  0.00    -0.744 OA
ENDBRANCH  52  55
ENDBRANCH  24  48
BRANCH  36  59
ATOM     59  C   UNL A   1      45.286  32.937  29.758  1.00  0.00     0.023 A 
ATOM     60  C   UNL A   1      45.938  32.945  31.006  1.00  0.00     0.012 A 
ATOM     61  C   UNL A   1      45.470  34.010  28.867  1.00  0.00     0.148 A 
ATOM     62  C   UNL A   1      46.767  34.006  31.363  1.00  0.00     0.002 A 
ATOM     63  C   UNL A   1      46.310  35.060  29.224  1.00  0.00     0.091 A 
ATOM     64  F   UNL A   1      44.819  33.989  27.696  1.00  0.00    -0.205 F 
ATOM     65  C   UNL A   1      46.961  35.057  30.469  1.00  0.00     0.022 A 
BRANCH  63  66
ATOM     66  S   UNL A   1      46.651  36.437  28.120  1.00  0.00     0.127 S 
ATOM     67  O   UNL A   1      47.526  37.270  28.944  1.00  0.00    -0.237 OA
ATOM     68  O   UNL A   1      47.316  35.784  26.993  1.00  0.00    -0.237 OA
ATOM     69  O   UNL A   1      45.354  37.018  27.798  1.00  0.00    -0.744 OA
ENDBRANCH  63  66
ENDBRANCH  36  59
ENDBRANCH  10  11
ENDBRANCH   3   5
ENDBRANCH   2   3
ENDBRANCH   1   2
BRANCH   1  70
ATOM     70  C   UNL A   1      33.620  21.588  25.907  1.00  0.00     0.274 C 
BRANCH  70  71
ATOM     71  O   UNL A   1      33.088  22.898  26.167  1.00  0.00    -0.461 OA
BRANCH  71  72
ATOM     72  C   UNL A   1      32.182  23.340  25.240  1.00  0.00     0.329 C 
ATOM     73  O   UNL A   1      31.085  22.826  25.080  1.00  0.00    -0.250 OA
BRANCH  72  74
ATOM     74  C   UNL A   1      32.696  24.660  24.564  1.00  0.00     0.206 C 
ATOM     75  C   UNL A   1      34.035  24.220  23.950  1.00  0.00     0.108 C 
ATOM     76  N   UNL A   1      31.625  25.411  23.370  1.00  0.00    -0.312 N 
ATOM     77  S   UNL A   1      33.632  23.493  22.388  1.00  0.00    -0.138 SA
ATOM     78  C   UNL A   1      32.442  24.772  21.986  1.00  0.00     0.191 C 
BRANCH  76  79
ATOM     79  C   UNL A   1      29.974  26.541  23.509  1.00  0.00     0.291 C 
ATOM     80  O   UNL A   1      28.758  26.199  23.632  1.00  0.00    -0.265 OA
BRANCH  79  81
ATOM     81  C   UNL A   1      29.692  28.209  23.498  1.00  0.00     0.199 A 
ATOM     82  O   UNL A   1      28.673  28.596  22.651  1.00  0.00    -0.459 OA
ATOM     83  C   UNL A   1      30.338  29.383  23.918  1.00  0.00     0.033 A 
ATOM     84  C   UNL A   1      28.635  29.942  22.566  1.00  0.00     0.196 A 
ATOM     85  C   UNL A   1      29.633  30.480  23.327  1.00  0.00     0.051 A 
BRANCH  83  86
ATOM     86  C   UNL A   1      31.443  29.540  24.838  1.00  0.00    -0.014 A 
ATOM     87  C   UNL A   1      32.554  28.691  24.691  1.00  0.00     0.009 A 
ATOM     88  C   UNL A   1      31.403  30.445  25.897  1.00  0.00     0.009 A 
ATOM     89  C   UNL A   1      33.635  28.780  25.565  1.00  0.00     0.001 A 
ATOM     90  C   UNL A   1      32.487  30.527  26.777  1.00  0.00     0.001 A 
ATOM     91  C   UNL A   1      33.603  29.704  26.606  1.00  0.00     0.000 A 
ENDBRANCH  83  86
ENDBRANCH  79  81
ENDBRANCH  76  79
ENDBRANCH  72  74
ENDBRANCH  71  72
ENDBRANCH  70  71
ENDBRANCH   1  70
TORSDOF 17
ENDMDL
MODEL 2
REMARK VINA RESULT:     -12.2      1.644      2.411
REMARK SMILES O=C(OCCOC(=O)[C@H]1CSCN1C(=O)c1occc1-c1ccccc1)c1ccc(-c2c3nc(c(-c4cccc(S(=O)(=O)[O-])c4F)c4ccc([nH]4)c(-c4cccc(S(=O)(=O)[O-])c4F)c4nc(c(-c5cccc(S(=O)(=O)[O-])c5F)c5ccc2[nH]5)C=C4)C=C3)cc1
REMARK SMILES IDX 4 1 3 2 2 3 1 4 27 5 28 6 89 7 29 8 88 9 30 10 31 11 32 12
REMARK SMILES IDX 82 13 33 14 87 15 81 16 83 17 34 18 86 19 80 20 79 21 35 23
REMARK SMILES IDX 67 24 47 25 66 26 48 27 51 28 65 29 84 30 49 31 50 32 64 34
REMARK SMILES IDX 85 35 52 36 36 37 37 38 45 39 38 40 40 41 46 42 39 43 41 44
REMARK SMILES IDX 42 45 43 46 44 47 68 48 69 49 77 50 70 51 72 52 78 53 71 54
REMARK SMILES IDX 73 55 74 56 75 57 76 58 53 59 54 60 62 61 55 62 57 63 63 64
REMARK SMILES IDX 56 65 58 66 59 67 60 68 61 69 5 70 6 71 7 72 8 73 9 74 10 75
REMARK SMILES IDX 13 76 11 77 12 78 14 79 15 80 16 81 17 82 20 83 18 84 19 85
REMARK SMILES IDX 21 86 22 87 26 88 23 89 25 90 24 91
REMARK H PARENT 83 22 51 33
REMARK Flexibility Score: inf
ROOT
ATOM      1  C   UNL A   1      34.883  21.444  26.480  1.00  0.00     0.275 C 
ENDROOT
BRANCH   1   2
ATOM      2  O   UNL A   1      35.778  20.858  25.510  1.00  0.00    -0.458 OA
BRANCH   2   3
ATOM      3  C   UNL A   1      37.095  21.015  25.255  1.00  0.00     0.338 C 
ATOM      4  O   UNL A   1      37.678  20.128  24.636  1.00  0.00    -0.246 OA
BRANCH   3   5
ATOM      5  C   UNL A   1      37.928  22.159  25.719  1.00  0.00     0.060 A 
ATOM      6  C   UNL A   1      37.447  23.912  25.636  1.00  0.00     0.016 A 
ATOM      7  C   UNL A   1      39.511  21.718  26.519  1.00  0.00     0.016 A 
ATOM      8  C   UNL A   1      38.523  25.203  26.367  1.00  0.00     0.010 A 
ATOM      9  C   UNL A   1      40.606  23.044  27.238  1.00  0.00     0.010 A 
ATOM     10  C   UNL A   1      40.082  24.787  27.157  1.00  0.00    -0.014 A 
BRANCH  10  11
ATOM     11  C   UNL A   1      40.926  25.923  27.658  1.00  0.00     0.031 A 
ATOM     12  C   UNL A   1      40.425  26.895  28.679  1.00  0.00     0.074 A 
ATOM     13  C   UNL A   1      42.225  26.048  27.329  1.00  0.00     0.049 A 
ATOM     14  N   UNL A   1      40.828  28.118  28.907  1.00  0.00    -0.248 NA
ATOM     15  C   UNL A   1      39.347  26.449  29.564  1.00  0.00     0.031 C 
ATOM     16  C   UNL A   1      42.968  25.068  26.570  1.00  0.00     0.029 A 
ATOM     17  N   UNL A   1      43.161  27.015  27.609  1.00  0.00    -0.354 N 
ATOM     18  C   UNL A   1      39.907  28.654  29.795  1.00  0.00     0.074 A 
ATOM     19  C   UNL A   1      38.999  27.588  30.150  1.00  0.00     0.031 C 
ATOM     20  C   UNL A   1      44.234  25.472  26.404  1.00  0.00     0.029 A 
ATOM     21  C   UNL A   1      44.389  26.779  27.033  1.00  0.00     0.049 A 
ATOM     22  H   UNL A   1      42.971  27.803  28.169  1.00  0.00     0.167 HD
ATOM     23  C   UNL A   1      39.824  29.931  30.233  1.00  0.00     0.034 A 
ATOM     24  C   UNL A   1      45.513  27.524  27.000  1.00  0.00     0.034 A 
ATOM     25  C   UNL A   1      40.893  30.885  30.089  1.00  0.00     0.049 A 
ATOM     26  C   UNL A   1      45.531  28.836  27.733  1.00  0.00     0.074 A 
ATOM     27  C   UNL A   1      40.929  32.221  30.444  1.00  0.00     0.029 A 
ATOM     28  N   UNL A   1      42.166  30.554  29.652  1.00  0.00    -0.354 N 
ATOM     29  N   UNL A   1      44.546  29.428  28.365  1.00  0.00    -0.248 NA
ATOM     30  C   UNL A   1      46.804  29.568  27.789  1.00  0.00     0.031 C 
ATOM     31  C   UNL A   1      42.249  32.674  30.297  1.00  0.00     0.029 A 
ATOM     32  C   UNL A   1      43.021  31.626  29.821  1.00  0.00     0.049 A 
ATOM     33  H   UNL A   1      42.424  29.681  29.277  1.00  0.00     0.167 HD
ATOM     34  C   UNL A   1      45.075  30.599  28.891  1.00  0.00     0.074 A 
ATOM     35  C   UNL A   1      46.482  30.614  28.544  1.00  0.00     0.031 C 
ATOM     36  C   UNL A   1      44.436  31.592  29.558  1.00  0.00     0.034 A 
BRANCH  23  37
ATOM     37  C   UNL A   1      38.540  30.364  30.881  1.00  0.00     0.023 A 
ATOM     38  C   UNL A   1      38.269  30.073  32.229  1.00  0.00     0.012 A 
ATOM     39  C   UNL A   1      37.593  31.093  30.131  1.00  0.00     0.148 A 
ATOM     40  C   UNL A   1      37.062  30.471  32.808  1.00  0.00     0.002 A 
ATOM     41  C   UNL A   1      36.415  31.528  30.728  1.00  0.00     0.091 A 
ATOM     42  F   UNL A   1      37.841  31.336  28.834  1.00  0.00    -0.205 F 
ATOM     43  C   UNL A   1      36.140  31.208  32.064  1.00  0.00     0.022 A 
BRANCH  41  44
ATOM     44  S   UNL A   1      35.262  32.558  29.810  1.00  0.00     0.127 S 
ATOM     45  O   UNL A   1      34.814  31.655  28.754  1.00  0.00    -0.237 OA
ATOM     46  O   UNL A   1      34.239  32.879  30.808  1.00  0.00    -0.237 OA
ATOM     47  O   UNL A   1      36.055  33.706  29.385  1.00  0.00    -0.744 OA
ENDBRANCH  41  44
ENDBRANCH  23  37
BRANCH  24  48
ATOM     48  C   UNL A   1      46.720  26.983  26.309  1.00  0.00     0.023 A 
ATOM     49  C   UNL A   1      46.910  27.245  24.939  1.00  0.00     0.012 A 
ATOM     50  C   UNL A   1      47.743  26.329  27.026  1.00  0.00     0.148 A 
ATOM     51  C   UNL A   1      48.089  26.863  24.296  1.00  0.00     0.002 A 
ATOM     52  C   UNL A   1      48.942  26.012  26.395  1.00  0.00     0.091 A 
ATOM     53  F   UNL A   1      47.542  26.063  28.325  1.00  0.00    -0.205 F 
ATOM     54  C   UNL A   1      49.113  26.267  25.027  1.00  0.00     0.022 A 
BRANCH  52  55
ATOM     55  S   UNL A   1      50.366  25.424  27.324  1.00  0.00     0.127 S 
ATOM     56  O   UNL A   1      50.441  26.395  28.411  1.00  0.00    -0.237 OA
ATOM     57  O   UNL A   1      49.944  24.081  27.727  1.00  0.00    -0.237 OA
ATOM     58  O   UNL A   1      51.466  25.436  26.368  1.00  0.00    -0.744 OA
ENDBRANCH  52  55
ENDBRANCH  24  48
BRANCH  36  59
ATOM     59  C   UNL A   1      45.240  32.790  29.973  1.00  0.00     0.023 A 
ATOM     60  C   UNL A   1      45.833  32.795  31.250  1.00  0.00     0.012 A 
ATOM     61  C   UNL A   1      45.497  33.845  29.080  1.00  0.00     0.148 A 
ATOM     62  C   UNL A   1      46.673  33.837  31.634  1.00  0.00     0.002 A 
ATOM     63  C   UNL A   1      46.349  34.876  29.464  1.00  0.00     0.091 A 
ATOM     64  F   UNL A   1      44.901  33.828  27.879  1.00  0.00    -0.205 F 
ATOM     65  C   UNL A   1      46.940  34.871  30.739  1.00  0.00     0.022 A 
BRANCH  63  66
ATOM     66  S   UNL A   1      46.781  36.229  28.362  1.00  0.00     0.127 S 
ATOM     67  O   UNL A   1      47.576  35.543  27.345  1.00  0.00    -0.237 OA
ATOM     68  O   UNL A   1      45.472  36.693  27.901  1.00  0.00    -0.237 OA
ATOM     69  O   UNL A   1      47.505  37.192  29.181  1.00  0.00    -0.744 OA
ENDBRANCH  63  66
ENDBRANCH  36  59
ENDBRANCH  10  11
ENDBRANCH   3   5
ENDBRANCH   2   3
ENDBRANCH   1   2
BRANCH   1  70
ATOM     70  C   UNL A   1      33.613  22.038  25.852  1.00  0.00     0.274 C 
BRANCH  70  71
ATOM     71  O   UNL A   1      33.508  23.450  26.102  1.00  0.00    -0.461 OA
BRANCH  71  72
ATOM     72  C   UNL A   1      32.936  24.169  25.085  1.00  0.00     0.329 C 
ATOM     73  O   UNL A   1      31.753  24.473  25.068  1.00  0.00    -0.250 OA
BRANCH  72  74
ATOM     74  C   UNL A   1      34.036  24.657  24.078  1.00  0.00     0.206 C 
ATOM     75  C   UNL A   1      34.301  23.396  23.238  1.00  0.00     0.108 C 
ATOM     76  N   UNL A   1      33.630  26.058  23.074  1.00  0.00    -0.312 N 
ATOM     77  S   UNL A   1      33.055  23.385  21.982  1.00  0.00    -0.138 SA
ATOM     78  C   UNL A   1      33.213  25.142  21.667  1.00  0.00     0.191 C 
BRANCH  76  79
ATOM     79  C   UNL A   1      33.567  28.033  23.417  1.00  0.00     0.291 C 
ATOM     80  O   UNL A   1      34.038  28.996  22.736  1.00  0.00    -0.265 OA
BRANCH  79  81
ATOM     81  C   UNL A   1      32.916  28.988  24.653  1.00  0.00     0.199 A 
ATOM     82  O   UNL A   1      33.749  29.130  25.744  1.00  0.00    -0.459 OA
ATOM     83  C   UNL A   1      31.666  29.507  25.027  1.00  0.00     0.033 A 
ATOM     84  C   UNL A   1      33.089  29.746  26.746  1.00  0.00     0.196 A 
ATOM     85  C   UNL A   1      31.805  30.005  26.362  1.00  0.00     0.051 A 
BRANCH  83  86
ATOM     86  C   UNL A   1      30.457  29.633  24.243  1.00  0.00    -0.014 A 
ATOM     87  C   UNL A   1      29.998  28.503  23.544  1.00  0.00     0.009 A 
ATOM     88  C   UNL A   1      29.788  30.848  24.104  1.00  0.00     0.009 A 
ATOM     89  C   UNL A   1      28.853  28.575  22.753  1.00  0.00     0.001 A 
ATOM     90  C   UNL A   1      28.643  30.918  23.303  1.00  0.00     0.001 A 
ATOM     91  C   UNL A   1      28.172  29.784  22.638  1.00  0.00     0.000 A 
ENDBRANCH  83  86
ENDBRANCH  79  81
ENDBRANCH  76  79
ENDBRANCH  72  74
ENDBRANCH  71  72
ENDBRANCH  70  71
ENDBRANCH   1  70
TORSDOF 17
ENDMDL
MODEL 3
REMARK VINA RESULT:     -11.8      8.912     14.045
REMARK SMILES O=C(OCCOC(=O)[C@H]1CSCN1C(=O)c1occc1-c1ccccc1)c1ccc(-c2c3nc(c(-c4cccc(S(=O)(=O)[O-])c4F)c4ccc([nH]4)c(-c4cccc(S(=O)(=O)[O-])c4F)c4nc(c(-c5cccc(S(=O)(=O)[O-])c5F)c5ccc2[nH]5)C=C4)C=C3)cc1
REMARK SMILES IDX 4 1 3 2 2 3 1 4 27 5 28 6 89 7 29 8 88 9 30 10 31 11 32 12
REMARK SMILES IDX 82 13 33 14 87 15 81 16 83 17 34 18 86 19 80 20 79 21 35 23
REMARK SMILES IDX 67 24 47 25 66 26 48 27 51 28 65 29 84 30 49 31 50 32 64 34
REMARK SMILES IDX 85 35 52 36 36 37 37 38 45 39 38 40 40 41 46 42 39 43 41 44
REMARK SMILES IDX 42 45 43 46 44 47 68 48 69 49 77 50 70 51 72 52 78 53 71 54
REMARK SMILES IDX 73 55 74 56 75 57 76 58 53 59 54 60 62 61 55 62 57 63 63 64
REMARK SMILES IDX 56 65 58 66 59 67 60 68 61 69 5 70 6 71 7 72 8 73 9 74 10 75
REMARK SMILES IDX 13 76 11 77 12 78 14 79 15 80 16 81 17 82 20 83 18 84 19 85
REMARK SMILES IDX 21 86 22 87 26 88 23 89 25 90 24 91
REMARK H PARENT 83 22 51 33
REMARK Flexibility Score: inf
ROOT
ATOM      1  C   UNL A   1      48.942  23.970  38.005  1.00  0.00     0.275 C 
ENDROOT
BRANCH   1   2
ATOM      2  O   UNL A   1      48.736  25.136  37.179  1.00  0.00    -0.458 OA
BRANCH   2   3
ATOM      3  C   UNL A   1      48.009  26.264  37.337  1.00  0.00     0.338 C 
ATOM      4  O   UNL A   1      48.247  26.979  38.307  1.00  0.00    -0.246 OA
BRANCH   3   5
ATOM      5  C   UNL A   1      46.884  26.689  36.459  1.00  0.00     0.060 A 
ATOM      6  C   UNL A   1      45.200  25.998  36.498  1.00  0.00     0.016 A 
ATOM      7  C   UNL A   1      47.236  28.085  35.333  1.00  0.00     0.016 A 
ATOM      8  C   UNL A   1      43.882  26.712  35.443  1.00  0.00     0.010 A 
ATOM      9  C   UNL A   1      45.891  28.786  34.250  1.00  0.00     0.010 A 
ATOM     10  C   UNL A   1      44.211  28.084  34.331  1.00  0.00    -0.014 A 
BRANCH  10  11
ATOM     11  C   UNL A   1      43.084  28.549  33.456  1.00  0.00     0.031 A 
ATOM     12  C   UNL A   1      42.153  29.645  33.872  1.00  0.00     0.074 A 
ATOM     13  C   UNL A   1      42.931  28.109  32.194  1.00  0.00     0.049 A 
ATOM     14  N   UNL A   1      40.934  29.878  33.461  1.00  0.00    -0.248 NA
ATOM     15  C   UNL A   1      42.643  30.606  34.862  1.00  0.00     0.031 C 
ATOM     16  C   UNL A   1      43.874  27.252  31.512  1.00  0.00     0.029 A 
ATOM     17  N   UNL A   1      41.963  28.339  31.245  1.00  0.00    -0.354 N 
ATOM     18  C   UNL A   1      40.441  30.864  34.303  1.00  0.00     0.074 A 
ATOM     19  C   UNL A   1      41.530  31.261  35.167  1.00  0.00     0.031 C 
ATOM     20  C   UNL A   1      43.450  26.988  30.271  1.00  0.00     0.029 A 
ATOM     21  C   UNL A   1      42.164  27.647  30.071  1.00  0.00     0.049 A 
ATOM     22  H   UNL A   1      41.197  28.941  31.391  1.00  0.00     0.167 HD
ATOM     23  C   UNL A   1      39.181  31.353  34.358  1.00  0.00     0.034 A 
ATOM     24  C   UNL A   1      41.404  27.540  28.961  1.00  0.00     0.034 A 
ATOM     25  C   UNL A   1      38.210  31.148  33.315  1.00  0.00     0.049 A 
ATOM     26  C   UNL A   1      40.119  28.315  28.890  1.00  0.00     0.074 A 
ATOM     27  C   UNL A   1      36.886  31.547  33.259  1.00  0.00     0.029 A 
ATOM     28  N   UNL A   1      38.510  30.588  32.084  1.00  0.00    -0.354 N 
ATOM     29  N   UNL A   1      39.561  29.053  29.819  1.00  0.00    -0.248 NA
ATOM     30  C   UNL A   1      39.374  28.283  27.623  1.00  0.00     0.031 C 
ATOM     31  C   UNL A   1      36.413  31.298  31.962  1.00  0.00     0.029 A 
ATOM     32  C   UNL A   1      37.434  30.717  31.227  1.00  0.00     0.049 A 
ATOM     33  H   UNL A   1      39.366  30.160  31.853  1.00  0.00     0.167 HD
ATOM     34  C   UNL A   1      38.402  29.572  29.256  1.00  0.00     0.074 A 
ATOM     35  C   UNL A   1      38.359  29.101  27.885  1.00  0.00     0.031 C 
ATOM     36  C   UNL A   1      37.442  30.328  29.840  1.00  0.00     0.034 A 
BRANCH  23  37
ATOM     37  C   UNL A   1      38.787  32.129  35.582  1.00  0.00     0.023 A 
ATOM     38  C   UNL A   1      39.025  33.510  35.679  1.00  0.00     0.012 A 
ATOM     39  C   UNL A   1      38.148  31.465  36.651  1.00  0.00     0.148 A 
ATOM     40  C   UNL A   1      38.665  34.210  36.833  1.00  0.00     0.002 A 
ATOM     41  C   UNL A   1      37.749  32.177  37.776  1.00  0.00     0.091 A 
ATOM     42  F   UNL A   1      37.956  30.139  36.569  1.00  0.00    -0.205 F 
ATOM     43  C   UNL A   1      38.016  33.549  37.877  1.00  0.00     0.022 A 
BRANCH  41  44
ATOM     44  S   UNL A   1      36.828  31.358  39.087  1.00  0.00     0.127 S 
ATOM     45  O   UNL A   1      37.611  31.698  40.272  1.00  0.00    -0.237 OA
ATOM     46  O   UNL A   1      35.515  32.003  39.022  1.00  0.00    -0.237 OA
ATOM     47  O   UNL A   1      36.816  29.951  38.701  1.00  0.00    -0.744 OA
ENDBRANCH  41  44
ENDBRANCH  23  37
BRANCH  24  48
ATOM     48  C   UNL A   1      41.906  26.724  27.816  1.00  0.00     0.023 A 
ATOM     49  C   UNL A   1      42.886  27.262  26.960  1.00  0.00     0.012 A 
ATOM     50  C   UNL A   1      41.521  25.379  27.652  1.00  0.00     0.148 A 
ATOM     51  C   UNL A   1      43.466  26.479  25.960  1.00  0.00     0.002 A 
ATOM     52  C   UNL A   1      42.153  24.585  26.699  1.00  0.00     0.091 A 
ATOM     53  F   UNL A   1      40.571  24.883  28.459  1.00  0.00    -0.205 F 
ATOM     54  C   UNL A   1      43.117  25.137  25.843  1.00  0.00     0.022 A 
BRANCH  52  55
ATOM     55  S   UNL A   1      41.888  22.807  26.632  1.00  0.00     0.127 S 
ATOM     56  O   UNL A   1      42.517  22.359  27.870  1.00  0.00    -0.237 OA
ATOM     57  O   UNL A   1      40.427  22.708  26.611  1.00  0.00    -0.237 OA
ATOM     58  O   UNL A   1      42.525  22.382  25.391  1.00  0.00    -0.744 OA
ENDBRANCH  52  55
ENDBRANCH  24  48
BRANCH  36  59
ATOM     59  C   UNL A   1      36.249  30.712  29.013  1.00  0.00     0.023 A 
ATOM     60  C   UNL A   1      35.521  29.695  28.367  1.00  0.00     0.012 A 
ATOM     61  C   UNL A   1      35.790  32.040  28.961  1.00  0.00     0.148 A 
ATOM     62  C   UNL A   1      34.348  29.995  27.679  1.00  0.00     0.002 A 
ATOM     63  C   UNL A   1      34.610  32.331  28.285  1.00  0.00     0.091 A 
ATOM     64  F   UNL A   1      36.514  32.993  29.565  1.00  0.00    -0.205 F 
ATOM     65  C   UNL A   1      33.887  31.309  27.646  1.00  0.00     0.022 A 
BRANCH  63  66
ATOM     66  S   UNL A   1      33.919  33.989  28.223  1.00  0.00     0.127 S 
ATOM     67  O   UNL A   1      34.134  34.453  29.593  1.00  0.00    -0.237 OA
ATOM     68  O   UNL A   1      34.757  34.646  27.220  1.00  0.00    -0.237 OA
ATOM     69  O   UNL A   1      32.526  33.825  27.828  1.00  0.00    -0.744 OA
ENDBRANCH  63  66
ENDBRANCH  36  59
ENDBRANCH  10  11
ENDBRANCH   3   5
ENDBRANCH   2   3
ENDBRANCH   1   2
BRANCH   1  70
ATOM     70  C   UNL A   1      49.492  22.765  37.226  1.00  0.00     0.274 C 
BRANCH  70  71
ATOM     71  O   UNL A   1      48.435  21.962  36.675  1.00  0.00    -0.461 OA
BRANCH  71  72
ATOM     72  C   UNL A   1      48.133  20.840  37.401  1.00  0.00     0.329 C 
ATOM     73  O   UNL A   1      48.982  20.152  37.950  1.00  0.00    -0.250 OA
BRANCH  72  74
ATOM     74  C   UNL A   1      46.578  20.687  37.545  1.00  0.00     0.206 C 
ATOM     75  C   UNL A   1      46.057  21.381  36.276  1.00  0.00     0.108 C 
ATOM     76  N   UNL A   1      45.953  19.038  37.713  1.00  0.00    -0.312 N 
ATOM     77  S   UNL A   1      46.129  20.160  34.996  1.00  0.00    -0.138 SA
ATOM     78  C   UNL A   1      45.488  18.865  36.056  1.00  0.00     0.191 C 
BRANCH  76  79
ATOM     79  C   UNL A   1      45.869  17.741  39.239  1.00  0.00     0.291 C 
ATOM     80  O   UNL A   1      46.771  17.382  40.058  1.00  0.00    -0.265 OA
BRANCH  79  81
ATOM     81  C   UNL A   1      44.646  16.761  39.878  1.00  0.00     0.199 A 
ATOM     82  O   UNL A   1      44.000  15.989  38.934  1.00  0.00    -0.459 OA
ATOM     83  C   UNL A   1      43.906  16.652  41.066  1.00  0.00     0.033 A 
ATOM     84  C   UNL A   1      42.933  15.382  39.491  1.00  0.00     0.196 A 
ATOM     85  C   UNL A   1      42.826  15.750  40.802  1.00  0.00     0.051 A 
BRANCH  83  86
ATOM     86  C   UNL A   1      44.170  17.231  42.366  1.00  0.00    -0.014 A 
ATOM     87  C   UNL A   1      43.900  18.598  42.550  1.00  0.00     0.009 A 
ATOM     88  C   UNL A   1      44.749  16.497  43.399  1.00  0.00     0.009 A 
ATOM     89  C   UNL A   1      44.160  19.214  43.772  1.00  0.00     0.001 A 
ATOM     90  C   UNL A   1      45.016  17.120  44.623  1.00  0.00     0.001 A 
ATOM     91  C   UNL A   1      44.713  18.471  44.812  1.00  0.00     0.000 A 
ENDBRANCH  83  86
ENDBRANCH  79  81
ENDBRANCH  76  79
ENDBRANCH  72  74
ENDBRANCH  71  72
ENDBRANCH  70  71
ENDBRANCH   1  70
TORSDOF 17
ENDMDL
