MODEL 1
REMARK VINA RESULT:     -11.9      0.000      0.000
REMARK SMILES Cc1cc(C(=O)N[C@@H](Cc2ccccc2)C(=O)OCCOC(=O)c2ccc(-c3c4nc(c(-c5cccc(S(=O)(=O)[O-])c5F)c5ccc([nH]5)c(-c5cccc(S(=O)(=O)[O-])c5F)c5nc(c(-c6cccc(S(=O)(=O)[O-])c6F)c6ccc3[nH]6)C=C5)C=C4)cc2)c(C)o1
REMARK SMILES IDX 20 1 19 2 18 3 16 4 17 5 8 6 7 7 5 8 6 9 4 11 1 12 2 13 3 14
REMARK SMILES IDX 89 15 87 16 88 17 9 18 10 19 11 20 15 21 12 22 14 23 13 24
REMARK SMILES IDX 21 25 22 26 23 27 24 28 25 29 86 30 26 31 85 32 27 33 28 34
REMARK SMILES IDX 29 35 79 36 30 37 84 38 78 39 80 40 31 41 83 42 77 43 76 44
REMARK SMILES IDX 32 46 64 47 44 48 63 49 45 50 48 51 62 52 81 53 46 54 47 55
REMARK SMILES IDX 61 57 82 58 49 59 33 60 34 61 42 62 35 63 37 64 43 65 36 66
REMARK SMILES IDX 38 67 39 68 40 69 41 70 65 71 66 72 74 73 67 74 69 75 75 76
REMARK SMILES IDX 68 77 70 78 71 79 72 80 73 81 50 82 51 83 59 84 52 85 54 86
REMARK SMILES IDX 60 87 53 88 55 89 56 90 57 91 58 92
REMARK H PARENT 7 10 80 45 48 56
REMARK Flexibility Score: inf
ROOT
ATOM      1  C   UNL A   1      31.728  30.946  26.302  1.00  0.00     0.275 C 
ENDROOT
BRANCH   1   2
ATOM      2  C   UNL A   1      31.428  29.933  25.200  1.00  0.00     0.274 C 
BRANCH   2   3
ATOM      3  O   UNL A   1      32.342  28.826  25.299  1.00  0.00    -0.461 OA
BRANCH   3   4
ATOM      4  C   UNL A   1      32.982  28.466  24.151  1.00  0.00     0.329 C 
ATOM      5  O   UNL A   1      33.472  29.245  23.341  1.00  0.00    -0.250 OA
BRANCH   4   6
ATOM      6  C   UNL A   1      32.967  26.942  23.935  1.00  0.00     0.197 C 
BRANCH   6   7
ATOM      7  N   UNL A   1      32.991  26.554  22.523  1.00  0.00    -0.338 N 
ATOM      8  C   UNL A   1      33.007  25.364  21.849  1.00  0.00     0.255 C 
ATOM      9  O   UNL A   1      33.239  25.459  20.641  1.00  0.00    -0.269 OA
ATOM     10  H   UNL A   1      32.997  27.331  21.918  1.00  0.00     0.164 HD
BRANCH   8  11
ATOM     11  C   UNL A   1      32.733  24.068  22.477  1.00  0.00     0.081 A 
ATOM     12  C   UNL A   1      33.074  20.730  24.116  1.00  0.00     0.087 C 
ATOM     13  C   UNL A   1      32.785  22.026  23.468  1.00  0.00     0.101 A 
ATOM     14  C   UNL A   1      33.508  22.879  22.662  1.00  0.00     0.059 A 
ATOM     15  O   UNL A   1      31.562  22.552  23.705  1.00  0.00    -0.466 OA
ATOM     16  C   UNL A   1      31.519  23.770  23.099  1.00  0.00     0.113 A 
ATOM     17  C   UNL A   1      30.231  24.479  23.289  1.00  0.00     0.088 C 
ENDBRANCH   8  11
ENDBRANCH   6   7
BRANCH   6  18
ATOM     18  C   UNL A   1      34.139  26.302  24.705  1.00  0.00     0.072 C 
BRANCH  18  19
ATOM     19  C   UNL A   1      33.703  25.203  25.653  1.00  0.00    -0.045 A 
ATOM     20  C   UNL A   1      34.585  24.155  25.957  1.00  0.00     0.004 A 
ATOM     21  C   UNL A   1      32.396  25.156  26.155  1.00  0.00     0.004 A 
ATOM     22  C   UNL A   1      34.160  23.068  26.721  1.00  0.00     0.000 A 
ATOM     23  C   UNL A   1      31.971  24.063  26.912  1.00  0.00     0.000 A 
ATOM     24  C   UNL A   1      32.850  23.018  27.191  1.00  0.00     0.000 A 
ENDBRANCH  18  19
ENDBRANCH   6  18
ENDBRANCH   4   6
ENDBRANCH   3   4
ENDBRANCH   2   3
ENDBRANCH   1   2
BRANCH   1  25
ATOM     25  O   UNL A   1      33.013  30.664  26.880  1.00  0.00    -0.458 OA
BRANCH  25  26
ATOM     26  C   UNL A   1      33.633  31.725  27.442  1.00  0.00     0.338 C 
ATOM     27  O   UNL A   1      33.165  32.840  27.649  1.00  0.00    -0.246 OA
BRANCH  26  28
ATOM     28  C   UNL A   1      34.976  31.332  27.874  1.00  0.00     0.060 A 
ATOM     29  C   UNL A   1      35.214  29.993  28.179  1.00  0.00     0.016 A 
ATOM     30  C   UNL A   1      35.960  32.293  28.091  1.00  0.00     0.016 A 
ATOM     31  C   UNL A   1      36.417  29.619  28.771  1.00  0.00     0.010 A 
ATOM     32  C   UNL A   1      37.192  31.901  28.630  1.00  0.00     0.010 A 
ATOM     33  C   UNL A   1      37.418  30.568  29.015  1.00  0.00    -0.014 A 
BRANCH  33  34
ATOM     34  C   UNL A   1      38.669  30.179  29.727  1.00  0.00     0.031 A 
ATOM     35  C   UNL A   1      39.631  29.212  29.087  1.00  0.00     0.074 A 
ATOM     36  C   UNL A   1      38.954  30.685  30.944  1.00  0.00     0.049 A 
ATOM     37  N   UNL A   1      40.664  28.607  29.613  1.00  0.00    -0.248 NA
ATOM     38  C   UNL A   1      39.388  28.865  27.677  1.00  0.00     0.031 C 
ATOM     39  C   UNL A   1      38.132  31.648  31.676  1.00  0.00     0.029 A 
ATOM     40  N   UNL A   1      40.014  30.446  31.787  1.00  0.00    -0.354 N 
ATOM     41  C   UNL A   1      41.139  27.744  28.632  1.00  0.00     0.074 A 
ATOM     42  C   UNL A   1      40.292  27.919  27.471  1.00  0.00     0.031 C 
ATOM     43  C   UNL A   1      38.722  31.931  32.848  1.00  0.00     0.029 A 
ATOM     44  C   UNL A   1      39.924  31.114  32.986  1.00  0.00     0.049 A 
ATOM     45  H   UNL A   1      40.765  29.855  31.554  1.00  0.00     0.167 HD
ATOM     46  C   UNL A   1      42.191  26.892  28.687  1.00  0.00     0.034 A 
ATOM     47  C   UNL A   1      40.694  31.052  34.090  1.00  0.00     0.034 A 
ATOM     48  C   UNL A   1      43.098  26.793  29.799  1.00  0.00     0.049 A 
ATOM     49  C   UNL A   1      41.880  30.126  34.112  1.00  0.00     0.074 A 
ATOM     50  C   UNL A   1      44.222  25.994  29.922  1.00  0.00     0.029 A 
ATOM     51  N   UNL A   1      43.002  27.531  30.967  1.00  0.00    -0.354 N 
ATOM     52  N   UNL A   1      42.332  29.344  33.163  1.00  0.00    -0.248 NA
ATOM     53  C   UNL A   1      42.665  30.080  35.354  1.00  0.00     0.031 C 
ATOM     54  C   UNL A   1      44.809  26.252  31.166  1.00  0.00     0.029 A 
ATOM     55  C   UNL A   1      44.050  27.213  31.815  1.00  0.00     0.049 A 
ATOM     56  H   UNL A   1      42.293  28.185  31.167  1.00  0.00     0.167 HD
ATOM     57  C   UNL A   1      43.460  28.723  33.687  1.00  0.00     0.074 A 
ATOM     58  C   UNL A   1      43.642  29.245  35.026  1.00  0.00     0.031 C 
ATOM     59  C   UNL A   1      44.255  27.783  33.121  1.00  0.00     0.034 A 
BRANCH  46  60
ATOM     60  C   UNL A   1      42.444  26.011  27.494  1.00  0.00     0.023 A 
ATOM     61  C   UNL A   1      43.204  26.499  26.412  1.00  0.00     0.012 A 
ATOM     62  C   UNL A   1      41.990  24.677  27.475  1.00  0.00     0.148 A 
ATOM     63  C   UNL A   1      43.487  25.680  25.320  1.00  0.00     0.002 A 
ATOM     64  C   UNL A   1      42.310  23.855  26.400  1.00  0.00     0.091 A 
ATOM     65  F   UNL A   1      41.246  24.239  28.501  1.00  0.00    -0.205 F 
ATOM     66  C   UNL A   1      43.052  24.357  25.319  1.00  0.00     0.022 A 
BRANCH  64  67
ATOM     67  S   UNL A   1      41.855  22.117  26.357  1.00  0.00     0.127 S 
ATOM     68  O   UNL A   1      42.539  21.662  25.148  1.00  0.00    -0.237 OA
ATOM     69  O   UNL A   1      42.428  21.611  27.606  1.00  0.00    -0.237 OA
ATOM     70  O   UNL A   1      40.401  22.091  26.309  1.00  0.00    -0.744 OA
ENDBRANCH  64  67
ENDBRANCH  46  60
BRANCH  47  71
ATOM     71  C   UNL A   1      40.373  31.915  35.263  1.00  0.00     0.023 A 
ATOM     72  C   UNL A   1      41.119  33.089  35.480  1.00  0.00     0.012 A 
ATOM     73  C   UNL A   1      39.304  31.612  36.126  1.00  0.00     0.148 A 
ATOM     74  C   UNL A   1      40.813  33.938  36.544  1.00  0.00     0.002 A 
ATOM     75  C   UNL A   1      38.964  32.494  37.145  1.00  0.00     0.091 A 
ATOM     76  F   UNL A   1      38.624  30.474  35.925  1.00  0.00    -0.205 F 
ATOM     77  C   UNL A   1      39.726  33.650  37.366  1.00  0.00     0.022 A 
BRANCH  75  78
ATOM     78  S   UNL A   1      37.480  32.270  38.133  1.00  0.00     0.127 S 
ATOM     79  O   UNL A   1      37.847  32.934  39.380  1.00  0.00    -0.237 OA
ATOM     80  O   UNL A   1      36.469  32.969  37.338  1.00  0.00    -0.237 OA
ATOM     81  O   UNL A   1      37.284  30.829  38.206  1.00  0.00    -0.744 OA
ENDBRANCH  75  78
ENDBRANCH  47  71
BRANCH  59  82
ATOM     82  C   UNL A   1      45.409  27.263  33.936  1.00  0.00     0.023 A 
ATOM     83  C   UNL A   1      46.641  27.946  33.902  1.00  0.00     0.012 A 
ATOM     84  C   UNL A   1      45.256  26.153  34.788  1.00  0.00     0.148 A 
ATOM     85  C   UNL A   1      47.710  27.517  34.687  1.00  0.00     0.002 A 
ATOM     86  C   UNL A   1      46.315  25.754  35.596  1.00  0.00     0.091 A 
ATOM     87  F   UNL A   1      44.082  25.503  34.789  1.00  0.00    -0.205 F 
ATOM     88  C   UNL A   1      47.544  26.429  35.542  1.00  0.00     0.022 A 
BRANCH  86  89
ATOM     89  S   UNL A   1      46.157  24.413  36.782  1.00  0.00     0.127 S 
ATOM     90  O   UNL A   1      46.040  23.250  35.905  1.00  0.00    -0.237 OA
ATOM     91  O   UNL A   1      47.418  24.495  37.522  1.00  0.00    -0.237 OA
ATOM     92  O   UNL A   1      44.977  24.726  37.576  1.00  0.00    -0.744 OA
ENDBRANCH  86  89
ENDBRANCH  59  82
ENDBRANCH  33  34
ENDBRANCH  26  28
ENDBRANCH  25  26
ENDBRANCH   1  25
TORSDOF 18
ENDMDL
MODEL 2
REMARK VINA RESULT:     -11.9      5.188     10.053
REMARK SMILES Cc1cc(C(=O)N[C@@H](Cc2ccccc2)C(=O)OCCOC(=O)c2ccc(-c3c4nc(c(-c5cccc(S(=O)(=O)[O-])c5F)c5ccc([nH]5)c(-c5cccc(S(=O)(=O)[O-])c5F)c5nc(c(-c6cccc(S(=O)(=O)[O-])c6F)c6ccc3[nH]6)C=C5)C=C4)cc2)c(C)o1
REMARK SMILES IDX 20 1 19 2 18 3 16 4 17 5 8 6 7 7 5 8 6 9 4 11 1 12 2 13 3 14
REMARK SMILES IDX 89 15 87 16 88 17 9 18 10 19 11 20 15 21 12 22 14 23 13 24
REMARK SMILES IDX 21 25 22 26 23 27 24 28 25 29 86 30 26 31 85 32 27 33 28 34
REMARK SMILES IDX 29 35 79 36 30 37 84 38 78 39 80 40 31 41 83 42 77 43 76 44
REMARK SMILES IDX 32 46 64 47 44 48 63 49 45 50 48 51 62 52 81 53 46 54 47 55
REMARK SMILES IDX 61 57 82 58 49 59 33 60 34 61 42 62 35 63 37 64 43 65 36 66
REMARK SMILES IDX 38 67 39 68 40 69 41 70 65 71 66 72 74 73 67 74 69 75 75 76
REMARK SMILES IDX 68 77 70 78 71 79 72 80 73 81 50 82 51 83 59 84 52 85 54 86
REMARK SMILES IDX 60 87 53 88 55 89 56 90 57 91 58 92
REMARK H PARENT 7 10 80 45 48 56
REMARK Flexibility Score: inf
ROOT
ATOM      1  C   UNL A   1      36.056  21.006  25.571  1.00  0.00     0.275 C 
ENDROOT
BRANCH   1   2
ATOM      2  C   UNL A   1      34.835  21.648  24.919  1.00  0.00     0.274 C 
BRANCH   2   3
ATOM      3  O   UNL A   1      34.824  23.060  25.198  1.00  0.00    -0.461 OA
BRANCH   3   4
ATOM      4  C   UNL A   1      33.857  23.501  26.051  1.00  0.00     0.329 C 
ATOM      5  O   UNL A   1      33.655  23.061  27.178  1.00  0.00    -0.250 OA
BRANCH   4   6
ATOM      6  C   UNL A   1      32.977  24.590  25.414  1.00  0.00     0.197 C 
BRANCH   6   7
ATOM      7  N   UNL A   1      32.007  24.066  24.450  1.00  0.00    -0.338 N 
ATOM      8  C   UNL A   1      31.048  24.619  23.646  1.00  0.00     0.255 C 
ATOM      9  O   UNL A   1      30.283  23.806  23.123  1.00  0.00    -0.269 OA
ATOM     10  H   UNL A   1      32.056  23.086  24.361  1.00  0.00     0.164 HD
BRANCH   8  11
ATOM     11  C   UNL A   1      30.941  26.055  23.377  1.00  0.00     0.081 A 
ATOM     12  C   UNL A   1      30.028  29.674  23.508  1.00  0.00     0.087 C 
ATOM     13  C   UNL A   1      30.473  28.276  23.328  1.00  0.00     0.101 A 
ATOM     14  C   UNL A   1      29.971  27.052  23.714  1.00  0.00     0.059 A 
ATOM     15  O   UNL A   1      31.640  28.102  22.668  1.00  0.00    -0.466 OA
ATOM     16  C   UNL A   1      31.918  26.770  22.680  1.00  0.00     0.113 A 
ATOM     17  C   UNL A   1      33.189  26.427  21.999  1.00  0.00     0.088 C 
ENDBRANCH   8  11
ENDBRANCH   6   7
BRANCH   6  18
ATOM     18  C   UNL A   1      32.274  25.398  26.523  1.00  0.00     0.072 C 
BRANCH  18  19
ATOM     19  C   UNL A   1      32.542  26.887  26.440  1.00  0.00    -0.045 A 
ATOM     20  C   UNL A   1      31.619  27.792  26.989  1.00  0.00     0.004 A 
ATOM     21  C   UNL A   1      33.643  27.387  25.735  1.00  0.00     0.004 A 
ATOM     22  C   UNL A   1      31.780  29.165  26.809  1.00  0.00     0.000 A 
ATOM     23  C   UNL A   1      33.796  28.762  25.550  1.00  0.00     0.000 A 
ATOM     24  C   UNL A   1      32.864  29.650  26.082  1.00  0.00     0.000 A 
ENDBRANCH  18  19
ENDBRANCH   6  18
ENDBRANCH   4   6
ENDBRANCH   3   4
ENDBRANCH   2   3
ENDBRANCH   1   2
BRANCH   1  25
ATOM     25  O   UNL A   1      37.251  21.658  25.106  1.00  0.00    -0.458 OA
BRANCH  25  26
ATOM     26  C   UNL A   1      38.391  21.263  25.714  1.00  0.00     0.338 C 
ATOM     27  O   UNL A   1      38.886  20.141  25.718  1.00  0.00    -0.246 OA
BRANCH  26  28
ATOM     28  C   UNL A   1      39.040  22.423  26.330  1.00  0.00     0.060 A 
ATOM     29  C   UNL A   1      38.519  23.691  26.080  1.00  0.00     0.016 A 
ATOM     30  C   UNL A   1      40.223  22.274  27.049  1.00  0.00     0.016 A 
ATOM     31  C   UNL A   1      39.218  24.822  26.489  1.00  0.00     0.010 A 
ATOM     32  C   UNL A   1      40.891  23.414  27.512  1.00  0.00     0.010 A 
ATOM     33  C   UNL A   1      40.418  24.702  27.201  1.00  0.00    -0.014 A 
BRANCH  33  34
ATOM     34  C   UNL A   1      41.207  25.914  27.562  1.00  0.00     0.031 A 
ATOM     35  C   UNL A   1      40.590  26.985  28.423  1.00  0.00     0.074 A 
ATOM     36  C   UNL A   1      42.474  26.066  27.126  1.00  0.00     0.049 A 
ATOM     37  N   UNL A   1      41.034  28.187  28.688  1.00  0.00    -0.248 NA
ATOM     38  C   UNL A   1      39.297  26.672  29.052  1.00  0.00     0.031 C 
ATOM     39  C   UNL A   1      43.211  25.103  26.308  1.00  0.00     0.029 A 
ATOM     40  N   UNL A   1      43.364  27.099  27.303  1.00  0.00    -0.354 N 
ATOM     41  C   UNL A   1      40.037  28.803  29.437  1.00  0.00     0.074 A 
ATOM     42  C   UNL A   1      38.974  27.835  29.601  1.00  0.00     0.031 C 
ATOM     43  C   UNL A   1      44.442  25.580  26.067  1.00  0.00     0.029 A 
ATOM     44  C   UNL A   1      44.559  26.914  26.648  1.00  0.00     0.049 A 
ATOM     45  H   UNL A   1      43.165  27.894  27.847  1.00  0.00     0.167 HD
ATOM     46  C   UNL A   1      40.014  30.057  29.950  1.00  0.00     0.034 A 
ATOM     47  C   UNL A   1      45.616  27.736  26.492  1.00  0.00     0.034 A 
ATOM     48  C   UNL A   1      41.111  30.983  29.881  1.00  0.00     0.049 A 
ATOM     49  C   UNL A   1      45.581  29.108  27.106  1.00  0.00     0.074 A 
ATOM     50  C   UNL A   1      41.196  32.257  30.419  1.00  0.00     0.029 A 
ATOM     51  N   UNL A   1      42.322  30.732  29.258  1.00  0.00    -0.354 N 
ATOM     52  N   UNL A   1      44.645  29.659  27.838  1.00  0.00    -0.248 NA
ATOM     53  C   UNL A   1      46.751  29.970  26.879  1.00  0.00     0.031 C 
ATOM     54  C   UNL A   1      42.462  32.774  30.123  1.00  0.00     0.029 A 
ATOM     55  C   UNL A   1      43.165  31.821  29.403  1.00  0.00     0.049 A 
ATOM     56  H   UNL A   1      42.551  29.900  28.782  1.00  0.00     0.167 HD
ATOM     57  C   UNL A   1      45.116  30.924  28.170  1.00  0.00     0.074 A 
ATOM     58  C   UNL A   1      46.436  31.046  27.586  1.00  0.00     0.031 C 
ATOM     59  C   UNL A   1      44.499  31.907  28.869  1.00  0.00     0.034 A 
BRANCH  46  60
ATOM     60  C   UNL A   1      38.767  30.498  30.668  1.00  0.00     0.023 A 
ATOM     61  C   UNL A   1      38.667  30.333  32.064  1.00  0.00     0.012 A 
ATOM     62  C   UNL A   1      37.723  31.138  29.970  1.00  0.00     0.148 A 
ATOM     63  C   UNL A   1      37.538  30.779  32.749  1.00  0.00     0.002 A 
ATOM     64  C   UNL A   1      36.619  31.615  30.667  1.00  0.00     0.091 A 
ATOM     65  F   UNL A   1      37.824  31.262  28.638  1.00  0.00    -0.205 F 
ATOM     66  C   UNL A   1      36.521  31.430  32.055  1.00  0.00     0.022 A 
BRANCH  64  67
ATOM     67  S   UNL A   1      35.302  32.534  29.859  1.00  0.00     0.127 S 
ATOM     68  O   UNL A   1      36.026  33.690  29.335  1.00  0.00    -0.237 OA
ATOM     69  O   UNL A   1      34.842  31.591  28.838  1.00  0.00    -0.237 OA
ATOM     70  O   UNL A   1      34.324  32.818  30.899  1.00  0.00    -0.744 OA
ENDBRANCH  64  67
ENDBRANCH  46  60
BRANCH  47  71
ATOM     71  C   UNL A   1      46.811  27.265  25.734  1.00  0.00     0.023 A 
ATOM     72  C   UNL A   1      47.640  26.277  26.298  1.00  0.00     0.012 A 
ATOM     73  C   UNL A   1      47.096  27.745  24.442  1.00  0.00     0.148 A 
ATOM     74  C   UNL A   1      48.740  25.786  25.593  1.00  0.00     0.002 A 
ATOM     75  C   UNL A   1      48.155  27.207  23.721  1.00  0.00     0.091 A 
ATOM     76  F   UNL A   1      46.316  28.709  23.933  1.00  0.00    -0.205 F 
ATOM     77  C   UNL A   1      48.987  26.237  24.299  1.00  0.00     0.022 A 
BRANCH  75  78
ATOM     78  S   UNL A   1      48.430  27.621  21.994  1.00  0.00     0.127 S 
ATOM     79  O   UNL A   1      48.703  26.311  21.411  1.00  0.00    -0.237 OA
ATOM     80  O   UNL A   1      47.148  28.212  21.608  1.00  0.00    -0.237 OA
ATOM     81  O   UNL A   1      49.539  28.565  22.000  1.00  0.00    -0.744 OA
ENDBRANCH  75  78
ENDBRANCH  47  71
BRANCH  59  82
ATOM     82  C   UNL A   1      45.245  33.201  29.061  1.00  0.00     0.023 A 
ATOM     83  C   UNL A   1      46.078  33.357  30.186  1.00  0.00     0.012 A 
ATOM     84  C   UNL A   1      45.183  34.225  28.097  1.00  0.00     0.148 A 
ATOM     85  C   UNL A   1      46.820  34.524  30.360  1.00  0.00     0.002 A 
ATOM     86  C   UNL A   1      45.955  35.371  28.258  1.00  0.00     0.091 A 
ATOM     87  F   UNL A   1      44.366  34.067  27.044  1.00  0.00    -0.205 F 
ATOM     88  C   UNL A   1      46.768  35.525  29.392  1.00  0.00     0.022 A 
BRANCH  86  89
ATOM     89  S   UNL A   1      46.006  36.670  27.018  1.00  0.00     0.127 S 
ATOM     90  O   UNL A   1      44.634  37.174  27.057  1.00  0.00    -0.237 OA
ATOM     91  O   UNL A   1      47.008  37.588  27.563  1.00  0.00    -0.237 OA
ATOM     92  O   UNL A   1      46.404  36.017  25.779  1.00  0.00    -0.744 OA
ENDBRANCH  86  89
ENDBRANCH  59  82
ENDBRANCH  33  34
ENDBRANCH  26  28
ENDBRANCH  25  26
ENDBRANCH   1  25
TORSDOF 18
ENDMDL
MODEL 3
REMARK VINA RESULT:     -11.9      5.097      9.793
REMARK SMILES Cc1cc(C(=O)N[C@@H](Cc2ccccc2)C(=O)OCCOC(=O)c2ccc(-c3c4nc(c(-c5cccc(S(=O)(=O)[O-])c5F)c5ccc([nH]5)c(-c5cccc(S(=O)(=O)[O-])c5F)c5nc(c(-c6cccc(S(=O)(=O)[O-])c6F)c6ccc3[nH]6)C=C5)C=C4)cc2)c(C)o1
REMARK SMILES IDX 20 1 19 2 18 3 16 4 17 5 8 6 7 7 5 8 6 9 4 11 1 12 2 13 3 14
REMARK SMILES IDX 89 15 87 16 88 17 9 18 10 19 11 20 15 21 12 22 14 23 13 24
REMARK SMILES IDX 21 25 22 26 23 27 24 28 25 29 86 30 26 31 85 32 27 33 28 34
REMARK SMILES IDX 29 35 79 36 30 37 84 38 78 39 80 40 31 41 83 42 77 43 76 44
REMARK SMILES IDX 32 46 64 47 44 48 63 49 45 50 48 51 62 52 81 53 46 54 47 55
REMARK SMILES IDX 61 57 82 58 49 59 33 60 34 61 42 62 35 63 37 64 43 65 36 66
REMARK SMILES IDX 38 67 39 68 40 69 41 70 65 71 66 72 74 73 67 74 69 75 75 76
REMARK SMILES IDX 68 77 70 78 71 79 72 80 73 81 50 82 51 83 59 84 52 85 54 86
REMARK SMILES IDX 60 87 53 88 55 89 56 90 57 91 58 92
REMARK H PARENT 7 10 80 45 48 56
REMARK Flexibility Score: inf
ROOT
ATOM      1  C   UNL A   1      36.199  20.699  25.002  1.00  0.00     0.275 C 
ENDROOT
BRANCH   1   2
ATOM      2  C   UNL A   1      34.859  21.427  24.941  1.00  0.00     0.274 C 
BRANCH   2   3
ATOM      3  O   UNL A   1      35.062  22.779  24.492  1.00  0.00    -0.461 OA
BRANCH   3   4
ATOM      4  C   UNL A   1      34.763  23.765  25.385  1.00  0.00     0.329 C 
ATOM      5  O   UNL A   1      34.926  23.693  26.597  1.00  0.00    -0.250 OA
BRANCH   4   6
ATOM      6  C   UNL A   1      34.116  24.984  24.704  1.00  0.00     0.197 C 
BRANCH   6   7
ATOM      7  N   UNL A   1      33.994  24.844  23.251  1.00  0.00    -0.338 N 
ATOM      8  C   UNL A   1      33.233  25.440  22.284  1.00  0.00     0.255 C 
ATOM      9  O   UNL A   1      33.276  24.889  21.181  1.00  0.00    -0.269 OA
ATOM     10  H   UNL A   1      34.603  24.161  22.886  1.00  0.00     0.164 HD
BRANCH   8  11
ATOM     11  C   UNL A   1      32.450  26.660  22.501  1.00  0.00     0.081 A 
ATOM     12  C   UNL A   1      29.779  29.089  23.457  1.00  0.00     0.087 C 
ATOM     13  C   UNL A   1      30.913  28.249  23.018  1.00  0.00     0.101 A 
ATOM     14  C   UNL A   1      31.057  26.912  22.715  1.00  0.00     0.059 A 
ATOM     15  O   UNL A   1      32.106  28.874  22.896  1.00  0.00    -0.466 OA
ATOM     16  C   UNL A   1      33.029  27.929  22.569  1.00  0.00     0.113 A 
ATOM     17  C   UNL A   1      34.399  28.471  22.416  1.00  0.00     0.088 C 
ENDBRANCH   8  11
ENDBRANCH   6   7
BRANCH   6  18
ATOM     18  C   UNL A   1      32.746  25.266  25.350  1.00  0.00     0.072 C 
BRANCH  18  19
ATOM     19  C   UNL A   1      32.695  26.587  26.093  1.00  0.00    -0.045 A 
ATOM     20  C   UNL A   1      31.514  26.973  26.747  1.00  0.00     0.004 A 
ATOM     21  C   UNL A   1      33.772  27.481  26.055  1.00  0.00     0.004 A 
ATOM     22  C   UNL A   1      31.404  28.237  27.324  1.00  0.00     0.000 A 
ATOM     23  C   UNL A   1      33.655  28.749  26.627  1.00  0.00     0.000 A 
ATOM     24  C   UNL A   1      32.472  29.129  27.256  1.00  0.00     0.000 A 
ENDBRANCH  18  19
ENDBRANCH   6  18
ENDBRANCH   4   6
ENDBRANCH   3   4
ENDBRANCH   2   3
ENDBRANCH   1   2
BRANCH   1  25
ATOM     25  O   UNL A   1      37.269  21.659  25.042  1.00  0.00    -0.458 OA
BRANCH  25  26
ATOM     26  C   UNL A   1      38.372  21.259  25.710  1.00  0.00     0.338 C 
ATOM     27  O   UNL A   1      38.854  20.131  25.747  1.00  0.00    -0.246 OA
BRANCH  26  28
ATOM     28  C   UNL A   1      39.002  22.416  26.349  1.00  0.00     0.060 A 
ATOM     29  C   UNL A   1      38.501  23.687  26.071  1.00  0.00     0.016 A 
ATOM     30  C   UNL A   1      40.150  22.262  27.122  1.00  0.00     0.016 A 
ATOM     31  C   UNL A   1      39.190  24.815  26.505  1.00  0.00     0.010 A 
ATOM     32  C   UNL A   1      40.805  23.400  27.608  1.00  0.00     0.010 A 
ATOM     33  C   UNL A   1      40.356  24.689  27.271  1.00  0.00    -0.014 A 
BRANCH  33  34
ATOM     34  C   UNL A   1      41.136  25.898  27.661  1.00  0.00     0.031 A 
ATOM     35  C   UNL A   1      40.501  26.961  28.519  1.00  0.00     0.074 A 
ATOM     36  C   UNL A   1      42.413  26.053  27.256  1.00  0.00     0.049 A 
ATOM     37  N   UNL A   1      40.938  28.160  28.806  1.00  0.00    -0.248 NA
ATOM     38  C   UNL A   1      39.194  26.642  29.116  1.00  0.00     0.031 C 
ATOM     39  C   UNL A   1      43.168  25.099  26.445  1.00  0.00     0.029 A 
ATOM     40  N   UNL A   1      43.299  27.085  27.463  1.00  0.00    -0.354 N 
ATOM     41  C   UNL A   1      39.926  28.768  29.538  1.00  0.00     0.074 A 
ATOM     42  C   UNL A   1      38.859  27.799  29.669  1.00  0.00     0.031 C 
ATOM     43  C   UNL A   1      44.404  25.578  26.236  1.00  0.00     0.029 A 
ATOM     44  C   UNL A   1      44.508  26.906  26.832  1.00  0.00     0.049 A 
ATOM     45  H   UNL A   1      43.088  27.875  28.010  1.00  0.00     0.167 HD
ATOM     46  C   UNL A   1      39.891  30.017  30.064  1.00  0.00     0.034 A 
ATOM     47  C   UNL A   1      45.569  27.729  26.708  1.00  0.00     0.034 A 
ATOM     48  C   UNL A   1      40.990  30.944  30.028  1.00  0.00     0.049 A 
ATOM     49  C   UNL A   1      45.520  29.095  27.335  1.00  0.00     0.074 A 
ATOM     50  C   UNL A   1      41.062  32.212  30.581  1.00  0.00     0.029 A 
ATOM     51  N   UNL A   1      42.214  30.698  29.430  1.00  0.00    -0.354 N 
ATOM     52  N   UNL A   1      44.568  29.639  28.052  1.00  0.00    -0.248 NA
ATOM     53  C   UNL A   1      46.695  29.958  27.142  1.00  0.00     0.031 C 
ATOM     54  C   UNL A   1      42.335  32.731  30.318  1.00  0.00     0.029 A 
ATOM     55  C   UNL A   1      43.054  31.785  29.605  1.00  0.00     0.049 A 
ATOM     56  H   UNL A   1      42.454  29.871  28.951  1.00  0.00     0.167 HD
ATOM     57  C   UNL A   1      45.032  30.900  28.407  1.00  0.00     0.074 A 
ATOM     58  C   UNL A   1      46.365  31.028  27.854  1.00  0.00     0.031 C 
ATOM     59  C   UNL A   1      44.399  31.877  29.102  1.00  0.00     0.034 A 
BRANCH  46  60
ATOM     60  C   UNL A   1      38.628  30.451  30.758  1.00  0.00     0.023 A 
ATOM     61  C   UNL A   1      38.474  30.221  32.139  1.00  0.00     0.012 A 
ATOM     62  C   UNL A   1      37.625  31.149  30.056  1.00  0.00     0.148 A 
ATOM     63  C   UNL A   1      37.330  30.659  32.806  1.00  0.00     0.002 A 
ATOM     64  C   UNL A   1      36.506  31.617  30.736  1.00  0.00     0.091 A 
ATOM     65  F   UNL A   1      37.777  31.334  28.737  1.00  0.00    -0.205 F 
ATOM     66  C   UNL A   1      36.353  31.366  32.109  1.00  0.00     0.022 A 
BRANCH  64  67
ATOM     67  S   UNL A   1      35.240  32.603  29.929  1.00  0.00     0.127 S 
ATOM     68  O   UNL A   1      36.020  33.732  29.425  1.00  0.00    -0.237 OA
ATOM     69  O   UNL A   1      34.746  31.695  28.892  1.00  0.00    -0.237 OA
ATOM     70  O   UNL A   1      34.266  32.919  30.964  1.00  0.00    -0.744 OA
ENDBRANCH  64  67
ENDBRANCH  46  60
BRANCH  47  71
ATOM     71  C   UNL A   1      46.780  27.265  25.972  1.00  0.00     0.023 A 
ATOM     72  C   UNL A   1      46.889  27.522  24.593  1.00  0.00     0.012 A 
ATOM     73  C   UNL A   1      47.842  26.624  26.638  1.00  0.00     0.148 A 
ATOM     74  C   UNL A   1      48.030  27.138  23.887  1.00  0.00     0.002 A 
ATOM     75  C   UNL A   1      49.001  26.302  25.943  1.00  0.00     0.091 A 
ATOM     76  F   UNL A   1      47.708  26.357  27.945  1.00  0.00    -0.205 F 
ATOM     77  C   UNL A   1      49.092  26.544  24.564  1.00  0.00     0.022 A 
BRANCH  75  78
ATOM     78  S   UNL A   1      50.467  25.688  26.781  1.00  0.00     0.127 S 
ATOM     79  O   UNL A   1      50.752  26.771  27.719  1.00  0.00    -0.237 OA
ATOM     80  O   UNL A   1      49.979  24.453  27.397  1.00  0.00    -0.237 OA
ATOM     81  O   UNL A   1      51.449  25.477  25.727  1.00  0.00    -0.744 OA
ENDBRANCH  75  78
ENDBRANCH  47  71
BRANCH  59  82
ATOM     82  C   UNL A   1      45.141  33.168  29.323  1.00  0.00     0.023 A 
ATOM     83  C   UNL A   1      45.996  33.291  30.435  1.00  0.00     0.012 A 
ATOM     84  C   UNL A   1      45.053  34.224  28.396  1.00  0.00     0.148 A 
ATOM     85  C   UNL A   1      46.734  34.456  30.635  1.00  0.00     0.002 A 
ATOM     86  C   UNL A   1      45.821  35.369  28.582  1.00  0.00     0.091 A 
ATOM     87  F   UNL A   1      44.215  34.097  27.356  1.00  0.00    -0.205 F 
ATOM     88  C   UNL A   1      46.656  35.490  29.703  1.00  0.00     0.022 A 
BRANCH  86  89
ATOM     89  S   UNL A   1      45.838  36.711  27.387  1.00  0.00     0.127 S 
ATOM     90  O   UNL A   1      46.948  37.529  27.872  1.00  0.00    -0.237 OA
ATOM     91  O   UNL A   1      46.101  36.010  26.128  1.00  0.00    -0.237 OA
ATOM     92  O   UNL A   1      44.520  37.326  27.465  1.00  0.00    -0.744 OA
ENDBRANCH  86  89
ENDBRANCH  59  82
ENDBRANCH  33  34
ENDBRANCH  26  28
ENDBRANCH  25  26
ENDBRANCH   1  25
TORSDOF 18
ENDMDL
