MODEL 1
REMARK VINA RESULT:     -13.2      0.000      0.000
REMARK SMILES Cc1ccc(-c2cc(OCC(=O)OCCOC(=O)c3ccc(-c4c5nc(c(-c6cccc(S(=O)(=O)[O-])c6F)c6ccc([nH]6)c(-c6cccc(S(=O)(=O)[O-])c6F)c6nc(c(-c7cccc(S(=O)(=O)[O-])c7F)c7ccc4[nH]7)C=C6)C=C5)cc3)nc(NCc3ccc4c(c3)OCO4)n2)cc1
REMARK SMILES IDX 14 1 13 2 11 3 12 4 10 5 9 6 8 7 6 8 7 9 95 10 83 11 82 12
REMARK SMILES IDX 5 13 1 14 2 15 3 16 97 17 4 18 96 19 84 20 85 22 86 23 87 24
REMARK SMILES IDX 91 25 88 26 90 27 89 28 92 29 94 30 93 31 15 32 16 33 17 34
REMARK SMILES IDX 18 35 19 36 20 37 81 38 21 39 80 40 22 41 23 42 24 43 74 44
REMARK SMILES IDX 25 45 79 46 73 47 75 48 26 49 78 50 72 51 71 52 27 54 59 55
REMARK SMILES IDX 39 56 58 57 40 58 43 59 57 60 76 61 41 62 42 63 56 65 77 66
REMARK SMILES IDX 44 67 28 68 29 69 37 70 30 71 32 72 38 73 31 74 33 75 34 76
REMARK SMILES IDX 35 77 36 78 60 79 61 80 69 81 62 82 64 83 70 84 63 85 65 86
REMARK SMILES IDX 66 87 67 88 68 89 45 90 46 91 54 92 47 93 49 94 55 95 48 96
REMARK SMILES IDX 50 97 51 98 52 99 53 100
REMARK H PARENT 84 21 75 53 43 64
REMARK Flexibility Score: inf
ROOT
ATOM      1  C   UNL A   1      33.470  35.457  29.958  1.00  0.00     0.274 C 
ENDROOT
BRANCH   1   2
ATOM      2  O   UNL A   1      32.733  34.481  29.205  1.00  0.00    -0.460 OA
BRANCH   2   3
ATOM      3  C   UNL A   1      33.400  33.817  28.083  1.00  0.00     0.344 C 
ATOM      4  O   UNL A   1      34.271  34.639  27.684  1.00  0.00    -0.248 OA
BRANCH   3   5
ATOM      5  C   UNL A   1      33.059  31.719  27.564  1.00  0.00     0.353 C 
BRANCH   5   6
ATOM      6  O   UNL A   1      33.538  30.670  26.456  1.00  0.00    -0.466 OA
BRANCH   6   7
ATOM      7  C   UNL A   1      32.668  29.818  25.765  1.00  0.00     0.219 A 
ATOM      8  C   UNL A   1      30.733  29.693  24.454  1.00  0.00     0.080 A 
ATOM      9  C   UNL A   1      31.412  30.325  25.475  1.00  0.00     0.097 A 
ATOM     10  N   UNL A   1      31.113  28.488  24.020  1.00  0.00    -0.213 NA
ATOM     11  C   UNL A   1      32.183  27.925  24.594  1.00  0.00     0.226 A 
ATOM     12  N   UNL A   1      33.066  28.591  25.367  1.00  0.00    -0.177 NA
BRANCH   8  13
ATOM     13  C   UNL A   1      29.727  30.381  23.621  1.00  0.00     0.000 A 
ATOM     14  C   UNL A   1      27.728  32.821  20.649  1.00  0.00     0.044 C 
ATOM     15  C   UNL A   1      28.335  31.939  21.700  1.00  0.00    -0.051 A 
ATOM     16  C   UNL A   1      28.468  32.376  23.024  1.00  0.00     0.004 A 
ATOM     17  C   UNL A   1      28.776  30.659  21.378  1.00  0.00     0.004 A 
ATOM     18  C   UNL A   1      29.189  31.622  23.964  1.00  0.00     0.010 A 
ATOM     19  C   UNL A   1      29.391  29.865  22.354  1.00  0.00     0.010 A 
ENDBRANCH   8  13
BRANCH  11  20
ATOM     20  N   UNL A   1      32.340  26.567  24.405  1.00  0.00    -0.350 N 
ATOM     21  H   UNL A   1      31.622  25.937  24.642  1.00  0.00     0.164 HD
BRANCH  20  22
ATOM     22  C   UNL A   1      33.599  26.090  23.842  1.00  0.00     0.152 C 
BRANCH  22  23
ATOM     23  C   UNL A   1      34.169  24.863  24.542  1.00  0.00    -0.025 A 
ATOM     24  C   UNL A   1      34.988  23.961  23.805  1.00  0.00     0.009 A 
ATOM     25  C   UNL A   1      33.877  24.564  25.883  1.00  0.00     0.056 A 
ATOM     26  C   UNL A   1      35.441  22.756  24.364  1.00  0.00     0.051 A 
ATOM     27  C   UNL A   1      34.296  23.355  26.388  1.00  0.00     0.166 A 
ATOM     28  C   UNL A   1      35.040  22.466  25.647  1.00  0.00     0.165 A 
ATOM     29  O   UNL A   1      33.971  22.856  27.613  1.00  0.00    -0.454 OA
ATOM     30  O   UNL A   1      35.242  21.295  26.314  1.00  0.00    -0.454 OA
ATOM     31  C   UNL A   1      34.302  21.473  27.397  1.00  0.00     0.468 C 
ENDBRANCH  22  23
ENDBRANCH  20  22
ENDBRANCH  11  20
ENDBRANCH   6   7
ENDBRANCH   5   6
ENDBRANCH   3   5
ENDBRANCH   2   3
ENDBRANCH   1   2
BRANCH   1  32
ATOM     32  C   UNL A   1      33.672  34.966  31.400  1.00  0.00     0.275 C 
BRANCH  32  33
ATOM     33  O   UNL A   1      35.008  34.992  31.947  1.00  0.00    -0.458 OA
BRANCH  33  34
ATOM     34  C   UNL A   1      36.000  34.117  31.706  1.00  0.00     0.338 C 
ATOM     35  O   UNL A   1      37.113  34.304  32.186  1.00  0.00    -0.246 OA
BRANCH  34  36
ATOM     36  C   UNL A   1      35.867  33.001  30.715  1.00  0.00     0.060 A 
ATOM     37  C   UNL A   1      35.772  31.480  31.729  1.00  0.00     0.016 A 
ATOM     38  C   UNL A   1      36.864  32.998  29.205  1.00  0.00     0.016 A 
ATOM     39  C   UNL A   1      36.893  30.138  31.427  1.00  0.00     0.010 A 
ATOM     40  C   UNL A   1      37.981  31.581  28.905  1.00  0.00     0.010 A 
ATOM     41  C   UNL A   1      38.062  30.250  30.113  1.00  0.00    -0.014 A 
BRANCH  41  42
ATOM     42  C   UNL A   1      39.446  29.851  30.459  1.00  0.00     0.031 A 
ATOM     43  C   UNL A   1      39.880  28.632  29.786  1.00  0.00     0.074 A 
ATOM     44  C   UNL A   1      40.293  30.625  31.207  1.00  0.00     0.049 A 
ATOM     45  N   UNL A   1      40.849  27.901  30.189  1.00  0.00    -0.248 NA
ATOM     46  C   UNL A   1      39.139  28.056  28.666  1.00  0.00     0.031 C 
ATOM     47  C   UNL A   1      41.756  30.691  31.118  1.00  0.00     0.029 A 
ATOM     48  N   UNL A   1      40.049  31.565  32.213  1.00  0.00    -0.354 N 
ATOM     49  C   UNL A   1      41.096  27.014  29.167  1.00  0.00     0.074 A 
ATOM     50  C   UNL A   1      39.894  26.996  28.383  1.00  0.00     0.031 C 
ATOM     51  C   UNL A   1      42.250  31.440  32.125  1.00  0.00     0.029 A 
ATOM     52  C   UNL A   1      41.160  31.756  33.024  1.00  0.00     0.049 A 
ATOM     53  H   UNL A   1      39.191  32.035  32.332  1.00  0.00     0.167 HD
ATOM     54  C   UNL A   1      42.381  26.614  28.982  1.00  0.00     0.034 A 
ATOM     55  C   UNL A   1      41.173  31.629  34.387  1.00  0.00     0.034 A 
ATOM     56  C   UNL A   1      43.229  27.169  30.060  1.00  0.00     0.049 A 
ATOM     57  C   UNL A   1      41.965  30.376  34.758  1.00  0.00     0.074 A 
ATOM     58  C   UNL A   1      44.081  28.260  30.137  1.00  0.00     0.029 A 
ATOM     59  N   UNL A   1      42.941  26.823  31.378  1.00  0.00    -0.354 N 
ATOM     60  N   UNL A   1      42.545  29.598  33.885  1.00  0.00    -0.248 NA
ATOM     61  C   UNL A   1      42.138  29.878  36.118  1.00  0.00     0.031 C 
ATOM     62  C   UNL A   1      44.294  28.561  31.517  1.00  0.00     0.029 A 
ATOM     63  C   UNL A   1      43.593  27.645  32.284  1.00  0.00     0.049 A 
ATOM     64  H   UNL A   1      42.344  26.083  31.635  1.00  0.00     0.167 HD
ATOM     65  C   UNL A   1      43.002  28.455  34.478  1.00  0.00     0.074 A 
ATOM     66  C   UNL A   1      42.791  28.722  35.895  1.00  0.00     0.031 C 
ATOM     67  C   UNL A   1      43.455  27.394  33.727  1.00  0.00     0.034 A 
BRANCH  54  68
ATOM     68  C   UNL A   1      42.930  26.018  27.694  1.00  0.00     0.023 A 
ATOM     69  C   UNL A   1      43.500  26.927  26.778  1.00  0.00     0.012 A 
ATOM     70  C   UNL A   1      42.912  24.660  27.279  1.00  0.00     0.148 A 
ATOM     71  C   UNL A   1      43.980  26.539  25.524  1.00  0.00     0.002 A 
ATOM     72  C   UNL A   1      43.364  24.272  26.012  1.00  0.00     0.091 A 
ATOM     73  F   UNL A   1      42.514  23.702  28.114  1.00  0.00    -0.205 F 
ATOM     74  C   UNL A   1      43.901  25.212  25.133  1.00  0.00     0.022 A 
BRANCH  72  75
ATOM     75  S   UNL A   1      43.262  22.572  25.412  1.00  0.00     0.127 S 
ATOM     76  O   UNL A   1      43.712  22.707  24.025  1.00  0.00    -0.237 OA
ATOM     77  O   UNL A   1      44.201  21.873  26.287  1.00  0.00    -0.237 OA
ATOM     78  O   UNL A   1      41.867  22.169  25.545  1.00  0.00    -0.744 OA
ENDBRANCH  72  75
ENDBRANCH  54  68
BRANCH  55  79
ATOM     79  C   UNL A   1      39.908  32.072  35.060  1.00  0.00     0.023 A 
ATOM     80  C   UNL A   1      38.887  31.107  35.241  1.00  0.00     0.012 A 
ATOM     81  C   UNL A   1      39.931  33.186  35.901  1.00  0.00     0.148 A 
ATOM     82  C   UNL A   1      38.095  31.127  36.394  1.00  0.00     0.002 A 
ATOM     83  C   UNL A   1      39.192  33.169  37.076  1.00  0.00     0.091 A 
ATOM     84  F   UNL A   1      40.736  34.216  35.609  1.00  0.00    -0.205 F 
ATOM     85  C   UNL A   1      38.299  32.123  37.346  1.00  0.00     0.022 A 
BRANCH  83  86
ATOM     86  S   UNL A   1      39.656  34.336  38.363  1.00  0.00     0.127 S 
ATOM     87  O   UNL A   1      38.787  33.961  39.478  1.00  0.00    -0.237 OA
ATOM     88  O   UNL A   1      41.068  34.045  38.588  1.00  0.00    -0.237 OA
ATOM     89  O   UNL A   1      39.353  35.622  37.746  1.00  0.00    -0.744 OA
ENDBRANCH  83  86
ENDBRANCH  55  79
BRANCH  67  90
ATOM     90  C   UNL A   1      43.825  26.003  34.250  1.00  0.00     0.023 A 
ATOM     91  C   UNL A   1      42.871  25.009  34.522  1.00  0.00     0.012 A 
ATOM     92  C   UNL A   1      45.183  25.613  34.442  1.00  0.00     0.148 A 
ATOM     93  C   UNL A   1      43.216  23.746  35.013  1.00  0.00     0.002 A 
ATOM     94  C   UNL A   1      45.532  24.316  34.804  1.00  0.00     0.091 A 
ATOM     95  F   UNL A   1      46.171  26.509  34.338  1.00  0.00    -0.205 F 
ATOM     96  C   UNL A   1      44.548  23.388  35.131  1.00  0.00     0.022 A 
BRANCH  94  97
ATOM     97  S   UNL A   1      47.237  23.747  34.786  1.00  0.00     0.127 S 
ATOM     98  O   UNL A   1      47.701  24.168  36.106  1.00  0.00    -0.237 OA
ATOM     99  O   UNL A   1      47.071  22.301  34.629  1.00  0.00    -0.237 OA
ATOM    100  O   UNL A   1      47.868  24.405  33.650  1.00  0.00    -0.744 OA
ENDBRANCH  94  97
ENDBRANCH  67  90
ENDBRANCH  41  42
ENDBRANCH  34  36
ENDBRANCH  33  34
ENDBRANCH  32  33
ENDBRANCH   1  32
TORSDOF 20
ENDMDL
MODEL 2
REMARK VINA RESULT:     -13.1      5.348     11.153
REMARK SMILES Cc1ccc(-c2cc(OCC(=O)OCCOC(=O)c3ccc(-c4c5nc(c(-c6cccc(S(=O)(=O)[O-])c6F)c6ccc([nH]6)c(-c6cccc(S(=O)(=O)[O-])c6F)c6nc(c(-c7cccc(S(=O)(=O)[O-])c7F)c7ccc4[nH]7)C=C6)C=C5)cc3)nc(NCc3ccc4c(c3)OCO4)n2)cc1
REMARK SMILES IDX 14 1 13 2 11 3 12 4 10 5 9 6 8 7 6 8 7 9 95 10 83 11 82 12
REMARK SMILES IDX 5 13 1 14 2 15 3 16 97 17 4 18 96 19 84 20 85 22 86 23 87 24
REMARK SMILES IDX 91 25 88 26 90 27 89 28 92 29 94 30 93 31 15 32 16 33 17 34
REMARK SMILES IDX 18 35 19 36 20 37 81 38 21 39 80 40 22 41 23 42 24 43 74 44
REMARK SMILES IDX 25 45 79 46 73 47 75 48 26 49 78 50 72 51 71 52 27 54 59 55
REMARK SMILES IDX 39 56 58 57 40 58 43 59 57 60 76 61 41 62 42 63 56 65 77 66
REMARK SMILES IDX 44 67 28 68 29 69 37 70 30 71 32 72 38 73 31 74 33 75 34 76
REMARK SMILES IDX 35 77 36 78 60 79 61 80 69 81 62 82 64 83 70 84 63 85 65 86
REMARK SMILES IDX 66 87 67 88 68 89 45 90 46 91 54 92 47 93 49 94 55 95 48 96
REMARK SMILES IDX 50 97 51 98 52 99 53 100
REMARK H PARENT 84 21 75 53 43 64
REMARK Flexibility Score: inf
ROOT
ATOM      1  C   UNL A   1      32.480  36.486  32.344  1.00  0.00     0.274 C 
ENDROOT
BRANCH   1   2
ATOM      2  O   UNL A   1      31.946  36.195  31.043  1.00  0.00    -0.460 OA
BRANCH   2   3
ATOM      3  C   UNL A   1      32.853  36.225  29.894  1.00  0.00     0.344 C 
ATOM      4  O   UNL A   1      33.246  37.422  29.816  1.00  0.00    -0.248 OA
BRANCH   3   5
ATOM      5  C   UNL A   1      33.529  34.419  28.860  1.00  0.00     0.353 C 
BRANCH   5   6
ATOM      6  O   UNL A   1      32.932  33.318  27.866  1.00  0.00    -0.466 OA
BRANCH   6   7
ATOM      7  C   UNL A   1      33.558  32.096  27.594  1.00  0.00     0.219 A 
ATOM      8  C   UNL A   1      35.394  30.724  28.072  1.00  0.00     0.080 A 
ATOM      9  C   UNL A   1      34.899  32.004  27.928  1.00  0.00     0.097 A 
ATOM     10  N   UNL A   1      34.723  29.672  27.595  1.00  0.00    -0.213 NA
ATOM     11  C   UNL A   1      33.549  29.898  26.992  1.00  0.00     0.226 A 
ATOM     12  N   UNL A   1      32.865  31.058  27.080  1.00  0.00    -0.177 NA
BRANCH   8  13
ATOM     13  C   UNL A   1      36.534  30.405  28.953  1.00  0.00     0.000 A 
ATOM     14  C   UNL A   1      40.153  28.746  30.665  1.00  0.00     0.044 C 
ATOM     15  C   UNL A   1      38.901  29.385  30.143  1.00  0.00    -0.051 A 
ATOM     16  C   UNL A   1      37.637  28.944  30.557  1.00  0.00     0.004 A 
ATOM     17  C   UNL A   1      38.970  30.437  29.236  1.00  0.00     0.004 A 
ATOM     18  C   UNL A   1      36.469  29.423  29.942  1.00  0.00     0.010 A 
ATOM     19  C   UNL A   1      37.794  30.990  28.713  1.00  0.00     0.010 A 
ENDBRANCH   8  13
BRANCH  11  20
ATOM     20  N   UNL A   1      33.058  28.881  26.199  1.00  0.00    -0.350 N 
ATOM     21  H   UNL A   1      32.705  28.054  26.599  1.00  0.00     0.164 HD
BRANCH  20  22
ATOM     22  C   UNL A   1      33.075  29.065  24.752  1.00  0.00     0.152 C 
BRANCH  22  23
ATOM     23  C   UNL A   1      31.699  29.010  24.101  1.00  0.00    -0.025 A 
ATOM     24  C   UNL A   1      31.383  27.924  23.235  1.00  0.00     0.009 A 
ATOM     25  C   UNL A   1      30.741  30.019  24.290  1.00  0.00     0.056 A 
ATOM     26  C   UNL A   1      30.178  27.884  22.517  1.00  0.00     0.051 A 
ATOM     27  C   UNL A   1      29.590  29.977  23.537  1.00  0.00     0.166 A 
ATOM     28  C   UNL A   1      29.322  28.951  22.661  1.00  0.00     0.165 A 
ATOM     29  O   UNL A   1      28.638  30.950  23.496  1.00  0.00    -0.454 OA
ATOM     30  O   UNL A   1      28.183  29.178  21.948  1.00  0.00    -0.454 OA
ATOM     31  C   UNL A   1      27.967  30.567  22.283  1.00  0.00     0.468 C 
ENDBRANCH  22  23
ENDBRANCH  20  22
ENDBRANCH  11  20
ENDBRANCH   6   7
ENDBRANCH   5   6
ENDBRANCH   3   5
ENDBRANCH   2   3
ENDBRANCH   1   2
BRANCH   1  32
ATOM     32  C   UNL A   1      33.763  35.675  32.581  1.00  0.00     0.275 C 
BRANCH  32  33
ATOM     33  O   UNL A   1      33.642  34.247  32.762  1.00  0.00    -0.458 OA
BRANCH  33  34
ATOM     34  C   UNL A   1      34.628  33.382  33.059  1.00  0.00     0.338 C 
ATOM     35  O   UNL A   1      34.909  33.151  34.230  1.00  0.00    -0.246 OA
BRANCH  34  36
ATOM     36  C   UNL A   1      35.542  32.813  32.017  1.00  0.00     0.060 A 
ATOM     37  C   UNL A   1      36.523  31.542  32.896  1.00  0.00     0.016 A 
ATOM     38  C   UNL A   1      36.365  33.902  30.830  1.00  0.00     0.016 A 
ATOM     39  C   UNL A   1      38.296  31.592  32.842  1.00  0.00     0.010 A 
ATOM     40  C   UNL A   1      38.193  33.902  30.773  1.00  0.00     0.010 A 
ATOM     41  C   UNL A   1      39.110  32.835  31.896  1.00  0.00    -0.014 A 
BRANCH  41  42
ATOM     42  C   UNL A   1      40.230  33.523  32.580  1.00  0.00     0.031 A 
ATOM     43  C   UNL A   1      39.836  34.163  33.830  1.00  0.00     0.074 A 
ATOM     44  C   UNL A   1      41.534  33.440  32.170  1.00  0.00     0.049 A 
ATOM     45  N   UNL A   1      40.499  35.101  34.391  1.00  0.00    -0.248 NA
ATOM     46  C   UNL A   1      38.556  33.883  34.477  1.00  0.00     0.031 C 
ATOM     47  C   UNL A   1      42.738  33.510  33.004  1.00  0.00     0.029 A 
ATOM     48  N   UNL A   1      42.101  33.242  30.907  1.00  0.00    -0.354 N 
ATOM     49  C   UNL A   1      39.950  35.248  35.643  1.00  0.00     0.074 A 
ATOM     50  C   UNL A   1      38.643  34.661  35.555  1.00  0.00     0.031 C 
ATOM     51  C   UNL A   1      43.840  33.555  32.227  1.00  0.00     0.029 A 
ATOM     52  C   UNL A   1      43.412  33.695  30.851  1.00  0.00     0.049 A 
ATOM     53  H   UNL A   1      41.626  32.830  30.148  1.00  0.00     0.167 HD
ATOM     54  C   UNL A   1      40.781  35.615  36.653  1.00  0.00     0.034 A 
ATOM     55  C   UNL A   1      43.899  34.593  29.940  1.00  0.00     0.034 A 
ATOM     56  C   UNL A   1      42.126  35.900  36.103  1.00  0.00     0.049 A 
ATOM     57  C   UNL A   1      44.191  35.911  30.656  1.00  0.00     0.074 A 
ATOM     58  C   UNL A   1      43.303  35.171  36.038  1.00  0.00     0.029 A 
ATOM     59  N   UNL A   1      42.256  36.912  35.156  1.00  0.00    -0.354 N 
ATOM     60  N   UNL A   1      44.020  36.096  31.936  1.00  0.00    -0.248 NA
ATOM     61  C   UNL A   1      44.659  37.125  29.996  1.00  0.00     0.031 C 
ATOM     62  C   UNL A   1      44.135  35.759  35.037  1.00  0.00     0.029 A 
ATOM     63  C   UNL A   1      43.480  36.859  34.506  1.00  0.00     0.049 A 
ATOM     64  H   UNL A   1      41.562  37.585  34.970  1.00  0.00     0.167 HD
ATOM     65  C   UNL A   1      44.166  37.416  32.261  1.00  0.00     0.074 A 
ATOM     66  C   UNL A   1      44.647  38.002  31.017  1.00  0.00     0.031 C 
ATOM     67  C   UNL A   1      43.821  37.885  33.509  1.00  0.00     0.034 A 
BRANCH  54  68
ATOM     68  C   UNL A   1      40.497  35.409  38.133  1.00  0.00     0.023 A 
ATOM     69  C   UNL A   1      40.397  36.576  38.919  1.00  0.00     0.012 A 
ATOM     70  C   UNL A   1      40.350  34.183  38.835  1.00  0.00     0.148 A 
ATOM     71  C   UNL A   1      40.211  36.544  40.304  1.00  0.00     0.002 A 
ATOM     72  C   UNL A   1      40.194  34.145  40.226  1.00  0.00     0.091 A 
ATOM     73  F   UNL A   1      40.300  33.027  38.175  1.00  0.00    -0.205 F 
ATOM     74  C   UNL A   1      40.122  35.328  40.962  1.00  0.00     0.022 A 
BRANCH  72  75
ATOM     75  S   UNL A   1      40.107  32.604  41.163  1.00  0.00     0.127 S 
ATOM     76  O   UNL A   1      40.064  33.086  42.545  1.00  0.00    -0.237 OA
ATOM     77  O   UNL A   1      38.856  32.017  40.688  1.00  0.00    -0.237 OA
ATOM     78  O   UNL A   1      41.313  31.853  40.835  1.00  0.00    -0.744 OA
ENDBRANCH  72  75
ENDBRANCH  54  68
BRANCH  55  79
ATOM     79  C   UNL A   1      43.289  34.478  28.575  1.00  0.00     0.023 A 
ATOM     80  C   UNL A   1      42.386  35.490  28.170  1.00  0.00     0.012 A 
ATOM     81  C   UNL A   1      43.946  33.735  27.591  1.00  0.00     0.148 A 
ATOM     82  C   UNL A   1      42.357  35.918  26.839  1.00  0.00     0.002 A 
ATOM     83  C   UNL A   1      43.966  34.203  26.284  1.00  0.00     0.091 A 
ATOM     84  F   UNL A   1      44.621  32.632  27.937  1.00  0.00    -0.205 F 
ATOM     85  C   UNL A   1      43.202  35.317  25.909  1.00  0.00     0.022 A 
BRANCH  83  86
ATOM     86  S   UNL A   1      45.235  33.549  25.191  1.00  0.00     0.127 S 
ATOM     87  O   UNL A   1      46.464  34.140  25.720  1.00  0.00    -0.237 OA
ATOM     88  O   UNL A   1      45.139  32.107  25.387  1.00  0.00    -0.237 OA
ATOM     89  O   UNL A   1      44.817  34.052  23.888  1.00  0.00    -0.744 OA
ENDBRANCH  83  86
ENDBRANCH  55  79
BRANCH  67  90
ATOM     90  C   UNL A   1      43.768  39.352  33.945  1.00  0.00     0.023 A 
ATOM     91  C   UNL A   1      44.308  39.810  35.156  1.00  0.00     0.012 A 
ATOM     92  C   UNL A   1      43.206  40.361  33.107  1.00  0.00     0.148 A 
ATOM     93  C   UNL A   1      44.243  41.151  35.553  1.00  0.00     0.002 A 
ATOM     94  C   UNL A   1      43.260  41.710  33.443  1.00  0.00     0.091 A 
ATOM     95  F   UNL A   1      42.550  40.032  31.989  1.00  0.00    -0.205 F 
ATOM     96  C   UNL A   1      43.741  42.106  34.687  1.00  0.00     0.022 A 
BRANCH  94  97
ATOM     97  S   UNL A   1      42.801  43.001  32.280  1.00  0.00     0.127 S 
ATOM     98  O   UNL A   1      42.304  44.042  33.177  1.00  0.00    -0.237 OA
ATOM     99  O   UNL A   1      44.085  43.303  31.643  1.00  0.00    -0.237 OA
ATOM    100  O   UNL A   1      41.816  42.406  31.388  1.00  0.00    -0.744 OA
ENDBRANCH  94  97
ENDBRANCH  67  90
ENDBRANCH  41  42
ENDBRANCH  34  36
ENDBRANCH  33  34
ENDBRANCH  32  33
ENDBRANCH   1  32
TORSDOF 20
ENDMDL
MODEL 3
REMARK VINA RESULT:     -12.9      5.092     10.761
REMARK SMILES Cc1ccc(-c2cc(OCC(=O)OCCOC(=O)c3ccc(-c4c5nc(c(-c6cccc(S(=O)(=O)[O-])c6F)c6ccc([nH]6)c(-c6cccc(S(=O)(=O)[O-])c6F)c6nc(c(-c7cccc(S(=O)(=O)[O-])c7F)c7ccc4[nH]7)C=C6)C=C5)cc3)nc(NCc3ccc4c(c3)OCO4)n2)cc1
REMARK SMILES IDX 14 1 13 2 11 3 12 4 10 5 9 6 8 7 6 8 7 9 95 10 83 11 82 12
REMARK SMILES IDX 5 13 1 14 2 15 3 16 97 17 4 18 96 19 84 20 85 22 86 23 87 24
REMARK SMILES IDX 91 25 88 26 90 27 89 28 92 29 94 30 93 31 15 32 16 33 17 34
REMARK SMILES IDX 18 35 19 36 20 37 81 38 21 39 80 40 22 41 23 42 24 43 74 44
REMARK SMILES IDX 25 45 79 46 73 47 75 48 26 49 78 50 72 51 71 52 27 54 59 55
REMARK SMILES IDX 39 56 58 57 40 58 43 59 57 60 76 61 41 62 42 63 56 65 77 66
REMARK SMILES IDX 44 67 28 68 29 69 37 70 30 71 32 72 38 73 31 74 33 75 34 76
REMARK SMILES IDX 35 77 36 78 60 79 61 80 69 81 62 82 64 83 70 84 63 85 65 86
REMARK SMILES IDX 66 87 67 88 68 89 45 90 46 91 54 92 47 93 49 94 55 95 48 96
REMARK SMILES IDX 50 97 51 98 52 99 53 100
REMARK H PARENT 84 21 75 53 43 64
REMARK Flexibility Score: inf
ROOT
ATOM      1  C   UNL A   1      33.464  36.247  31.732  1.00  0.00     0.274 C 
ENDROOT
BRANCH   1   2
ATOM      2  O   UNL A   1      32.489  36.404  30.690  1.00  0.00    -0.460 OA
BRANCH   2   3
ATOM      3  C   UNL A   1      32.906  36.175  29.305  1.00  0.00     0.344 C 
ATOM      4  O   UNL A   1      32.909  37.318  28.769  1.00  0.00    -0.248 OA
BRANCH   3   5
ATOM      5  C   UNL A   1      33.652  34.248  28.586  1.00  0.00     0.353 C 
BRANCH   5   6
ATOM      6  O   UNL A   1      33.063  32.897  27.965  1.00  0.00    -0.466 OA
BRANCH   6   7
ATOM      7  C   UNL A   1      33.853  31.796  27.611  1.00  0.00     0.219 A 
ATOM      8  C   UNL A   1      35.793  30.582  28.100  1.00  0.00     0.080 A 
ATOM      9  C   UNL A   1      35.162  31.808  28.063  1.00  0.00     0.097 A 
ATOM     10  N   UNL A   1      35.297  29.534  27.436  1.00  0.00    -0.213 NA
ATOM     11  C   UNL A   1      34.160  29.708  26.752  1.00  0.00     0.226 A 
ATOM     12  N   UNL A   1      33.335  30.765  26.910  1.00  0.00    -0.177 NA
BRANCH   8  13
ATOM     13  C   UNL A   1      36.886  30.276  29.045  1.00  0.00     0.000 A 
ATOM     14  C   UNL A   1      40.391  28.622  30.983  1.00  0.00     0.044 C 
ATOM     15  C   UNL A   1      39.175  29.261  30.381  1.00  0.00    -0.051 A 
ATOM     16  C   UNL A   1      37.886  28.856  30.749  1.00  0.00     0.004 A 
ATOM     17  C   UNL A   1      39.306  30.280  29.442  1.00  0.00     0.004 A 
ATOM     18  C   UNL A   1      36.757  29.331  30.063  1.00  0.00     0.010 A 
ATOM     19  C   UNL A   1      38.165  30.832  28.845  1.00  0.00     0.010 A 
ENDBRANCH   8  13
BRANCH  11  20
ATOM     20  N   UNL A   1      33.863  28.756  25.798  1.00  0.00    -0.350 N 
ATOM     21  H   UNL A   1      34.579  28.263  25.336  1.00  0.00     0.164 HD
BRANCH  20  22
ATOM     22  C   UNL A   1      32.460  28.499  25.494  1.00  0.00     0.152 C 
BRANCH  22  23
ATOM     23  C   UNL A   1      32.044  27.042  25.654  1.00  0.00    -0.025 A 
ATOM     24  C   UNL A   1      30.659  26.713  25.677  1.00  0.00     0.009 A 
ATOM     25  C   UNL A   1      32.983  26.012  25.826  1.00  0.00     0.056 A 
ATOM     26  C   UNL A   1      30.219  25.407  25.940  1.00  0.00     0.051 A 
ATOM     27  C   UNL A   1      32.521  24.752  26.129  1.00  0.00     0.166 A 
ATOM     28  C   UNL A   1      31.179  24.458  26.204  1.00  0.00     0.165 A 
ATOM     29  O   UNL A   1      33.299  23.686  26.467  1.00  0.00    -0.454 OA
ATOM     30  O   UNL A   1      30.962  23.181  26.626  1.00  0.00    -0.454 OA
ATOM     31  C   UNL A   1      32.297  22.847  27.068  1.00  0.00     0.468 C 
ENDBRANCH  22  23
ENDBRANCH  20  22
ENDBRANCH  11  20
ENDBRANCH   6   7
ENDBRANCH   5   6
ENDBRANCH   3   5
ENDBRANCH   2   3
ENDBRANCH   1   2
BRANCH   1  32
ATOM     32  C   UNL A   1      32.892  35.376  32.862  1.00  0.00     0.275 C 
BRANCH  32  33
ATOM     33  O   UNL A   1      33.241  33.975  32.885  1.00  0.00    -0.458 OA
BRANCH  33  34
ATOM     34  C   UNL A   1      34.446  33.443  33.156  1.00  0.00     0.338 C 
ATOM     35  O   UNL A   1      34.911  33.523  34.288  1.00  0.00    -0.246 OA
BRANCH  34  36
ATOM     36  C   UNL A   1      35.350  32.910  32.086  1.00  0.00     0.060 A 
ATOM     37  C   UNL A   1      36.337  31.608  32.912  1.00  0.00     0.016 A 
ATOM     38  C   UNL A   1      36.164  34.040  30.932  1.00  0.00     0.016 A 
ATOM     39  C   UNL A   1      38.109  31.659  32.845  1.00  0.00     0.010 A 
ATOM     40  C   UNL A   1      37.992  34.041  30.860  1.00  0.00     0.010 A 
ATOM     41  C   UNL A   1      38.917  32.934  31.936  1.00  0.00    -0.014 A 
BRANCH  41  42
ATOM     42  C   UNL A   1      40.043  33.597  32.635  1.00  0.00     0.031 A 
ATOM     43  C   UNL A   1      39.649  34.243  33.881  1.00  0.00     0.074 A 
ATOM     44  C   UNL A   1      41.351  33.485  32.240  1.00  0.00     0.049 A 
ATOM     45  N   UNL A   1      40.325  35.167  34.451  1.00  0.00    -0.248 NA
ATOM     46  C   UNL A   1      38.355  33.991  34.512  1.00  0.00     0.031 C 
ATOM     47  C   UNL A   1      42.546  33.529  33.088  1.00  0.00     0.029 A 
ATOM     48  N   UNL A   1      41.928  33.276  30.984  1.00  0.00    -0.354 N 
ATOM     49  C   UNL A   1      39.764  35.324  35.697  1.00  0.00     0.074 A 
ATOM     50  C   UNL A   1      38.446  34.765  35.592  1.00  0.00     0.031 C 
ATOM     51  C   UNL A   1      43.658  33.550  32.326  1.00  0.00     0.029 A 
ATOM     52  C   UNL A   1      43.249  33.701  30.945  1.00  0.00     0.049 A 
ATOM     53  H   UNL A   1      41.453  32.876  30.219  1.00  0.00     0.167 HD
ATOM     54  C   UNL A   1      40.591  35.672  36.717  1.00  0.00     0.034 A 
ATOM     55  C   UNL A   1      43.766  34.589  30.040  1.00  0.00     0.034 A 
ATOM     56  C   UNL A   1      41.948  35.928  36.184  1.00  0.00     0.049 A 
ATOM     57  C   UNL A   1      44.079  35.900  30.761  1.00  0.00     0.074 A 
ATOM     58  C   UNL A   1      43.110  35.174  36.132  1.00  0.00     0.029 A 
ATOM     59  N   UNL A   1      42.112  36.938  35.240  1.00  0.00    -0.354 N 
ATOM     60  N   UNL A   1      43.896  36.088  32.040  1.00  0.00    -0.248 NA
ATOM     61  C   UNL A   1      44.581  37.105  30.109  1.00  0.00     0.031 C 
ATOM     62  C   UNL A   1      43.966  35.744  35.141  1.00  0.00     0.029 A 
ATOM     63  C   UNL A   1      43.342  36.858  34.604  1.00  0.00     0.049 A 
ATOM     64  H   UNL A   1      41.435  37.626  35.046  1.00  0.00     0.167 HD
ATOM     65  C   UNL A   1      44.067  37.404  32.369  1.00  0.00     0.074 A 
ATOM     66  C   UNL A   1      44.575  37.980  31.132  1.00  0.00     0.031 C 
ATOM     67  C   UNL A   1      43.718  37.878  33.613  1.00  0.00     0.034 A 
BRANCH  54  68
ATOM     68  C   UNL A   1      40.285  35.470  38.194  1.00  0.00     0.023 A 
ATOM     69  C   UNL A   1      40.268  36.632  38.993  1.00  0.00     0.012 A 
ATOM     70  C   UNL A   1      40.043  34.251  38.880  1.00  0.00     0.148 A 
ATOM     71  C   UNL A   1      40.074  36.598  40.377  1.00  0.00     0.002 A 
ATOM     72  C   UNL A   1      39.877  34.208  40.269  1.00  0.00     0.091 A 
ATOM     73  F   UNL A   1      39.910  33.109  38.206  1.00  0.00    -0.205 F 
ATOM     74  C   UNL A   1      39.890  35.384  41.020  1.00  0.00     0.022 A 
BRANCH  72  75
ATOM     75  S   UNL A   1      39.670  32.667  41.187  1.00  0.00     0.127 S 
ATOM     76  O   UNL A   1      40.928  31.970  40.907  1.00  0.00    -0.237 OA
ATOM     77  O   UNL A   1      39.533  33.138  42.564  1.00  0.00    -0.237 OA
ATOM     78  O   UNL A   1      38.493  32.010  40.632  1.00  0.00    -0.744 OA
ENDBRANCH  72  75
ENDBRANCH  54  68
BRANCH  55  79
ATOM     79  C   UNL A   1      43.171  34.489  28.668  1.00  0.00     0.023 A 
ATOM     80  C   UNL A   1      42.276  35.509  28.263  1.00  0.00     0.012 A 
ATOM     81  C   UNL A   1      43.834  33.752  27.684  1.00  0.00     0.148 A 
ATOM     82  C   UNL A   1      42.263  35.949  26.935  1.00  0.00     0.002 A 
ATOM     83  C   UNL A   1      43.871  34.232  26.382  1.00  0.00     0.091 A 
ATOM     84  F   UNL A   1      44.502  32.644  28.028  1.00  0.00    -0.205 F 
ATOM     85  C   UNL A   1      43.116  35.353  26.009  1.00  0.00     0.022 A 
BRANCH  83  86
ATOM     86  S   UNL A   1      45.148  33.583  25.297  1.00  0.00     0.127 S 
ATOM     87  O   UNL A   1      44.831  34.197  24.007  1.00  0.00    -0.237 OA
ATOM     88  O   UNL A   1      46.383  34.073  25.898  1.00  0.00    -0.237 OA
ATOM     89  O   UNL A   1      44.922  32.144  25.370  1.00  0.00    -0.744 OA
ENDBRANCH  83  86
ENDBRANCH  55  79
BRANCH  67  90
ATOM     90  C   UNL A   1      43.691  39.346  34.050  1.00  0.00     0.023 A 
ATOM     91  C   UNL A   1      42.837  40.299  33.474  1.00  0.00     0.012 A 
ATOM     92  C   UNL A   1      44.504  39.822  35.121  1.00  0.00     0.148 A 
ATOM     93  C   UNL A   1      42.828  41.641  33.870  1.00  0.00     0.002 A 
ATOM     94  C   UNL A   1      44.399  41.124  35.601  1.00  0.00     0.091 A 
ATOM     95  F   UNL A   1      45.445  39.041  35.662  1.00  0.00    -0.205 F 
ATOM     96  C   UNL A   1      43.591  42.050  34.950  1.00  0.00     0.022 A 
BRANCH  94  97
ATOM     97  S   UNL A   1      45.219  41.651  37.111  1.00  0.00     0.127 S 
ATOM     98  O   UNL A   1      46.627  41.548  36.733  1.00  0.00    -0.237 OA
ATOM     99  O   UNL A   1      44.724  43.021  37.260  1.00  0.00    -0.237 OA
ATOM    100  O   UNL A   1      44.771  40.736  38.152  1.00  0.00    -0.744 OA
ENDBRANCH  94  97
ENDBRANCH  67  90
ENDBRANCH  41  42
ENDBRANCH  34  36
ENDBRANCH  33  34
ENDBRANCH  32  33
ENDBRANCH   1  32
TORSDOF 20
ENDMDL
