MODEL 1
REMARK VINA RESULT:     -12.2      0.000      0.000
REMARK SMILES Cc1sc(-c2ccco2)nc1C(=O)N[C@@H](C(=O)OCCOC(=O)c1ccc(-c2c3nc(c(-c4cccc(S(=O)(=O)[O-])c4F)c4ccc([nH]4)c(-c4cccc(S(=O)(=O)[O-])c4F)c4nc(c(-c5cccc(S(=O)(=O)[O-])c5F)c5ccc2[nH]5)C=C4)C=C3)cc1)C(C)C
REMARK SMILES IDX 19 1 18 2 16 3 17 4 15 5 14 6 12 7 13 8 11 10 1 11 2 12 3 13
REMARK SMILES IDX 4 14 10 15 5 16 6 17 9 18 7 19 8 20 87 21 88 22 89 23 20 24
REMARK SMILES IDX 21 25 22 26 23 27 24 28 25 29 86 30 26 31 85 32 27 33 28 34
REMARK SMILES IDX 29 35 79 36 30 37 84 38 78 39 80 40 31 41 83 42 77 43 76 44
REMARK SMILES IDX 32 46 64 47 44 48 63 49 45 50 48 51 62 52 81 53 46 54 47 55
REMARK SMILES IDX 61 57 82 58 49 59 33 60 34 61 42 62 35 63 37 64 43 65 36 66
REMARK SMILES IDX 38 67 39 68 40 69 41 70 65 71 66 72 74 73 67 74 69 75 75 76
REMARK SMILES IDX 68 77 70 78 71 79 72 80 73 81 50 82 51 83 59 84 52 85 54 86
REMARK SMILES IDX 60 87 53 88 55 89 56 90 57 91 58 92
REMARK H PARENT 14 9 80 45 48 56
REMARK Flexibility Score: inf
ROOT
ATOM      1  C   UNL A   1      31.676  28.115  25.536  1.00  0.00     0.274 C 
ENDROOT
BRANCH   1   2
ATOM      2  O   UNL A   1      32.640  27.719  24.535  1.00  0.00    -0.461 OA
BRANCH   2   3
ATOM      3  C   UNL A   1      32.410  28.111  23.244  1.00  0.00     0.329 C 
ATOM      4  O   UNL A   1      33.019  29.012  22.682  1.00  0.00    -0.250 OA
BRANCH   3   5
ATOM      5  C   UNL A   1      31.261  27.301  22.575  1.00  0.00     0.195 C 
BRANCH   5   6
ATOM      6  N   UNL A   1      31.782  26.710  21.352  1.00  0.00    -0.337 N 
ATOM      7  C   UNL A   1      32.578  25.605  21.173  1.00  0.00     0.271 C 
ATOM      8  O   UNL A   1      33.127  25.510  20.073  1.00  0.00    -0.267 OA
ATOM      9  H   UNL A   1      31.524  27.174  20.524  1.00  0.00     0.164 HD
BRANCH   7  10
ATOM     10  C   UNL A   1      32.690  24.517  22.172  1.00  0.00     0.142 A 
ATOM     11  C   UNL A   1      30.336  24.233  23.383  1.00  0.00     0.059 C 
ATOM     12  C   UNL A   1      31.750  23.930  23.024  1.00  0.00     0.035 A 
ATOM     13  S   UNL A   1      32.466  22.581  23.838  1.00  0.00    -0.115 S 
ATOM     14  C   UNL A   1      34.000  23.092  23.311  1.00  0.00     0.160 A 
ATOM     15  N   UNL A   1      33.996  24.057  22.427  1.00  0.00    -0.227 NA
BRANCH  14  16
ATOM     16  C   UNL A   1      35.201  22.580  23.898  1.00  0.00     0.162 A 
ATOM     17  C   UNL A   1      36.505  22.894  23.545  1.00  0.00     0.053 A 
ATOM     18  O   UNL A   1      35.231  21.735  24.977  1.00  0.00    -0.462 OA
ATOM     19  C   UNL A   1      37.357  22.231  24.459  1.00  0.00     0.043 A 
ATOM     20  C   UNL A   1      36.532  21.519  25.295  1.00  0.00     0.196 A 
ENDBRANCH  14  16
ENDBRANCH   7  10
ENDBRANCH   5   6
BRANCH   5  21
ATOM     21  C   UNL A   1      29.959  28.103  22.367  1.00  0.00     0.017 C 
ATOM     22  C   UNL A   1      28.879  27.705  23.382  1.00  0.00     0.010 C 
ATOM     23  C   UNL A   1      30.223  29.610  22.531  1.00  0.00     0.010 C 
ENDBRANCH   5  21
ENDBRANCH   3   5
ENDBRANCH   2   3
ENDBRANCH   1   2
BRANCH   1  24
ATOM     24  C   UNL A   1      31.664  29.631  25.710  1.00  0.00     0.275 C 
BRANCH  24  25
ATOM     25  O   UNL A   1      33.016  30.074  25.887  1.00  0.00    -0.458 OA
BRANCH  25  26
ATOM     26  C   UNL A   1      33.225  30.992  26.853  1.00  0.00     0.338 C 
ATOM     27  O   UNL A   1      32.426  31.812  27.288  1.00  0.00    -0.246 OA
BRANCH  26  28
ATOM     28  C   UNL A   1      34.574  30.798  27.404  1.00  0.00     0.060 A 
ATOM     29  C   UNL A   1      35.008  29.499  27.655  1.00  0.00     0.016 A 
ATOM     30  C   UNL A   1      35.358  31.882  27.782  1.00  0.00     0.016 A 
ATOM     31  C   UNL A   1      36.175  29.274  28.374  1.00  0.00     0.010 A 
ATOM     32  C   UNL A   1      36.586  31.650  28.412  1.00  0.00     0.010 A 
ATOM     33  C   UNL A   1      36.988  30.344  28.754  1.00  0.00    -0.014 A 
BRANCH  33  34
ATOM     34  C   UNL A   1      38.211  30.101  29.567  1.00  0.00     0.031 A 
ATOM     35  C   UNL A   1      39.319  29.252  29.004  1.00  0.00     0.074 A 
ATOM     36  C   UNL A   1      38.350  30.646  30.793  1.00  0.00     0.049 A 
ATOM     37  N   UNL A   1      40.356  28.738  29.611  1.00  0.00    -0.248 NA
ATOM     38  C   UNL A   1      39.243  28.926  27.570  1.00  0.00     0.031 C 
ATOM     39  C   UNL A   1      37.387  31.538  31.442  1.00  0.00     0.029 A 
ATOM     40  N   UNL A   1      39.360  30.523  31.718  1.00  0.00    -0.354 N 
ATOM     41  C   UNL A   1      40.999  27.953  28.663  1.00  0.00     0.074 A 
ATOM     42  C   UNL A   1      40.254  28.081  27.429  1.00  0.00     0.031 C 
ATOM     43  C   UNL A   1      37.860  31.899  32.646  1.00  0.00     0.029 A 
ATOM     44  C   UNL A   1      39.110  31.192  32.895  1.00  0.00     0.049 A 
ATOM     45  H   UNL A   1      40.182  30.007  31.554  1.00  0.00     0.167 HD
ATOM     46  C   UNL A   1      42.109  27.194  28.807  1.00  0.00     0.034 A 
ATOM     47  C   UNL A   1      39.783  31.196  34.064  1.00  0.00     0.034 A 
ATOM     48  C   UNL A   1      42.900  27.143  30.005  1.00  0.00     0.049 A 
ATOM     49  C   UNL A   1      41.019  30.352  34.197  1.00  0.00     0.074 A 
ATOM     50  C   UNL A   1      44.056  26.421  30.244  1.00  0.00     0.029 A 
ATOM     51  N   UNL A   1      42.631  27.861  31.159  1.00  0.00    -0.354 N 
ATOM     52  N   UNL A   1      41.615  29.614  33.291  1.00  0.00    -0.248 NA
ATOM     53  C   UNL A   1      41.676  30.337  35.511  1.00  0.00     0.031 C 
ATOM     54  C   UNL A   1      44.486  26.705  31.544  1.00  0.00     0.029 A 
ATOM     55  C   UNL A   1      43.601  27.606  32.112  1.00  0.00     0.049 A 
ATOM     56  H   UNL A   1      41.862  28.465  31.283  1.00  0.00     0.167 HD
ATOM     57  C   UNL A   1      42.720  29.055  33.922  1.00  0.00     0.074 A 
ATOM     58  C   UNL A   1      42.731  29.568  35.278  1.00  0.00     0.031 C 
ATOM     59  C   UNL A   1      43.625  28.173  33.436  1.00  0.00     0.034 A 
BRANCH  46  60
ATOM     60  C   UNL A   1      42.543  26.362  27.632  1.00  0.00     0.023 A 
ATOM     61  C   UNL A   1      43.428  26.899  26.678  1.00  0.00     0.012 A 
ATOM     62  C   UNL A   1      42.105  25.029  27.500  1.00  0.00     0.148 A 
ATOM     63  C   UNL A   1      43.854  26.129  25.595  1.00  0.00     0.002 A 
ATOM     64  C   UNL A   1      42.562  24.257  26.439  1.00  0.00     0.091 A 
ATOM     65  F   UNL A   1      41.238  24.547  28.402  1.00  0.00    -0.205 F 
ATOM     66  C   UNL A   1      43.430  24.807  25.482  1.00  0.00     0.022 A 
BRANCH  64  67
ATOM     67  S   UNL A   1      42.119  22.525  26.254  1.00  0.00     0.127 S 
ATOM     68  O   UNL A   1      42.785  22.182  24.999  1.00  0.00    -0.237 OA
ATOM     69  O   UNL A   1      42.716  21.921  27.446  1.00  0.00    -0.237 OA
ATOM     70  O   UNL A   1      40.664  22.490  26.227  1.00  0.00    -0.744 OA
ENDBRANCH  64  67
ENDBRANCH  46  60
BRANCH  47  71
ATOM     71  C   UNL A   1      39.289  32.024  35.202  1.00  0.00     0.023 A 
ATOM     72  C   UNL A   1      38.390  31.461  36.128  1.00  0.00     0.012 A 
ATOM     73  C   UNL A   1      39.736  33.345  35.399  1.00  0.00     0.148 A 
ATOM     74  C   UNL A   1      37.937  32.204  37.221  1.00  0.00     0.002 A 
ATOM     75  C   UNL A   1      39.332  34.056  36.523  1.00  0.00     0.091 A 
ATOM     76  F   UNL A   1      40.564  33.881  34.491  1.00  0.00    -0.205 F 
ATOM     77  C   UNL A   1      38.421  33.493  37.428  1.00  0.00     0.022 A 
BRANCH  75  78
ATOM     78  S   UNL A   1      40.041  35.655  36.933  1.00  0.00     0.127 S 
ATOM     79  O   UNL A   1      39.603  36.476  35.809  1.00  0.00    -0.237 OA
ATOM     80  O   UNL A   1      39.396  35.964  38.210  1.00  0.00    -0.237 OA
ATOM     81  O   UNL A   1      41.475  35.418  37.036  1.00  0.00    -0.744 OA
ENDBRANCH  75  78
ENDBRANCH  47  71
BRANCH  59  82
ATOM     82  C   UNL A   1      44.715  27.713  34.366  1.00  0.00     0.023 A 
ATOM     83  C   UNL A   1      45.920  28.439  34.427  1.00  0.00     0.012 A 
ATOM     84  C   UNL A   1      44.516  26.620  35.229  1.00  0.00     0.148 A 
ATOM     85  C   UNL A   1      46.922  28.069  35.323  1.00  0.00     0.002 A 
ATOM     86  C   UNL A   1      45.504  26.282  36.147  1.00  0.00     0.091 A 
ATOM     87  F   UNL A   1      43.370  25.928  35.137  1.00  0.00    -0.205 F 
ATOM     88  C   UNL A   1      46.710  27.000  36.190  1.00  0.00     0.022 A 
BRANCH  86  89
ATOM     89  S   UNL A   1      45.274  24.972  37.354  1.00  0.00     0.127 S 
ATOM     90  O   UNL A   1      45.277  23.780  36.508  1.00  0.00    -0.237 OA
ATOM     91  O   UNL A   1      46.455  25.117  38.208  1.00  0.00    -0.237 OA
ATOM     92  O   UNL A   1      44.012  25.269  38.022  1.00  0.00    -0.744 OA
ENDBRANCH  86  89
ENDBRANCH  59  82
ENDBRANCH  33  34
ENDBRANCH  26  28
ENDBRANCH  25  26
ENDBRANCH  24  25
ENDBRANCH   1  24
TORSDOF 18
ENDMDL
MODEL 2
REMARK VINA RESULT:     -12.0      2.176      2.831
REMARK SMILES Cc1sc(-c2ccco2)nc1C(=O)N[C@@H](C(=O)OCCOC(=O)c1ccc(-c2c3nc(c(-c4cccc(S(=O)(=O)[O-])c4F)c4ccc([nH]4)c(-c4cccc(S(=O)(=O)[O-])c4F)c4nc(c(-c5cccc(S(=O)(=O)[O-])c5F)c5ccc2[nH]5)C=C4)C=C3)cc1)C(C)C
REMARK SMILES IDX 19 1 18 2 16 3 17 4 15 5 14 6 12 7 13 8 11 10 1 11 2 12 3 13
REMARK SMILES IDX 4 14 10 15 5 16 6 17 9 18 7 19 8 20 87 21 88 22 89 23 20 24
REMARK SMILES IDX 21 25 22 26 23 27 24 28 25 29 86 30 26 31 85 32 27 33 28 34
REMARK SMILES IDX 29 35 79 36 30 37 84 38 78 39 80 40 31 41 83 42 77 43 76 44
REMARK SMILES IDX 32 46 64 47 44 48 63 49 45 50 48 51 62 52 81 53 46 54 47 55
REMARK SMILES IDX 61 57 82 58 49 59 33 60 34 61 42 62 35 63 37 64 43 65 36 66
REMARK SMILES IDX 38 67 39 68 40 69 41 70 65 71 66 72 74 73 67 74 69 75 75 76
REMARK SMILES IDX 68 77 70 78 71 79 72 80 73 81 50 82 51 83 59 84 52 85 54 86
REMARK SMILES IDX 60 87 53 88 55 89 56 90 57 91 58 92
REMARK H PARENT 14 9 80 45 48 56
REMARK Flexibility Score: inf
ROOT
ATOM      1  C   UNL A   1      31.879  28.731  27.192  1.00  0.00     0.274 C 
ENDROOT
BRANCH   1   2
ATOM      2  O   UNL A   1      31.945  27.874  26.029  1.00  0.00    -0.461 OA
BRANCH   2   3
ATOM      3  C   UNL A   1      31.417  26.617  26.138  1.00  0.00     0.329 C 
ATOM      4  O   UNL A   1      30.293  26.379  26.561  1.00  0.00    -0.250 OA
BRANCH   3   5
ATOM      5  C   UNL A   1      32.421  25.513  25.694  1.00  0.00     0.195 C 
BRANCH   5   6
ATOM      6  N   UNL A   1      32.441  24.485  26.723  1.00  0.00    -0.337 N 
ATOM      7  C   UNL A   1      32.168  23.141  26.637  1.00  0.00     0.271 C 
ATOM      8  O   UNL A   1      31.954  22.567  27.707  1.00  0.00    -0.267 OA
ATOM      9  H   UNL A   1      32.690  24.801  27.621  1.00  0.00     0.164 HD
BRANCH   7  10
ATOM     10  C   UNL A   1      32.241  22.379  25.370  1.00  0.00     0.142 A 
ATOM     11  C   UNL A   1      30.743  23.617  23.549  1.00  0.00     0.059 C 
ATOM     12  C   UNL A   1      31.702  22.618  24.103  1.00  0.00     0.035 A 
ATOM     13  S   UNL A   1      32.289  21.433  22.988  1.00  0.00    -0.115 S 
ATOM     14  C   UNL A   1      32.880  20.515  24.292  1.00  0.00     0.160 A 
ATOM     15  N   UNL A   1      32.849  21.113  25.456  1.00  0.00    -0.227 NA
BRANCH  14  16
ATOM     16  C   UNL A   1      33.260  19.145  24.130  1.00  0.00     0.162 A 
ATOM     17  C   UNL A   1      32.513  18.132  23.549  1.00  0.00     0.053 A 
ATOM     18  O   UNL A   1      34.488  18.641  24.475  1.00  0.00    -0.462 OA
ATOM     19  C   UNL A   1      33.328  16.975  23.519  1.00  0.00     0.043 A 
ATOM     20  C   UNL A   1      34.511  17.333  24.118  1.00  0.00     0.196 A 
ENDBRANCH  14  16
ENDBRANCH   7  10
ENDBRANCH   5   6
BRANCH   5  21
ATOM     21  C   UNL A   1      33.821  26.042  25.321  1.00  0.00     0.017 C 
ATOM     22  C   UNL A   1      34.887  24.943  25.412  1.00  0.00     0.010 C 
ATOM     23  C   UNL A   1      33.826  26.581  23.880  1.00  0.00     0.010 C 
ENDBRANCH   5  21
ENDBRANCH   3   5
ENDBRANCH   2   3
ENDBRANCH   1   2
BRANCH   1  24
ATOM     24  C   UNL A   1      31.905  30.202  26.786  1.00  0.00     0.275 C 
BRANCH  24  25
ATOM     25  O   UNL A   1      33.269  30.583  26.564  1.00  0.00    -0.458 OA
BRANCH  25  26
ATOM     26  C   UNL A   1      33.755  31.561  27.356  1.00  0.00     0.338 C 
ATOM     27  O   UNL A   1      33.178  32.575  27.729  1.00  0.00    -0.246 OA
BRANCH  26  28
ATOM     28  C   UNL A   1      35.099  31.175  27.809  1.00  0.00     0.060 A 
ATOM     29  C   UNL A   1      35.322  29.851  28.176  1.00  0.00     0.016 A 
ATOM     30  C   UNL A   1      36.098  32.127  27.987  1.00  0.00     0.016 A 
ATOM     31  C   UNL A   1      36.500  29.487  28.816  1.00  0.00     0.010 A 
ATOM     32  C   UNL A   1      37.325  31.735  28.534  1.00  0.00     0.010 A 
ATOM     33  C   UNL A   1      37.525  30.420  28.995  1.00  0.00    -0.014 A 
BRANCH  33  34
ATOM     34  C   UNL A   1      38.764  30.036  29.724  1.00  0.00     0.031 A 
ATOM     35  C   UNL A   1      39.735  29.080  29.085  1.00  0.00     0.074 A 
ATOM     36  C   UNL A   1      39.041  30.549  30.941  1.00  0.00     0.049 A 
ATOM     37  N   UNL A   1      40.748  28.451  29.620  1.00  0.00    -0.248 NA
ATOM     38  C   UNL A   1      39.531  28.782  27.657  1.00  0.00     0.031 C 
ATOM     39  C   UNL A   1      38.225  31.531  31.656  1.00  0.00     0.029 A 
ATOM     40  N   UNL A   1      40.089  30.307  31.796  1.00  0.00    -0.354 N 
ATOM     41  C   UNL A   1      41.239  27.612  28.627  1.00  0.00     0.074 A 
ATOM     42  C   UNL A   1      40.434  27.835  27.445  1.00  0.00     0.031 C 
ATOM     43  C   UNL A   1      38.811  31.825  32.828  1.00  0.00     0.029 A 
ATOM     44  C   UNL A   1      39.991  30.985  32.991  1.00  0.00     0.049 A 
ATOM     45  H   UNL A   1      40.838  29.708  31.576  1.00  0.00     0.167 HD
ATOM     46  C   UNL A   1      42.268  26.737  28.694  1.00  0.00     0.034 A 
ATOM     47  C   UNL A   1      40.734  30.903  34.112  1.00  0.00     0.034 A 
ATOM     48  C   UNL A   1      43.126  26.587  29.837  1.00  0.00     0.049 A 
ATOM     49  C   UNL A   1      41.879  29.929  34.159  1.00  0.00     0.074 A 
ATOM     50  C   UNL A   1      44.210  25.742  29.996  1.00  0.00     0.029 A 
ATOM     51  N   UNL A   1      43.011  27.316  31.010  1.00  0.00    -0.354 N 
ATOM     52  N   UNL A   1      42.331  29.142  33.213  1.00  0.00    -0.248 NA
ATOM     53  C   UNL A   1      42.614  29.828  35.427  1.00  0.00     0.031 C 
ATOM     54  C   UNL A   1      44.751  25.963  31.266  1.00  0.00     0.029 A 
ATOM     55  C   UNL A   1      44.007  26.947  31.896  1.00  0.00     0.049 A 
ATOM     56  H   UNL A   1      42.322  27.997  31.187  1.00  0.00     0.167 HD
ATOM     57  C   UNL A   1      43.407  28.460  33.767  1.00  0.00     0.074 A 
ATOM     58  C   UNL A   1      43.562  28.953  35.121  1.00  0.00     0.031 C 
ATOM     59  C   UNL A   1      44.179  27.492  33.217  1.00  0.00     0.034 A 
BRANCH  46  60
ATOM     60  C   UNL A   1      42.532  25.877  27.489  1.00  0.00     0.023 A 
ATOM     61  C   UNL A   1      43.241  26.402  26.392  1.00  0.00     0.012 A 
ATOM     62  C   UNL A   1      42.113  24.532  27.465  1.00  0.00     0.148 A 
ATOM     63  C   UNL A   1      43.511  25.607  25.278  1.00  0.00     0.002 A 
ATOM     64  C   UNL A   1      42.417  23.736  26.367  1.00  0.00     0.091 A 
ATOM     65  F   UNL A   1      41.412  24.061  28.506  1.00  0.00    -0.205 F 
ATOM     66  C   UNL A   1      43.109  24.273  25.270  1.00  0.00     0.022 A 
BRANCH  64  67
ATOM     67  S   UNL A   1      41.994  21.991  26.304  1.00  0.00     0.127 S 
ATOM     68  O   UNL A   1      40.564  22.043  26.010  1.00  0.00    -0.237 OA
ATOM     69  O   UNL A   1      42.826  21.508  25.201  1.00  0.00    -0.237 OA
ATOM     70  O   UNL A   1      42.352  21.449  27.607  1.00  0.00    -0.744 OA
ENDBRANCH  64  67
ENDBRANCH  46  60
BRANCH  47  71
ATOM     71  C   UNL A   1      40.408  31.765  35.285  1.00  0.00     0.023 A 
ATOM     72  C   UNL A   1      41.118  32.965  35.480  1.00  0.00     0.012 A 
ATOM     73  C   UNL A   1      39.373  31.430  36.179  1.00  0.00     0.148 A 
ATOM     74  C   UNL A   1      40.812  33.806  36.552  1.00  0.00     0.002 A 
ATOM     75  C   UNL A   1      39.029  32.303  37.205  1.00  0.00     0.091 A 
ATOM     76  F   UNL A   1      38.728  30.267  36.003  1.00  0.00    -0.205 F 
ATOM     77  C   UNL A   1      39.758  33.484  37.403  1.00  0.00     0.022 A 
BRANCH  75  78
ATOM     78  S   UNL A   1      37.583  32.026  38.234  1.00  0.00     0.127 S 
ATOM     79  O   UNL A   1      37.257  30.637  37.930  1.00  0.00    -0.237 OA
ATOM     80  O   UNL A   1      38.110  32.256  39.580  1.00  0.00    -0.237 OA
ATOM     81  O   UNL A   1      36.614  33.025  37.801  1.00  0.00    -0.744 OA
ENDBRANCH  75  78
ENDBRANCH  47  71
BRANCH  59  82
ATOM     82  C   UNL A   1      45.271  26.907  34.071  1.00  0.00     0.023 A 
ATOM     83  C   UNL A   1      46.544  27.508  34.070  1.00  0.00     0.012 A 
ATOM     84  C   UNL A   1      45.015  25.821  34.929  1.00  0.00     0.148 A 
ATOM     85  C   UNL A   1      47.555  27.022  34.896  1.00  0.00     0.002 A 
ATOM     86  C   UNL A   1      46.017  25.366  35.779  1.00  0.00     0.091 A 
ATOM     87  F   UNL A   1      43.803  25.248  34.897  1.00  0.00    -0.205 F 
ATOM     88  C   UNL A   1      47.289  25.960  35.759  1.00  0.00     0.022 A 
BRANCH  86  89
ATOM     89  S   UNL A   1      45.730  24.060  36.977  1.00  0.00     0.127 S 
ATOM     90  O   UNL A   1      47.055  23.901  37.572  1.00  0.00    -0.237 OA
ATOM     91  O   UNL A   1      44.731  24.659  37.865  1.00  0.00    -0.237 OA
ATOM     92  O   UNL A   1      45.242  22.921  36.209  1.00  0.00    -0.744 OA
ENDBRANCH  86  89
ENDBRANCH  59  82
ENDBRANCH  33  34
ENDBRANCH  26  28
ENDBRANCH  25  26
ENDBRANCH  24  25
ENDBRANCH   1  24
TORSDOF 18
ENDMDL
MODEL 3
REMARK VINA RESULT:     -12.0      5.176     10.079
REMARK SMILES Cc1sc(-c2ccco2)nc1C(=O)N[C@@H](C(=O)OCCOC(=O)c1ccc(-c2c3nc(c(-c4cccc(S(=O)(=O)[O-])c4F)c4ccc([nH]4)c(-c4cccc(S(=O)(=O)[O-])c4F)c4nc(c(-c5cccc(S(=O)(=O)[O-])c5F)c5ccc2[nH]5)C=C4)C=C3)cc1)C(C)C
REMARK SMILES IDX 19 1 18 2 16 3 17 4 15 5 14 6 12 7 13 8 11 10 1 11 2 12 3 13
REMARK SMILES IDX 4 14 10 15 5 16 6 17 9 18 7 19 8 20 87 21 88 22 89 23 20 24
REMARK SMILES IDX 21 25 22 26 23 27 24 28 25 29 86 30 26 31 85 32 27 33 28 34
REMARK SMILES IDX 29 35 79 36 30 37 84 38 78 39 80 40 31 41 83 42 77 43 76 44
REMARK SMILES IDX 32 46 64 47 44 48 63 49 45 50 48 51 62 52 81 53 46 54 47 55
REMARK SMILES IDX 61 57 82 58 49 59 33 60 34 61 42 62 35 63 37 64 43 65 36 66
REMARK SMILES IDX 38 67 39 68 40 69 41 70 65 71 66 72 74 73 67 74 69 75 75 76
REMARK SMILES IDX 68 77 70 78 71 79 72 80 73 81 50 82 51 83 59 84 52 85 54 86
REMARK SMILES IDX 60 87 53 88 55 89 56 90 57 91 58 92
REMARK H PARENT 14 9 80 45 48 56
REMARK Flexibility Score: inf
ROOT
ATOM      1  C   UNL A   1      34.927  21.302  24.629  1.00  0.00     0.274 C 
ENDROOT
BRANCH   1   2
ATOM      2  O   UNL A   1      34.856  22.736  24.798  1.00  0.00    -0.461 OA
BRANCH   2   3
ATOM      3  C   UNL A   1      34.914  23.510  23.672  1.00  0.00     0.329 C 
ATOM      4  O   UNL A   1      35.774  23.401  22.808  1.00  0.00    -0.250 OA
BRANCH   3   5
ATOM      5  C   UNL A   1      33.778  24.574  23.625  1.00  0.00     0.195 C 
BRANCH   5   6
ATOM      6  N   UNL A   1      32.993  24.445  24.844  1.00  0.00    -0.337 N 
ATOM      7  C   UNL A   1      32.540  25.409  25.711  1.00  0.00     0.271 C 
ATOM      8  O   UNL A   1      32.175  25.008  26.818  1.00  0.00    -0.267 OA
ATOM      9  H   UNL A   1      32.748  23.523  25.084  1.00  0.00     0.164 HD
BRANCH   7  10
ATOM     10  C   UNL A   1      32.372  26.829  25.327  1.00  0.00     0.142 A 
ATOM     11  C   UNL A   1      34.147  28.288  26.672  1.00  0.00     0.059 C 
ATOM     12  C   UNL A   1      33.075  27.984  25.683  1.00  0.00     0.035 A 
ATOM     13  S   UNL A   1      32.493  29.327  24.760  1.00  0.00    -0.115 S 
ATOM     14  C   UNL A   1      31.161  28.394  24.263  1.00  0.00     0.160 A 
ATOM     15  N   UNL A   1      31.224  27.122  24.566  1.00  0.00    -0.227 NA
BRANCH  14  16
ATOM     16  C   UNL A   1      30.006  28.996  23.670  1.00  0.00     0.162 A 
ATOM     17  C   UNL A   1      28.948  28.346  23.051  1.00  0.00     0.053 A 
ATOM     18  O   UNL A   1      29.739  30.341  23.697  1.00  0.00    -0.462 OA
ATOM     19  C   UNL A   1      27.993  29.334  22.709  1.00  0.00     0.043 A 
ATOM     20  C   UNL A   1      28.535  30.533  23.102  1.00  0.00     0.196 A 
ENDBRANCH  14  16
ENDBRANCH   7  10
ENDBRANCH   5   6
BRANCH   5  21
ATOM     21  C   UNL A   1      32.929  24.538  22.337  1.00  0.00     0.017 C 
ATOM     22  C   UNL A   1      31.466  24.183  22.631  1.00  0.00     0.010 C 
ATOM     23  C   UNL A   1      32.948  25.912  21.645  1.00  0.00     0.010 C 
ENDBRANCH   5  21
ENDBRANCH   3   5
ENDBRANCH   2   3
ENDBRANCH   1   2
BRANCH   1  24
ATOM     24  C   UNL A   1      36.176  20.736  25.298  1.00  0.00     0.275 C 
BRANCH  24  25
ATOM     25  O   UNL A   1      37.084  21.819  25.545  1.00  0.00    -0.458 OA
BRANCH  25  26
ATOM     26  C   UNL A   1      38.363  21.481  25.808  1.00  0.00     0.338 C 
ATOM     27  O   UNL A   1      38.942  20.449  25.491  1.00  0.00    -0.246 OA
BRANCH  26  28
ATOM     28  C   UNL A   1      39.023  22.614  26.471  1.00  0.00     0.060 A 
ATOM     29  C   UNL A   1      38.549  23.899  26.219  1.00  0.00     0.016 A 
ATOM     30  C   UNL A   1      40.170  22.430  27.236  1.00  0.00     0.016 A 
ATOM     31  C   UNL A   1      39.268  25.010  26.640  1.00  0.00     0.010 A 
ATOM     32  C   UNL A   1      40.834  23.549  27.750  1.00  0.00     0.010 A 
ATOM     33  C   UNL A   1      40.416  24.853  27.422  1.00  0.00    -0.014 A 
BRANCH  33  34
ATOM     34  C   UNL A   1      41.211  26.044  27.828  1.00  0.00     0.031 A 
ATOM     35  C   UNL A   1      40.574  27.102  28.689  1.00  0.00     0.074 A 
ATOM     36  C   UNL A   1      42.499  26.181  27.453  1.00  0.00     0.049 A 
ATOM     37  N   UNL A   1      41.001  28.304  28.973  1.00  0.00    -0.248 NA
ATOM     38  C   UNL A   1      39.277  26.767  29.302  1.00  0.00     0.031 C 
ATOM     39  C   UNL A   1      43.265  25.210  26.670  1.00  0.00     0.029 A 
ATOM     40  N   UNL A   1      43.393  27.201  27.677  1.00  0.00    -0.354 N 
ATOM     41  C   UNL A   1      39.987  28.901  29.712  1.00  0.00     0.074 A 
ATOM     42  C   UNL A   1      38.935  27.919  29.861  1.00  0.00     0.031 C 
ATOM     43  C   UNL A   1      44.516  25.667  26.499  1.00  0.00     0.029 A 
ATOM     44  C   UNL A   1      44.615  27.003  27.074  1.00  0.00     0.049 A 
ATOM     45  H   UNL A   1      43.180  27.997  28.217  1.00  0.00     0.167 HD
ATOM     46  C   UNL A   1      39.938  30.153  30.221  1.00  0.00     0.034 A 
ATOM     47  C   UNL A   1      45.678  27.823  26.952  1.00  0.00     0.034 A 
ATOM     48  C   UNL A   1      41.023  31.093  30.153  1.00  0.00     0.049 A 
ATOM     49  C   UNL A   1      45.603  29.207  27.533  1.00  0.00     0.074 A 
ATOM     50  C   UNL A   1      41.079  32.381  30.657  1.00  0.00     0.029 A 
ATOM     51  N   UNL A   1      42.252  30.839  29.565  1.00  0.00    -0.354 N 
ATOM     52  N   UNL A   1      44.638  29.758  28.228  1.00  0.00    -0.248 NA
ATOM     53  C   UNL A   1      46.761  30.084  27.312  1.00  0.00     0.031 C 
ATOM     54  C   UNL A   1      42.345  32.904  30.374  1.00  0.00     0.029 A 
ATOM     55  C   UNL A   1      43.076  31.942  29.698  1.00  0.00     0.049 A 
ATOM     56  H   UNL A   1      42.501  29.997  29.118  1.00  0.00     0.167 HD
ATOM     57  C   UNL A   1      45.074  31.041  28.535  1.00  0.00     0.074 A 
ATOM     58  C   UNL A   1      46.406  31.173  27.981  1.00  0.00     0.031 C 
ATOM     59  C   UNL A   1      44.421  32.031  29.189  1.00  0.00     0.034 A 
BRANCH  46  60
ATOM     60  C   UNL A   1      38.670  30.578  30.907  1.00  0.00     0.023 A 
ATOM     61  C   UNL A   1      38.513  30.367  32.289  1.00  0.00     0.012 A 
ATOM     62  C   UNL A   1      37.650  31.230  30.184  1.00  0.00     0.148 A 
ATOM     63  C   UNL A   1      37.349  30.776  32.941  1.00  0.00     0.002 A 
ATOM     64  C   UNL A   1      36.509  31.667  30.846  1.00  0.00     0.091 A 
ATOM     65  F   UNL A   1      37.805  31.393  28.863  1.00  0.00    -0.205 F 
ATOM     66  C   UNL A   1      36.354  31.435  32.222  1.00  0.00     0.022 A 
BRANCH  64  67
ATOM     67  S   UNL A   1      35.209  32.582  30.010  1.00  0.00     0.127 S 
ATOM     68  O   UNL A   1      35.943  33.735  29.494  1.00  0.00    -0.237 OA
ATOM     69  O   UNL A   1      34.766  31.633  28.988  1.00  0.00    -0.237 OA
ATOM     70  O   UNL A   1      34.212  32.875  31.030  1.00  0.00    -0.744 OA
ENDBRANCH  64  67
ENDBRANCH  46  60
BRANCH  47  71
ATOM     71  C   UNL A   1      46.900  27.352  26.238  1.00  0.00     0.023 A 
ATOM     72  C   UNL A   1      47.780  26.464  26.885  1.00  0.00     0.012 A 
ATOM     73  C   UNL A   1      47.174  27.741  24.912  1.00  0.00     0.148 A 
ATOM     74  C   UNL A   1      48.916  25.983  26.229  1.00  0.00     0.002 A 
ATOM     75  C   UNL A   1      48.269  27.208  24.242  1.00  0.00     0.091 A 
ATOM     76  F   UNL A   1      46.348  28.615  24.319  1.00  0.00    -0.205 F 
ATOM     77  C   UNL A   1      49.150  26.341  24.904  1.00  0.00     0.022 A 
BRANCH  75  78
ATOM     78  S   UNL A   1      48.538  27.501  22.490  1.00  0.00     0.127 S 
ATOM     79  O   UNL A   1      49.811  28.213  22.495  1.00  0.00    -0.237 OA
ATOM     80  O   UNL A   1      48.593  26.141  21.952  1.00  0.00    -0.237 OA
ATOM     81  O   UNL A   1      47.375  28.263  22.052  1.00  0.00    -0.744 OA
ENDBRANCH  75  78
ENDBRANCH  47  71
BRANCH  59  82
ATOM     82  C   UNL A   1      45.138  33.343  29.356  1.00  0.00     0.023 A 
ATOM     83  C   UNL A   1      45.958  33.542  30.483  1.00  0.00     0.012 A 
ATOM     84  C   UNL A   1      45.064  34.339  28.364  1.00  0.00     0.148 A 
ATOM     85  C   UNL A   1      46.679  34.725  30.631  1.00  0.00     0.002 A 
ATOM     86  C   UNL A   1      45.818  35.500  28.500  1.00  0.00     0.091 A 
ATOM     87  F   UNL A   1      44.259  34.139  27.310  1.00  0.00    -0.205 F 
ATOM     88  C   UNL A   1      46.619  35.698  29.635  1.00  0.00     0.022 A 
BRANCH  86  89
ATOM     89  S   UNL A   1      45.860  36.762  27.223  1.00  0.00     0.127 S 
ATOM     90  O   UNL A   1      44.477  37.231  27.218  1.00  0.00    -0.237 OA
ATOM     91  O   UNL A   1      46.828  37.721  27.758  1.00  0.00    -0.237 OA
ATOM     92  O   UNL A   1      46.299  36.081  26.011  1.00  0.00    -0.744 OA
ENDBRANCH  86  89
ENDBRANCH  59  82
ENDBRANCH  33  34
ENDBRANCH  26  28
ENDBRANCH  25  26
ENDBRANCH  24  25
ENDBRANCH   1  24
TORSDOF 18
ENDMDL
