MODEL 1
REMARK VINA RESULT:     -11.9      0.000      0.000
REMARK SMILES Cc1ccc(NC(=O)NC2(C(=O)OCCOC(=O)c3ccc(-c4c5nc(c(-c6cccc(S(=O)(=O)[O-])c6F)c6ccc([nH]6)c(-c6cccc(S(=O)(=O)[O-])c6F)c6nc(c(-c7cccc(S(=O)(=O)[O-])c7F)c7ccc4[nH]7)C=C6)C=C5)cc3)CC2)c(C)n1
REMARK SMILES IDX 15 1 14 2 13 3 11 4 12 5 10 6 82 7 83 8 9 9 6 10 7 11 8 13
REMARK SMILES IDX 5 15 1 16 2 17 3 18 86 19 4 20 84 21 85 22 16 23 17 24 18 25
REMARK SMILES IDX 19 26 20 27 81 28 21 29 80 30 22 31 23 32 24 33 74 34 25 35
REMARK SMILES IDX 79 36 73 37 75 38 26 39 78 40 72 41 71 42 27 44 59 45 39 46
REMARK SMILES IDX 58 47 40 48 43 49 57 50 76 51 41 52 42 53 56 55 77 56 44 57
REMARK SMILES IDX 28 58 29 59 37 60 30 61 32 62 38 63 31 64 33 65 34 66 35 67
REMARK SMILES IDX 36 68 60 69 61 70 69 71 62 72 64 73 70 74 63 75 65 76 66 77
REMARK SMILES IDX 67 78 68 79 45 80 46 81 54 82 47 83 49 84 55 85 48 86 50 87
REMARK SMILES IDX 51 88 52 89 53 90
REMARK H PARENT 6 12 9 14 75 43 43 54
REMARK Flexibility Score: inf
ROOT
ATOM      1  C   UNL A   1      31.622  29.653  25.734  1.00  0.00     0.275 C 
ENDROOT
BRANCH   1   2
ATOM      2  C   UNL A   1      31.265  28.188  26.013  1.00  0.00     0.274 C 
BRANCH   2   3
ATOM      3  O   UNL A   1      31.885  27.335  25.022  1.00  0.00    -0.460 OA
BRANCH   3   4
ATOM      4  C   UNL A   1      31.574  27.524  23.701  1.00  0.00     0.332 C 
ATOM      5  O   UNL A   1      30.438  27.473  23.242  1.00  0.00    -0.249 OA
BRANCH   4   6
ATOM      6  C   UNL A   1      32.822  27.764  22.820  1.00  0.00     0.139 C 
ATOM      7  C   UNL A   1      34.114  27.946  23.625  1.00  0.00     0.043 C 
ATOM      8  C   UNL A   1      33.726  29.003  22.668  1.00  0.00     0.043 C 
BRANCH   6   9
ATOM      9  N   UNL A   1      32.779  27.072  21.592  1.00  0.00    -0.322 N 
ATOM     10  N   UNL A   1      33.227  24.826  22.297  1.00  0.00    -0.306 N 
ATOM     11  C   UNL A   1      33.015  25.781  21.387  1.00  0.00     0.320 C 
ATOM     12  H   UNL A   1      33.549  24.051  21.781  1.00  0.00     0.171 HD
ATOM     13  O   UNL A   1      33.011  25.401  20.208  1.00  0.00    -0.248 OA
ATOM     14  H   UNL A   1      32.548  27.606  20.798  1.00  0.00     0.166 HD
BRANCH  10  15
ATOM     15  C   UNL A   1      33.211  24.382  23.656  1.00  0.00     0.064 A 
ATOM     16  C   UNL A   1      34.298  22.679  27.453  1.00  0.00     0.067 C 
ATOM     17  C   UNL A   1      34.013  23.346  26.156  1.00  0.00     0.038 A 
ATOM     18  C   UNL A   1      34.963  23.922  25.364  1.00  0.00     0.025 A 
ATOM     19  N   UNL A   1      32.731  23.339  25.792  1.00  0.00    -0.256 NA
ATOM     20  C   UNL A   1      34.552  24.430  24.136  1.00  0.00     0.030 A 
ATOM     21  C   UNL A   1      32.299  23.873  24.605  1.00  0.00     0.061 A 
ATOM     22  C   UNL A   1      30.824  23.935  24.812  1.00  0.00     0.069 C 
ENDBRANCH  10  15
ENDBRANCH   6   9
ENDBRANCH   4   6
ENDBRANCH   3   4
ENDBRANCH   2   3
ENDBRANCH   1   2
BRANCH   1  23
ATOM     23  O   UNL A   1      32.990  29.837  26.118  1.00  0.00    -0.458 OA
BRANCH  23  24
ATOM     24  C   UNL A   1      33.242  30.921  26.888  1.00  0.00     0.338 C 
ATOM     25  O   UNL A   1      32.452  31.773  27.257  1.00  0.00    -0.246 OA
BRANCH  24  26
ATOM     26  C   UNL A   1      34.626  30.805  27.377  1.00  0.00     0.060 A 
ATOM     27  C   UNL A   1      35.125  29.527  27.633  1.00  0.00     0.016 A 
ATOM     28  C   UNL A   1      35.360  31.927  27.741  1.00  0.00     0.016 A 
ATOM     29  C   UNL A   1      36.276  29.366  28.385  1.00  0.00     0.010 A 
ATOM     30  C   UNL A   1      36.605  31.753  28.353  1.00  0.00     0.010 A 
ATOM     31  C   UNL A   1      37.059  30.472  28.721  1.00  0.00    -0.014 A 
BRANCH  31  32
ATOM     32  C   UNL A   1      38.350  30.292  29.443  1.00  0.00     0.031 A 
ATOM     33  C   UNL A   1      39.417  29.406  28.858  1.00  0.00     0.074 A 
ATOM     34  C   UNL A   1      38.536  30.865  30.652  1.00  0.00     0.049 A 
ATOM     35  N   UNL A   1      40.430  28.836  29.453  1.00  0.00    -0.248 NA
ATOM     36  C   UNL A   1      39.310  29.086  27.423  1.00  0.00     0.031 C 
ATOM     37  C   UNL A   1      37.598  31.771  31.323  1.00  0.00     0.029 A 
ATOM     38  N   UNL A   1      39.562  30.737  31.556  1.00  0.00    -0.354 N 
ATOM     39  C   UNL A   1      41.006  27.999  28.505  1.00  0.00     0.074 A 
ATOM     40  C   UNL A   1      40.254  28.165  27.279  1.00  0.00     0.031 C 
ATOM     41  C   UNL A   1      38.087  32.120  32.517  1.00  0.00     0.029 A 
ATOM     42  C   UNL A   1      39.297  31.354  32.759  1.00  0.00     0.049 A 
ATOM     43  H   UNL A   1      40.399  30.255  31.365  1.00  0.00     0.167 HD
ATOM     44  C   UNL A   1      42.056  27.157  28.661  1.00  0.00     0.034 A 
ATOM     45  C   UNL A   1      39.889  31.240  33.962  1.00  0.00     0.034 A 
ATOM     46  C   UNL A   1      42.844  27.084  29.863  1.00  0.00     0.049 A 
ATOM     47  C   UNL A   1      41.063  30.320  34.098  1.00  0.00     0.074 A 
ATOM     48  C   UNL A   1      43.985  26.337  30.099  1.00  0.00     0.029 A 
ATOM     49  N   UNL A   1      42.577  27.785  31.029  1.00  0.00    -0.354 N 
ATOM     50  N   UNL A   1      41.619  29.558  33.189  1.00  0.00    -0.248 NA
ATOM     51  C   UNL A   1      41.698  30.251  35.419  1.00  0.00     0.031 C 
ATOM     52  C   UNL A   1      44.385  26.558  31.419  1.00  0.00     0.029 A 
ATOM     53  C   UNL A   1      43.522  27.478  31.993  1.00  0.00     0.049 A 
ATOM     54  H   UNL A   1      41.826  28.410  31.153  1.00  0.00     0.167 HD
ATOM     55  C   UNL A   1      42.686  28.935  33.820  1.00  0.00     0.074 A 
ATOM     56  C   UNL A   1      42.713  29.433  35.181  1.00  0.00     0.031 C 
ATOM     57  C   UNL A   1      43.555  28.021  33.326  1.00  0.00     0.034 A 
BRANCH  44  58
ATOM     58  C   UNL A   1      42.424  26.239  27.523  1.00  0.00     0.023 A 
ATOM     59  C   UNL A   1      43.365  26.637  26.553  1.00  0.00     0.012 A 
ATOM     60  C   UNL A   1      41.903  24.927  27.480  1.00  0.00     0.148 A 
ATOM     61  C   UNL A   1      43.764  25.755  25.548  1.00  0.00     0.002 A 
ATOM     62  C   UNL A   1      42.342  24.039  26.505  1.00  0.00     0.091 A 
ATOM     63  F   UNL A   1      40.996  24.571  28.399  1.00  0.00    -0.205 F 
ATOM     64  C   UNL A   1      43.265  24.454  25.532  1.00  0.00     0.022 A 
BRANCH  62  65
ATOM     65  S   UNL A   1      41.828  22.317  26.456  1.00  0.00     0.127 S 
ATOM     66  O   UNL A   1      42.563  21.823  25.292  1.00  0.00    -0.237 OA
ATOM     67  O   UNL A   1      42.317  21.816  27.742  1.00  0.00    -0.237 OA
ATOM     68  O   UNL A   1      40.380  22.330  26.316  1.00  0.00    -0.744 OA
ENDBRANCH  62  65
ENDBRANCH  44  58
BRANCH  45  69
ATOM     69  C   UNL A   1      39.338  31.983  35.133  1.00  0.00     0.023 A 
ATOM     70  C   UNL A   1      38.447  31.337  36.010  1.00  0.00     0.012 A 
ATOM     71  C   UNL A   1      39.738  33.306  35.410  1.00  0.00     0.148 A 
ATOM     72  C   UNL A   1      37.944  32.005  37.127  1.00  0.00     0.002 A 
ATOM     73  C   UNL A   1      39.289  33.940  36.562  1.00  0.00     0.091 A 
ATOM     74  F   UNL A   1      40.575  33.912  34.556  1.00  0.00    -0.205 F 
ATOM     75  C   UNL A   1      38.376  33.298  37.412  1.00  0.00     0.022 A 
BRANCH  73  76
ATOM     76  S   UNL A   1      39.925  35.536  37.087  1.00  0.00     0.127 S 
ATOM     77  O   UNL A   1      39.185  35.759  38.326  1.00  0.00    -0.237 OA
ATOM     78  O   UNL A   1      41.350  35.253  37.263  1.00  0.00    -0.237 OA
ATOM     79  O   UNL A   1      39.631  36.453  35.994  1.00  0.00    -0.744 OA
ENDBRANCH  73  76
ENDBRANCH  45  69
BRANCH  57  80
ATOM     80  C   UNL A   1      44.643  27.542  34.248  1.00  0.00     0.023 A 
ATOM     81  C   UNL A   1      45.858  28.248  34.332  1.00  0.00     0.012 A 
ATOM     82  C   UNL A   1      44.432  26.417  35.067  1.00  0.00     0.148 A 
ATOM     83  C   UNL A   1      46.866  27.815  35.191  1.00  0.00     0.002 A 
ATOM     84  C   UNL A   1      45.419  26.025  35.961  1.00  0.00     0.091 A 
ATOM     85  F   UNL A   1      43.274  25.751  34.953  1.00  0.00    -0.205 F 
ATOM     86  C   UNL A   1      46.642  26.713  36.014  1.00  0.00     0.022 A 
BRANCH  84  87
ATOM     87  S   UNL A   1      45.181  24.680  37.124  1.00  0.00     0.127 S 
ATOM     88  O   UNL A   1      46.466  24.659  37.823  1.00  0.00    -0.237 OA
ATOM     89  O   UNL A   1      44.058  25.162  37.928  1.00  0.00    -0.237 OA
ATOM     90  O   UNL A   1      44.889  23.499  36.323  1.00  0.00    -0.744 OA
ENDBRANCH  84  87
ENDBRANCH  57  80
ENDBRANCH  31  32
ENDBRANCH  24  26
ENDBRANCH  23  24
ENDBRANCH   1  23
TORSDOF 16
ENDMDL
MODEL 2
REMARK VINA RESULT:     -11.9      1.331      2.082
REMARK SMILES Cc1ccc(NC(=O)NC2(C(=O)OCCOC(=O)c3ccc(-c4c5nc(c(-c6cccc(S(=O)(=O)[O-])c6F)c6ccc([nH]6)c(-c6cccc(S(=O)(=O)[O-])c6F)c6nc(c(-c7cccc(S(=O)(=O)[O-])c7F)c7ccc4[nH]7)C=C6)C=C5)cc3)CC2)c(C)n1
REMARK SMILES IDX 15 1 14 2 13 3 11 4 12 5 10 6 82 7 83 8 9 9 6 10 7 11 8 13
REMARK SMILES IDX 5 15 1 16 2 17 3 18 86 19 4 20 84 21 85 22 16 23 17 24 18 25
REMARK SMILES IDX 19 26 20 27 81 28 21 29 80 30 22 31 23 32 24 33 74 34 25 35
REMARK SMILES IDX 79 36 73 37 75 38 26 39 78 40 72 41 71 42 27 44 59 45 39 46
REMARK SMILES IDX 58 47 40 48 43 49 57 50 76 51 41 52 42 53 56 55 77 56 44 57
REMARK SMILES IDX 28 58 29 59 37 60 30 61 32 62 38 63 31 64 33 65 34 66 35 67
REMARK SMILES IDX 36 68 60 69 61 70 69 71 62 72 64 73 70 74 63 75 65 76 66 77
REMARK SMILES IDX 67 78 68 79 45 80 46 81 54 82 47 83 49 84 55 85 48 86 50 87
REMARK SMILES IDX 51 88 52 89 53 90
REMARK H PARENT 6 12 9 14 75 43 43 54
REMARK Flexibility Score: inf
ROOT
ATOM      1  C   UNL A   1      31.899  29.271  25.519  1.00  0.00     0.275 C 
ENDROOT
BRANCH   1   2
ATOM      2  C   UNL A   1      32.561  27.996  24.983  1.00  0.00     0.274 C 
BRANCH   2   3
ATOM      3  O   UNL A   1      32.121  26.854  25.756  1.00  0.00    -0.460 OA
BRANCH   3   4
ATOM      4  C   UNL A   1      32.345  25.596  25.260  1.00  0.00     0.332 C 
ATOM      5  O   UNL A   1      33.456  25.097  25.112  1.00  0.00    -0.249 OA
BRANCH   4   6
ATOM      6  C   UNL A   1      31.041  24.872  24.851  1.00  0.00     0.139 C 
ATOM      7  C   UNL A   1      31.191  24.000  23.600  1.00  0.00     0.043 C 
ATOM      8  C   UNL A   1      30.141  25.040  23.611  1.00  0.00     0.043 C 
BRANCH   6   9
ATOM      9  N   UNL A   1      30.243  24.498  25.952  1.00  0.00    -0.322 N 
ATOM     10  N   UNL A   1      31.219  22.394  26.552  1.00  0.00    -0.306 N 
ATOM     11  C   UNL A   1      30.313  23.370  26.649  1.00  0.00     0.320 C 
ATOM     12  H   UNL A   1      30.849  21.649  27.079  1.00  0.00     0.171 HD
ATOM     13  O   UNL A   1      29.450  23.208  27.524  1.00  0.00    -0.248 OA
ATOM     14  H   UNL A   1      29.556  25.145  26.234  1.00  0.00     0.166 HD
BRANCH  10  15
ATOM     15  C   UNL A   1      32.468  21.906  26.054  1.00  0.00     0.064 A 
ATOM     16  C   UNL A   1      36.656  21.376  25.226  1.00  0.00     0.067 C 
ATOM     17  C   UNL A   1      35.235  21.539  25.629  1.00  0.00     0.038 A 
ATOM     18  C   UNL A   1      34.830  22.037  26.833  1.00  0.00     0.025 A 
ATOM     19  N   UNL A   1      34.345  21.167  24.708  1.00  0.00    -0.256 NA
ATOM     20  C   UNL A   1      33.463  22.210  27.028  1.00  0.00     0.030 A 
ATOM     21  C   UNL A   1      32.993  21.290  24.898  1.00  0.00     0.061 A 
ATOM     22  C   UNL A   1      32.448  20.456  23.789  1.00  0.00     0.069 C 
ENDBRANCH  10  15
ENDBRANCH   6   9
ENDBRANCH   4   6
ENDBRANCH   3   4
ENDBRANCH   2   3
ENDBRANCH   1   2
BRANCH   1  23
ATOM     23  O   UNL A   1      32.486  29.550  26.796  1.00  0.00    -0.458 OA
BRANCH  23  24
ATOM     24  C   UNL A   1      32.955  30.808  26.963  1.00  0.00     0.338 C 
ATOM     25  O   UNL A   1      32.325  31.851  26.912  1.00  0.00    -0.246 OA
BRANCH  24  26
ATOM     26  C   UNL A   1      34.355  30.704  27.409  1.00  0.00     0.060 A 
ATOM     27  C   UNL A   1      34.852  29.436  27.713  1.00  0.00     0.016 A 
ATOM     28  C   UNL A   1      35.110  31.836  27.689  1.00  0.00     0.016 A 
ATOM     29  C   UNL A   1      36.027  29.302  28.432  1.00  0.00     0.010 A 
ATOM     30  C   UNL A   1      36.374  31.681  28.267  1.00  0.00     0.010 A 
ATOM     31  C   UNL A   1      36.830  30.416  28.684  1.00  0.00    -0.014 A 
BRANCH  31  32
ATOM     32  C   UNL A   1      38.143  30.260  29.370  1.00  0.00     0.031 A 
ATOM     33  C   UNL A   1      39.205  29.384  28.762  1.00  0.00     0.074 A 
ATOM     34  C   UNL A   1      38.356  30.847  30.568  1.00  0.00     0.049 A 
ATOM     35  N   UNL A   1      40.244  28.834  29.333  1.00  0.00    -0.248 NA
ATOM     36  C   UNL A   1      39.062  29.050  27.334  1.00  0.00     0.031 C 
ATOM     37  C   UNL A   1      37.425  31.746  31.258  1.00  0.00     0.029 A 
ATOM     38  N   UNL A   1      39.410  30.741  31.443  1.00  0.00    -0.354 N 
ATOM     39  C   UNL A   1      40.804  27.996  28.375  1.00  0.00     0.074 A 
ATOM     40  C   UNL A   1      40.015  28.141  27.171  1.00  0.00     0.031 C 
ATOM     41  C   UNL A   1      37.944  32.112  32.435  1.00  0.00     0.029 A 
ATOM     42  C   UNL A   1      39.171  31.365  32.648  1.00  0.00     0.049 A 
ATOM     43  H   UNL A   1      40.248  30.270  31.232  1.00  0.00     0.167 HD
ATOM     44  C   UNL A   1      41.869  27.170  28.508  1.00  0.00     0.034 A 
ATOM     45  C   UNL A   1      39.799  31.271  33.834  1.00  0.00     0.034 A 
ATOM     46  C   UNL A   1      42.693  27.119  29.688  1.00  0.00     0.049 A 
ATOM     47  C   UNL A   1      40.989  30.369  33.944  1.00  0.00     0.074 A 
ATOM     48  C   UNL A   1      43.850  26.390  29.897  1.00  0.00     0.029 A 
ATOM     49  N   UNL A   1      42.449  27.826  30.854  1.00  0.00    -0.354 N 
ATOM     50  N   UNL A   1      41.529  29.605  33.025  1.00  0.00    -0.248 NA
ATOM     51  C   UNL A   1      41.663  30.320  35.247  1.00  0.00     0.031 C 
ATOM     52  C   UNL A   1      44.286  26.628  31.203  1.00  0.00     0.029 A 
ATOM     53  C   UNL A   1      43.426  27.541  31.793  1.00  0.00     0.049 A 
ATOM     54  H   UNL A   1      41.694  28.442  30.995  1.00  0.00     0.167 HD
ATOM     55  C   UNL A   1      42.623  29.003  33.631  1.00  0.00     0.074 A 
ATOM     56  C   UNL A   1      42.683  29.514  34.986  1.00  0.00     0.031 C 
ATOM     57  C   UNL A   1      43.490  28.097  33.120  1.00  0.00     0.034 A 
BRANCH  44  58
ATOM     58  C   UNL A   1      42.217  26.246  27.368  1.00  0.00     0.023 A 
ATOM     59  C   UNL A   1      43.058  26.678  26.324  1.00  0.00     0.012 A 
ATOM     60  C   UNL A   1      41.784  24.903  27.393  1.00  0.00     0.148 A 
ATOM     61  C   UNL A   1      43.444  25.797  25.313  1.00  0.00     0.002 A 
ATOM     62  C   UNL A   1      42.212  24.019  26.409  1.00  0.00     0.091 A 
ATOM     63  F   UNL A   1      40.969  24.514  28.383  1.00  0.00    -0.205 F 
ATOM     64  C   UNL A   1      43.034  24.466  25.363  1.00  0.00     0.022 A 
BRANCH  62  65
ATOM     65  S   UNL A   1      41.812  22.266  26.437  1.00  0.00     0.127 S 
ATOM     66  O   UNL A   1      40.382  22.285  26.128  1.00  0.00    -0.237 OA
ATOM     67  O   UNL A   1      42.659  21.743  25.364  1.00  0.00    -0.237 OA
ATOM     68  O   UNL A   1      42.153  21.794  27.770  1.00  0.00    -0.744 OA
ENDBRANCH  62  65
ENDBRANCH  44  58
BRANCH  45  69
ATOM     69  C   UNL A   1      39.272  32.016  35.014  1.00  0.00     0.023 A 
ATOM     70  C   UNL A   1      38.381  31.381  35.898  1.00  0.00     0.012 A 
ATOM     71  C   UNL A   1      39.695  33.332  35.293  1.00  0.00     0.148 A 
ATOM     72  C   UNL A   1      37.900  32.050  37.023  1.00  0.00     0.002 A 
ATOM     73  C   UNL A   1      39.268  33.967  36.452  1.00  0.00     0.091 A 
ATOM     74  F   UNL A   1      40.532  33.930  34.433  1.00  0.00    -0.205 F 
ATOM     75  C   UNL A   1      38.354  33.336  37.309  1.00  0.00     0.022 A 
BRANCH  73  76
ATOM     76  S   UNL A   1      39.934  35.551  36.978  1.00  0.00     0.127 S 
ATOM     77  O   UNL A   1      39.238  35.762  38.244  1.00  0.00    -0.237 OA
ATOM     78  O   UNL A   1      41.362  35.256  37.100  1.00  0.00    -0.237 OA
ATOM     79  O   UNL A   1      39.609  36.486  35.908  1.00  0.00    -0.744 OA
ENDBRANCH  73  76
ENDBRANCH  45  69
BRANCH  57  80
ATOM     80  C   UNL A   1      44.611  27.642  34.014  1.00  0.00     0.023 A 
ATOM     81  C   UNL A   1      45.829  28.347  34.034  1.00  0.00     0.012 A 
ATOM     82  C   UNL A   1      44.430  26.540  34.870  1.00  0.00     0.148 A 
ATOM     83  C   UNL A   1      46.868  27.936  34.867  1.00  0.00     0.002 A 
ATOM     84  C   UNL A   1      45.448  26.170  35.738  1.00  0.00     0.091 A 
ATOM     85  F   UNL A   1      43.268  25.873  34.818  1.00  0.00    -0.205 F 
ATOM     86  C   UNL A   1      46.673  26.857  35.727  1.00  0.00     0.022 A 
BRANCH  84  87
ATOM     87  S   UNL A   1      45.252  24.858  36.946  1.00  0.00     0.127 S 
ATOM     88  O   UNL A   1      46.495  24.967  37.709  1.00  0.00    -0.237 OA
ATOM     89  O   UNL A   1      44.053  25.281  37.670  1.00  0.00    -0.237 OA
ATOM     90  O   UNL A   1      45.097  23.626  36.183  1.00  0.00    -0.744 OA
ENDBRANCH  84  87
ENDBRANCH  57  80
ENDBRANCH  31  32
ENDBRANCH  24  26
ENDBRANCH  23  24
ENDBRANCH   1  23
TORSDOF 16
ENDMDL
MODEL 3
REMARK VINA RESULT:     -11.8      4.968      9.875
REMARK SMILES Cc1ccc(NC(=O)NC2(C(=O)OCCOC(=O)c3ccc(-c4c5nc(c(-c6cccc(S(=O)(=O)[O-])c6F)c6ccc([nH]6)c(-c6cccc(S(=O)(=O)[O-])c6F)c6nc(c(-c7cccc(S(=O)(=O)[O-])c7F)c7ccc4[nH]7)C=C6)C=C5)cc3)CC2)c(C)n1
REMARK SMILES IDX 15 1 14 2 13 3 11 4 12 5 10 6 82 7 83 8 9 9 6 10 7 11 8 13
REMARK SMILES IDX 5 15 1 16 2 17 3 18 86 19 4 20 84 21 85 22 16 23 17 24 18 25
REMARK SMILES IDX 19 26 20 27 81 28 21 29 80 30 22 31 23 32 24 33 74 34 25 35
REMARK SMILES IDX 79 36 73 37 75 38 26 39 78 40 72 41 71 42 27 44 59 45 39 46
REMARK SMILES IDX 58 47 40 48 43 49 57 50 76 51 41 52 42 53 56 55 77 56 44 57
REMARK SMILES IDX 28 58 29 59 37 60 30 61 32 62 38 63 31 64 33 65 34 66 35 67
REMARK SMILES IDX 36 68 60 69 61 70 69 71 62 72 64 73 70 74 63 75 65 76 66 77
REMARK SMILES IDX 67 78 68 79 45 80 46 81 54 82 47 83 49 84 55 85 48 86 50 87
REMARK SMILES IDX 51 88 52 89 53 90
REMARK H PARENT 6 12 9 14 75 43 43 54
REMARK Flexibility Score: inf
ROOT
ATOM      1  C   UNL A   1      36.019  21.617  24.615  1.00  0.00     0.275 C 
ENDROOT
BRANCH   1   2
ATOM      2  C   UNL A   1      35.234  22.588  23.725  1.00  0.00     0.274 C 
BRANCH   2   3
ATOM      3  O   UNL A   1      34.080  23.086  24.442  1.00  0.00    -0.460 OA
BRANCH   3   4
ATOM      4  C   UNL A   1      33.194  22.185  24.973  1.00  0.00     0.332 C 
ATOM      5  O   UNL A   1      32.530  21.394  24.312  1.00  0.00    -0.249 OA
BRANCH   4   6
ATOM      6  C   UNL A   1      33.074  22.298  26.510  1.00  0.00     0.139 C 
ATOM      7  C   UNL A   1      34.196  23.122  27.154  1.00  0.00     0.043 C 
ATOM      8  C   UNL A   1      33.970  21.743  27.635  1.00  0.00     0.043 C 
BRANCH   6   9
ATOM      9  N   UNL A   1      31.740  22.340  26.964  1.00  0.00    -0.322 N 
ATOM     10  N   UNL A   1      31.064  24.524  26.247  1.00  0.00    -0.306 N 
ATOM     11  C   UNL A   1      30.893  23.360  26.879  1.00  0.00     0.320 C 
ATOM     12  H   UNL A   1      30.321  25.092  26.556  1.00  0.00     0.171 HD
ATOM     13  O   UNL A   1      29.792  23.209  27.427  1.00  0.00    -0.248 OA
ATOM     14  H   UNL A   1      31.398  21.522  27.392  1.00  0.00     0.166 HD
BRANCH  10  15
ATOM     15  C   UNL A   1      31.801  25.345  25.337  1.00  0.00     0.064 A 
ATOM     16  C   UNL A   1      34.065  28.553  23.581  1.00  0.00     0.067 C 
ATOM     17  C   UNL A   1      33.375  27.429  24.266  1.00  0.00     0.038 A 
ATOM     18  C   UNL A   1      33.504  27.143  25.594  1.00  0.00     0.025 A 
ATOM     19  N   UNL A   1      32.583  26.697  23.482  1.00  0.00    -0.256 NA
ATOM     20  C   UNL A   1      32.723  26.112  26.106  1.00  0.00     0.030 A 
ATOM     21  C   UNL A   1      31.838  25.650  23.960  1.00  0.00     0.061 A 
ATOM     22  C   UNL A   1      31.421  24.968  22.701  1.00  0.00     0.069 C 
ENDBRANCH  10  15
ENDBRANCH   6   9
ENDBRANCH   4   6
ENDBRANCH   3   4
ENDBRANCH   2   3
ENDBRANCH   1   2
BRANCH   1  23
ATOM     23  O   UNL A   1      37.398  21.998  24.546  1.00  0.00    -0.458 OA
BRANCH  23  24
ATOM     24  C   UNL A   1      38.221  21.384  25.428  1.00  0.00     0.338 C 
ATOM     25  O   UNL A   1      38.495  20.198  25.490  1.00  0.00    -0.246 OA
BRANCH  24  26
ATOM     26  C   UNL A   1      38.894  22.434  26.211  1.00  0.00     0.060 A 
ATOM     27  C   UNL A   1      38.466  23.751  26.043  1.00  0.00     0.016 A 
ATOM     28  C   UNL A   1      40.033  22.160  26.959  1.00  0.00     0.016 A 
ATOM     29  C   UNL A   1      39.250  24.802  26.489  1.00  0.00     0.010 A 
ATOM     30  C   UNL A   1      40.729  23.220  27.546  1.00  0.00     0.010 A 
ATOM     31  C   UNL A   1      40.371  24.556  27.285  1.00  0.00    -0.014 A 
BRANCH  31  32
ATOM     32  C   UNL A   1      41.159  25.688  27.848  1.00  0.00     0.031 A 
ATOM     33  C   UNL A   1      40.472  26.736  28.682  1.00  0.00     0.074 A 
ATOM     34  C   UNL A   1      42.471  25.813  27.554  1.00  0.00     0.049 A 
ATOM     35  N   UNL A   1      40.862  27.950  28.963  1.00  0.00    -0.248 NA
ATOM     36  C   UNL A   1      39.154  26.388  29.243  1.00  0.00     0.031 C 
ATOM     37  C   UNL A   1      43.271  24.855  26.782  1.00  0.00     0.029 A 
ATOM     38  N   UNL A   1      43.361  26.822  27.834  1.00  0.00    -0.354 N 
ATOM     39  C   UNL A   1      39.795  28.550  29.622  1.00  0.00     0.074 A 
ATOM     40  C   UNL A   1      38.753  27.552  29.738  1.00  0.00     0.031 C 
ATOM     41  C   UNL A   1      44.520  25.313  26.655  1.00  0.00     0.029 A 
ATOM     42  C   UNL A   1      44.576  26.655  27.208  1.00  0.00     0.049 A 
ATOM     43  H   UNL A   1      43.152  27.584  28.422  1.00  0.00     0.167 HD
ATOM     44  C   UNL A   1      39.699  29.825  30.069  1.00  0.00     0.034 A 
ATOM     45  C   UNL A   1      45.590  27.514  26.997  1.00  0.00     0.034 A 
ATOM     46  C   UNL A   1      40.787  30.767  30.025  1.00  0.00     0.049 A 
ATOM     47  C   UNL A   1      45.465  28.911  27.524  1.00  0.00     0.074 A 
ATOM     48  C   UNL A   1      40.831  32.053  30.533  1.00  0.00     0.029 A 
ATOM     49  N   UNL A   1      42.022  30.523  29.445  1.00  0.00    -0.354 N 
ATOM     50  N   UNL A   1      44.466  29.458  28.173  1.00  0.00    -0.248 NA
ATOM     51  C   UNL A   1      46.606  29.806  27.301  1.00  0.00     0.031 C 
ATOM     52  C   UNL A   1      42.080  32.600  30.227  1.00  0.00     0.029 A 
ATOM     53  C   UNL A   1      42.831  31.639  29.569  1.00  0.00     0.049 A 
ATOM     54  H   UNL A   1      42.286  29.679  29.010  1.00  0.00     0.167 HD
ATOM     55  C   UNL A   1      44.867  30.755  28.458  1.00  0.00     0.074 A 
ATOM     56  C   UNL A   1      46.212  30.900  27.936  1.00  0.00     0.031 C 
ATOM     57  C   UNL A   1      44.182  31.744  29.081  1.00  0.00     0.034 A 
BRANCH  44  58
ATOM     58  C   UNL A   1      38.384  30.296  30.638  1.00  0.00     0.023 A 
ATOM     59  C   UNL A   1      38.108  30.165  32.013  1.00  0.00     0.012 A 
ATOM     60  C   UNL A   1      37.460  30.969  29.810  1.00  0.00     0.148 A 
ATOM     61  C   UNL A   1      36.926  30.676  32.551  1.00  0.00     0.002 A 
ATOM     62  C   UNL A   1      36.308  31.518  30.362  1.00  0.00     0.091 A 
ATOM     63  F   UNL A   1      37.730  31.069  28.501  1.00  0.00    -0.205 F 
ATOM     64  C   UNL A   1      36.034  31.363  31.730  1.00  0.00     0.022 A 
BRANCH  62  65
ATOM     65  S   UNL A   1      35.144  32.499  29.405  1.00  0.00     0.127 S 
ATOM     66  O   UNL A   1      34.598  31.497  28.489  1.00  0.00    -0.237 OA
ATOM     67  O   UNL A   1      34.208  32.953  30.435  1.00  0.00    -0.237 OA
ATOM     68  O   UNL A   1      35.923  33.555  28.778  1.00  0.00    -0.744 OA
ENDBRANCH  62  65
ENDBRANCH  44  58
BRANCH  45  69
ATOM     69  C   UNL A   1      46.779  27.080  26.208  1.00  0.00     0.023 A 
ATOM     70  C   UNL A   1      46.833  27.346  24.828  1.00  0.00     0.012 A 
ATOM     71  C   UNL A   1      47.879  26.457  26.832  1.00  0.00     0.148 A 
ATOM     72  C   UNL A   1      47.949  26.975  24.078  1.00  0.00     0.002 A 
ATOM     73  C   UNL A   1      49.016  26.154  26.093  1.00  0.00     0.091 A 
ATOM     74  F   UNL A   1      47.805  26.196  28.145  1.00  0.00    -0.205 F 
ATOM     75  C   UNL A   1      49.045  26.393  24.711  1.00  0.00     0.022 A 
BRANCH  73  76
ATOM     76  S   UNL A   1      50.528  25.560  26.861  1.00  0.00     0.127 S 
ATOM     77  O   UNL A   1      51.396  25.369  25.702  1.00  0.00    -0.237 OA
ATOM     78  O   UNL A   1      50.892  26.684  27.726  1.00  0.00    -0.237 OA
ATOM     79  O   UNL A   1      50.152  24.351  27.582  1.00  0.00    -0.744 OA
ENDBRANCH  73  76
ENDBRANCH  45  69
BRANCH  57  80
ATOM     80  C   UNL A   1      44.896  33.052  29.279  1.00  0.00     0.023 A 
ATOM     81  C   UNL A   1      45.692  33.256  30.423  1.00  0.00     0.012 A 
ATOM     82  C   UNL A   1      44.813  34.060  28.300  1.00  0.00     0.148 A 
ATOM     83  C   UNL A   1      46.364  34.463  30.608  1.00  0.00     0.002 A 
ATOM     84  C   UNL A   1      45.530  35.236  28.463  1.00  0.00     0.091 A 
ATOM     85  F   UNL A   1      44.034  33.849  27.230  1.00  0.00    -0.205 F 
ATOM     86  C   UNL A   1      46.294  35.447  29.623  1.00  0.00     0.022 A 
BRANCH  84  87
ATOM     87  S   UNL A   1      45.577  36.516  27.206  1.00  0.00     0.127 S 
ATOM     88  O   UNL A   1      46.144  35.794  26.067  1.00  0.00    -0.237 OA
ATOM     89  O   UNL A   1      44.163  36.862  27.065  1.00  0.00    -0.237 OA
ATOM     90  O   UNL A   1      46.411  37.582  27.744  1.00  0.00    -0.744 OA
ENDBRANCH  84  87
ENDBRANCH  57  80
ENDBRANCH  31  32
ENDBRANCH  24  26
ENDBRANCH  23  24
ENDBRANCH   1  23
TORSDOF 16
ENDMDL
