MODEL 1
REMARK VINA RESULT:     -12.5      0.000      0.000
REMARK SMILES O=C(COc1ccc(-c2cc3cc(Br)ccc3oc2=O)cc1)OCCOC(=O)c1ccc(-c2c3nc(c(-c4cccc(S(=O)(=O)[O-])c4F)c4ccc([nH]4)c(-c4cccc(S(=O)(=O)[O-])c4F)c4nc(c(-c5cccc(S(=O)(=O)[O-])c5F)c5ccc2[nH]5)C=C4)C=C3)cc1
REMARK SMILES IDX 24 1 23 2 2 3 1 4 3 5 4 6 5 7 6 8 22 9 7 10 21 11 8 12 9 13
REMARK SMILES IDX 10 14 19 15 11 16 18 17 20 18 12 19 17 20 13 21 16 22 14 23
REMARK SMILES IDX 15 24 25 25 26 26 27 27 28 28 29 29 30 30 91 31 31 32 90 33
REMARK SMILES IDX 32 34 33 35 34 36 84 37 35 38 89 39 83 40 85 41 36 42 88 43
REMARK SMILES IDX 82 44 81 45 37 47 69 48 49 49 68 50 50 51 53 52 67 53 86 54
REMARK SMILES IDX 51 55 52 56 66 58 87 59 54 60 38 61 39 62 47 63 40 64 42 65
REMARK SMILES IDX 48 66 41 67 43 68 44 69 45 70 46 71 70 72 71 73 79 74 72 75
REMARK SMILES IDX 74 76 80 77 73 78 75 79 76 80 77 81 78 82 55 83 56 84 64 85
REMARK SMILES IDX 57 86 59 87 65 88 58 89 60 90 61 91 62 92 63 93
REMARK H PARENT 85 46 53 57
REMARK Flexibility Score: inf
ROOT
ATOM      1  C   UNL A   1      43.953  20.566  25.386  1.00  0.00     0.274 C 
ENDROOT
BRANCH   1   2
ATOM      2  O   UNL A   1      42.539  20.813  25.407  1.00  0.00    -0.460 OA
BRANCH   2   3
ATOM      3  C   UNL A   1      41.782  20.362  26.435  1.00  0.00     0.344 C 
ATOM      4  O   UNL A   1      42.277  19.608  27.271  1.00  0.00    -0.248 OA
BRANCH   3   5
ATOM      5  C   UNL A   1      40.351  20.905  26.575  1.00  0.00     0.351 C 
BRANCH   5   6
ATOM      6  O   UNL A   1      40.075  22.164  25.972  1.00  0.00    -0.482 OA
BRANCH   6   7
ATOM      7  C   UNL A   1      38.732  22.398  25.852  1.00  0.00     0.120 A 
ATOM      8  C   UNL A   1      38.248  23.671  26.135  1.00  0.00     0.047 A 
ATOM      9  C   UNL A   1      37.836  21.393  25.522  1.00  0.00     0.047 A 
ATOM     10  C   UNL A   1      36.863  23.896  26.175  1.00  0.00     0.013 A 
ATOM     11  C   UNL A   1      36.484  21.650  25.431  1.00  0.00     0.013 A 
ATOM     12  C   UNL A   1      35.963  22.857  25.891  1.00  0.00    -0.011 A 
BRANCH  12  13
ATOM     13  C   UNL A   1      34.549  22.942  26.381  1.00  0.00     0.068 A 
ATOM     14  C   UNL A   1      33.781  24.062  26.333  1.00  0.00     0.028 A 
ATOM     15  C   UNL A   1      33.711  21.832  25.783  1.00  0.00     0.344 A 
ATOM     16  C   UNL A   1      33.457  24.472  24.944  1.00  0.00     0.019 A 
ATOM     17  O   UNL A   1      33.300  22.096  24.462  1.00  0.00    -0.422 OA
ATOM     18  O   UNL A   1      33.488  20.773  26.354  1.00  0.00    -0.246 OA
ATOM     19  C   UNL A   1      33.488  25.798  24.516  1.00  0.00     0.027 A 
ATOM     20  C   UNL A   1      33.330  23.435  24.005  1.00  0.00     0.138 A 
ATOM     21  C   UNL A   1      33.473  26.060  23.143  1.00  0.00     0.018 A 
ATOM     22  C   UNL A   1      33.327  23.690  22.639  1.00  0.00     0.049 A 
ATOM     23  Br  UNL A   1      33.602  27.847  22.534  1.00  0.00    -0.051 Br
ATOM     24  C   UNL A   1      33.419  25.017  22.207  1.00  0.00     0.019 A 
ENDBRANCH  12  13
ENDBRANCH   6   7
ENDBRANCH   5   6
ENDBRANCH   3   5
ENDBRANCH   2   3
ENDBRANCH   1   2
BRANCH   1  25
ATOM     25  C   UNL A   1      44.741  21.877  25.514  1.00  0.00     0.275 C 
BRANCH  25  26
ATOM     26  O   UNL A   1      43.965  22.972  24.990  1.00  0.00    -0.458 OA
BRANCH  26  27
ATOM     27  C   UNL A   1      44.552  24.204  25.028  1.00  0.00     0.338 C 
ATOM     28  O   UNL A   1      45.479  24.580  24.351  1.00  0.00    -0.246 OA
BRANCH  27  29
ATOM     29  C   UNL A   1      43.731  25.091  25.899  1.00  0.00     0.060 A 
ATOM     30  C   UNL A   1      44.203  26.384  26.168  1.00  0.00     0.016 A 
ATOM     31  C   UNL A   1      42.503  24.675  26.424  1.00  0.00     0.016 A 
ATOM     32  C   UNL A   1      43.479  27.240  27.000  1.00  0.00     0.010 A 
ATOM     33  C   UNL A   1      41.784  25.529  27.268  1.00  0.00     0.010 A 
ATOM     34  C   UNL A   1      42.292  26.798  27.596  1.00  0.00    -0.014 A 
BRANCH  34  35
ATOM     35  C   UNL A   1      41.723  27.556  28.739  1.00  0.00     0.031 A 
ATOM     36  C   UNL A   1      42.419  27.451  30.072  1.00  0.00     0.074 A 
ATOM     37  C   UNL A   1      40.626  28.325  28.617  1.00  0.00     0.049 A 
ATOM     38  N   UNL A   1      42.156  28.061  31.197  1.00  0.00    -0.248 NA
ATOM     39  C   UNL A   1      43.565  26.527  30.142  1.00  0.00     0.031 C 
ATOM     40  C   UNL A   1      39.844  28.505  27.396  1.00  0.00     0.029 A 
ATOM     41  N   UNL A   1      39.972  29.091  29.552  1.00  0.00    -0.354 N 
ATOM     42  C   UNL A   1      43.090  27.585  32.110  1.00  0.00     0.074 A 
ATOM     43  C   UNL A   1      43.910  26.618  31.416  1.00  0.00     0.031 C 
ATOM     44  C   UNL A   1      38.804  29.317  27.661  1.00  0.00     0.029 A 
ATOM     45  C   UNL A   1      38.845  29.713  29.068  1.00  0.00     0.049 A 
ATOM     46  H   UNL A   1      40.281  29.184  30.481  1.00  0.00     0.167 HD
ATOM     47  C   UNL A   1      43.271  27.938  33.404  1.00  0.00     0.034 A 
ATOM     48  C   UNL A   1      37.955  30.514  29.692  1.00  0.00     0.034 A 
ATOM     49  C   UNL A   1      42.474  28.912  34.096  1.00  0.00     0.049 A 
ATOM     50  C   UNL A   1      38.175  30.884  31.140  1.00  0.00     0.074 A 
ATOM     51  C   UNL A   1      42.621  29.379  35.390  1.00  0.00     0.029 A 
ATOM     52  N   UNL A   1      41.373  29.556  33.559  1.00  0.00    -0.354 N 
ATOM     53  N   UNL A   1      39.160  30.557  31.939  1.00  0.00    -0.248 NA
ATOM     54  C   UNL A   1      37.176  31.773  31.757  1.00  0.00     0.031 C 
ATOM     55  C   UNL A   1      41.591  30.290  35.643  1.00  0.00     0.029 A 
ATOM     56  C   UNL A   1      40.818  30.408  34.498  1.00  0.00     0.049 A 
ATOM     57  H   UNL A   1      41.034  29.427  32.644  1.00  0.00     0.167 HD
ATOM     58  C   UNL A   1      38.930  31.239  33.133  1.00  0.00     0.074 A 
ATOM     59  C   UNL A   1      37.717  32.006  32.946  1.00  0.00     0.031 C 
ATOM     60  C   UNL A   1      39.651  31.222  34.281  1.00  0.00     0.034 A 
BRANCH  47  61
ATOM     61  C   UNL A   1      44.405  27.284  34.144  1.00  0.00     0.023 A 
ATOM     62  C   UNL A   1      45.698  27.842  34.069  1.00  0.00     0.012 A 
ATOM     63  C   UNL A   1      44.188  26.143  34.938  1.00  0.00     0.148 A 
ATOM     64  C   UNL A   1      46.764  27.255  34.747  1.00  0.00     0.002 A 
ATOM     65  C   UNL A   1      45.247  25.588  35.644  1.00  0.00     0.091 A 
ATOM     66  F   UNL A   1      42.958  25.610  34.971  1.00  0.00    -0.205 F 
ATOM     67  C   UNL A   1      46.537  26.135  35.543  1.00  0.00     0.022 A 
BRANCH  65  68
ATOM     68  S   UNL A   1      45.038  24.187  36.749  1.00  0.00     0.127 S 
ATOM     69  O   UNL A   1      44.371  23.221  35.878  1.00  0.00    -0.237 OA
ATOM     70  O   UNL A   1      46.421  23.851  37.089  1.00  0.00    -0.237 OA
ATOM     71  O   UNL A   1      44.243  24.676  37.867  1.00  0.00    -0.744 OA
ENDBRANCH  65  68
ENDBRANCH  47  61
BRANCH  48  72
ATOM     72  C   UNL A   1      36.805  31.090  28.938  1.00  0.00     0.023 A 
ATOM     73  C   UNL A   1      36.739  32.482  28.736  1.00  0.00     0.012 A 
ATOM     74  C   UNL A   1      35.773  30.274  28.435  1.00  0.00     0.148 A 
ATOM     75  C   UNL A   1      35.651  33.058  28.079  1.00  0.00     0.002 A 
ATOM     76  C   UNL A   1      34.716  30.848  27.736  1.00  0.00     0.091 A 
ATOM     77  F   UNL A   1      35.843  28.954  28.654  1.00  0.00    -0.205 F 
ATOM     78  C   UNL A   1      34.644  32.241  27.573  1.00  0.00     0.022 A 
BRANCH  76  79
ATOM     79  S   UNL A   1      33.431  29.868  26.954  1.00  0.00     0.127 S 
ATOM     80  O   UNL A   1      32.511  30.900  26.482  1.00  0.00    -0.237 OA
ATOM     81  O   UNL A   1      34.178  29.178  25.900  1.00  0.00    -0.237 OA
ATOM     82  O   UNL A   1      32.918  28.990  27.997  1.00  0.00    -0.744 OA
ENDBRANCH  76  79
ENDBRANCH  48  72
BRANCH  60  83
ATOM     83  C   UNL A   1      39.189  32.094  35.421  1.00  0.00     0.023 A 
ATOM     84  C   UNL A   1      39.368  33.490  35.356  1.00  0.00     0.012 A 
ATOM     85  C   UNL A   1      38.500  31.537  36.518  1.00  0.00     0.148 A 
ATOM     86  C   UNL A   1      38.901  34.314  36.380  1.00  0.00     0.002 A 
ATOM     87  C   UNL A   1      37.995  32.369  37.511  1.00  0.00     0.091 A 
ATOM     88  F   UNL A   1      38.354  30.206  36.575  1.00  0.00    -0.205 F 
ATOM     89  C   UNL A   1      38.205  33.756  37.451  1.00  0.00     0.022 A 
BRANCH  87  90
ATOM     90  S   UNL A   1      36.998  31.740  38.869  1.00  0.00     0.127 S 
ATOM     91  O   UNL A   1      36.742  30.367  38.439  1.00  0.00    -0.237 OA
ATOM     92  O   UNL A   1      37.907  31.861  40.010  1.00  0.00    -0.237 OA
ATOM     93  O   UNL A   1      35.831  32.608  38.938  1.00  0.00    -0.744 OA
ENDBRANCH  87  90
ENDBRANCH  60  83
ENDBRANCH  34  35
ENDBRANCH  27  29
ENDBRANCH  26  27
ENDBRANCH  25  26
ENDBRANCH   1  25
TORSDOF 17
ENDMDL
MODEL 2
REMARK VINA RESULT:     -12.2      5.013      9.373
REMARK SMILES O=C(COc1ccc(-c2cc3cc(Br)ccc3oc2=O)cc1)OCCOC(=O)c1ccc(-c2c3nc(c(-c4cccc(S(=O)(=O)[O-])c4F)c4ccc([nH]4)c(-c4cccc(S(=O)(=O)[O-])c4F)c4nc(c(-c5cccc(S(=O)(=O)[O-])c5F)c5ccc2[nH]5)C=C4)C=C3)cc1
REMARK SMILES IDX 24 1 23 2 2 3 1 4 3 5 4 6 5 7 6 8 22 9 7 10 21 11 8 12 9 13
REMARK SMILES IDX 10 14 19 15 11 16 18 17 20 18 12 19 17 20 13 21 16 22 14 23
REMARK SMILES IDX 15 24 25 25 26 26 27 27 28 28 29 29 30 30 91 31 31 32 90 33
REMARK SMILES IDX 32 34 33 35 34 36 84 37 35 38 89 39 83 40 85 41 36 42 88 43
REMARK SMILES IDX 82 44 81 45 37 47 69 48 49 49 68 50 50 51 53 52 67 53 86 54
REMARK SMILES IDX 51 55 52 56 66 58 87 59 54 60 38 61 39 62 47 63 40 64 42 65
REMARK SMILES IDX 48 66 41 67 43 68 44 69 45 70 46 71 70 72 71 73 79 74 72 75
REMARK SMILES IDX 74 76 80 77 73 78 75 79 76 80 77 81 78 82 55 83 56 84 64 85
REMARK SMILES IDX 57 86 59 87 65 88 58 89 60 90 61 91 62 92 63 93
REMARK H PARENT 85 46 53 57
REMARK Flexibility Score: inf
ROOT
ATOM      1  C   UNL A   1      38.066  20.026  24.834  1.00  0.00     0.274 C 
ENDROOT
BRANCH   1   2
ATOM      2  O   UNL A   1      36.737  19.493  24.941  1.00  0.00    -0.460 OA
BRANCH   2   3
ATOM      3  C   UNL A   1      35.682  20.320  25.130  1.00  0.00     0.344 C 
ATOM      4  O   UNL A   1      34.574  20.001  24.701  1.00  0.00    -0.248 OA
BRANCH   3   5
ATOM      5  C   UNL A   1      35.894  21.586  25.975  1.00  0.00     0.351 C 
BRANCH   5   6
ATOM      6  O   UNL A   1      36.091  22.808  25.271  1.00  0.00    -0.482 OA
BRANCH   6   7
ATOM      7  C   UNL A   1      34.995  23.162  24.533  1.00  0.00     0.120 A 
ATOM      8  C   UNL A   1      35.077  23.104  23.145  1.00  0.00     0.047 A 
ATOM      9  C   UNL A   1      33.833  23.637  25.120  1.00  0.00     0.047 A 
ATOM     10  C   UNL A   1      34.028  23.612  22.363  1.00  0.00     0.013 A 
ATOM     11  C   UNL A   1      32.750  24.011  24.351  1.00  0.00     0.013 A 
ATOM     12  C   UNL A   1      32.877  24.140  22.970  1.00  0.00    -0.011 A 
BRANCH  12  13
ATOM     13  C   UNL A   1      32.000  25.086  22.207  1.00  0.00     0.068 A 
ATOM     14  C   UNL A   1      31.154  25.984  22.776  1.00  0.00     0.028 A 
ATOM     15  C   UNL A   1      32.812  25.859  21.190  1.00  0.00     0.344 A 
ATOM     16  C   UNL A   1      31.870  27.050  23.520  1.00  0.00     0.019 A 
ATOM     17  O   UNL A   1      33.530  26.932  21.751  1.00  0.00    -0.422 OA
ATOM     18  O   UNL A   1      32.906  25.533  20.014  1.00  0.00    -0.246 OA
ATOM     19  C   UNL A   1      31.453  27.519  24.765  1.00  0.00     0.027 A 
ATOM     20  C   UNL A   1      33.128  27.420  23.017  1.00  0.00     0.138 A 
ATOM     21  C   UNL A   1      32.341  28.288  25.523  1.00  0.00     0.018 A 
ATOM     22  C   UNL A   1      34.018  28.173  23.773  1.00  0.00     0.049 A 
ATOM     23  Br  UNL A   1      31.831  28.863  27.252  1.00  0.00    -0.051 Br
ATOM     24  C   UNL A   1      33.623  28.593  25.047  1.00  0.00     0.019 A 
ENDBRANCH  12  13
ENDBRANCH   6   7
ENDBRANCH   5   6
ENDBRANCH   3   5
ENDBRANCH   2   3
ENDBRANCH   1   2
BRANCH   1  25
ATOM     25  C   UNL A   1      38.970  19.475  25.944  1.00  0.00     0.275 C 
BRANCH  25  26
ATOM     26  O   UNL A   1      40.328  19.375  25.470  1.00  0.00    -0.458 OA
BRANCH  26  27
ATOM     27  C   UNL A   1      41.308  19.470  26.415  1.00  0.00     0.338 C 
ATOM     28  O   UNL A   1      42.014  18.574  26.813  1.00  0.00    -0.246 OA
BRANCH  27  29
ATOM     29  C   UNL A   1      41.514  20.910  26.738  1.00  0.00     0.060 A 
ATOM     30  C   UNL A   1      41.223  21.864  25.752  1.00  0.00     0.016 A 
ATOM     31  C   UNL A   1      41.961  21.325  27.997  1.00  0.00     0.016 A 
ATOM     32  C   UNL A   1      41.425  23.222  26.003  1.00  0.00     0.010 A 
ATOM     33  C   UNL A   1      42.177  22.686  28.243  1.00  0.00     0.010 A 
ATOM     34  C   UNL A   1      41.953  23.636  27.232  1.00  0.00    -0.014 A 
BRANCH  34  35
ATOM     35  C   UNL A   1      42.498  25.010  27.366  1.00  0.00     0.031 A 
ATOM     36  C   UNL A   1      41.623  26.055  28.010  1.00  0.00     0.074 A 
ATOM     37  C   UNL A   1      43.731  25.341  26.941  1.00  0.00     0.049 A 
ATOM     38  N   UNL A   1      41.890  27.302  28.296  1.00  0.00    -0.248 NA
ATOM     39  C   UNL A   1      40.258  25.634  28.375  1.00  0.00     0.031 C 
ATOM     40  C   UNL A   1      44.676  24.439  26.287  1.00  0.00     0.029 A 
ATOM     41  N   UNL A   1      44.392  26.544  26.988  1.00  0.00    -0.354 N 
ATOM     42  C   UNL A   1      40.729  27.817  28.859  1.00  0.00     0.074 A 
ATOM     43  C   UNL A   1      39.746  26.757  28.852  1.00  0.00     0.031 C 
ATOM     44  C   UNL A   1      45.791  25.126  25.978  1.00  0.00     0.029 A 
ATOM     45  C   UNL A   1      45.639  26.515  26.410  1.00  0.00     0.049 A 
ATOM     46  H   UNL A   1      44.007  27.353  27.398  1.00  0.00     0.167 HD
ATOM     47  C   UNL A   1      40.502  29.052  29.364  1.00  0.00     0.034 A 
ATOM     48  C   UNL A   1      46.551  27.497  26.256  1.00  0.00     0.034 A 
ATOM     49  C   UNL A   1      41.478  30.105  29.394  1.00  0.00     0.049 A 
ATOM     50  C   UNL A   1      46.271  28.870  26.819  1.00  0.00     0.074 A 
ATOM     51  C   UNL A   1      41.360  31.371  29.940  1.00  0.00     0.029 A 
ATOM     52  N   UNL A   1      42.746  30.021  28.843  1.00  0.00    -0.354 N 
ATOM     53  N   UNL A   1      45.232  29.291  27.498  1.00  0.00    -0.248 NA
ATOM     54  C   UNL A   1      47.313  29.892  26.630  1.00  0.00     0.031 C 
ATOM     55  C   UNL A   1      42.551  32.062  29.697  1.00  0.00     0.029 A 
ATOM     56  C   UNL A   1      43.419  31.217  29.021  1.00  0.00     0.049 A 
ATOM     57  H   UNL A   1      43.114  29.228  28.391  1.00  0.00     0.167 HD
ATOM     58  C   UNL A   1      45.516  30.606  27.861  1.00  0.00     0.074 A 
ATOM     59  C   UNL A   1      46.831  30.907  27.336  1.00  0.00     0.031 C 
ATOM     60  C   UNL A   1      44.755  31.487  28.556  1.00  0.00     0.034 A 
BRANCH  47  61
ATOM     61  C   UNL A   1      39.147  29.315  29.959  1.00  0.00     0.023 A 
ATOM     62  C   UNL A   1      38.853  28.845  31.255  1.00  0.00     0.012 A 
ATOM     63  C   UNL A   1      38.179  30.055  29.254  1.00  0.00     0.148 A 
ATOM     64  C   UNL A   1      37.603  29.077  31.827  1.00  0.00     0.002 A 
ATOM     65  C   UNL A   1      36.952  30.319  29.848  1.00  0.00     0.091 A 
ATOM     66  F   UNL A   1      38.468  30.467  28.011  1.00  0.00    -0.205 F 
ATOM     67  C   UNL A   1      36.657  29.823  31.129  1.00  0.00     0.022 A 
BRANCH  65  68
ATOM     68  S   UNL A   1      35.697  31.330  29.054  1.00  0.00     0.127 S 
ATOM     69  O   UNL A   1      36.513  32.340  28.382  1.00  0.00    -0.237 OA
ATOM     70  O   UNL A   1      35.049  30.373  28.157  1.00  0.00    -0.237 OA
ATOM     71  O   UNL A   1      34.845  31.824  30.127  1.00  0.00    -0.744 OA
ENDBRANCH  65  68
ENDBRANCH  47  61
BRANCH  48  72
ATOM     72  C   UNL A   1      47.860  27.210  25.600  1.00  0.00     0.023 A 
ATOM     73  C   UNL A   1      48.931  26.730  26.378  1.00  0.00     0.012 A 
ATOM     74  C   UNL A   1      48.054  27.424  24.222  1.00  0.00     0.148 A 
ATOM     75  C   UNL A   1      50.182  26.499  25.804  1.00  0.00     0.002 A 
ATOM     76  C   UNL A   1      49.289  27.145  23.646  1.00  0.00     0.091 A 
ATOM     77  F   UNL A   1      47.029  27.901  23.502  1.00  0.00    -0.205 F 
ATOM     78  C   UNL A   1      50.359  26.700  24.438  1.00  0.00     0.022 A 
BRANCH  76  79
ATOM     79  S   UNL A   1      49.579  27.268  21.878  1.00  0.00     0.127 S 
ATOM     80  O   UNL A   1      49.310  28.682  21.627  1.00  0.00    -0.237 OA
ATOM     81  O   UNL A   1      50.987  26.880  21.775  1.00  0.00    -0.237 OA
ATOM     82  O   UNL A   1      48.652  26.328  21.262  1.00  0.00    -0.744 OA
ENDBRANCH  76  79
ENDBRANCH  48  72
BRANCH  60  83
ATOM     83  C   UNL A   1      45.330  32.850  28.843  1.00  0.00     0.023 A 
ATOM     84  C   UNL A   1      46.133  33.049  29.983  1.00  0.00     0.012 A 
ATOM     85  C   UNL A   1      45.145  33.914  27.936  1.00  0.00     0.148 A 
ATOM     86  C   UNL A   1      46.713  34.292  30.235  1.00  0.00     0.002 A 
ATOM     87  C   UNL A   1      45.766  35.136  28.169  1.00  0.00     0.091 A 
ATOM     88  F   UNL A   1      44.363  33.714  26.866  1.00  0.00    -0.205 F 
ATOM     89  C   UNL A   1      46.540  35.331  29.323  1.00  0.00     0.022 A 
BRANCH  87  90
ATOM     90  S   UNL A   1      45.677  36.491  26.991  1.00  0.00     0.127 S 
ATOM     91  O   UNL A   1      46.478  37.518  27.656  1.00  0.00    -0.237 OA
ATOM     92  O   UNL A   1      46.298  35.913  25.797  1.00  0.00    -0.237 OA
ATOM     93  O   UNL A   1      44.261  36.794  26.842  1.00  0.00    -0.744 OA
ENDBRANCH  87  90
ENDBRANCH  60  83
ENDBRANCH  34  35
ENDBRANCH  27  29
ENDBRANCH  26  27
ENDBRANCH  25  26
ENDBRANCH   1  25
TORSDOF 17
ENDMDL
MODEL 3
REMARK VINA RESULT:     -12.0      2.287      8.752
REMARK SMILES O=C(COc1ccc(-c2cc3cc(Br)ccc3oc2=O)cc1)OCCOC(=O)c1ccc(-c2c3nc(c(-c4cccc(S(=O)(=O)[O-])c4F)c4ccc([nH]4)c(-c4cccc(S(=O)(=O)[O-])c4F)c4nc(c(-c5cccc(S(=O)(=O)[O-])c5F)c5ccc2[nH]5)C=C4)C=C3)cc1
REMARK SMILES IDX 24 1 23 2 2 3 1 4 3 5 4 6 5 7 6 8 22 9 7 10 21 11 8 12 9 13
REMARK SMILES IDX 10 14 19 15 11 16 18 17 20 18 12 19 17 20 13 21 16 22 14 23
REMARK SMILES IDX 15 24 25 25 26 26 27 27 28 28 29 29 30 30 91 31 31 32 90 33
REMARK SMILES IDX 32 34 33 35 34 36 84 37 35 38 89 39 83 40 85 41 36 42 88 43
REMARK SMILES IDX 82 44 81 45 37 47 69 48 49 49 68 50 50 51 53 52 67 53 86 54
REMARK SMILES IDX 51 55 52 56 66 58 87 59 54 60 38 61 39 62 47 63 40 64 42 65
REMARK SMILES IDX 48 66 41 67 43 68 44 69 45 70 46 71 70 72 71 73 79 74 72 75
REMARK SMILES IDX 74 76 80 77 73 78 75 79 76 80 77 81 78 82 55 83 56 84 64 85
REMARK SMILES IDX 57 86 59 87 65 88 58 89 60 90 61 91 62 92 63 93
REMARK H PARENT 85 46 53 57
REMARK Flexibility Score: inf
ROOT
ATOM      1  C   UNL A   1      32.420  29.260  25.717  1.00  0.00     0.274 C 
ENDROOT
BRANCH   1   2
ATOM      2  O   UNL A   1      32.330  29.415  24.292  1.00  0.00    -0.460 OA
BRANCH   2   3
ATOM      3  C   UNL A   1      33.034  28.601  23.471  1.00  0.00     0.344 C 
ATOM      4  O   UNL A   1      34.258  28.538  23.579  1.00  0.00    -0.248 OA
BRANCH   3   5
ATOM      5  C   UNL A   1      32.255  27.701  22.499  1.00  0.00     0.351 C 
BRANCH   5   6
ATOM      6  O   UNL A   1      32.875  26.479  22.112  1.00  0.00    -0.482 OA
BRANCH   6   7
ATOM      7  C   UNL A   1      32.316  25.396  22.734  1.00  0.00     0.120 A 
ATOM      8  C   UNL A   1      31.262  25.604  23.618  1.00  0.00     0.047 A 
ATOM      9  C   UNL A   1      32.809  24.112  22.562  1.00  0.00     0.047 A 
ATOM     10  C   UNL A   1      30.778  24.535  24.388  1.00  0.00     0.013 A 
ATOM     11  C   UNL A   1      32.243  23.040  23.221  1.00  0.00     0.013 A 
ATOM     12  C   UNL A   1      31.321  23.248  24.244  1.00  0.00    -0.011 A 
BRANCH  12  13
ATOM     13  C   UNL A   1      31.164  22.246  25.347  1.00  0.00     0.068 A 
ATOM     14  C   UNL A   1      31.975  21.173  25.536  1.00  0.00     0.028 A 
ATOM     15  C   UNL A   1      31.069  22.942  26.688  1.00  0.00     0.344 A 
ATOM     16  C   UNL A   1      33.356  21.561  25.916  1.00  0.00     0.019 A 
ATOM     17  O   UNL A   1      32.319  23.347  27.195  1.00  0.00    -0.422 OA
ATOM     18  O   UNL A   1      30.007  23.208  27.236  1.00  0.00    -0.246 OA
ATOM     19  C   UNL A   1      34.491  20.944  25.390  1.00  0.00     0.027 A 
ATOM     20  C   UNL A   1      33.484  22.739  26.670  1.00  0.00     0.138 A 
ATOM     21  C   UNL A   1      35.731  21.567  25.561  1.00  0.00     0.018 A 
ATOM     22  C   UNL A   1      34.714  23.367  26.831  1.00  0.00     0.049 A 
ATOM     23  Br  UNL A   1      37.274  20.795  24.783  1.00  0.00    -0.051 Br
ATOM     24  C   UNL A   1      35.843  22.781  26.252  1.00  0.00     0.019 A 
ENDBRANCH  12  13
ENDBRANCH   6   7
ENDBRANCH   5   6
ENDBRANCH   3   5
ENDBRANCH   2   3
ENDBRANCH   1   2
BRANCH   1  25
ATOM     25  C   UNL A   1      32.202  30.601  26.430  1.00  0.00     0.275 C 
BRANCH  25  26
ATOM     26  O   UNL A   1      33.011  30.663  27.622  1.00  0.00    -0.458 OA
BRANCH  26  27
ATOM     27  C   UNL A   1      33.850  31.734  27.729  1.00  0.00     0.338 C 
ATOM     28  O   UNL A   1      33.532  32.900  27.732  1.00  0.00    -0.246 OA
BRANCH  27  29
ATOM     29  C   UNL A   1      35.215  31.234  28.052  1.00  0.00     0.060 A 
ATOM     30  C   UNL A   1      35.442  29.850  28.030  1.00  0.00     0.016 A 
ATOM     31  C   UNL A   1      36.268  32.107  28.346  1.00  0.00     0.016 A 
ATOM     32  C   UNL A   1      36.699  29.336  28.351  1.00  0.00     0.010 A 
ATOM     33  C   UNL A   1      37.525  31.590  28.680  1.00  0.00     0.010 A 
ATOM     34  C   UNL A   1      37.733  30.201  28.728  1.00  0.00    -0.014 A 
BRANCH  34  35
ATOM     35  C   UNL A   1      38.935  29.650  29.404  1.00  0.00     0.031 A 
ATOM     36  C   UNL A   1      39.287  30.188  30.767  1.00  0.00     0.074 A 
ATOM     37  C   UNL A   1      39.701  28.696  28.844  1.00  0.00     0.049 A 
ATOM     38  N   UNL A   1      40.244  29.828  31.582  1.00  0.00    -0.248 NA
ATOM     39  C   UNL A   1      38.446  31.287  31.276  1.00  0.00     0.031 C 
ATOM     40  C   UNL A   1      39.489  28.098  27.528  1.00  0.00     0.029 A 
ATOM     41  N   UNL A   1      40.830  28.074  29.319  1.00  0.00    -0.354 N 
ATOM     42  C   UNL A   1      40.129  30.661  32.688  1.00  0.00     0.074 A 
ATOM     43  C   UNL A   1      39.028  31.562  32.432  1.00  0.00     0.031 C 
ATOM     44  C   UNL A   1      40.469  27.205  27.293  1.00  0.00     0.029 A 
ATOM     45  C   UNL A   1      41.377  27.169  28.439  1.00  0.00     0.049 A 
ATOM     46  H   UNL A   1      41.213  28.259  30.207  1.00  0.00     0.167 HD
ATOM     47  C   UNL A   1      40.855  30.664  33.830  1.00  0.00     0.034 A 
ATOM     48  C   UNL A   1      42.479  26.399  28.553  1.00  0.00     0.034 A 
ATOM     49  C   UNL A   1      41.938  29.760  34.102  1.00  0.00     0.049 A 
ATOM     50  C   UNL A   1      43.278  26.427  29.834  1.00  0.00     0.074 A 
ATOM     51  C   UNL A   1      42.693  29.647  35.256  1.00  0.00     0.029 A 
ATOM     52  N   UNL A   1      42.430  28.826  33.207  1.00  0.00    -0.354 N 
ATOM     53  N   UNL A   1      43.055  27.101  30.936  1.00  0.00    -0.248 NA
ATOM     54  C   UNL A   1      44.460  25.552  29.900  1.00  0.00     0.031 C 
ATOM     55  C   UNL A   1      43.660  28.658  35.048  1.00  0.00     0.029 A 
ATOM     56  C   UNL A   1      43.489  28.140  33.773  1.00  0.00     0.049 A 
ATOM     57  H   UNL A   1      42.078  28.673  32.300  1.00  0.00     0.167 HD
ATOM     58  C   UNL A   1      44.033  26.694  31.841  1.00  0.00     0.074 A 
ATOM     59  C   UNL A   1      44.844  25.706  31.161  1.00  0.00     0.031 C 
ATOM     60  C   UNL A   1      44.248  27.108  33.114  1.00  0.00     0.034 A 
BRANCH  47  61
ATOM     61  C   UNL A   1      40.472  31.661  34.888  1.00  0.00     0.023 A 
ATOM     62  C   UNL A   1      41.119  32.913  34.930  1.00  0.00     0.012 A 
ATOM     63  C   UNL A   1      39.453  31.376  35.816  1.00  0.00     0.148 A 
ATOM     64  C   UNL A   1      40.781  33.854  35.902  1.00  0.00     0.002 A 
ATOM     65  C   UNL A   1      39.092  32.335  36.754  1.00  0.00     0.091 A 
ATOM     66  F   UNL A   1      38.872  30.168  35.778  1.00  0.00    -0.205 F 
ATOM     67  C   UNL A   1      39.761  33.569  36.806  1.00  0.00     0.022 A 
BRANCH  65  68
ATOM     68  S   UNL A   1      37.744  32.086  37.914  1.00  0.00     0.127 S 
ATOM     69  O   UNL A   1      37.419  30.678  37.691  1.00  0.00    -0.237 OA
ATOM     70  O   UNL A   1      38.384  32.369  39.199  1.00  0.00    -0.237 OA
ATOM     71  O   UNL A   1      36.709  33.037  37.533  1.00  0.00    -0.744 OA
ENDBRANCH  65  68
ENDBRANCH  47  61
BRANCH  48  72
ATOM     72  C   UNL A   1      42.863  25.470  27.452  1.00  0.00     0.023 A 
ATOM     73  C   UNL A   1      43.761  25.909  26.459  1.00  0.00     0.012 A 
ATOM     74  C   UNL A   1      42.335  24.167  27.372  1.00  0.00     0.148 A 
ATOM     75  C   UNL A   1      44.100  25.081  25.388  1.00  0.00     0.002 A 
ATOM     76  C   UNL A   1      42.716  23.329  26.329  1.00  0.00     0.091 A 
ATOM     77  F   UNL A   1      41.466  23.774  28.314  1.00  0.00    -0.205 F 
ATOM     78  C   UNL A   1      43.584  23.790  25.327  1.00  0.00     0.022 A 
BRANCH  76  79
ATOM     79  S   UNL A   1      42.190  21.615  26.227  1.00  0.00     0.127 S 
ATOM     80  O   UNL A   1      42.381  21.160  27.602  1.00  0.00    -0.237 OA
ATOM     81  O   UNL A   1      40.793  21.752  25.811  1.00  0.00    -0.237 OA
ATOM     82  O   UNL A   1      43.054  20.998  25.230  1.00  0.00    -0.744 OA
ENDBRANCH  76  79
ENDBRANCH  48  72
BRANCH  60  83
ATOM     83  C   UNL A   1      45.371  26.467  33.889  1.00  0.00     0.023 A 
ATOM     84  C   UNL A   1      46.636  27.086  33.935  1.00  0.00     0.012 A 
ATOM     85  C   UNL A   1      45.148  25.295  34.641  1.00  0.00     0.148 A 
ATOM     86  C   UNL A   1      47.670  26.530  34.688  1.00  0.00     0.002 A 
ATOM     87  C   UNL A   1      46.170  24.774  35.427  1.00  0.00     0.091 A 
ATOM     88  F   UNL A   1      43.945  24.708  34.571  1.00  0.00    -0.205 F 
ATOM     89  C   UNL A   1      47.434  25.382  35.443  1.00  0.00     0.022 A 
BRANCH  87  90
ATOM     90  S   UNL A   1      45.916  23.360  36.508  1.00  0.00     0.127 S 
ATOM     91  O   UNL A   1      45.758  24.005  37.811  1.00  0.00    -0.237 OA
ATOM     92  O   UNL A   1      44.690  22.767  35.969  1.00  0.00    -0.237 OA
ATOM     93  O   UNL A   1      47.101  22.528  36.355  1.00  0.00    -0.744 OA
ENDBRANCH  87  90
ENDBRANCH  60  83
ENDBRANCH  34  35
ENDBRANCH  27  29
ENDBRANCH  26  27
ENDBRANCH  25  26
ENDBRANCH   1  25
TORSDOF 17
ENDMDL
