MODEL 1
REMARK VINA RESULT:     -12.2      0.000      0.000
REMARK SMILES C=C1c2ccccc2C(=O)N1[C@](C)(C(=O)OCCOC(=O)c1ccc(-c2c3nc(c(-c4cccc(S(=O)(=O)[O-])c4F)c4ccc([nH]4)c(-c4cccc(S(=O)(=O)[O-])c4F)c4nc(c(-c5cccc(S(=O)(=O)[O-])c5F)c5ccc2[nH]5)C=C4)C=C3)cc1)C(F)(F)F
REMARK SMILES IDX 18 1 17 2 16 3 14 4 15 5 12 6 13 7 11 8 1 9 2 10 3 11 4 12
REMARK SMILES IDX 8 13 9 14 5 15 7 16 10 17 6 18 85 19 86 20 87 21 88 22 19 23
REMARK SMILES IDX 20 24 21 25 22 26 23 27 84 28 24 29 83 30 25 31 26 32 27 33
REMARK SMILES IDX 77 34 28 35 82 36 76 37 78 38 29 39 81 40 75 41 74 42 30 44
REMARK SMILES IDX 62 45 42 46 61 47 43 48 46 49 60 50 79 51 44 52 45 53 59 55
REMARK SMILES IDX 80 56 47 57 31 58 32 59 40 60 33 61 35 62 41 63 34 64 36 65
REMARK SMILES IDX 37 66 38 67 39 68 63 69 64 70 72 71 65 72 67 73 73 74 66 75
REMARK SMILES IDX 68 76 69 77 70 78 71 79 48 80 49 81 57 82 50 83 52 84 58 85
REMARK SMILES IDX 51 86 53 87 54 88 55 89 56 90
REMARK H PARENT 78 43 46 54
REMARK Flexibility Score: inf
ROOT
ATOM      1  C   UNL A   1      36.150  20.953  25.126  1.00  0.00     0.275 C 
ENDROOT
BRANCH   1   2
ATOM      2  C   UNL A   1      35.137  21.616  26.057  1.00  0.00     0.274 C 
BRANCH   2   3
ATOM      3  O   UNL A   1      33.995  22.087  25.309  1.00  0.00    -0.460 OA
BRANCH   3   4
ATOM      4  C   UNL A   1      33.870  23.434  25.148  1.00  0.00     0.341 C 
ATOM      5  O   UNL A   1      34.731  24.236  25.501  1.00  0.00    -0.249 OA
BRANCH   4   6
ATOM      6  C   UNL A   1      32.499  23.856  24.601  1.00  0.00     0.238 C 
ATOM      7  C   UNL A   1      31.314  23.085  25.224  1.00  0.00     0.058 C 
BRANCH   6   8
ATOM      8  N   UNL A   1      32.422  25.307  24.943  1.00  0.00    -0.283 N 
ATOM      9  C   UNL A   1      33.598  26.561  23.142  1.00  0.00     0.038 C 
ATOM     10  C   UNL A   1      32.959  26.426  24.306  1.00  0.00     0.046 C 
ATOM     11  C   UNL A   1      32.702  27.579  25.180  1.00  0.00     0.010 A 
ATOM     12  C   UNL A   1      33.006  28.927  25.080  1.00  0.00     0.011 A 
ATOM     13  C   UNL A   1      32.023  27.117  26.301  1.00  0.00     0.049 A 
ATOM     14  C   UNL A   1      31.849  25.676  26.165  1.00  0.00     0.260 C 
ATOM     15  C   UNL A   1      32.613  29.781  26.118  1.00  0.00     0.001 A 
ATOM     16  C   UNL A   1      31.629  27.932  27.346  1.00  0.00     0.014 A 
ATOM     17  O   UNL A   1      31.327  24.976  27.018  1.00  0.00    -0.269 OA
ATOM     18  C   UNL A   1      31.929  29.288  27.243  1.00  0.00     0.001 A 
ENDBRANCH   6   8
BRANCH   6  19
ATOM     19  C   UNL A   1      32.520  23.459  23.126  1.00  0.00     0.422 C 
ATOM     20  F   UNL A   1      32.059  22.200  22.938  1.00  0.00    -0.168 F 
ATOM     21  F   UNL A   1      31.701  24.261  22.395  1.00  0.00    -0.168 F 
ATOM     22  F   UNL A   1      33.741  23.513  22.557  1.00  0.00    -0.168 F 
ENDBRANCH   6  19
ENDBRANCH   4   6
ENDBRANCH   3   4
ENDBRANCH   2   3
ENDBRANCH   1   2
BRANCH   1  23
ATOM     23  O   UNL A   1      37.293  21.811  24.964  1.00  0.00    -0.458 OA
BRANCH  23  24
ATOM     24  C   UNL A   1      38.398  21.393  25.618  1.00  0.00     0.338 C 
ATOM     25  O   UNL A   1      38.955  20.311  25.516  1.00  0.00    -0.246 OA
BRANCH  24  26
ATOM     26  C   UNL A   1      38.961  22.495  26.405  1.00  0.00     0.060 A 
ATOM     27  C   UNL A   1      38.498  23.779  26.147  1.00  0.00     0.016 A 
ATOM     28  C   UNL A   1      40.084  22.300  27.202  1.00  0.00     0.016 A 
ATOM     29  C   UNL A   1      39.257  24.878  26.526  1.00  0.00     0.010 A 
ATOM     30  C   UNL A   1      40.747  23.416  27.726  1.00  0.00     0.010 A 
ATOM     31  C   UNL A   1      40.377  24.721  27.348  1.00  0.00    -0.014 A 
BRANCH  31  32
ATOM     32  C   UNL A   1      41.154  25.912  27.800  1.00  0.00     0.031 A 
ATOM     33  C   UNL A   1      40.495  26.981  28.636  1.00  0.00     0.074 A 
ATOM     34  C   UNL A   1      42.449  26.052  27.443  1.00  0.00     0.049 A 
ATOM     35  N   UNL A   1      40.924  28.183  28.928  1.00  0.00    -0.248 NA
ATOM     36  C   UNL A   1      39.170  26.669  29.199  1.00  0.00     0.031 C 
ATOM     37  C   UNL A   1      43.228  25.084  26.665  1.00  0.00     0.029 A 
ATOM     38  N   UNL A   1      43.338  27.074  27.672  1.00  0.00    -0.354 N 
ATOM     39  C   UNL A   1      39.892  28.799  29.628  1.00  0.00     0.074 A 
ATOM     40  C   UNL A   1      38.817  27.833  29.727  1.00  0.00     0.031 C 
ATOM     41  C   UNL A   1      44.475  25.543  26.501  1.00  0.00     0.029 A 
ATOM     42  C   UNL A   1      44.554  26.887  27.054  1.00  0.00     0.049 A 
ATOM     43  H   UNL A   1      43.128  27.862  28.223  1.00  0.00     0.167 HD
ATOM     44  C   UNL A   1      39.844  30.053  30.139  1.00  0.00     0.034 A 
ATOM     45  C   UNL A   1      45.596  27.720  26.879  1.00  0.00     0.034 A 
ATOM     46  C   UNL A   1      40.944  30.981  30.092  1.00  0.00     0.049 A 
ATOM     47  C   UNL A   1      45.510  29.111  27.435  1.00  0.00     0.074 A 
ATOM     48  C   UNL A   1      41.016  32.257  30.622  1.00  0.00     0.029 A 
ATOM     49  N   UNL A   1      42.165  30.734  29.482  1.00  0.00    -0.354 N 
ATOM     50  N   UNL A   1      44.540  29.667  28.120  1.00  0.00    -0.248 NA
ATOM     51  C   UNL A   1      46.666  29.986  27.206  1.00  0.00     0.031 C 
ATOM     52  C   UNL A   1      42.266  32.796  30.299  1.00  0.00     0.029 A 
ATOM     53  C   UNL A   1      42.991  31.838  29.610  1.00  0.00     0.049 A 
ATOM     54  H   UNL A   1      42.408  29.897  29.024  1.00  0.00     0.167 HD
ATOM     55  C   UNL A   1      44.981  30.946  28.429  1.00  0.00     0.074 A 
ATOM     56  C   UNL A   1      46.315  31.073  27.880  1.00  0.00     0.031 C 
ATOM     57  C   UNL A   1      44.334  31.933  29.097  1.00  0.00     0.034 A 
BRANCH  44  58
ATOM     58  C   UNL A   1      38.561  30.505  30.793  1.00  0.00     0.023 A 
ATOM     59  C   UNL A   1      38.363  30.319  32.176  1.00  0.00     0.012 A 
ATOM     60  C   UNL A   1      37.573  31.173  30.040  1.00  0.00     0.148 A 
ATOM     61  C   UNL A   1      37.188  30.753  32.790  1.00  0.00     0.002 A 
ATOM     62  C   UNL A   1      36.428  31.648  30.669  1.00  0.00     0.091 A 
ATOM     63  F   UNL A   1      37.770  31.328  28.724  1.00  0.00    -0.205 F 
ATOM     64  C   UNL A   1      36.226  31.426  32.041  1.00  0.00     0.022 A 
BRANCH  62  65
ATOM     65  S   UNL A   1      35.170  32.599  29.807  1.00  0.00     0.127 S 
ATOM     66  O   UNL A   1      34.715  31.643  28.798  1.00  0.00    -0.237 OA
ATOM     67  O   UNL A   1      34.204  32.865  30.873  1.00  0.00    -0.237 OA
ATOM     68  O   UNL A   1      35.843  33.781  29.286  1.00  0.00    -0.744 OA
ENDBRANCH  62  65
ENDBRANCH  44  58
BRANCH  45  69
ATOM     69  C   UNL A   1      46.799  27.263  26.125  1.00  0.00     0.023 A 
ATOM     70  C   UNL A   1      46.894  27.528  24.746  1.00  0.00     0.012 A 
ATOM     71  C   UNL A   1      47.860  26.598  26.772  1.00  0.00     0.148 A 
ATOM     72  C   UNL A   1      48.010  27.112  24.019  1.00  0.00     0.002 A 
ATOM     73  C   UNL A   1      48.996  26.245  26.056  1.00  0.00     0.091 A 
ATOM     74  F   UNL A   1      47.745  26.343  28.083  1.00  0.00    -0.205 F 
ATOM     75  C   UNL A   1      49.065  26.484  24.675  1.00  0.00     0.022 A 
BRANCH  73  76
ATOM     76  S   UNL A   1      50.458  25.561  26.842  1.00  0.00     0.127 S 
ATOM     77  O   UNL A   1      51.339  25.343  25.698  1.00  0.00    -0.237 OA
ATOM     78  O   UNL A   1      50.861  26.652  27.730  1.00  0.00    -0.237 OA
ATOM     79  O   UNL A   1      50.010  24.359  27.533  1.00  0.00    -0.744 OA
ENDBRANCH  73  76
ENDBRANCH  45  69
BRANCH  57  80
ATOM     80  C   UNL A   1      45.081  33.221  29.319  1.00  0.00     0.023 A 
ATOM     81  C   UNL A   1      45.859  33.397  30.480  1.00  0.00     0.012 A 
ATOM     82  C   UNL A   1      45.054  34.236  28.342  1.00  0.00     0.148 A 
ATOM     83  C   UNL A   1      46.566  34.582  30.685  1.00  0.00     0.002 A 
ATOM     84  C   UNL A   1      45.804  35.390  28.527  1.00  0.00     0.091 A 
ATOM     85  F   UNL A   1      44.291  34.055  27.253  1.00  0.00    -0.205 F 
ATOM     86  C   UNL A   1      46.548  35.571  29.704  1.00  0.00     0.022 A 
BRANCH  84  87
ATOM     87  S   UNL A   1      45.922  36.674  27.277  1.00  0.00     0.127 S 
ATOM     88  O   UNL A   1      44.538  37.134  27.193  1.00  0.00    -0.237 OA
ATOM     89  O   UNL A   1      46.845  37.623  27.898  1.00  0.00    -0.237 OA
ATOM     90  O   UNL A   1      46.435  36.024  26.079  1.00  0.00    -0.744 OA
ENDBRANCH  84  87
ENDBRANCH  57  80
ENDBRANCH  31  32
ENDBRANCH  24  26
ENDBRANCH  23  24
ENDBRANCH   1  23
TORSDOF 16
ENDMDL
MODEL 2
REMARK VINA RESULT:     -12.1      4.932      9.684
REMARK SMILES C=C1c2ccccc2C(=O)N1[C@](C)(C(=O)OCCOC(=O)c1ccc(-c2c3nc(c(-c4cccc(S(=O)(=O)[O-])c4F)c4ccc([nH]4)c(-c4cccc(S(=O)(=O)[O-])c4F)c4nc(c(-c5cccc(S(=O)(=O)[O-])c5F)c5ccc2[nH]5)C=C4)C=C3)cc1)C(F)(F)F
REMARK SMILES IDX 18 1 17 2 16 3 14 4 15 5 12 6 13 7 11 8 1 9 2 10 3 11 4 12
REMARK SMILES IDX 8 13 9 14 5 15 7 16 10 17 6 18 85 19 86 20 87 21 88 22 19 23
REMARK SMILES IDX 20 24 21 25 22 26 23 27 84 28 24 29 83 30 25 31 26 32 27 33
REMARK SMILES IDX 77 34 28 35 82 36 76 37 78 38 29 39 81 40 75 41 74 42 30 44
REMARK SMILES IDX 62 45 42 46 61 47 43 48 46 49 60 50 79 51 44 52 45 53 59 55
REMARK SMILES IDX 80 56 47 57 31 58 32 59 40 60 33 61 35 62 41 63 34 64 36 65
REMARK SMILES IDX 37 66 38 67 39 68 63 69 64 70 72 71 65 72 67 73 73 74 66 75
REMARK SMILES IDX 68 76 69 77 70 78 71 79 48 80 49 81 57 82 50 83 52 84 58 85
REMARK SMILES IDX 51 86 53 87 54 88 55 89 56 90
REMARK H PARENT 78 43 46 54
REMARK Flexibility Score: inf
ROOT
ATOM      1  C   UNL A   1      31.494  29.713  26.900  1.00  0.00     0.275 C 
ENDROOT
BRANCH   1   2
ATOM      2  C   UNL A   1      31.546  28.251  27.338  1.00  0.00     0.274 C 
BRANCH   2   3
ATOM      3  O   UNL A   1      32.387  27.485  26.447  1.00  0.00    -0.460 OA
BRANCH   3   4
ATOM      4  C   UNL A   1      31.960  26.237  26.110  1.00  0.00     0.341 C 
ATOM      5  O   UNL A   1      31.505  25.438  26.926  1.00  0.00    -0.249 OA
BRANCH   4   6
ATOM      6  C   UNL A   1      32.220  25.881  24.639  1.00  0.00     0.238 C 
ATOM      7  C   UNL A   1      31.827  24.434  24.267  1.00  0.00     0.058 C 
BRANCH   6   8
ATOM      8  N   UNL A   1      31.382  26.864  23.891  1.00  0.00    -0.283 N 
ATOM      9  C   UNL A   1      32.930  28.417  22.710  1.00  0.00     0.038 C 
ATOM     10  C   UNL A   1      31.741  27.969  23.118  1.00  0.00     0.046 C 
ATOM     11  C   UNL A   1      30.495  28.663  22.764  1.00  0.00     0.010 A 
ATOM     12  C   UNL A   1      30.228  29.809  22.031  1.00  0.00     0.011 A 
ATOM     13  C   UNL A   1      29.441  27.957  23.330  1.00  0.00     0.049 A 
ATOM     14  C   UNL A   1      29.994  26.819  24.054  1.00  0.00     0.260 C 
ATOM     15  C   UNL A   1      28.895  30.213  21.884  1.00  0.00     0.001 A 
ATOM     16  C   UNL A   1      28.116  28.334  23.210  1.00  0.00     0.014 A 
ATOM     17  O   UNL A   1      29.315  26.035  24.699  1.00  0.00    -0.269 OA
ATOM     18  C   UNL A   1      27.846  29.482  22.469  1.00  0.00     0.001 A 
ENDBRANCH   6   8
BRANCH   6  19
ATOM     19  C   UNL A   1      33.738  25.950  24.476  1.00  0.00     0.422 C 
ATOM     20  F   UNL A   1      34.371  25.068  25.286  1.00  0.00    -0.168 F 
ATOM     21  F   UNL A   1      34.106  25.614  23.211  1.00  0.00    -0.168 F 
ATOM     22  F   UNL A   1      34.266  27.163  24.736  1.00  0.00    -0.168 F 
ENDBRANCH   6  19
ENDBRANCH   4   6
ENDBRANCH   3   4
ENDBRANCH   2   3
ENDBRANCH   1   2
BRANCH   1  23
ATOM     23  O   UNL A   1      32.790  30.126  26.435  1.00  0.00    -0.458 OA
BRANCH  23  24
ATOM     24  C   UNL A   1      33.281  31.219  27.059  1.00  0.00     0.338 C 
ATOM     25  O   UNL A   1      32.671  32.229  27.374  1.00  0.00    -0.246 OA
BRANCH  24  26
ATOM     26  C   UNL A   1      34.673  30.986  27.457  1.00  0.00     0.060 A 
ATOM     27  C   UNL A   1      35.061  29.679  27.721  1.00  0.00     0.016 A 
ATOM     28  C   UNL A   1      35.505  32.048  27.795  1.00  0.00     0.016 A 
ATOM     29  C   UNL A   1      36.192  29.434  28.489  1.00  0.00     0.010 A 
ATOM     30  C   UNL A   1      36.730  31.780  28.417  1.00  0.00     0.010 A 
ATOM     31  C   UNL A   1      37.064  30.475  28.824  1.00  0.00    -0.014 A 
BRANCH  31  32
ATOM     32  C   UNL A   1      38.309  30.196  29.599  1.00  0.00     0.031 A 
ATOM     33  C   UNL A   1      39.375  29.292  29.032  1.00  0.00     0.074 A 
ATOM     34  C   UNL A   1      38.477  30.733  30.826  1.00  0.00     0.049 A 
ATOM     35  N   UNL A   1      40.403  28.749  29.632  1.00  0.00    -0.248 NA
ATOM     36  C   UNL A   1      39.260  28.933  27.608  1.00  0.00     0.031 C 
ATOM     37  C   UNL A   1      37.547  31.651  31.491  1.00  0.00     0.029 A 
ATOM     38  N   UNL A   1      39.486  30.572  31.746  1.00  0.00    -0.354 N 
ATOM     39  C   UNL A   1      41.003  27.918  28.691  1.00  0.00     0.074 A 
ATOM     40  C   UNL A   1      40.229  28.037  27.473  1.00  0.00     0.031 C 
ATOM     41  C   UNL A   1      38.033  31.986  32.692  1.00  0.00     0.029 A 
ATOM     42  C   UNL A   1      39.244  31.219  32.937  1.00  0.00     0.049 A 
ATOM     43  H   UNL A   1      40.299  30.046  31.572  1.00  0.00     0.167 HD
ATOM     44  C   UNL A   1      42.096  27.129  28.830  1.00  0.00     0.034 A 
ATOM     45  C   UNL A   1      39.876  31.154  34.124  1.00  0.00     0.034 A 
ATOM     46  C   UNL A   1      42.896  27.071  30.026  1.00  0.00     0.049 A 
ATOM     47  C   UNL A   1      41.071  30.256  34.258  1.00  0.00     0.074 A 
ATOM     48  C   UNL A   1      44.050  26.342  30.253  1.00  0.00     0.029 A 
ATOM     49  N   UNL A   1      42.629  27.768  31.194  1.00  0.00    -0.354 N 
ATOM     50  N   UNL A   1      41.641  29.502  33.351  1.00  0.00    -0.248 NA
ATOM     51  C   UNL A   1      41.715  30.209  35.576  1.00  0.00     0.031 C 
ATOM     52  C   UNL A   1      44.458  26.568  31.571  1.00  0.00     0.029 A 
ATOM     53  C   UNL A   1      43.587  27.475  32.150  1.00  0.00     0.049 A 
ATOM     54  H   UNL A   1      41.869  28.380  31.325  1.00  0.00     0.167 HD
ATOM     55  C   UNL A   1      42.730  28.913  33.980  1.00  0.00     0.074 A 
ATOM     56  C   UNL A   1      42.754  29.420  35.336  1.00  0.00     0.031 C 
ATOM     57  C   UNL A   1      43.623  28.023  33.482  1.00  0.00     0.034 A 
BRANCH  44  58
ATOM     58  C   UNL A   1      42.495  26.259  27.664  1.00  0.00     0.023 A 
ATOM     59  C   UNL A   1      43.387  26.743  26.686  1.00  0.00     0.012 A 
ATOM     60  C   UNL A   1      42.030  24.930  27.573  1.00  0.00     0.148 A 
ATOM     61  C   UNL A   1      43.776  25.935  25.616  1.00  0.00     0.002 A 
ATOM     62  C   UNL A   1      42.462  24.115  26.533  1.00  0.00     0.091 A 
ATOM     63  F   UNL A   1      41.171  24.489  28.502  1.00  0.00    -0.205 F 
ATOM     64  C   UNL A   1      43.324  24.620  25.545  1.00  0.00     0.022 A 
BRANCH  62  65
ATOM     65  S   UNL A   1      42.003  22.383  26.400  1.00  0.00     0.127 S 
ATOM     66  O   UNL A   1      42.505  21.846  27.664  1.00  0.00    -0.237 OA
ATOM     67  O   UNL A   1      40.544  22.460  26.307  1.00  0.00    -0.237 OA
ATOM     68  O   UNL A   1      42.664  21.879  25.203  1.00  0.00    -0.744 OA
ENDBRANCH  62  65
ENDBRANCH  44  58
BRANCH  45  69
ATOM     69  C   UNL A   1      39.373  31.949  35.281  1.00  0.00     0.023 A 
ATOM     70  C   UNL A   1      38.479  31.356  36.193  1.00  0.00     0.012 A 
ATOM     71  C   UNL A   1      39.800  33.274  35.500  1.00  0.00     0.148 A 
ATOM     72  C   UNL A   1      37.996  32.079  37.284  1.00  0.00     0.002 A 
ATOM     73  C   UNL A   1      39.367  33.966  36.624  1.00  0.00     0.091 A 
ATOM     74  F   UNL A   1      40.642  33.826  34.614  1.00  0.00    -0.205 F 
ATOM     75  C   UNL A   1      38.449  33.377  37.507  1.00  0.00     0.022 A 
BRANCH  73  76
ATOM     76  S   UNL A   1      40.005  35.585  37.066  1.00  0.00     0.127 S 
ATOM     77  O   UNL A   1      39.580  36.394  35.927  1.00  0.00    -0.237 OA
ATOM     78  O   UNL A   1      39.293  35.858  38.315  1.00  0.00    -0.237 OA
ATOM     79  O   UNL A   1      41.443  35.415  37.219  1.00  0.00    -0.744 OA
ENDBRANCH  73  76
ENDBRANCH  45  69
BRANCH  57  80
ATOM     80  C   UNL A   1      44.736  27.579  34.394  1.00  0.00     0.023 A 
ATOM     81  C   UNL A   1      45.938  28.312  34.452  1.00  0.00     0.012 A 
ATOM     82  C   UNL A   1      44.563  26.462  35.235  1.00  0.00     0.148 A 
ATOM     83  C   UNL A   1      46.967  27.915  35.306  1.00  0.00     0.002 A 
ATOM     84  C   UNL A   1      45.571  26.107  36.122  1.00  0.00     0.091 A 
ATOM     85  F   UNL A   1      43.419  25.768  35.149  1.00  0.00    -0.205 F 
ATOM     86  C   UNL A   1      46.779  26.822  36.148  1.00  0.00     0.022 A 
BRANCH  84  87
ATOM     87  S   UNL A   1      45.380  24.775  37.313  1.00  0.00     0.127 S 
ATOM     88  O   UNL A   1      46.683  24.780  37.975  1.00  0.00    -0.237 OA
ATOM     89  O   UNL A   1      44.273  25.258  38.138  1.00  0.00    -0.237 OA
ATOM     90  O   UNL A   1      45.081  23.580  36.537  1.00  0.00    -0.744 OA
ENDBRANCH  84  87
ENDBRANCH  57  80
ENDBRANCH  31  32
ENDBRANCH  24  26
ENDBRANCH  23  24
ENDBRANCH   1  23
TORSDOF 16
ENDMDL
MODEL 3
REMARK VINA RESULT:     -12.1      4.756      9.797
REMARK SMILES C=C1c2ccccc2C(=O)N1[C@](C)(C(=O)OCCOC(=O)c1ccc(-c2c3nc(c(-c4cccc(S(=O)(=O)[O-])c4F)c4ccc([nH]4)c(-c4cccc(S(=O)(=O)[O-])c4F)c4nc(c(-c5cccc(S(=O)(=O)[O-])c5F)c5ccc2[nH]5)C=C4)C=C3)cc1)C(F)(F)F
REMARK SMILES IDX 18 1 17 2 16 3 14 4 15 5 12 6 13 7 11 8 1 9 2 10 3 11 4 12
REMARK SMILES IDX 8 13 9 14 5 15 7 16 10 17 6 18 85 19 86 20 87 21 88 22 19 23
REMARK SMILES IDX 20 24 21 25 22 26 23 27 84 28 24 29 83 30 25 31 26 32 27 33
REMARK SMILES IDX 77 34 28 35 82 36 76 37 78 38 29 39 81 40 75 41 74 42 30 44
REMARK SMILES IDX 62 45 42 46 61 47 43 48 46 49 60 50 79 51 44 52 45 53 59 55
REMARK SMILES IDX 80 56 47 57 31 58 32 59 40 60 33 61 35 62 41 63 34 64 36 65
REMARK SMILES IDX 37 66 38 67 39 68 63 69 64 70 72 71 65 72 67 73 73 74 66 75
REMARK SMILES IDX 68 76 69 77 70 78 71 79 48 80 49 81 57 82 50 83 52 84 58 85
REMARK SMILES IDX 51 86 53 87 54 88 55 89 56 90
REMARK H PARENT 78 43 46 54
REMARK Flexibility Score: inf
ROOT
ATOM      1  C   UNL A   1      32.233  29.925  25.375  1.00  0.00     0.275 C 
ENDROOT
BRANCH   1   2
ATOM      2  C   UNL A   1      31.457  28.640  25.096  1.00  0.00     0.274 C 
BRANCH   2   3
ATOM      3  O   UNL A   1      32.280  27.700  24.370  1.00  0.00    -0.460 OA
BRANCH   3   4
ATOM      4  C   UNL A   1      32.669  26.575  25.032  1.00  0.00     0.341 C 
ATOM      5  O   UNL A   1      33.492  26.582  25.944  1.00  0.00    -0.249 OA
BRANCH   4   6
ATOM      6  C   UNL A   1      32.077  25.287  24.442  1.00  0.00     0.238 C 
ATOM      7  C   UNL A   1      31.646  25.417  22.965  1.00  0.00     0.058 C 
BRANCH   6   8
ATOM      8  N   UNL A   1      33.186  24.299  24.583  1.00  0.00    -0.283 N 
ATOM      9  C   UNL A   1      32.955  23.232  26.822  1.00  0.00     0.038 C 
ATOM     10  C   UNL A   1      33.549  23.478  25.651  1.00  0.00     0.046 C 
ATOM     11  C   UNL A   1      34.819  22.838  25.285  1.00  0.00     0.010 A 
ATOM     12  C   UNL A   1      35.651  21.944  25.941  1.00  0.00     0.011 A 
ATOM     13  C   UNL A   1      35.172  23.291  24.019  1.00  0.00     0.049 A 
ATOM     14  C   UNL A   1      34.147  24.224  23.569  1.00  0.00     0.260 C 
ATOM     15  C   UNL A   1      36.822  21.524  25.298  1.00  0.00     0.001 A 
ATOM     16  C   UNL A   1      36.324  22.902  23.361  1.00  0.00     0.014 A 
ATOM     17  O   UNL A   1      34.202  24.827  22.509  1.00  0.00    -0.269 OA
ATOM     18  C   UNL A   1      37.158  21.999  24.017  1.00  0.00     0.001 A 
ENDBRANCH   6   8
BRANCH   6  19
ATOM     19  C   UNL A   1      30.788  25.047  25.227  1.00  0.00     0.422 C 
ATOM     20  F   UNL A   1      30.894  25.470  26.509  1.00  0.00    -0.168 F 
ATOM     21  F   UNL A   1      29.755  25.752  24.694  1.00  0.00    -0.168 F 
ATOM     22  F   UNL A   1      30.405  23.755  25.276  1.00  0.00    -0.168 F 
ENDBRANCH   6  19
ENDBRANCH   4   6
ENDBRANCH   3   4
ENDBRANCH   2   3
ENDBRANCH   1   2
BRANCH   1  23
ATOM     23  O   UNL A   1      32.469  30.051  26.788  1.00  0.00    -0.458 OA
BRANCH  23  24
ATOM     24  C   UNL A   1      33.045  31.217  27.154  1.00  0.00     0.338 C 
ATOM     25  O   UNL A   1      32.501  32.301  27.290  1.00  0.00    -0.246 OA
BRANCH  24  26
ATOM     26  C   UNL A   1      34.446  30.990  27.520  1.00  0.00     0.060 A 
ATOM     27  C   UNL A   1      34.834  29.692  27.830  1.00  0.00     0.016 A 
ATOM     28  C   UNL A   1      35.295  32.058  27.786  1.00  0.00     0.016 A 
ATOM     29  C   UNL A   1      35.985  29.472  28.573  1.00  0.00     0.010 A 
ATOM     30  C   UNL A   1      36.537  31.808  28.382  1.00  0.00     0.010 A 
ATOM     31  C   UNL A   1      36.875  30.519  28.836  1.00  0.00    -0.014 A 
BRANCH  31  32
ATOM     32  C   UNL A   1      38.140  30.265  29.585  1.00  0.00     0.031 A 
ATOM     33  C   UNL A   1      39.201  29.363  29.006  1.00  0.00     0.074 A 
ATOM     34  C   UNL A   1      38.332  30.822  30.800  1.00  0.00     0.049 A 
ATOM     35  N   UNL A   1      40.249  28.838  29.590  1.00  0.00    -0.248 NA
ATOM     36  C   UNL A   1      39.056  28.980  27.591  1.00  0.00     0.031 C 
ATOM     37  C   UNL A   1      37.409  31.741  31.472  1.00  0.00     0.029 A 
ATOM     38  N   UNL A   1      39.364  30.685  31.697  1.00  0.00    -0.354 N 
ATOM     39  C   UNL A   1      40.834  27.999  28.647  1.00  0.00     0.074 A 
ATOM     40  C   UNL A   1      40.030  28.091  27.447  1.00  0.00     0.031 C 
ATOM     41  C   UNL A   1      37.920  32.100  32.656  1.00  0.00     0.029 A 
ATOM     42  C   UNL A   1      39.144  31.348  32.884  1.00  0.00     0.049 A 
ATOM     43  H   UNL A   1      40.178  30.164  31.512  1.00  0.00     0.167 HD
ATOM     44  C   UNL A   1      41.938  27.223  28.772  1.00  0.00     0.034 A 
ATOM     45  C   UNL A   1      39.805  31.308  34.056  1.00  0.00     0.034 A 
ATOM     46  C   UNL A   1      42.767  27.190  29.949  1.00  0.00     0.049 A 
ATOM     47  C   UNL A   1      41.011  30.423  34.175  1.00  0.00     0.074 A 
ATOM     48  C   UNL A   1      43.933  26.476  30.160  1.00  0.00     0.029 A 
ATOM     49  N   UNL A   1      42.521  27.903  31.112  1.00  0.00    -0.354 N 
ATOM     50  N   UNL A   1      41.568  29.661  33.266  1.00  0.00    -0.248 NA
ATOM     51  C   UNL A   1      41.688  30.403  35.478  1.00  0.00     0.031 C 
ATOM     52  C   UNL A   1      44.370  26.727  31.464  1.00  0.00     0.029 A 
ATOM     53  C   UNL A   1      43.504  27.635  32.050  1.00  0.00     0.049 A 
ATOM     54  H   UNL A   1      41.758  28.510  31.252  1.00  0.00     0.167 HD
ATOM     55  C   UNL A   1      42.677  29.093  33.877  1.00  0.00     0.074 A 
ATOM     56  C   UNL A   1      42.728  29.621  35.225  1.00  0.00     0.031 C 
ATOM     57  C   UNL A   1      43.567  28.203  33.372  1.00  0.00     0.034 A 
BRANCH  44  58
ATOM     58  C   UNL A   1      42.318  26.338  27.610  1.00  0.00     0.023 A 
ATOM     59  C   UNL A   1      43.168  26.821  26.595  1.00  0.00     0.012 A 
ATOM     60  C   UNL A   1      41.877  24.999  27.559  1.00  0.00     0.148 A 
ATOM     61  C   UNL A   1      43.540  26.001  25.529  1.00  0.00     0.002 A 
ATOM     62  C   UNL A   1      42.293  24.173  26.521  1.00  0.00     0.091 A 
ATOM     63  F   UNL A   1      41.058  24.559  28.524  1.00  0.00    -0.205 F 
ATOM     64  C   UNL A   1      43.112  24.676  25.497  1.00  0.00     0.022 A 
BRANCH  62  65
ATOM     65  S   UNL A   1      41.866  22.430  26.436  1.00  0.00     0.127 S 
ATOM     66  O   UNL A   1      42.414  21.928  27.696  1.00  0.00    -0.237 OA
ATOM     67  O   UNL A   1      40.404  22.475  26.382  1.00  0.00    -0.237 OA
ATOM     68  O   UNL A   1      42.503  21.915  25.231  1.00  0.00    -0.744 OA
ENDBRANCH  62  65
ENDBRANCH  44  58
BRANCH  45  69
ATOM     69  C   UNL A   1      39.322  32.116  35.213  1.00  0.00     0.023 A 
ATOM     70  C   UNL A   1      38.415  31.546  36.125  1.00  0.00     0.012 A 
ATOM     71  C   UNL A   1      39.781  33.431  35.430  1.00  0.00     0.148 A 
ATOM     72  C   UNL A   1      37.949  32.281  37.216  1.00  0.00     0.002 A 
ATOM     73  C   UNL A   1      39.365  34.134  36.554  1.00  0.00     0.091 A 
ATOM     74  F   UNL A   1      40.636  33.961  34.543  1.00  0.00    -0.205 F 
ATOM     75  C   UNL A   1      38.434  33.568  37.437  1.00  0.00     0.022 A 
BRANCH  73  76
ATOM     76  S   UNL A   1      40.043  35.737  36.994  1.00  0.00     0.127 S 
ATOM     77  O   UNL A   1      39.637  36.556  35.854  1.00  0.00    -0.237 OA
ATOM     78  O   UNL A   1      39.339  36.028  38.244  1.00  0.00    -0.237 OA
ATOM     79  O   UNL A   1      41.477  35.533  37.146  1.00  0.00    -0.744 OA
ENDBRANCH  73  76
ENDBRANCH  45  69
BRANCH  57  80
ATOM     80  C   UNL A   1      44.706  27.785  34.264  1.00  0.00     0.023 A 
ATOM     81  C   UNL A   1      45.886  28.553  34.312  1.00  0.00     0.012 A 
ATOM     82  C   UNL A   1      44.579  26.655  35.096  1.00  0.00     0.148 A 
ATOM     83  C   UNL A   1      46.939  28.179  35.147  1.00  0.00     0.002 A 
ATOM     84  C   UNL A   1      45.609  26.321  35.965  1.00  0.00     0.091 A 
ATOM     85  F   UNL A   1      43.454  25.928  35.019  1.00  0.00    -0.205 F 
ATOM     86  C   UNL A   1      46.795  27.072  35.981  1.00  0.00     0.022 A 
BRANCH  84  87
ATOM     87  S   UNL A   1      45.476  24.973  37.145  1.00  0.00     0.127 S 
ATOM     88  O   UNL A   1      45.155  23.846  36.273  1.00  0.00    -0.237 OA
ATOM     89  O   UNL A   1      46.819  24.937  37.723  1.00  0.00    -0.237 OA
ATOM     90  O   UNL A   1      44.425  25.357  38.078  1.00  0.00    -0.744 OA
ENDBRANCH  84  87
ENDBRANCH  57  80
ENDBRANCH  31  32
ENDBRANCH  24  26
ENDBRANCH  23  24
ENDBRANCH   1  23
TORSDOF 16
ENDMDL
