MODEL 1
REMARK VINA RESULT:     -11.9      0.000      0.000
REMARK SMILES COc1cccc(S(=O)(=O)[C@]2(C(=O)OCCOC(=O)c3ccc(-c4c5nc(c(-c6cccc(S(=O)(=O)[O-])c6F)c6ccc([nH]6)c(-c6cccc(S(=O)(=O)[O-])c6F)c6nc(c(-c7cccc(S(=O)(=O)[O-])c7F)c7ccc4[nH]7)C=C6)C=C5)cc3)CCC[C@@H]2C)c1
REMARK SMILES IDX 15 1 14 2 12 3 13 4 11 5 83 6 86 7 84 8 85 9 87 10 8 11 9 12
REMARK SMILES IDX 10 13 7 14 3 15 4 16 88 17 5 18 6 19 2 20 1 21 16 22 17 23
REMARK SMILES IDX 18 24 19 25 20 26 21 27 82 28 22 29 81 30 23 31 24 32 25 33
REMARK SMILES IDX 75 34 26 35 80 36 74 37 76 38 27 39 79 40 73 41 72 42 28 44
REMARK SMILES IDX 60 45 40 46 59 47 41 48 44 49 58 50 77 51 42 52 43 53 57 55
REMARK SMILES IDX 78 56 45 57 29 58 30 59 38 60 31 61 33 62 39 63 32 64 34 65
REMARK SMILES IDX 35 66 36 67 37 68 61 69 62 70 70 71 63 72 65 73 71 74 64 75
REMARK SMILES IDX 66 76 67 77 68 78 69 79 46 80 47 81 55 82 48 83 50 84 56 85
REMARK SMILES IDX 49 86 51 87 52 88 53 89 54 90
REMARK H PARENT 76 43 44 54
REMARK Flexibility Score: inf
ROOT
ATOM      1  C   UNL A   1      36.050  19.754  24.875  1.00  0.00     0.274 C 
ENDROOT
BRANCH   1   2
ATOM      2  O   UNL A   1      35.371  20.976  25.250  1.00  0.00    -0.461 OA
BRANCH   2   3
ATOM      3  C   UNL A   1      34.071  21.062  24.835  1.00  0.00     0.328 C 
ATOM      4  O   UNL A   1      33.482  20.122  24.319  1.00  0.00    -0.250 OA
BRANCH   3   5
ATOM      5  C   UNL A   1      33.537  22.488  24.862  1.00  0.00     0.176 C 
ATOM      6  C   UNL A   1      32.225  22.703  25.634  1.00  0.00     0.036 C 
ATOM      7  C   UNL A   1      34.582  23.274  25.728  1.00  0.00     0.019 C 
ATOM      8  C   UNL A   1      32.595  22.859  27.106  1.00  0.00     0.003 C 
ATOM      9  C   UNL A   1      34.104  23.050  27.170  1.00  0.00     0.005 C 
ATOM     10  C   UNL A   1      34.755  24.768  25.457  1.00  0.00     0.010 C 
BRANCH   5  11
ATOM     11  S   UNL A   1      33.428  23.093  23.180  1.00  0.00     0.195 S 
ATOM     12  O   UNL A   1      32.460  22.300  22.447  1.00  0.00    -0.222 OA
ATOM     13  O   UNL A   1      34.790  23.188  22.675  1.00  0.00    -0.222 OA
BRANCH  11  14
ATOM     14  C   UNL A   1      32.855  24.778  23.080  1.00  0.00     0.072 A 
ATOM     15  C   UNL A   1      31.350  26.607  23.534  1.00  0.00     0.120 A 
ATOM     16  C   UNL A   1      32.261  27.494  22.958  1.00  0.00     0.046 A 
ATOM     17  C   UNL A   1      31.636  25.237  23.584  1.00  0.00     0.066 A 
ATOM     18  C   UNL A   1      33.465  27.035  22.433  1.00  0.00     0.005 A 
ATOM     19  C   UNL A   1      33.763  25.679  22.498  1.00  0.00     0.020 A 
BRANCH  15  20
ATOM     20  O   UNL A   1      30.195  27.195  23.969  1.00  0.00    -0.497 OA
ATOM     21  C   UNL A   1      29.025  26.389  23.962  1.00  0.00     0.278 C 
ENDBRANCH  15  20
ENDBRANCH  11  14
ENDBRANCH   5  11
ENDBRANCH   3   5
ENDBRANCH   2   3
ENDBRANCH   1   2
BRANCH   1  22
ATOM     22  C   UNL A   1      37.546  19.959  24.681  1.00  0.00     0.275 C 
BRANCH  22  23
ATOM     23  O   UNL A   1      37.976  21.132  25.387  1.00  0.00    -0.458 OA
BRANCH  23  24
ATOM     24  C   UNL A   1      39.167  21.024  26.023  1.00  0.00     0.338 C 
ATOM     25  O   UNL A   1      39.853  20.018  26.093  1.00  0.00    -0.246 OA
BRANCH  24  26
ATOM     26  C   UNL A   1      39.568  22.316  26.620  1.00  0.00     0.060 A 
ATOM     27  C   UNL A   1      39.034  23.524  26.173  1.00  0.00     0.016 A 
ATOM     28  C   UNL A   1      40.607  22.325  27.552  1.00  0.00     0.016 A 
ATOM     29  C   UNL A   1      39.628  24.731  26.549  1.00  0.00     0.010 A 
ATOM     30  C   UNL A   1      41.127  23.540  28.009  1.00  0.00     0.010 A 
ATOM     31  C   UNL A   1      40.694  24.758  27.462  1.00  0.00    -0.014 A 
BRANCH  31  32
ATOM     32  C   UNL A   1      41.371  26.042  27.814  1.00  0.00     0.031 A 
ATOM     33  C   UNL A   1      40.625  27.145  28.531  1.00  0.00     0.074 A 
ATOM     34  C   UNL A   1      42.669  26.231  27.504  1.00  0.00     0.049 A 
ATOM     35  N   UNL A   1      41.059  28.321  28.917  1.00  0.00    -0.248 NA
ATOM     36  C   UNL A   1      39.218  26.896  28.882  1.00  0.00     0.031 C 
ATOM     37  C   UNL A   1      43.527  25.261  26.823  1.00  0.00     0.029 A 
ATOM     38  N   UNL A   1      43.491  27.316  27.705  1.00  0.00    -0.354 N 
ATOM     39  C   UNL A   1      39.989  28.939  29.556  1.00  0.00     0.074 A 
ATOM     40  C   UNL A   1      38.874  28.022  29.492  1.00  0.00     0.031 C 
ATOM     41  C   UNL A   1      44.749  25.790  26.664  1.00  0.00     0.029 A 
ATOM     42  C   UNL A   1      44.746  27.160  27.166  1.00  0.00     0.049 A 
ATOM     43  H   UNL A   1      43.208  28.125  28.188  1.00  0.00     0.167 HD
ATOM     44  C   UNL A   1      39.935  30.148  30.160  1.00  0.00     0.034 A 
ATOM     45  C   UNL A   1      45.770  28.028  27.041  1.00  0.00     0.034 A 
ATOM     46  C   UNL A   1      41.018  31.092  30.206  1.00  0.00     0.049 A 
ATOM     47  C   UNL A   1      45.634  29.420  27.588  1.00  0.00     0.074 A 
ATOM     48  C   UNL A   1      41.045  32.341  30.800  1.00  0.00     0.029 A 
ATOM     49  N   UNL A   1      42.253  30.906  29.609  1.00  0.00    -0.354 N 
ATOM     50  N   UNL A   1      44.655  29.939  28.284  1.00  0.00    -0.248 NA
ATOM     51  C   UNL A   1      46.751  30.344  27.337  1.00  0.00     0.031 C 
ATOM     52  C   UNL A   1      42.288  32.926  30.535  1.00  0.00     0.029 A 
ATOM     53  C   UNL A   1      43.039  32.032  29.789  1.00  0.00     0.049 A 
ATOM     54  H   UNL A   1      42.533  30.093  29.129  1.00  0.00     0.167 HD
ATOM     55  C   UNL A   1      45.043  31.242  28.575  1.00  0.00     0.074 A 
ATOM     56  C   UNL A   1      46.358  31.426  27.997  1.00  0.00     0.031 C 
ATOM     57  C   UNL A   1      44.362  32.201  29.247  1.00  0.00     0.034 A 
BRANCH  44  58
ATOM     58  C   UNL A   1      38.658  30.517  30.865  1.00  0.00     0.023 A 
ATOM     59  C   UNL A   1      38.512  30.185  32.228  1.00  0.00     0.012 A 
ATOM     60  C   UNL A   1      37.644  31.240  30.213  1.00  0.00     0.148 A 
ATOM     61  C   UNL A   1      37.369  30.565  32.929  1.00  0.00     0.002 A 
ATOM     62  C   UNL A   1      36.517  31.635  30.924  1.00  0.00     0.091 A 
ATOM     63  F   UNL A   1      37.794  31.518  28.910  1.00  0.00    -0.205 F 
ATOM     64  C   UNL A   1      36.377  31.297  32.282  1.00  0.00     0.022 A 
BRANCH  62  65
ATOM     65  S   UNL A   1      35.203  32.615  30.190  1.00  0.00     0.127 S 
ATOM     66  O   UNL A   1      35.928  33.816  29.778  1.00  0.00    -0.237 OA
ATOM     67  O   UNL A   1      34.758  31.764  29.087  1.00  0.00    -0.237 OA
ATOM     68  O   UNL A   1      34.215  32.811  31.242  1.00  0.00    -0.744 OA
ENDBRANCH  62  65
ENDBRANCH  44  58
BRANCH  45  69
ATOM     69  C   UNL A   1      47.017  27.589  26.353  1.00  0.00     0.023 A 
ATOM     70  C   UNL A   1      47.955  26.801  27.043  1.00  0.00     0.012 A 
ATOM     71  C   UNL A   1      47.246  27.902  24.998  1.00  0.00     0.148 A 
ATOM     72  C   UNL A   1      49.101  26.334  26.396  1.00  0.00     0.002 A 
ATOM     73  C   UNL A   1      48.354  27.379  24.342  1.00  0.00     0.091 A 
ATOM     74  F   UNL A   1      46.365  28.690  24.365  1.00  0.00    -0.205 F 
ATOM     75  C   UNL A   1      49.291  26.607  25.042  1.00  0.00     0.022 A 
BRANCH  73  76
ATOM     76  S   UNL A   1      48.557  27.560  22.566  1.00  0.00     0.127 S 
ATOM     77  O   UNL A   1      49.814  28.296  22.479  1.00  0.00    -0.237 OA
ATOM     78  O   UNL A   1      48.626  26.170  22.114  1.00  0.00    -0.237 OA
ATOM     79  O   UNL A   1      47.363  28.267  22.121  1.00  0.00    -0.744 OA
ENDBRANCH  73  76
ENDBRANCH  45  69
BRANCH  57  80
ATOM     80  C   UNL A   1      45.019  33.548  29.403  1.00  0.00     0.023 A 
ATOM     81  C   UNL A   1      45.825  33.796  30.530  1.00  0.00     0.012 A 
ATOM     82  C   UNL A   1      44.898  34.535  28.407  1.00  0.00     0.148 A 
ATOM     83  C   UNL A   1      46.482  35.018  30.677  1.00  0.00     0.002 A 
ATOM     84  C   UNL A   1      45.588  35.735  28.541  1.00  0.00     0.091 A 
ATOM     85  F   UNL A   1      44.108  34.291  27.352  1.00  0.00    -0.205 F 
ATOM     86  C   UNL A   1      46.373  35.982  29.677  1.00  0.00     0.022 A 
BRANCH  84  87
ATOM     87  S   UNL A   1      45.570  36.986  27.250  1.00  0.00     0.127 S 
ATOM     88  O   UNL A   1      46.414  38.028  27.831  1.00  0.00    -0.237 OA
ATOM     89  O   UNL A   1      46.167  36.281  26.114  1.00  0.00    -0.237 OA
ATOM     90  O   UNL A   1      44.168  37.335  27.065  1.00  0.00    -0.744 OA
ENDBRANCH  84  87
ENDBRANCH  57  80
ENDBRANCH  31  32
ENDBRANCH  24  26
ENDBRANCH  23  24
ENDBRANCH  22  23
ENDBRANCH   1  22
TORSDOF 17
ENDMDL
MODEL 2
REMARK VINA RESULT:     -11.8      5.225     10.095
REMARK SMILES COc1cccc(S(=O)(=O)[C@]2(C(=O)OCCOC(=O)c3ccc(-c4c5nc(c(-c6cccc(S(=O)(=O)[O-])c6F)c6ccc([nH]6)c(-c6cccc(S(=O)(=O)[O-])c6F)c6nc(c(-c7cccc(S(=O)(=O)[O-])c7F)c7ccc4[nH]7)C=C6)C=C5)cc3)CCC[C@@H]2C)c1
REMARK SMILES IDX 15 1 14 2 12 3 13 4 11 5 83 6 86 7 84 8 85 9 87 10 8 11 9 12
REMARK SMILES IDX 10 13 7 14 3 15 4 16 88 17 5 18 6 19 2 20 1 21 16 22 17 23
REMARK SMILES IDX 18 24 19 25 20 26 21 27 82 28 22 29 81 30 23 31 24 32 25 33
REMARK SMILES IDX 75 34 26 35 80 36 74 37 76 38 27 39 79 40 73 41 72 42 28 44
REMARK SMILES IDX 60 45 40 46 59 47 41 48 44 49 58 50 77 51 42 52 43 53 57 55
REMARK SMILES IDX 78 56 45 57 29 58 30 59 38 60 31 61 33 62 39 63 32 64 34 65
REMARK SMILES IDX 35 66 36 67 37 68 61 69 62 70 70 71 63 72 65 73 71 74 64 75
REMARK SMILES IDX 66 76 67 77 68 78 69 79 46 80 47 81 55 82 48 83 50 84 56 85
REMARK SMILES IDX 49 86 51 87 52 88 53 89 54 90
REMARK H PARENT 76 43 44 54
REMARK Flexibility Score: inf
ROOT
ATOM      1  C   UNL A   1      31.711  28.525  27.385  1.00  0.00     0.274 C 
ENDROOT
BRANCH   1   2
ATOM      2  O   UNL A   1      32.236  27.642  26.366  1.00  0.00    -0.461 OA
BRANCH   2   3
ATOM      3  C   UNL A   1      31.351  26.709  25.901  1.00  0.00     0.328 C 
ATOM      4  O   UNL A   1      30.723  25.970  26.648  1.00  0.00    -0.250 OA
BRANCH   3   5
ATOM      5  C   UNL A   1      31.419  26.533  24.391  1.00  0.00     0.176 C 
ATOM      6  C   UNL A   1      30.140  26.011  23.714  1.00  0.00     0.036 C 
ATOM      7  C   UNL A   1      31.531  27.997  23.837  1.00  0.00     0.019 C 
ATOM      8  C   UNL A   1      29.231  27.216  23.491  1.00  0.00     0.003 C 
ATOM      9  C   UNL A   1      30.070  28.462  23.734  1.00  0.00     0.005 C 
ATOM     10  C   UNL A   1      32.243  28.202  22.501  1.00  0.00     0.010 C 
BRANCH   5  11
ATOM     11  S   UNL A   1      32.843  25.525  23.991  1.00  0.00     0.195 S 
ATOM     12  O   UNL A   1      34.054  26.262  24.299  1.00  0.00    -0.222 OA
ATOM     13  O   UNL A   1      32.645  25.028  22.637  1.00  0.00    -0.222 OA
BRANCH  11  14
ATOM     14  C   UNL A   1      32.929  24.024  24.950  1.00  0.00     0.072 A 
ATOM     15  C   UNL A   1      32.456  21.711  25.437  1.00  0.00     0.120 A 
ATOM     16  C   UNL A   1      33.366  21.752  26.495  1.00  0.00     0.046 A 
ATOM     17  C   UNL A   1      32.220  22.856  24.665  1.00  0.00     0.066 A 
ATOM     18  C   UNL A   1      34.054  22.923  26.795  1.00  0.00     0.005 A 
ATOM     19  C   UNL A   1      33.839  24.057  26.020  1.00  0.00     0.020 A 
BRANCH  15  20
ATOM     20  O   UNL A   1      31.825  20.507  25.287  1.00  0.00    -0.497 OA
ATOM     21  C   UNL A   1      32.622  19.418  24.844  1.00  0.00     0.278 C 
ENDBRANCH  15  20
ENDBRANCH  11  14
ENDBRANCH   5  11
ENDBRANCH   3   5
ENDBRANCH   2   3
ENDBRANCH   1   2
BRANCH   1  22
ATOM     22  C   UNL A   1      31.530  29.950  26.879  1.00  0.00     0.275 C 
BRANCH  22  23
ATOM     23  O   UNL A   1      32.780  30.461  26.394  1.00  0.00    -0.458 OA
BRANCH  23  24
ATOM     24  C   UNL A   1      33.332  31.449  27.138  1.00  0.00     0.338 C 
ATOM     25  O   UNL A   1      32.811  32.518  27.409  1.00  0.00    -0.246 OA
BRANCH  24  26
ATOM     26  C   UNL A   1      34.672  31.058  27.625  1.00  0.00     0.060 A 
ATOM     27  C   UNL A   1      35.007  29.723  27.852  1.00  0.00     0.016 A 
ATOM     28  C   UNL A   1      35.565  32.065  27.996  1.00  0.00     0.016 A 
ATOM     29  C   UNL A   1      36.162  29.407  28.570  1.00  0.00     0.010 A 
ATOM     30  C   UNL A   1      36.774  31.735  28.619  1.00  0.00     0.010 A 
ATOM     31  C   UNL A   1      37.057  30.408  28.978  1.00  0.00    -0.014 A 
BRANCH  31  32
ATOM     32  C   UNL A   1      38.258  30.076  29.803  1.00  0.00     0.031 A 
ATOM     33  C   UNL A   1      39.299  29.098  29.303  1.00  0.00     0.074 A 
ATOM     34  C   UNL A   1      38.437  30.656  31.006  1.00  0.00     0.049 A 
ATOM     35  N   UNL A   1      40.404  28.698  29.886  1.00  0.00    -0.248 NA
ATOM     36  C   UNL A   1      39.090  28.505  27.973  1.00  0.00     0.031 C 
ATOM     37  C   UNL A   1      37.530  31.626  31.621  1.00  0.00     0.029 A 
ATOM     38  N   UNL A   1      39.436  30.500  31.938  1.00  0.00    -0.354 N 
ATOM     39  C   UNL A   1      41.016  27.823  28.996  1.00  0.00     0.074 A 
ATOM     40  C   UNL A   1      40.155  27.727  27.839  1.00  0.00     0.031 C 
ATOM     41  C   UNL A   1      38.011  31.978  32.822  1.00  0.00     0.029 A 
ATOM     42  C   UNL A   1      39.221  31.209  33.096  1.00  0.00     0.049 A 
ATOM     43  H   UNL A   1      40.227  29.933  31.791  1.00  0.00     0.167 HD
ATOM     44  C   UNL A   1      42.195  27.169  29.112  1.00  0.00     0.034 A 
ATOM     45  C   UNL A   1      39.887  31.214  34.268  1.00  0.00     0.034 A 
ATOM     46  C   UNL A   1      43.051  27.219  30.266  1.00  0.00     0.049 A 
ATOM     47  C   UNL A   1      41.113  30.363  34.428  1.00  0.00     0.074 A 
ATOM     48  C   UNL A   1      44.265  26.586  30.463  1.00  0.00     0.029 A 
ATOM     49  N   UNL A   1      42.770  27.917  31.428  1.00  0.00    -0.354 N 
ATOM     50  N   UNL A   1      41.731  29.632  33.535  1.00  0.00    -0.248 NA
ATOM     51  C   UNL A   1      41.739  30.343  35.759  1.00  0.00     0.031 C 
ATOM     52  C   UNL A   1      44.704  26.874  31.760  1.00  0.00     0.029 A 
ATOM     53  C   UNL A   1      43.769  27.701  32.362  1.00  0.00     0.049 A 
ATOM     54  H   UNL A   1      41.977  28.484  31.570  1.00  0.00     0.167 HD
ATOM     55  C   UNL A   1      42.831  29.082  34.185  1.00  0.00     0.074 A 
ATOM     56  C   UNL A   1      42.805  29.582  35.544  1.00  0.00     0.031 C 
ATOM     57  C   UNL A   1      43.765  28.228  33.701  1.00  0.00     0.034 A 
BRANCH  44  58
ATOM     58  C   UNL A   1      42.660  26.358  27.934  1.00  0.00     0.023 A 
ATOM     59  C   UNL A   1      43.641  26.898  27.078  1.00  0.00     0.012 A 
ATOM     60  C   UNL A   1      42.186  25.052  27.710  1.00  0.00     0.148 A 
ATOM     61  C   UNL A   1      44.140  26.152  26.013  1.00  0.00     0.002 A 
ATOM     62  C   UNL A   1      42.704  24.305  26.659  1.00  0.00     0.091 A 
ATOM     63  F   UNL A   1      41.232  24.572  28.521  1.00  0.00    -0.205 F 
ATOM     64  C   UNL A   1      43.680  24.854  25.808  1.00  0.00     0.022 A 
BRANCH  62  65
ATOM     65  S   UNL A   1      42.204  22.610  26.338  1.00  0.00     0.127 S 
ATOM     66  O   UNL A   1      42.855  21.900  27.438  1.00  0.00    -0.237 OA
ATOM     67  O   UNL A   1      40.748  22.689  26.442  1.00  0.00    -0.237 OA
ATOM     68  O   UNL A   1      42.702  22.292  25.007  1.00  0.00    -0.744 OA
ENDBRANCH  62  65
ENDBRANCH  44  58
BRANCH  45  69
ATOM     69  C   UNL A   1      39.387  32.061  35.388  1.00  0.00     0.023 A 
ATOM     70  C   UNL A   1      38.545  31.501  36.365  1.00  0.00     0.012 A 
ATOM     71  C   UNL A   1      39.794  33.404  35.518  1.00  0.00     0.148 A 
ATOM     72  C   UNL A   1      38.115  32.266  37.451  1.00  0.00     0.002 A 
ATOM     73  C   UNL A   1      39.416  34.138  36.635  1.00  0.00     0.091 A 
ATOM     74  F   UNL A   1      40.562  33.937  34.556  1.00  0.00    -0.205 F 
ATOM     75  C   UNL A   1      38.565  33.577  37.596  1.00  0.00     0.022 A 
BRANCH  73  76
ATOM     76  S   UNL A   1      40.101  35.769  36.953  1.00  0.00     0.127 S 
ATOM     77  O   UNL A   1      39.626  36.527  35.800  1.00  0.00    -0.237 OA
ATOM     78  O   UNL A   1      39.477  36.130  38.227  1.00  0.00    -0.237 OA
ATOM     79  O   UNL A   1      41.541  35.562  37.040  1.00  0.00    -0.744 OA
ENDBRANCH  73  76
ENDBRANCH  45  69
BRANCH  57  80
ATOM     80  C   UNL A   1      44.849  27.771  34.641  1.00  0.00     0.023 A 
ATOM     81  C   UNL A   1      46.011  28.553  34.787  1.00  0.00     0.012 A 
ATOM     82  C   UNL A   1      44.689  26.615  35.427  1.00  0.00     0.148 A 
ATOM     83  C   UNL A   1      47.011  28.176  35.684  1.00  0.00     0.002 A 
ATOM     84  C   UNL A   1      45.671  26.268  36.349  1.00  0.00     0.091 A 
ATOM     85  F   UNL A   1      43.588  25.869  35.258  1.00  0.00    -0.205 F 
ATOM     86  C   UNL A   1      46.835  27.042  36.473  1.00  0.00     0.022 A 
BRANCH  84  87
ATOM     87  S   UNL A   1      45.473  24.872  37.463  1.00  0.00     0.127 S 
ATOM     88  O   UNL A   1      46.372  25.232  38.558  1.00  0.00    -0.237 OA
ATOM     89  O   UNL A   1      44.049  24.932  37.800  1.00  0.00    -0.237 OA
ATOM     90  O   UNL A   1      45.853  23.698  36.690  1.00  0.00    -0.744 OA
ENDBRANCH  84  87
ENDBRANCH  57  80
ENDBRANCH  31  32
ENDBRANCH  24  26
ENDBRANCH  23  24
ENDBRANCH  22  23
ENDBRANCH   1  22
TORSDOF 17
ENDMDL
MODEL 3
REMARK VINA RESULT:     -11.8      5.218      9.841
REMARK SMILES COc1cccc(S(=O)(=O)[C@]2(C(=O)OCCOC(=O)c3ccc(-c4c5nc(c(-c6cccc(S(=O)(=O)[O-])c6F)c6ccc([nH]6)c(-c6cccc(S(=O)(=O)[O-])c6F)c6nc(c(-c7cccc(S(=O)(=O)[O-])c7F)c7ccc4[nH]7)C=C6)C=C5)cc3)CCC[C@@H]2C)c1
REMARK SMILES IDX 15 1 14 2 12 3 13 4 11 5 83 6 86 7 84 8 85 9 87 10 8 11 9 12
REMARK SMILES IDX 10 13 7 14 3 15 4 16 88 17 5 18 6 19 2 20 1 21 16 22 17 23
REMARK SMILES IDX 18 24 19 25 20 26 21 27 82 28 22 29 81 30 23 31 24 32 25 33
REMARK SMILES IDX 75 34 26 35 80 36 74 37 76 38 27 39 79 40 73 41 72 42 28 44
REMARK SMILES IDX 60 45 40 46 59 47 41 48 44 49 58 50 77 51 42 52 43 53 57 55
REMARK SMILES IDX 78 56 45 57 29 58 30 59 38 60 31 61 33 62 39 63 32 64 34 65
REMARK SMILES IDX 35 66 36 67 37 68 61 69 62 70 70 71 63 72 65 73 71 74 64 75
REMARK SMILES IDX 66 76 67 77 68 78 69 79 46 80 47 81 55 82 48 83 50 84 56 85
REMARK SMILES IDX 49 86 51 87 52 88 53 89 54 90
REMARK H PARENT 76 43 44 54
REMARK Flexibility Score: inf
ROOT
ATOM      1  C   UNL A   1      31.541  28.267  26.231  1.00  0.00     0.274 C 
ENDROOT
BRANCH   1   2
ATOM      2  O   UNL A   1      32.269  27.024  26.370  1.00  0.00    -0.461 OA
BRANCH   2   3
ATOM      3  C   UNL A   1      31.591  25.911  25.957  1.00  0.00     0.328 C 
ATOM      4  O   UNL A   1      30.584  25.507  26.523  1.00  0.00    -0.250 OA
BRANCH   3   5
ATOM      5  C   UNL A   1      32.347  25.119  24.900  1.00  0.00     0.176 C 
ATOM      6  C   UNL A   1      33.835  25.470  24.729  1.00  0.00     0.036 C 
ATOM      7  C   UNL A   1      32.400  23.660  25.476  1.00  0.00     0.019 C 
ATOM      8  C   UNL A   1      34.600  24.696  25.797  1.00  0.00     0.003 C 
ATOM      9  C   UNL A   1      33.641  23.669  26.381  1.00  0.00     0.005 C 
ATOM     10  C   UNL A   1      32.482  22.502  24.482  1.00  0.00     0.010 C 
BRANCH   5  11
ATOM     11  S   UNL A   1      31.455  25.225  23.351  1.00  0.00     0.195 S 
ATOM     12  O   UNL A   1      30.306  24.342  23.398  1.00  0.00    -0.222 OA
ATOM     13  O   UNL A   1      32.433  25.054  22.286  1.00  0.00    -0.222 OA
BRANCH  11  14
ATOM     14  C   UNL A   1      30.806  26.854  23.029  1.00  0.00     0.072 A 
ATOM     15  C   UNL A   1      29.113  28.570  23.019  1.00  0.00     0.120 A 
ATOM     16  C   UNL A   1      30.070  29.507  22.625  1.00  0.00     0.046 A 
ATOM     17  C   UNL A   1      29.474  27.230  23.209  1.00  0.00     0.066 A 
ATOM     18  C   UNL A   1      31.393  29.127  22.421  1.00  0.00     0.005 A 
ATOM     19  C   UNL A   1      31.761  27.803  22.627  1.00  0.00     0.020 A 
BRANCH  15  20
ATOM     20  O   UNL A   1      27.849  29.079  23.141  1.00  0.00    -0.497 OA
ATOM     21  C   UNL A   1      27.608  30.342  22.539  1.00  0.00     0.278 C 
ENDBRANCH  15  20
ENDBRANCH  11  14
ENDBRANCH   5  11
ENDBRANCH   3   5
ENDBRANCH   2   3
ENDBRANCH   1   2
BRANCH   1  22
ATOM     22  C   UNL A   1      32.059  29.350  27.169  1.00  0.00     0.275 C 
BRANCH  22  23
ATOM     23  O   UNL A   1      32.990  30.194  26.476  1.00  0.00    -0.458 OA
BRANCH  23  24
ATOM     24  C   UNL A   1      33.584  31.147  27.232  1.00  0.00     0.338 C 
ATOM     25  O   UNL A   1      33.077  32.197  27.588  1.00  0.00    -0.246 OA
BRANCH  24  26
ATOM     26  C   UNL A   1      34.954  30.743  27.613  1.00  0.00     0.060 A 
ATOM     27  C   UNL A   1      35.318  29.401  27.718  1.00  0.00     0.016 A 
ATOM     28  C   UNL A   1      35.854  31.733  28.012  1.00  0.00     0.016 A 
ATOM     29  C   UNL A   1      36.515  29.049  28.345  1.00  0.00     0.010 A 
ATOM     30  C   UNL A   1      37.099  31.377  28.540  1.00  0.00     0.010 A 
ATOM     31  C   UNL A   1      37.419  30.032  28.780  1.00  0.00    -0.014 A 
BRANCH  31  32
ATOM     32  C   UNL A   1      38.668  29.657  29.509  1.00  0.00     0.031 A 
ATOM     33  C   UNL A   1      39.592  28.586  28.973  1.00  0.00     0.074 A 
ATOM     34  C   UNL A   1      38.996  30.282  30.658  1.00  0.00     0.049 A 
ATOM     35  N   UNL A   1      40.718  28.140  29.474  1.00  0.00    -0.248 NA
ATOM     36  C   UNL A   1      39.221  27.945  27.701  1.00  0.00     0.031 C 
ATOM     37  C   UNL A   1      38.216  31.341  31.299  1.00  0.00     0.029 A 
ATOM     38  N   UNL A   1      40.066  30.102  31.503  1.00  0.00    -0.354 N 
ATOM     39  C   UNL A   1      41.187  27.181  28.582  1.00  0.00     0.074 A 
ATOM     40  C   UNL A   1      40.216  27.090  27.515  1.00  0.00     0.031 C 
ATOM     41  C   UNL A   1      38.829  31.717  32.430  1.00  0.00     0.029 A 
ATOM     42  C   UNL A   1      40.007  30.880  32.635  1.00  0.00     0.049 A 
ATOM     43  H   UNL A   1      40.802  29.476  31.316  1.00  0.00     0.167 HD
ATOM     44  C   UNL A   1      42.326  26.454  28.627  1.00  0.00     0.034 A 
ATOM     45  C   UNL A   1      40.779  30.896  33.740  1.00  0.00     0.034 A 
ATOM     46  C   UNL A   1      43.288  26.501  29.694  1.00  0.00     0.049 A 
ATOM     47  C   UNL A   1      41.958  29.971  33.835  1.00  0.00     0.074 A 
ATOM     48  C   UNL A   1      44.472  25.795  29.815  1.00  0.00     0.029 A 
ATOM     49  N   UNL A   1      43.163  27.272  30.836  1.00  0.00    -0.354 N 
ATOM     50  N   UNL A   1      42.441  29.156  32.931  1.00  0.00    -0.248 NA
ATOM     51  C   UNL A   1      42.703  29.972  35.103  1.00  0.00     0.031 C 
ATOM     52  C   UNL A   1      45.048  26.115  31.049  1.00  0.00     0.029 A 
ATOM     53  C   UNL A   1      44.230  27.033  31.686  1.00  0.00     0.049 A 
ATOM     54  H   UNL A   1      42.426  27.899  31.018  1.00  0.00     0.167 HD
ATOM     55  C   UNL A   1      43.558  28.564  33.508  1.00  0.00     0.074 A 
ATOM     56  C   UNL A   1      43.693  29.130  34.834  1.00  0.00     0.031 C 
ATOM     57  C   UNL A   1      44.385  27.625  32.989  1.00  0.00     0.034 A 
BRANCH  44  58
ATOM     58  C   UNL A   1      42.625  25.556  27.457  1.00  0.00     0.023 A 
ATOM     59  C   UNL A   1      43.400  26.058  26.392  1.00  0.00     0.012 A 
ATOM     60  C   UNL A   1      42.205  24.213  27.439  1.00  0.00     0.148 A 
ATOM     61  C   UNL A   1      43.748  25.236  25.322  1.00  0.00     0.002 A 
ATOM     62  C   UNL A   1      42.574  23.394  26.379  1.00  0.00     0.091 A 
ATOM     63  F   UNL A   1      41.445  23.768  28.449  1.00  0.00    -0.205 F 
ATOM     64  C   UNL A   1      43.345  23.904  25.319  1.00  0.00     0.022 A 
BRANCH  62  65
ATOM     65  S   UNL A   1      42.137  21.653  26.304  1.00  0.00     0.127 S 
ATOM     66  O   UNL A   1      40.717  21.721  25.964  1.00  0.00    -0.237 OA
ATOM     67  O   UNL A   1      42.998  21.162  25.228  1.00  0.00    -0.237 OA
ATOM     68  O   UNL A   1      42.441  21.108  27.620  1.00  0.00    -0.744 OA
ENDBRANCH  62  65
ENDBRANCH  44  58
BRANCH  45  69
ATOM     69  C   UNL A   1      40.442  31.830  34.852  1.00  0.00     0.023 A 
ATOM     70  C   UNL A   1      41.020  33.111  34.887  1.00  0.00     0.012 A 
ATOM     71  C   UNL A   1      39.503  31.471  35.839  1.00  0.00     0.148 A 
ATOM     72  C   UNL A   1      40.671  34.018  35.890  1.00  0.00     0.002 A 
ATOM     73  C   UNL A   1      39.110  32.401  36.794  1.00  0.00     0.091 A 
ATOM     74  F   UNL A   1      38.992  30.231  35.817  1.00  0.00    -0.205 F 
ATOM     75  C   UNL A   1      39.704  33.670  36.831  1.00  0.00     0.022 A 
BRANCH  73  76
ATOM     76  S   UNL A   1      37.752  32.063  37.921  1.00  0.00     0.127 S 
ATOM     77  O   UNL A   1      38.351  32.368  39.217  1.00  0.00    -0.237 OA
ATOM     78  O   UNL A   1      36.731  33.013  37.477  1.00  0.00    -0.237 OA
ATOM     79  O   UNL A   1      37.405  30.668  37.683  1.00  0.00    -0.744 OA
ENDBRANCH  73  76
ENDBRANCH  45  69
BRANCH  57  80
ATOM     80  C   UNL A   1      45.521  27.139  33.851  1.00  0.00     0.023 A 
ATOM     81  C   UNL A   1      46.767  27.793  33.785  1.00  0.00     0.012 A 
ATOM     82  C   UNL A   1      45.339  26.091  34.772  1.00  0.00     0.148 A 
ATOM     83  C   UNL A   1      47.822  27.394  34.604  1.00  0.00     0.002 A 
ATOM     84  C   UNL A   1      46.383  25.725  35.614  1.00  0.00     0.091 A 
ATOM     85  F   UNL A   1      44.154  25.463  34.806  1.00  0.00    -0.205 F 
ATOM     86  C   UNL A   1      47.627  26.369  35.527  1.00  0.00     0.022 A 
BRANCH  84  87
ATOM     87  S   UNL A   1      46.177  24.476  36.890  1.00  0.00     0.127 S 
ATOM     88  O   UNL A   1      44.991  24.960  37.595  1.00  0.00    -0.237 OA
ATOM     89  O   UNL A   1      45.964  23.254  36.110  1.00  0.00    -0.237 OA
ATOM     90  O   UNL A   1      47.418  24.488  37.652  1.00  0.00    -0.744 OA
ENDBRANCH  84  87
ENDBRANCH  57  80
ENDBRANCH  31  32
ENDBRANCH  24  26
ENDBRANCH  23  24
ENDBRANCH  22  23
ENDBRANCH   1  22
TORSDOF 17
ENDMDL
