MODEL 1
REMARK VINA RESULT:     -10.9      0.000      0.000
REMARK SMILES NS(=O)(=O)c1ccc(-c2coc(=O)n2-c2ccc(C(=O)OCCOC(=O)c3ccc(-c4c5nc(c(-c6cccc(S(=O)(=O)[O-])c6F)c6ccc([nH]6)c(-c6cccc(S(=O)(=O)[O-])c6F)c6nc(c(-c7cccc(S(=O)(=O)[O-])c7F)c7ccc4[nH]7)C=C6)C=C5)cc3)cc2)cc1
REMARK SMILES IDX 22 1 21 2 19 3 20 4 18 5 15 6 16 7 91 8 17 9 90 10 14 11
REMARK SMILES IDX 9 12 10 13 11 14 12 15 13 16 8 17 5 18 6 19 93 20 7 21 92 22
REMARK SMILES IDX 2 23 3 24 4 25 1 26 23 29 24 30 25 31 26 32 27 33 28 34
REMARK SMILES IDX 89 35 29 36 88 37 30 38 31 39 32 40 82 41 33 42 87 43 81 44
REMARK SMILES IDX 83 45 34 46 86 47 80 48 79 49 35 51 67 52 47 53 66 54 48 55
REMARK SMILES IDX 51 56 65 57 84 58 49 59 50 60 64 62 85 63 52 64 36 65 37 66
REMARK SMILES IDX 45 67 38 68 40 69 46 70 39 71 41 72 42 73 43 74 44 75 68 76
REMARK SMILES IDX 69 77 77 78 70 79 72 80 78 81 71 82 73 83 74 84 75 85 76 86
REMARK SMILES IDX 53 87 54 88 62 89 55 90 57 91 63 92 56 93 58 94 59 95 60 96
REMARK SMILES IDX 61 97
REMARK H PARENT 1 27 1 28 83 50 51 61
REMARK Flexibility Score: inf
ROOT
ATOM      1  C   UNL A   1      34.744  34.035  30.319  1.00  0.00     0.275 C 
ENDROOT
BRANCH   1   2
ATOM      2  O   UNL A   1      34.313  32.869  31.044  1.00  0.00    -0.458 OA
BRANCH   2   3
ATOM      3  C   UNL A   1      34.374  32.961  32.400  1.00  0.00     0.338 C 
ATOM      4  O   UNL A   1      33.440  33.176  33.157  1.00  0.00    -0.246 OA
BRANCH   3   5
ATOM      5  C   UNL A   1      35.749  32.684  32.878  1.00  0.00     0.060 A 
ATOM      6  C   UNL A   1      38.213  31.986  33.992  1.00  0.00     0.053 A 
ATOM      7  C   UNL A   1      37.590  31.110  33.100  1.00  0.00     0.028 A 
ATOM      8  C   UNL A   1      37.662  33.257  34.218  1.00  0.00     0.028 A 
ATOM      9  C   UNL A   1      36.341  31.447  32.571  1.00  0.00     0.018 A 
ATOM     10  C   UNL A   1      36.444  33.616  33.649  1.00  0.00     0.018 A 
BRANCH   6  11
ATOM     11  N   UNL A   1      39.276  31.543  34.801  1.00  0.00    -0.242 N 
ATOM     12  C   UNL A   1      40.608  31.791  34.610  1.00  0.00     0.095 A 
ATOM     13  C   UNL A   1      41.242  31.177  35.602  1.00  0.00     0.228 A 
ATOM     14  O   UNL A   1      40.401  30.516  36.495  1.00  0.00    -0.415 OA
ATOM     15  C   UNL A   1      39.137  30.806  35.973  1.00  0.00     0.424 A 
ATOM     16  O   UNL A   1      38.106  30.421  36.504  1.00  0.00    -0.223 OA
BRANCH  12  17
ATOM     17  C   UNL A   1      41.168  32.721  33.629  1.00  0.00     0.002 A 
ATOM     18  C   UNL A   1      42.302  34.412  31.704  1.00  0.00     0.082 A 
ATOM     19  C   UNL A   1      41.491  33.356  31.294  1.00  0.00     0.022 A 
ATOM     20  C   UNL A   1      42.543  34.639  33.063  1.00  0.00     0.022 A 
ATOM     21  C   UNL A   1      40.923  32.520  32.257  1.00  0.00     0.012 A 
ATOM     22  C   UNL A   1      41.970  33.797  34.023  1.00  0.00     0.012 A 
BRANCH  18  23
ATOM     23  S   UNL A   1      43.073  35.452  30.500  1.00  0.00     0.238 S 
ATOM     24  O   UNL A   1      43.616  36.614  31.161  1.00  0.00    -0.207 OA
ATOM     25  O   UNL A   1      42.198  35.547  29.352  1.00  0.00    -0.207 OA
BRANCH  23  26
ATOM     26  N   UNL A   1      44.407  34.562  30.006  1.00  0.00    -0.225 NA
ATOM     27  H   UNL A   1      44.579  33.808  30.673  1.00  0.00     0.137 HD
ATOM     28  H   UNL A   1      45.224  35.169  29.961  1.00  0.00     0.137 HD
ENDBRANCH  23  26
ENDBRANCH  18  23
ENDBRANCH  12  17
ENDBRANCH   6  11
ENDBRANCH   3   5
ENDBRANCH   2   3
ENDBRANCH   1   2
BRANCH   1  29
ATOM     29  C   UNL A   1      34.647  33.818  28.818  1.00  0.00     0.275 C 
BRANCH  29  30
ATOM     30  O   UNL A   1      35.839  33.219  28.319  1.00  0.00    -0.458 OA
BRANCH  30  31
ATOM     31  C   UNL A   1      35.743  31.891  28.090  1.00  0.00     0.338 C 
ATOM     32  O   UNL A   1      34.866  31.308  27.472  1.00  0.00    -0.246 OA
BRANCH  31  33
ATOM     33  C   UNL A   1      36.703  31.191  28.940  1.00  0.00     0.060 A 
ATOM     34  C   UNL A   1      37.837  31.916  29.321  1.00  0.00     0.016 A 
ATOM     35  C   UNL A   1      36.660  29.792  28.957  1.00  0.00     0.016 A 
ATOM     36  C   UNL A   1      39.010  31.225  29.500  1.00  0.00     0.010 A 
ATOM     37  C   UNL A   1      37.837  29.109  29.093  1.00  0.00     0.010 A 
ATOM     38  C   UNL A   1      39.005  29.843  29.287  1.00  0.00    -0.014 A 
BRANCH  38  39
ATOM     39  C   UNL A   1      40.245  29.126  29.451  1.00  0.00     0.031 A 
ATOM     40  C   UNL A   1      40.524  28.870  30.884  1.00  0.00     0.074 A 
ATOM     41  C   UNL A   1      40.929  28.642  28.396  1.00  0.00     0.049 A 
ATOM     42  N   UNL A   1      41.485  29.349  31.599  1.00  0.00    -0.248 NA
ATOM     43  C   UNL A   1      39.474  28.193  31.670  1.00  0.00     0.031 C 
ATOM     44  C   UNL A   1      40.509  28.607  26.992  1.00  0.00     0.029 A 
ATOM     45  N   UNL A   1      42.079  27.920  28.385  1.00  0.00    -0.354 N 
ATOM     46  C   UNL A   1      41.289  28.806  32.867  1.00  0.00     0.074 A 
ATOM     47  C   UNL A   1      39.929  28.355  32.910  1.00  0.00     0.031 C 
ATOM     48  C   UNL A   1      41.235  27.667  26.342  1.00  0.00     0.029 A 
ATOM     49  C   UNL A   1      42.228  27.122  27.254  1.00  0.00     0.049 A 
ATOM     50  H   UNL A   1      42.744  27.957  29.110  1.00  0.00     0.167 HD
ATOM     51  C   UNL A   1      42.349  28.466  33.647  1.00  0.00     0.034 A 
ATOM     52  C   UNL A   1      43.021  26.024  27.148  1.00  0.00     0.034 A 
ATOM     53  C   UNL A   1      43.545  29.145  33.211  1.00  0.00     0.049 A 
ATOM     54  C   UNL A   1      43.980  26.065  28.284  1.00  0.00     0.074 A 
ATOM     55  C   UNL A   1      43.886  30.469  33.010  1.00  0.00     0.029 A 
ATOM     56  N   UNL A   1      44.461  28.406  32.500  1.00  0.00    -0.354 N 
ATOM     57  N   UNL A   1      44.925  26.955  28.399  1.00  0.00    -0.248 NA
ATOM     58  C   UNL A   1      43.584  25.405  29.519  1.00  0.00     0.031 C 
ATOM     59  C   UNL A   1      44.667  30.469  31.817  1.00  0.00     0.029 A 
ATOM     60  C   UNL A   1      44.833  29.145  31.410  1.00  0.00     0.049 A 
ATOM     61  H   UNL A   1      44.789  27.508  32.734  1.00  0.00     0.167 HD
ATOM     62  C   UNL A   1      44.904  27.300  29.744  1.00  0.00     0.074 A 
ATOM     63  C   UNL A   1      44.126  26.250  30.401  1.00  0.00     0.031 C 
ATOM     64  C   UNL A   1      45.244  28.558  30.154  1.00  0.00     0.034 A 
BRANCH  51  65
ATOM     65  C   UNL A   1      42.402  27.221  34.508  1.00  0.00     0.023 A 
ATOM     66  C   UNL A   1      41.951  27.356  35.840  1.00  0.00     0.012 A 
ATOM     67  C   UNL A   1      43.108  26.033  34.194  1.00  0.00     0.148 A 
ATOM     68  C   UNL A   1      42.256  26.404  36.818  1.00  0.00     0.002 A 
ATOM     69  C   UNL A   1      43.339  25.052  35.151  1.00  0.00     0.091 A 
ATOM     70  F   UNL A   1      43.685  25.878  33.003  1.00  0.00    -0.205 F 
ATOM     71  C   UNL A   1      42.947  25.250  36.474  1.00  0.00     0.022 A 
BRANCH  69  72
ATOM     72  S   UNL A   1      44.189  23.521  34.744  1.00  0.00     0.127 S 
ATOM     73  O   UNL A   1      43.236  22.888  33.837  1.00  0.00    -0.237 OA
ATOM     74  O   UNL A   1      45.412  24.020  34.114  1.00  0.00    -0.237 OA
ATOM     75  O   UNL A   1      44.411  22.837  36.013  1.00  0.00    -0.744 OA
ENDBRANCH  69  72
ENDBRANCH  51  65
BRANCH  52  76
ATOM     76  C   UNL A   1      42.836  24.778  26.358  1.00  0.00     0.023 A 
ATOM     77  C   UNL A   1      43.846  24.381  25.455  1.00  0.00     0.012 A 
ATOM     78  C   UNL A   1      41.839  23.834  26.687  1.00  0.00     0.148 A 
ATOM     79  C   UNL A   1      43.886  23.080  24.935  1.00  0.00     0.002 A 
ATOM     80  C   UNL A   1      41.878  22.545  26.161  1.00  0.00     0.091 A 
ATOM     81  F   UNL A   1      40.907  24.162  27.591  1.00  0.00    -0.205 F 
ATOM     82  C   UNL A   1      42.908  22.159  25.296  1.00  0.00     0.022 A 
BRANCH  80  83
ATOM     83  S   UNL A   1      40.662  21.297  26.613  1.00  0.00     0.127 S 
ATOM     84  O   UNL A   1      41.194  20.102  25.957  1.00  0.00    -0.237 OA
ATOM     85  O   UNL A   1      40.761  21.293  28.069  1.00  0.00    -0.237 OA
ATOM     86  O   UNL A   1      39.395  21.764  26.063  1.00  0.00    -0.744 OA
ENDBRANCH  80  83
ENDBRANCH  52  76
BRANCH  64  87
ATOM     87  C   UNL A   1      45.891  29.487  29.161  1.00  0.00     0.023 A 
ATOM     88  C   UNL A   1      47.253  29.404  28.800  1.00  0.00     0.012 A 
ATOM     89  C   UNL A   1      45.055  30.365  28.453  1.00  0.00     0.148 A 
ATOM     90  C   UNL A   1      47.769  30.201  27.773  1.00  0.00     0.002 A 
ATOM     91  C   UNL A   1      45.560  31.117  27.402  1.00  0.00     0.091 A 
ATOM     92  F   UNL A   1      43.762  30.437  28.809  1.00  0.00    -0.205 F 
ATOM     93  C   UNL A   1      46.919  31.048  27.064  1.00  0.00     0.022 A 
BRANCH  91  94
ATOM     94  S   UNL A   1      44.477  32.125  26.390  1.00  0.00     0.127 S 
ATOM     95  O   UNL A   1      44.032  33.142  27.338  1.00  0.00    -0.237 OA
ATOM     96  O   UNL A   1      45.379  32.613  25.345  1.00  0.00    -0.237 OA
ATOM     97  O   UNL A   1      43.442  31.222  25.899  1.00  0.00    -0.744 OA
ENDBRANCH  91  94
ENDBRANCH  64  87
ENDBRANCH  38  39
ENDBRANCH  31  33
ENDBRANCH  30  31
ENDBRANCH  29  30
ENDBRANCH   1  29
TORSDOF 18
ENDMDL
MODEL 2
REMARK VINA RESULT:     -10.4      5.125     10.368
REMARK SMILES NS(=O)(=O)c1ccc(-c2coc(=O)n2-c2ccc(C(=O)OCCOC(=O)c3ccc(-c4c5nc(c(-c6cccc(S(=O)(=O)[O-])c6F)c6ccc([nH]6)c(-c6cccc(S(=O)(=O)[O-])c6F)c6nc(c(-c7cccc(S(=O)(=O)[O-])c7F)c7ccc4[nH]7)C=C6)C=C5)cc3)cc2)cc1
REMARK SMILES IDX 22 1 21 2 19 3 20 4 18 5 15 6 16 7 91 8 17 9 90 10 14 11
REMARK SMILES IDX 9 12 10 13 11 14 12 15 13 16 8 17 5 18 6 19 93 20 7 21 92 22
REMARK SMILES IDX 2 23 3 24 4 25 1 26 23 29 24 30 25 31 26 32 27 33 28 34
REMARK SMILES IDX 89 35 29 36 88 37 30 38 31 39 32 40 82 41 33 42 87 43 81 44
REMARK SMILES IDX 83 45 34 46 86 47 80 48 79 49 35 51 67 52 47 53 66 54 48 55
REMARK SMILES IDX 51 56 65 57 84 58 49 59 50 60 64 62 85 63 52 64 36 65 37 66
REMARK SMILES IDX 45 67 38 68 40 69 46 70 39 71 41 72 42 73 43 74 44 75 68 76
REMARK SMILES IDX 69 77 77 78 70 79 72 80 78 81 71 82 73 83 74 84 75 85 76 86
REMARK SMILES IDX 53 87 54 88 62 89 55 90 57 91 63 92 56 93 58 94 59 95 60 96
REMARK SMILES IDX 61 97
REMARK H PARENT 1 27 1 28 83 50 51 61
REMARK Flexibility Score: inf
ROOT
ATOM      1  C   UNL A   1      32.114  31.780  26.661  1.00  0.00     0.275 C 
ENDROOT
BRANCH   1   2
ATOM      2  O   UNL A   1      32.451  30.723  27.577  1.00  0.00    -0.458 OA
BRANCH   2   3
ATOM      3  C   UNL A   1      33.562  30.004  27.265  1.00  0.00     0.338 C 
ATOM      4  O   UNL A   1      34.722  30.353  27.421  1.00  0.00    -0.246 OA
BRANCH   3   5
ATOM      5  C   UNL A   1      33.188  28.660  26.764  1.00  0.00     0.060 A 
ATOM      6  C   UNL A   1      32.376  26.267  25.576  1.00  0.00     0.053 A 
ATOM      7  C   UNL A   1      33.592  26.842  25.201  1.00  0.00     0.028 A 
ATOM      8  C   UNL A   1      31.639  26.825  26.632  1.00  0.00     0.028 A 
ATOM      9  C   UNL A   1      33.980  28.057  25.773  1.00  0.00     0.018 A 
ATOM     10  C   UNL A   1      32.051  28.007  27.241  1.00  0.00     0.018 A 
BRANCH   6  11
ATOM     11  N   UNL A   1      31.793  25.254  24.790  1.00  0.00    -0.242 N 
ATOM     12  C   UNL A   1      30.748  25.394  23.918  1.00  0.00     0.095 A 
ATOM     13  C   UNL A   1      30.531  24.187  23.409  1.00  0.00     0.228 A 
ATOM     14  O   UNL A   1      31.397  23.203  23.882  1.00  0.00    -0.415 OA
ATOM     15  C   UNL A   1      32.225  23.933  24.740  1.00  0.00     0.424 A 
ATOM     16  O   UNL A   1      33.157  23.420  25.342  1.00  0.00    -0.223 OA
BRANCH  12  17
ATOM     17  C   UNL A   1      30.156  26.664  23.498  1.00  0.00     0.002 A 
ATOM     18  C   UNL A   1      28.954  29.036  22.614  1.00  0.00     0.082 A 
ATOM     19  C   UNL A   1      28.173  28.063  23.235  1.00  0.00     0.022 A 
ATOM     20  C   UNL A   1      30.328  28.842  22.441  1.00  0.00     0.022 A 
ATOM     21  C   UNL A   1      28.777  26.885  23.679  1.00  0.00     0.012 A 
ATOM     22  C   UNL A   1      30.928  27.659  22.889  1.00  0.00     0.012 A 
BRANCH  18  23
ATOM     23  S   UNL A   1      28.201  30.512  21.998  1.00  0.00     0.238 S 
ATOM     24  O   UNL A   1      27.271  31.011  22.982  1.00  0.00    -0.207 OA
ATOM     25  O   UNL A   1      27.830  30.292  20.617  1.00  0.00    -0.207 OA
BRANCH  23  26
ATOM     26  N   UNL A   1      29.462  31.619  21.980  1.00  0.00    -0.225 NA
ATOM     27  H   UNL A   1      29.335  32.267  21.202  1.00  0.00     0.137 HD
ATOM     28  H   UNL A   1      30.347  31.126  21.870  1.00  0.00     0.137 HD
ENDBRANCH  23  26
ENDBRANCH  18  23
ENDBRANCH  12  17
ENDBRANCH   6  11
ENDBRANCH   3   5
ENDBRANCH   2   3
ENDBRANCH   1   2
BRANCH   1  29
ATOM     29  C   UNL A   1      32.253  33.144  27.317  1.00  0.00     0.275 C 
BRANCH  29  30
ATOM     30  O   UNL A   1      33.068  33.062  28.482  1.00  0.00    -0.458 OA
BRANCH  30  31
ATOM     31  C   UNL A   1      33.329  34.251  29.066  1.00  0.00     0.338 C 
ATOM     32  O   UNL A   1      32.609  35.238  29.089  1.00  0.00    -0.246 OA
BRANCH  31  33
ATOM     33  C   UNL A   1      34.741  34.299  29.439  1.00  0.00     0.060 A 
ATOM     34  C   UNL A   1      35.655  34.408  28.387  1.00  0.00     0.016 A 
ATOM     35  C   UNL A   1      35.097  33.817  30.704  1.00  0.00     0.016 A 
ATOM     36  C   UNL A   1      36.883  33.812  28.541  1.00  0.00     0.010 A 
ATOM     37  C   UNL A   1      36.303  33.187  30.840  1.00  0.00     0.010 A 
ATOM     38  C   UNL A   1      37.145  33.130  29.732  1.00  0.00    -0.014 A 
BRANCH  38  39
ATOM     39  C   UNL A   1      38.426  32.483  29.878  1.00  0.00     0.031 A 
ATOM     40  C   UNL A   1      38.344  31.053  29.496  1.00  0.00     0.074 A 
ATOM     41  C   UNL A   1      39.542  33.177  30.171  1.00  0.00     0.049 A 
ATOM     42  N   UNL A   1      38.490  30.023  30.259  1.00  0.00    -0.248 NA
ATOM     43  C   UNL A   1      37.799  30.736  28.162  1.00  0.00     0.031 C 
ATOM     44  C   UNL A   1      39.703  34.634  30.239  1.00  0.00     0.029 A 
ATOM     45  N   UNL A   1      40.815  32.728  30.303  1.00  0.00    -0.354 N 
ATOM     46  C   UNL A   1      38.310  28.928  29.416  1.00  0.00     0.074 A 
ATOM     47  C   UNL A   1      37.632  29.419  28.252  1.00  0.00     0.031 C 
ATOM     48  C   UNL A   1      41.015  34.934  30.108  1.00  0.00     0.029 A 
ATOM     49  C   UNL A   1      41.781  33.700  30.057  1.00  0.00     0.049 A 
ATOM     50  H   UNL A   1      41.035  31.800  30.549  1.00  0.00     0.167 HD
ATOM     51  C   UNL A   1      39.032  27.791  29.594  1.00  0.00     0.034 A 
ATOM     52  C   UNL A   1      43.076  33.472  29.712  1.00  0.00     0.034 A 
ATOM     53  C   UNL A   1      39.570  27.728  30.932  1.00  0.00     0.049 A 
ATOM     54  C   UNL A   1      43.372  32.052  30.035  1.00  0.00     0.074 A 
ATOM     55  C   UNL A   1      39.021  27.793  32.198  1.00  0.00     0.029 A 
ATOM     56  N   UNL A   1      40.906  28.013  31.082  1.00  0.00    -0.354 N 
ATOM     57  N   UNL A   1      43.429  31.584  31.250  1.00  0.00    -0.248 NA
ATOM     58  C   UNL A   1      43.137  31.065  28.991  1.00  0.00     0.031 C 
ATOM     59  C   UNL A   1      39.937  28.583  32.953  1.00  0.00     0.029 A 
ATOM     60  C   UNL A   1      41.030  28.877  32.137  1.00  0.00     0.049 A 
ATOM     61  H   UNL A   1      41.642  27.659  30.532  1.00  0.00     0.167 HD
ATOM     62  C   UNL A   1      42.778  30.359  31.173  1.00  0.00     0.074 A 
ATOM     63  C   UNL A   1      42.703  30.050  29.745  1.00  0.00     0.031 C 
ATOM     64  C   UNL A   1      42.082  29.863  32.238  1.00  0.00     0.034 A 
BRANCH  51  65
ATOM     65  C   UNL A   1      39.603  26.964  28.460  1.00  0.00     0.023 A 
ATOM     66  C   UNL A   1      39.325  25.579  28.487  1.00  0.00     0.012 A 
ATOM     67  C   UNL A   1      40.602  27.393  27.551  1.00  0.00     0.148 A 
ATOM     68  C   UNL A   1      40.055  24.669  27.715  1.00  0.00     0.002 A 
ATOM     69  C   UNL A   1      41.268  26.494  26.727  1.00  0.00     0.091 A 
ATOM     70  F   UNL A   1      41.025  28.657  27.550  1.00  0.00    -0.205 F 
ATOM     71  C   UNL A   1      41.024  25.126  26.832  1.00  0.00     0.022 A 
BRANCH  69  72
ATOM     72  S   UNL A   1      42.499  27.042  25.536  1.00  0.00     0.127 S 
ATOM     73  O   UNL A   1      43.668  27.234  26.390  1.00  0.00    -0.237 OA
ATOM     74  O   UNL A   1      42.569  25.891  24.634  1.00  0.00    -0.237 OA
ATOM     75  O   UNL A   1      41.953  28.246  24.922  1.00  0.00    -0.744 OA
ENDBRANCH  69  72
ENDBRANCH  51  65
BRANCH  52  76
ATOM     76  C   UNL A   1      43.989  34.258  28.841  1.00  0.00     0.023 A 
ATOM     77  C   UNL A   1      43.623  34.498  27.499  1.00  0.00     0.012 A 
ATOM     78  C   UNL A   1      45.055  35.013  29.378  1.00  0.00     0.148 A 
ATOM     79  C   UNL A   1      44.262  35.484  26.736  1.00  0.00     0.002 A 
ATOM     80  C   UNL A   1      45.694  35.987  28.613  1.00  0.00     0.091 A 
ATOM     81  F   UNL A   1      45.380  34.853  30.667  1.00  0.00    -0.205 F 
ATOM     82  C   UNL A   1      45.291  36.235  27.296  1.00  0.00     0.022 A 
BRANCH  80  83
ATOM     83  S   UNL A   1      47.009  37.014  29.287  1.00  0.00     0.127 S 
ATOM     84  O   UNL A   1      47.403  37.807  28.122  1.00  0.00    -0.237 OA
ATOM     85  O   UNL A   1      46.306  37.759  30.327  1.00  0.00    -0.237 OA
ATOM     86  O   UNL A   1      48.034  36.088  29.752  1.00  0.00    -0.744 OA
ENDBRANCH  80  83
ENDBRANCH  52  76
BRANCH  64  87
ATOM     87  C   UNL A   1      42.245  30.531  33.577  1.00  0.00     0.023 A 
ATOM     88  C   UNL A   1      43.307  30.241  34.461  1.00  0.00     0.012 A 
ATOM     89  C   UNL A   1      41.389  31.603  33.878  1.00  0.00     0.148 A 
ATOM     90  C   UNL A   1      43.489  30.987  35.629  1.00  0.00     0.002 A 
ATOM     91  C   UNL A   1      41.603  32.373  35.012  1.00  0.00     0.091 A 
ATOM     92  F   UNL A   1      40.382  31.866  33.031  1.00  0.00    -0.205 F 
ATOM     93  C   UNL A   1      42.645  32.063  35.898  1.00  0.00     0.022 A 
BRANCH  91  94
ATOM     94  S   UNL A   1      40.616  33.835  35.329  1.00  0.00     0.127 S 
ATOM     95  O   UNL A   1      39.293  33.265  35.565  1.00  0.00    -0.237 OA
ATOM     96  O   UNL A   1      41.260  34.404  36.515  1.00  0.00    -0.237 OA
ATOM     97  O   UNL A   1      40.745  34.664  34.136  1.00  0.00    -0.744 OA
ENDBRANCH  91  94
ENDBRANCH  64  87
ENDBRANCH  38  39
ENDBRANCH  31  33
ENDBRANCH  30  31
ENDBRANCH  29  30
ENDBRANCH   1  29
TORSDOF 18
ENDMDL
MODEL 3
REMARK VINA RESULT:     -10.3      4.773     11.843
REMARK SMILES NS(=O)(=O)c1ccc(-c2coc(=O)n2-c2ccc(C(=O)OCCOC(=O)c3ccc(-c4c5nc(c(-c6cccc(S(=O)(=O)[O-])c6F)c6ccc([nH]6)c(-c6cccc(S(=O)(=O)[O-])c6F)c6nc(c(-c7cccc(S(=O)(=O)[O-])c7F)c7ccc4[nH]7)C=C6)C=C5)cc3)cc2)cc1
REMARK SMILES IDX 22 1 21 2 19 3 20 4 18 5 15 6 16 7 91 8 17 9 90 10 14 11
REMARK SMILES IDX 9 12 10 13 11 14 12 15 13 16 8 17 5 18 6 19 93 20 7 21 92 22
REMARK SMILES IDX 2 23 3 24 4 25 1 26 23 29 24 30 25 31 26 32 27 33 28 34
REMARK SMILES IDX 89 35 29 36 88 37 30 38 31 39 32 40 82 41 33 42 87 43 81 44
REMARK SMILES IDX 83 45 34 46 86 47 80 48 79 49 35 51 67 52 47 53 66 54 48 55
REMARK SMILES IDX 51 56 65 57 84 58 49 59 50 60 64 62 85 63 52 64 36 65 37 66
REMARK SMILES IDX 45 67 38 68 40 69 46 70 39 71 41 72 42 73 43 74 44 75 68 76
REMARK SMILES IDX 69 77 77 78 70 79 72 80 78 81 71 82 73 83 74 84 75 85 76 86
REMARK SMILES IDX 53 87 54 88 62 89 55 90 57 91 63 92 56 93 58 94 59 95 60 96
REMARK SMILES IDX 61 97
REMARK H PARENT 1 27 1 28 83 50 51 61
REMARK Flexibility Score: inf
ROOT
ATOM      1  C   UNL A   1      40.333  21.537  26.840  1.00  0.00     0.275 C 
ENDROOT
BRANCH   1   2
ATOM      2  O   UNL A   1      39.393  22.364  26.132  1.00  0.00    -0.458 OA
BRANCH   2   3
ATOM      3  C   UNL A   1      38.392  21.704  25.490  1.00  0.00     0.338 C 
ATOM      4  O   UNL A   1      38.334  20.503  25.275  1.00  0.00    -0.246 OA
BRANCH   3   5
ATOM      5  C   UNL A   1      37.298  22.638  25.133  1.00  0.00     0.060 A 
ATOM      6  C   UNL A   1      35.046  24.182  24.549  1.00  0.00     0.053 A 
ATOM      7  C   UNL A   1      35.510  24.115  25.865  1.00  0.00     0.028 A 
ATOM      8  C   UNL A   1      35.786  23.582  23.519  1.00  0.00     0.028 A 
ATOM      9  C   UNL A   1      36.618  23.315  26.159  1.00  0.00     0.018 A 
ATOM     10  C   UNL A   1      36.920  22.828  23.804  1.00  0.00     0.018 A 
BRANCH   6  11
ATOM     11  N   UNL A   1      33.759  24.680  24.272  1.00  0.00    -0.242 N 
ATOM     12  C   UNL A   1      32.670  23.956  23.869  1.00  0.00     0.095 A 
ATOM     13  C   UNL A   1      31.682  24.830  23.719  1.00  0.00     0.228 A 
ATOM     14  O   UNL A   1      32.033  26.145  24.017  1.00  0.00    -0.415 OA
ATOM     15  C   UNL A   1      33.368  26.008  24.410  1.00  0.00     0.424 A 
ATOM     16  O   UNL A   1      34.039  26.958  24.786  1.00  0.00    -0.223 OA
BRANCH  12  17
ATOM     17  C   UNL A   1      32.589  22.496  23.828  1.00  0.00     0.002 A 
ATOM     18  C   UNL A   1      32.551  19.694  23.770  1.00  0.00     0.082 A 
ATOM     19  C   UNL A   1      32.886  20.350  24.953  1.00  0.00     0.022 A 
ATOM     20  C   UNL A   1      32.224  20.422  22.621  1.00  0.00     0.022 A 
ATOM     21  C   UNL A   1      32.898  21.746  24.979  1.00  0.00     0.012 A 
ATOM     22  C   UNL A   1      32.237  21.821  22.654  1.00  0.00     0.012 A 
BRANCH  18  23
ATOM     23  S   UNL A   1      32.580  17.928  23.701  1.00  0.00     0.238 S 
ATOM     24  O   UNL A   1      31.662  17.404  24.684  1.00  0.00    -0.207 OA
ATOM     25  O   UNL A   1      33.958  17.498  23.616  1.00  0.00    -0.207 OA
BRANCH  23  26
ATOM     26  N   UNL A   1      31.882  17.580  22.215  1.00  0.00    -0.225 NA
ATOM     27  H   UNL A   1      31.083  18.197  22.061  1.00  0.00     0.137 HD
ATOM     28  H   UNL A   1      31.569  16.610  22.205  1.00  0.00     0.137 HD
ENDBRANCH  23  26
ENDBRANCH  18  23
ENDBRANCH  12  17
ENDBRANCH   6  11
ENDBRANCH   3   5
ENDBRANCH   2   3
ENDBRANCH   1   2
BRANCH   1  29
ATOM     29  C   UNL A   1      41.756  21.789  26.366  1.00  0.00     0.275 C 
BRANCH  29  30
ATOM     30  O   UNL A   1      41.815  22.956  25.552  1.00  0.00    -0.458 OA
BRANCH  30  31
ATOM     31  C   UNL A   1      42.691  23.892  25.980  1.00  0.00     0.338 C 
ATOM     32  O   UNL A   1      43.895  23.924  25.778  1.00  0.00    -0.246 OA
BRANCH  31  33
ATOM     33  C   UNL A   1      42.038  24.733  26.979  1.00  0.00     0.060 A 
ATOM     34  C   UNL A   1      41.145  25.693  26.493  1.00  0.00     0.016 A 
ATOM     35  C   UNL A   1      42.634  24.828  28.243  1.00  0.00     0.016 A 
ATOM     36  C   UNL A   1      41.029  26.872  27.187  1.00  0.00     0.010 A 
ATOM     37  C   UNL A   1      42.552  26.018  28.910  1.00  0.00     0.010 A 
ATOM     38  C   UNL A   1      41.811  27.047  28.333  1.00  0.00    -0.014 A 
BRANCH  38  39
ATOM     39  C   UNL A   1      41.706  28.297  29.044  1.00  0.00     0.031 A 
ATOM     40  C   UNL A   1      42.683  29.284  28.527  1.00  0.00     0.074 A 
ATOM     41  C   UNL A   1      40.723  28.525  29.936  1.00  0.00     0.049 A 
ATOM     42  N   UNL A   1      43.697  29.789  29.145  1.00  0.00    -0.248 NA
ATOM     43  C   UNL A   1      42.670  29.558  27.077  1.00  0.00     0.031 C 
ATOM     44  C   UNL A   1      39.560  27.681  30.228  1.00  0.00     0.029 A 
ATOM     45  N   UNL A   1      40.467  29.649  30.652  1.00  0.00    -0.354 N 
ATOM     46  C   UNL A   1      44.285  30.649  28.220  1.00  0.00     0.074 A 
ATOM     47  C   UNL A   1      43.795  30.256  26.931  1.00  0.00     0.031 C 
ATOM     48  C   UNL A   1      38.607  28.439  30.818  1.00  0.00     0.029 A 
ATOM     49  C   UNL A   1      39.134  29.776  31.037  1.00  0.00     0.049 A 
ATOM     50  H   UNL A   1      41.158  30.313  30.877  1.00  0.00     0.167 HD
ATOM     51  C   UNL A   1      44.852  31.817  28.622  1.00  0.00     0.034 A 
ATOM     52  C   UNL A   1      38.507  30.932  31.379  1.00  0.00     0.034 A 
ATOM     53  C   UNL A   1      45.158  31.780  30.031  1.00  0.00     0.049 A 
ATOM     54  C   UNL A   1      39.565  31.938  31.658  1.00  0.00     0.074 A 
ATOM     55  C   UNL A   1      45.895  30.935  30.839  1.00  0.00     0.029 A 
ATOM     56  N   UNL A   1      44.318  32.471  30.872  1.00  0.00    -0.354 N 
ATOM     57  N   UNL A   1      40.377  31.870  32.675  1.00  0.00    -0.248 NA
ATOM     58  C   UNL A   1      40.019  32.758  30.544  1.00  0.00     0.031 C 
ATOM     59  C   UNL A   1      45.127  30.809  32.033  1.00  0.00     0.029 A 
ATOM     60  C   UNL A   1      44.018  31.650  31.925  1.00  0.00     0.049 A 
ATOM     61  H   UNL A   1      43.991  33.390  30.741  1.00  0.00     0.167 HD
ATOM     62  C   UNL A   1      41.611  32.231  32.149  1.00  0.00     0.074 A 
ATOM     63  C   UNL A   1      41.314  32.856  30.861  1.00  0.00     0.031 C 
ATOM     64  C   UNL A   1      42.770  31.711  32.651  1.00  0.00     0.034 A 
BRANCH  51  65
ATOM     65  C   UNL A   1      44.736  33.121  27.860  1.00  0.00     0.023 A 
ATOM     66  C   UNL A   1      45.881  33.538  27.145  1.00  0.00     0.012 A 
ATOM     67  C   UNL A   1      43.705  34.080  28.021  1.00  0.00     0.148 A 
ATOM     68  C   UNL A   1      46.025  34.853  26.691  1.00  0.00     0.002 A 
ATOM     69  C   UNL A   1      43.819  35.362  27.498  1.00  0.00     0.091 A 
ATOM     70  F   UNL A   1      42.649  33.821  28.792  1.00  0.00    -0.205 F 
ATOM     71  C   UNL A   1      44.993  35.765  26.865  1.00  0.00     0.022 A 
BRANCH  69  72
ATOM     72  S   UNL A   1      42.491  36.565  27.658  1.00  0.00     0.127 S 
ATOM     73  O   UNL A   1      42.645  36.989  29.046  1.00  0.00    -0.237 OA
ATOM     74  O   UNL A   1      42.874  37.561  26.656  1.00  0.00    -0.237 OA
ATOM     75  O   UNL A   1      41.262  35.848  27.343  1.00  0.00    -0.744 OA
ENDBRANCH  69  72
ENDBRANCH  51  65
BRANCH  52  76
ATOM     76  C   UNL A   1      37.094  31.352  31.185  1.00  0.00     0.023 A 
ATOM     77  C   UNL A   1      36.354  31.811  32.295  1.00  0.00     0.012 A 
ATOM     78  C   UNL A   1      36.563  31.585  29.897  1.00  0.00     0.148 A 
ATOM     79  C   UNL A   1      35.155  32.516  32.129  1.00  0.00     0.002 A 
ATOM     80  C   UNL A   1      35.365  32.279  29.736  1.00  0.00     0.091 A 
ATOM     81  F   UNL A   1      37.275  31.220  28.824  1.00  0.00    -0.205 F 
ATOM     82  C   UNL A   1      34.665  32.758  30.849  1.00  0.00     0.022 A 
BRANCH  80  83
ATOM     83  S   UNL A   1      34.695  32.653  28.109  1.00  0.00     0.127 S 
ATOM     84  O   UNL A   1      33.513  33.449  28.442  1.00  0.00    -0.237 OA
ATOM     85  O   UNL A   1      35.787  33.404  27.498  1.00  0.00    -0.237 OA
ATOM     86  O   UNL A   1      34.392  31.363  27.500  1.00  0.00    -0.744 OA
ENDBRANCH  80  83
ENDBRANCH  52  76
BRANCH  64  87
ATOM     87  C   UNL A   1      42.712  30.947  33.948  1.00  0.00     0.023 A 
ATOM     88  C   UNL A   1      42.759  31.570  35.214  1.00  0.00     0.012 A 
ATOM     89  C   UNL A   1      42.439  29.572  33.880  1.00  0.00     0.148 A 
ATOM     90  C   UNL A   1      42.563  30.827  36.383  1.00  0.00     0.002 A 
ATOM     91  C   UNL A   1      42.196  28.848  35.039  1.00  0.00     0.091 A 
ATOM     92  F   UNL A   1      42.400  28.991  32.670  1.00  0.00    -0.205 F 
ATOM     93  C   UNL A   1      42.268  29.469  36.295  1.00  0.00     0.022 A 
BRANCH  91  94
ATOM     94  S   UNL A   1      41.693  27.129  34.961  1.00  0.00     0.127 S 
ATOM     95  O   UNL A   1      41.318  26.858  36.345  1.00  0.00    -0.237 OA
ATOM     96  O   UNL A   1      40.574  27.167  34.018  1.00  0.00    -0.237 OA
ATOM     97  O   UNL A   1      42.856  26.401  34.466  1.00  0.00    -0.744 OA
ENDBRANCH  91  94
ENDBRANCH  64  87
ENDBRANCH  38  39
ENDBRANCH  31  33
ENDBRANCH  30  31
ENDBRANCH  29  30
ENDBRANCH   1  29
TORSDOF 18
ENDMDL
