MODEL 1
REMARK VINA RESULT:     -11.8      0.000      0.000
REMARK SMILES CCOc1ccc(-c2nc(C(=O)OCCOC(=O)c3ccc(-c4c5nc(c(-c6cccc(S(=O)(=O)[O-])c6F)c6ccc([nH]6)c(-c6cccc(S(=O)(=O)[O-])c6F)c6nc(c(-c7cccc(S(=O)(=O)[O-])c7F)c7ccc4[nH]7)C=C6)C=C5)cc3)cc(=O)[nH]2)cc1
REMARK SMILES IDX 14 1 13 2 11 3 12 4 10 5 8 6 9 7 85 8 83 9 82 11 84 12 7 13
REMARK SMILES IDX 4 14 5 15 87 16 6 17 86 18 3 19 2 20 1 21 15 22 16 23 17 24
REMARK SMILES IDX 18 25 19 26 20 27 81 28 21 29 80 30 22 31 23 32 24 33 74 34
REMARK SMILES IDX 25 35 79 36 73 37 75 38 26 39 78 40 72 41 71 42 27 44 59 45
REMARK SMILES IDX 39 46 58 47 40 48 43 49 57 50 76 51 41 52 42 53 56 55 77 56
REMARK SMILES IDX 44 57 28 58 29 59 37 60 30 61 32 62 38 63 31 64 33 65 34 66
REMARK SMILES IDX 35 67 36 68 60 69 61 70 69 71 62 72 64 73 70 74 63 75 65 76
REMARK SMILES IDX 66 77 67 78 68 79 45 80 46 81 54 82 47 83 49 84 55 85 48 86
REMARK SMILES IDX 50 87 51 88 52 89 53 90
REMARK H PARENT 85 10 75 43 43 54
REMARK Flexibility Score: inf
ROOT
ATOM      1  C   UNL A   1      35.042  20.538  24.888  1.00  0.00     0.275 C 
ENDROOT
BRANCH   1   2
ATOM      2  O   UNL A   1      34.131  21.651  24.783  1.00  0.00    -0.457 OA
BRANCH   2   3
ATOM      3  C   UNL A   1      32.854  21.332  24.434  1.00  0.00     0.357 C 
ATOM      4  O   UNL A   1      32.513  20.317  23.840  1.00  0.00    -0.244 OA
BRANCH   3   5
ATOM      5  C   UNL A   1      31.879  22.344  24.962  1.00  0.00     0.156 A 
ATOM      6  C   UNL A   1      30.852  24.361  24.649  1.00  0.00     0.141 A 
ATOM      7  N   UNL A   1      31.708  23.495  24.227  1.00  0.00    -0.223 NA
ATOM      8  N   UNL A   1      30.156  24.214  25.816  1.00  0.00    -0.306 N 
ATOM      9  C   UNL A   1      30.306  23.111  26.604  1.00  0.00     0.251 A 
ATOM     10  H   UNL A   1      29.530  24.921  26.094  1.00  0.00     0.171 HD
ATOM     11  C   UNL A   1      31.240  22.089  26.111  1.00  0.00     0.107 A 
ATOM     12  O   UNL A   1      29.708  22.964  27.664  1.00  0.00    -0.269 OA
BRANCH   6  13
ATOM     13  C   UNL A   1      30.552  25.558  23.846  1.00  0.00     0.018 A 
ATOM     14  C   UNL A   1      30.176  27.938  22.452  1.00  0.00     0.119 A 
ATOM     15  C   UNL A   1      29.246  27.534  23.416  1.00  0.00     0.047 A 
ATOM     16  C   UNL A   1      31.300  27.157  22.195  1.00  0.00     0.047 A 
ATOM     17  C   UNL A   1      29.425  26.334  24.113  1.00  0.00     0.016 A 
ATOM     18  C   UNL A   1      31.486  25.958  22.886  1.00  0.00     0.016 A 
BRANCH  14  19
ATOM     19  O   UNL A   1      30.003  29.176  21.904  1.00  0.00    -0.494 OA
BRANCH  19  20
ATOM     20  C   UNL A   1      29.470  30.164  22.793  1.00  0.00     0.226 C 
ATOM     21  C   UNL A   1      28.424  31.038  22.119  1.00  0.00     0.049 C 
ENDBRANCH  19  20
ENDBRANCH  14  19
ENDBRANCH   6  13
ENDBRANCH   3   5
ENDBRANCH   2   3
ENDBRANCH   1   2
BRANCH   1  22
ATOM     22  C   UNL A   1      36.477  20.975  24.589  1.00  0.00     0.275 C 
BRANCH  22  23
ATOM     23  O   UNL A   1      37.055  21.646  25.722  1.00  0.00    -0.458 OA
BRANCH  23  24
ATOM     24  C   UNL A   1      38.374  21.424  25.919  1.00  0.00     0.338 C 
ATOM     25  O   UNL A   1      39.014  20.432  25.614  1.00  0.00    -0.246 OA
BRANCH  24  26
ATOM     26  C   UNL A   1      38.989  22.613  26.524  1.00  0.00     0.060 A 
ATOM     27  C   UNL A   1      38.441  23.858  26.231  1.00  0.00     0.016 A 
ATOM     28  C   UNL A   1      40.170  22.522  27.258  1.00  0.00     0.016 A 
ATOM     29  C   UNL A   1      39.112  25.021  26.591  1.00  0.00     0.010 A 
ATOM     30  C   UNL A   1      40.808  23.696  27.682  1.00  0.00     0.010 A 
ATOM     31  C   UNL A   1      40.311  24.959  27.314  1.00  0.00    -0.014 A 
BRANCH  31  32
ATOM     32  C   UNL A   1      41.041  26.214  27.646  1.00  0.00     0.031 A 
ATOM     33  C   UNL A   1      40.423  27.239  28.562  1.00  0.00     0.074 A 
ATOM     34  C   UNL A   1      42.271  26.434  27.135  1.00  0.00     0.049 A 
ATOM     35  N   UNL A   1      40.872  28.422  28.899  1.00  0.00    -0.248 NA
ATOM     36  C   UNL A   1      39.128  26.899  29.174  1.00  0.00     0.031 C 
ATOM     37  C   UNL A   1      42.990  25.523  26.244  1.00  0.00     0.029 A 
ATOM     38  N   UNL A   1      43.130  27.494  27.289  1.00  0.00    -0.354 N 
ATOM     39  C   UNL A   1      39.883  28.997  29.689  1.00  0.00     0.074 A 
ATOM     40  C   UNL A   1      38.819  28.024  29.804  1.00  0.00     0.031 C 
ATOM     41  C   UNL A   1      44.188  26.049  25.948  1.00  0.00     0.029 A 
ATOM     42  C   UNL A   1      44.299  27.362  26.575  1.00  0.00     0.049 A 
ATOM     43  H   UNL A   1      42.929  28.274  27.855  1.00  0.00     0.167 HD
ATOM     44  C   UNL A   1      39.866  30.218  30.271  1.00  0.00     0.034 A 
ATOM     45  C   UNL A   1      45.337  28.208  26.419  1.00  0.00     0.034 A 
ATOM     46  C   UNL A   1      40.960  31.152  30.231  1.00  0.00     0.049 A 
ATOM     47  C   UNL A   1      45.305  29.542  27.112  1.00  0.00     0.074 A 
ATOM     48  C   UNL A   1      41.060  32.384  30.856  1.00  0.00     0.029 A 
ATOM     49  N   UNL A   1      42.142  30.960  29.535  1.00  0.00    -0.354 N 
ATOM     50  N   UNL A   1      44.401  30.027  27.928  1.00  0.00    -0.248 NA
ATOM     51  C   UNL A   1      46.443  30.441  26.873  1.00  0.00     0.031 C 
ATOM     52  C   UNL A   1      42.302  32.940  30.532  1.00  0.00     0.029 A 
ATOM     53  C   UNL A   1      42.976  32.052  29.710  1.00  0.00     0.049 A 
ATOM     54  H   UNL A   1      42.358  30.165  28.997  1.00  0.00     0.167 HD
ATOM     55  C   UNL A   1      44.867  31.278  28.312  1.00  0.00     0.074 A 
ATOM     56  C   UNL A   1      46.150  31.464  27.665  1.00  0.00     0.031 C 
ATOM     57  C   UNL A   1      44.274  32.201  29.107  1.00  0.00     0.034 A 
BRANCH  44  58
ATOM     58  C   UNL A   1      38.635  30.619  31.037  1.00  0.00     0.023 A 
ATOM     59  C   UNL A   1      38.571  30.391  32.425  1.00  0.00     0.012 A 
ATOM     60  C   UNL A   1      37.577  31.296  30.397  1.00  0.00     0.148 A 
ATOM     61  C   UNL A   1      37.466  30.814  33.162  1.00  0.00     0.002 A 
ATOM     62  C   UNL A   1      36.494  31.744  31.143  1.00  0.00     0.091 A 
ATOM     63  F   UNL A   1      37.646  31.480  29.070  1.00  0.00    -0.205 F 
ATOM     64  C   UNL A   1      36.434  31.500  32.525  1.00  0.00     0.022 A 
BRANCH  62  65
ATOM     65  S   UNL A   1      35.153  32.698  30.421  1.00  0.00     0.127 S 
ATOM     66  O   UNL A   1      34.202  32.756  31.529  1.00  0.00    -0.237 OA
ATOM     67  O   UNL A   1      35.807  33.971  30.110  1.00  0.00    -0.237 OA
ATOM     68  O   UNL A   1      34.714  31.946  29.253  1.00  0.00    -0.744 OA
ENDBRANCH  62  65
ENDBRANCH  44  58
BRANCH  45  69
ATOM     69  C   UNL A   1      46.509  27.802  25.593  1.00  0.00     0.023 A 
ATOM     70  C   UNL A   1      46.507  28.077  24.212  1.00  0.00     0.012 A 
ATOM     71  C   UNL A   1      47.636  27.184  26.167  1.00  0.00     0.148 A 
ATOM     72  C   UNL A   1      47.598  27.727  23.416  1.00  0.00     0.002 A 
ATOM     73  C   UNL A   1      48.743  26.891  25.379  1.00  0.00     0.091 A 
ATOM     74  F   UNL A   1      47.611  26.898  27.477  1.00  0.00    -0.205 F 
ATOM     75  C   UNL A   1      48.722  27.148  24.001  1.00  0.00     0.022 A 
BRANCH  73  76
ATOM     76  S   UNL A   1      50.270  26.281  26.102  1.00  0.00     0.127 S 
ATOM     77  O   UNL A   1      51.090  26.039  24.918  1.00  0.00    -0.237 OA
ATOM     78  O   UNL A   1      50.702  27.410  26.928  1.00  0.00    -0.237 OA
ATOM     79  O   UNL A   1      49.880  25.104  26.868  1.00  0.00    -0.744 OA
ENDBRANCH  73  76
ENDBRANCH  45  69
BRANCH  57  80
ATOM     80  C   UNL A   1      45.006  33.495  29.337  1.00  0.00     0.023 A 
ATOM     81  C   UNL A   1      45.890  33.604  30.429  1.00  0.00     0.012 A 
ATOM     82  C   UNL A   1      44.880  34.572  28.438  1.00  0.00     0.148 A 
ATOM     83  C   UNL A   1      46.619  34.774  30.637  1.00  0.00     0.002 A 
ATOM     84  C   UNL A   1      45.640  35.720  28.629  1.00  0.00     0.091 A 
ATOM     85  F   UNL A   1      44.016  34.457  27.417  1.00  0.00    -0.205 F 
ATOM     86  C   UNL A   1      46.503  35.826  29.731  1.00  0.00     0.022 A 
BRANCH  84  87
ATOM     87  S   UNL A   1      45.611  37.083  27.458  1.00  0.00     0.127 S 
ATOM     88  O   UNL A   1      46.499  38.050  28.101  1.00  0.00    -0.237 OA
ATOM     89  O   UNL A   1      46.153  36.470  26.245  1.00  0.00    -0.237 OA
ATOM     90  O   UNL A   1      44.213  37.482  27.354  1.00  0.00    -0.744 OA
ENDBRANCH  84  87
ENDBRANCH  57  80
ENDBRANCH  31  32
ENDBRANCH  24  26
ENDBRANCH  23  24
ENDBRANCH  22  23
ENDBRANCH   1  22
TORSDOF 17
ENDMDL
MODEL 2
REMARK VINA RESULT:     -11.4      1.112      7.960
REMARK SMILES CCOc1ccc(-c2nc(C(=O)OCCOC(=O)c3ccc(-c4c5nc(c(-c6cccc(S(=O)(=O)[O-])c6F)c6ccc([nH]6)c(-c6cccc(S(=O)(=O)[O-])c6F)c6nc(c(-c7cccc(S(=O)(=O)[O-])c7F)c7ccc4[nH]7)C=C6)C=C5)cc3)cc(=O)[nH]2)cc1
REMARK SMILES IDX 14 1 13 2 11 3 12 4 10 5 8 6 9 7 85 8 83 9 82 11 84 12 7 13
REMARK SMILES IDX 4 14 5 15 87 16 6 17 86 18 3 19 2 20 1 21 15 22 16 23 17 24
REMARK SMILES IDX 18 25 19 26 20 27 81 28 21 29 80 30 22 31 23 32 24 33 74 34
REMARK SMILES IDX 25 35 79 36 73 37 75 38 26 39 78 40 72 41 71 42 27 44 59 45
REMARK SMILES IDX 39 46 58 47 40 48 43 49 57 50 76 51 41 52 42 53 56 55 77 56
REMARK SMILES IDX 44 57 28 58 29 59 37 60 30 61 32 62 38 63 31 64 33 65 34 66
REMARK SMILES IDX 35 67 36 68 60 69 61 70 69 71 62 72 64 73 70 74 63 75 65 76
REMARK SMILES IDX 66 77 67 78 68 79 45 80 46 81 54 82 47 83 49 84 55 85 48 86
REMARK SMILES IDX 50 87 51 88 52 89 53 90
REMARK H PARENT 85 10 75 43 43 54
REMARK Flexibility Score: inf
ROOT
ATOM      1  C   UNL A   1      35.622  21.519  25.950  1.00  0.00     0.275 C 
ENDROOT
BRANCH   1   2
ATOM      2  O   UNL A   1      34.262  21.485  25.472  1.00  0.00    -0.457 OA
BRANCH   2   3
ATOM      3  C   UNL A   1      33.499  22.565  25.797  1.00  0.00     0.357 C 
ATOM      4  O   UNL A   1      33.183  22.893  26.933  1.00  0.00    -0.244 OA
BRANCH   3   5
ATOM      5  C   UNL A   1      33.168  23.380  24.581  1.00  0.00     0.156 A 
ATOM      6  C   UNL A   1      32.205  25.280  23.751  1.00  0.00     0.141 A 
ATOM      7  N   UNL A   1      32.472  24.551  24.781  1.00  0.00    -0.223 NA
ATOM      8  N   UNL A   1      32.530  24.915  22.476  1.00  0.00    -0.306 N 
ATOM      9  C   UNL A   1      33.192  23.752  22.210  1.00  0.00     0.251 A 
ATOM     10  H   UNL A   1      32.282  25.506  21.729  1.00  0.00     0.171 HD
ATOM     11  C   UNL A   1      33.550  22.934  23.378  1.00  0.00     0.107 A 
ATOM     12  O   UNL A   1      33.479  23.393  21.074  1.00  0.00    -0.269 OA
BRANCH   6  13
ATOM     13  C   UNL A   1      31.557  26.591  23.921  1.00  0.00     0.018 A 
ATOM     14  C   UNL A   1      30.390  29.117  23.997  1.00  0.00     0.119 A 
ATOM     15  C   UNL A   1      31.599  28.881  24.659  1.00  0.00     0.047 A 
ATOM     16  C   UNL A   1      29.771  28.090  23.288  1.00  0.00     0.047 A 
ATOM     17  C   UNL A   1      32.186  27.612  24.632  1.00  0.00     0.016 A 
ATOM     18  C   UNL A   1      30.350  26.820  23.255  1.00  0.00     0.016 A 
BRANCH  14  19
ATOM     19  O   UNL A   1      29.942  30.406  23.962  1.00  0.00    -0.494 OA
BRANCH  19  20
ATOM     20  C   UNL A   1      28.934  30.671  22.981  1.00  0.00     0.226 C 
ATOM     21  C   UNL A   1      27.641  31.170  23.608  1.00  0.00     0.049 C 
ENDBRANCH  19  20
ENDBRANCH  14  19
ENDBRANCH   6  13
ENDBRANCH   3   5
ENDBRANCH   2   3
ENDBRANCH   1   2
BRANCH   1  22
ATOM     22  C   UNL A   1      36.552  20.747  25.014  1.00  0.00     0.275 C 
BRANCH  22  23
ATOM     23  O   UNL A   1      37.815  21.422  24.875  1.00  0.00    -0.458 OA
BRANCH  23  24
ATOM     24  C   UNL A   1      38.748  21.109  25.803  1.00  0.00     0.338 C 
ATOM     25  O   UNL A   1      39.167  20.001  26.090  1.00  0.00    -0.246 OA
BRANCH  24  26
ATOM     26  C   UNL A   1      39.267  22.340  26.415  1.00  0.00     0.060 A 
ATOM     27  C   UNL A   1      38.639  23.543  26.107  1.00  0.00     0.016 A 
ATOM     28  C   UNL A   1      40.437  22.333  27.172  1.00  0.00     0.016 A 
ATOM     29  C   UNL A   1      39.221  24.751  26.475  1.00  0.00     0.010 A 
ATOM     30  C   UNL A   1      40.984  23.549  27.603  1.00  0.00     0.010 A 
ATOM     31  C   UNL A   1      40.407  24.774  27.221  1.00  0.00    -0.014 A 
BRANCH  31  32
ATOM     32  C   UNL A   1      41.042  26.078  27.562  1.00  0.00     0.031 A 
ATOM     33  C   UNL A   1      42.436  26.396  27.088  1.00  0.00     0.074 A 
ATOM     34  C   UNL A   1      40.363  26.988  28.290  1.00  0.00     0.049 A 
ATOM     35  N   UNL A   1      43.180  27.440  27.352  1.00  0.00    -0.248 NA
ATOM     36  C   UNL A   1      43.088  25.411  26.207  1.00  0.00     0.031 C 
ATOM     37  C   UNL A   1      39.004  26.814  28.806  1.00  0.00     0.029 A 
ATOM     38  N   UNL A   1      40.725  28.239  28.726  1.00  0.00    -0.354 N 
ATOM     39  C   UNL A   1      44.408  27.201  26.745  1.00  0.00     0.074 A 
ATOM     40  C   UNL A   1      44.304  25.924  26.076  1.00  0.00     0.031 C 
ATOM     41  C   UNL A   1      38.637  27.922  29.467  1.00  0.00     0.029 A 
ATOM     42  C   UNL A   1      39.754  28.861  29.478  1.00  0.00     0.049 A 
ATOM     43  H   UNL A   1      41.595  28.651  28.521  1.00  0.00     0.167 HD
ATOM     44  C   UNL A   1      45.516  27.978  26.740  1.00  0.00     0.034 A 
ATOM     45  C   UNL A   1      39.765  30.042  30.127  1.00  0.00     0.034 A 
ATOM     46  C   UNL A   1      45.593  29.288  27.330  1.00  0.00     0.049 A 
ATOM     47  C   UNL A   1      40.999  30.900  30.068  1.00  0.00     0.074 A 
ATOM     48  C   UNL A   1      46.654  30.179  27.308  1.00  0.00     0.029 A 
ATOM     49  N   UNL A   1      44.574  29.898  28.043  1.00  0.00    -0.354 N 
ATOM     50  N   UNL A   1      42.115  30.695  29.413  1.00  0.00    -0.248 NA
ATOM     51  C   UNL A   1      40.970  32.158  30.828  1.00  0.00     0.031 C 
ATOM     52  C   UNL A   1      46.277  31.326  28.013  1.00  0.00     0.029 A 
ATOM     53  C   UNL A   1      44.981  31.151  28.470  1.00  0.00     0.049 A 
ATOM     54  H   UNL A   1      43.691  29.501  28.219  1.00  0.00     0.167 HD
ATOM     55  C   UNL A   1      42.914  31.804  29.667  1.00  0.00     0.074 A 
ATOM     56  C   UNL A   1      42.141  32.693  30.511  1.00  0.00     0.031 C 
ATOM     57  C   UNL A   1      44.183  32.050  29.261  1.00  0.00     0.034 A 
BRANCH  44  58
ATOM     58  C   UNL A   1      46.744  27.453  26.046  1.00  0.00     0.023 A 
ATOM     59  C   UNL A   1      46.946  27.730  24.680  1.00  0.00     0.012 A 
ATOM     60  C   UNL A   1      47.735  26.756  26.766  1.00  0.00     0.148 A 
ATOM     61  C   UNL A   1      48.108  27.306  24.036  1.00  0.00     0.002 A 
ATOM     62  C   UNL A   1      48.906  26.367  26.126  1.00  0.00     0.091 A 
ATOM     63  F   UNL A   1      47.512  26.481  28.060  1.00  0.00    -0.205 F 
ATOM     64  C   UNL A   1      49.092  26.637  24.760  1.00  0.00     0.022 A 
BRANCH  62  65
ATOM     65  S   UNL A   1      50.258  25.563  26.995  1.00  0.00     0.127 S 
ATOM     66  O   UNL A   1      51.241  25.401  25.924  1.00  0.00    -0.237 OA
ATOM     67  O   UNL A   1      50.616  26.560  28.006  1.00  0.00    -0.237 OA
ATOM     68  O   UNL A   1      49.706  24.328  27.535  1.00  0.00    -0.744 OA
ENDBRANCH  62  65
ENDBRANCH  44  58
BRANCH  45  69
ATOM     69  C   UNL A   1      38.552  30.496  30.864  1.00  0.00     0.023 A 
ATOM     70  C   UNL A   1      38.451  30.247  32.246  1.00  0.00     0.012 A 
ATOM     71  C   UNL A   1      37.519  31.203  30.218  1.00  0.00     0.148 A 
ATOM     72  C   UNL A   1      37.337  30.677  32.967  1.00  0.00     0.002 A 
ATOM     73  C   UNL A   1      36.441  31.679  30.954  1.00  0.00     0.091 A 
ATOM     74  F   UNL A   1      37.612  31.405  28.896  1.00  0.00    -0.205 F 
ATOM     75  C   UNL A   1      36.339  31.406  32.324  1.00  0.00     0.022 A 
BRANCH  73  76
ATOM     76  S   UNL A   1      35.201  32.747  30.210  1.00  0.00     0.127 S 
ATOM     77  O   UNL A   1      36.008  33.870  29.743  1.00  0.00    -0.237 OA
ATOM     78  O   UNL A   1      34.651  31.901  29.148  1.00  0.00    -0.237 OA
ATOM     79  O   UNL A   1      34.258  33.032  31.284  1.00  0.00    -0.744 OA
ENDBRANCH  73  76
ENDBRANCH  45  69
BRANCH  57  80
ATOM     80  C   UNL A   1      44.819  33.338  29.709  1.00  0.00     0.023 A 
ATOM     81  C   UNL A   1      45.572  33.358  30.900  1.00  0.00     0.012 A 
ATOM     82  C   UNL A   1      44.736  34.503  28.922  1.00  0.00     0.148 A 
ATOM     83  C   UNL A   1      46.213  34.525  31.313  1.00  0.00     0.002 A 
ATOM     84  C   UNL A   1      45.411  35.651  29.319  1.00  0.00     0.091 A 
ATOM     85  F   UNL A   1      43.996  34.470  27.804  1.00  0.00    -0.205 F 
ATOM     86  C   UNL A   1      46.142  35.667  30.518  1.00  0.00     0.022 A 
BRANCH  84  87
ATOM     87  S   UNL A   1      45.440  37.134  28.306  1.00  0.00     0.127 S 
ATOM     88  O   UNL A   1      46.288  38.023  29.098  1.00  0.00    -0.237 OA
ATOM     89  O   UNL A   1      46.049  36.657  27.064  1.00  0.00    -0.237 OA
ATOM     90  O   UNL A   1      44.049  37.545  28.170  1.00  0.00    -0.744 OA
ENDBRANCH  84  87
ENDBRANCH  57  80
ENDBRANCH  31  32
ENDBRANCH  24  26
ENDBRANCH  23  24
ENDBRANCH  22  23
ENDBRANCH   1  22
TORSDOF 17
ENDMDL
MODEL 3
REMARK VINA RESULT:     -11.3      1.628      2.129
REMARK SMILES CCOc1ccc(-c2nc(C(=O)OCCOC(=O)c3ccc(-c4c5nc(c(-c6cccc(S(=O)(=O)[O-])c6F)c6ccc([nH]6)c(-c6cccc(S(=O)(=O)[O-])c6F)c6nc(c(-c7cccc(S(=O)(=O)[O-])c7F)c7ccc4[nH]7)C=C6)C=C5)cc3)cc(=O)[nH]2)cc1
REMARK SMILES IDX 14 1 13 2 11 3 12 4 10 5 8 6 9 7 85 8 83 9 82 11 84 12 7 13
REMARK SMILES IDX 4 14 5 15 87 16 6 17 86 18 3 19 2 20 1 21 15 22 16 23 17 24
REMARK SMILES IDX 18 25 19 26 20 27 81 28 21 29 80 30 22 31 23 32 24 33 74 34
REMARK SMILES IDX 25 35 79 36 73 37 75 38 26 39 78 40 72 41 71 42 27 44 59 45
REMARK SMILES IDX 39 46 58 47 40 48 43 49 57 50 76 51 41 52 42 53 56 55 77 56
REMARK SMILES IDX 44 57 28 58 29 59 37 60 30 61 32 62 38 63 31 64 33 65 34 66
REMARK SMILES IDX 35 67 36 68 60 69 61 70 69 71 62 72 64 73 70 74 63 75 65 76
REMARK SMILES IDX 66 77 67 78 68 79 45 80 46 81 54 82 47 83 49 84 55 85 48 86
REMARK SMILES IDX 50 87 51 88 52 89 53 90
REMARK H PARENT 85 10 75 43 43 54
REMARK Flexibility Score: inf
ROOT
ATOM      1  C   UNL A   1      36.005  21.864  24.250  1.00  0.00     0.275 C 
ENDROOT
BRANCH   1   2
ATOM      2  O   UNL A   1      34.763  21.562  24.918  1.00  0.00    -0.457 OA
BRANCH   2   3
ATOM      3  C   UNL A   1      33.650  21.606  24.134  1.00  0.00     0.357 C 
ATOM      4  O   UNL A   1      32.883  20.672  23.939  1.00  0.00    -0.244 OA
BRANCH   3   5
ATOM      5  C   UNL A   1      33.414  22.991  23.606  1.00  0.00     0.156 A 
ATOM      6  C   UNL A   1      32.975  25.180  24.096  1.00  0.00     0.141 A 
ATOM      7  N   UNL A   1      33.151  23.978  24.529  1.00  0.00    -0.223 NA
ATOM      8  N   UNL A   1      32.982  25.502  22.769  1.00  0.00    -0.306 N 
ATOM      9  C   UNL A   1      33.205  24.563  21.805  1.00  0.00     0.251 A 
ATOM     10  H   UNL A   1      32.822  26.436  22.500  1.00  0.00     0.171 HD
ATOM     11  C   UNL A   1      33.458  23.197  22.284  1.00  0.00     0.107 A 
ATOM     12  O   UNL A   1      33.197  24.823  20.607  1.00  0.00    -0.269 OA
BRANCH   6  13
ATOM     13  C   UNL A   1      32.797  26.289  25.047  1.00  0.00     0.018 A 
ATOM     14  C   UNL A   1      32.271  28.472  26.692  1.00  0.00     0.119 A 
ATOM     15  C   UNL A   1      33.435  28.441  25.917  1.00  0.00     0.047 A 
ATOM     16  C   UNL A   1      31.366  27.416  26.636  1.00  0.00     0.047 A 
ATOM     17  C   UNL A   1      33.709  27.343  25.095  1.00  0.00     0.016 A 
ATOM     18  C   UNL A   1      31.631  26.316  25.817  1.00  0.00     0.016 A 
BRANCH  14  19
ATOM     19  O   UNL A   1      32.010  29.627  27.372  1.00  0.00    -0.494 OA
BRANCH  19  20
ATOM     20  C   UNL A   1      32.414  30.828  26.705  1.00  0.00     0.226 C 
ATOM     21  C   UNL A   1      31.331  31.895  26.739  1.00  0.00     0.049 C 
ENDBRANCH  19  20
ENDBRANCH  14  19
ENDBRANCH   6  13
ENDBRANCH   3   5
ENDBRANCH   2   3
ENDBRANCH   1   2
BRANCH   1  22
ATOM     22  C   UNL A   1      37.082  20.840  24.609  1.00  0.00     0.275 C 
BRANCH  22  23
ATOM     23  O   UNL A   1      37.575  21.061  25.942  1.00  0.00    -0.458 OA
BRANCH  23  24
ATOM     24  C   UNL A   1      38.915  20.958  26.092  1.00  0.00     0.338 C 
ATOM     25  O   UNL A   1      39.628  20.021  25.775  1.00  0.00    -0.246 OA
BRANCH  24  26
ATOM     26  C   UNL A   1      39.445  22.206  26.657  1.00  0.00     0.060 A 
ATOM     27  C   UNL A   1      38.941  23.411  26.178  1.00  0.00     0.016 A 
ATOM     28  C   UNL A   1      40.517  22.199  27.548  1.00  0.00     0.016 A 
ATOM     29  C   UNL A   1      39.560  24.611  26.512  1.00  0.00     0.010 A 
ATOM     30  C   UNL A   1      41.094  23.414  27.940  1.00  0.00     0.010 A 
ATOM     31  C   UNL A   1      40.651  24.632  27.391  1.00  0.00    -0.014 A 
BRANCH  31  32
ATOM     32  C   UNL A   1      41.332  25.921  27.696  1.00  0.00     0.031 A 
ATOM     33  C   UNL A   1      40.656  26.957  28.558  1.00  0.00     0.074 A 
ATOM     34  C   UNL A   1      42.567  26.163  27.211  1.00  0.00     0.049 A 
ATOM     35  N   UNL A   1      41.057  28.164  28.864  1.00  0.00    -0.248 NA
ATOM     36  C   UNL A   1      39.355  26.596  29.148  1.00  0.00     0.031 C 
ATOM     37  C   UNL A   1      43.340  25.246  26.372  1.00  0.00     0.029 A 
ATOM     38  N   UNL A   1      43.387  27.256  27.349  1.00  0.00    -0.354 N 
ATOM     39  C   UNL A   1      40.028  28.734  29.606  1.00  0.00     0.074 A 
ATOM     40  C   UNL A   1      38.994  27.732  29.728  1.00  0.00     0.031 C 
ATOM     41  C   UNL A   1      44.528  25.800  26.090  1.00  0.00     0.029 A 
ATOM     42  C   UNL A   1      44.580  27.137  26.672  1.00  0.00     0.049 A 
ATOM     43  H   UNL A   1      43.146  28.048  27.881  1.00  0.00     0.167 HD
ATOM     44  C   UNL A   1      39.957  29.974  30.143  1.00  0.00     0.034 A 
ATOM     45  C   UNL A   1      45.593  28.011  26.513  1.00  0.00     0.034 A 
ATOM     46  C   UNL A   1      41.021  30.942  30.098  1.00  0.00     0.049 A 
ATOM     47  C   UNL A   1      45.500  29.366  27.156  1.00  0.00     0.074 A 
ATOM     48  C   UNL A   1      41.064  32.198  30.681  1.00  0.00     0.029 A 
ATOM     49  N   UNL A   1      42.228  30.764  29.442  1.00  0.00    -0.354 N 
ATOM     50  N   UNL A   1      44.558  29.850  27.930  1.00  0.00    -0.248 NA
ATOM     51  C   UNL A   1      46.615  30.294  26.915  1.00  0.00     0.031 C 
ATOM     52  C   UNL A   1      42.296  32.782  30.370  1.00  0.00     0.029 A 
ATOM     53  C   UNL A   1      43.020  31.888  29.600  1.00  0.00     0.049 A 
ATOM     54  H   UNL A   1      42.484  29.958  28.938  1.00  0.00     0.167 HD
ATOM     55  C   UNL A   1      44.974  31.128  28.281  1.00  0.00     0.074 A 
ATOM     56  C   UNL A   1      46.268  31.334  27.661  1.00  0.00     0.031 C 
ATOM     57  C   UNL A   1      44.330  32.059  29.026  1.00  0.00     0.034 A 
BRANCH  44  58
ATOM     58  C   UNL A   1      38.692  30.361  30.861  1.00  0.00     0.023 A 
ATOM     59  C   UNL A   1      38.555  30.079  32.234  1.00  0.00     0.012 A 
ATOM     60  C   UNL A   1      37.676  31.077  30.196  1.00  0.00     0.148 A 
ATOM     61  C   UNL A   1      37.418  30.487  32.930  1.00  0.00     0.002 A 
ATOM     62  C   UNL A   1      36.562  31.511  30.904  1.00  0.00     0.091 A 
ATOM     63  F   UNL A   1      37.815  31.313  28.883  1.00  0.00    -0.205 F 
ATOM     64  C   UNL A   1      36.428  31.212  32.270  1.00  0.00     0.022 A 
BRANCH  62  65
ATOM     65  S   UNL A   1      35.271  32.511  30.153  1.00  0.00     0.127 S 
ATOM     66  O   UNL A   1      34.353  32.698  31.275  1.00  0.00    -0.237 OA
ATOM     67  O   UNL A   1      36.002  33.715  29.755  1.00  0.00    -0.237 OA
ATOM     68  O   UNL A   1      34.755  31.724  29.041  1.00  0.00    -0.744 OA
ENDBRANCH  62  65
ENDBRANCH  44  58
BRANCH  45  69
ATOM     69  C   UNL A   1      46.800  27.614  25.733  1.00  0.00     0.023 A 
ATOM     70  C   UNL A   1      46.835  27.856  24.347  1.00  0.00     0.012 A 
ATOM     71  C   UNL A   1      47.924  27.039  26.357  1.00  0.00     0.148 A 
ATOM     72  C   UNL A   1      47.959  27.515  23.593  1.00  0.00     0.002 A 
ATOM     73  C   UNL A   1      49.061  26.756  25.611  1.00  0.00     0.091 A 
ATOM     74  F   UNL A   1      47.865  26.784  27.672  1.00  0.00    -0.205 F 
ATOM     75  C   UNL A   1      49.077  26.979  24.227  1.00  0.00     0.022 A 
BRANCH  73  76
ATOM     76  S   UNL A   1      50.580  26.202  26.395  1.00  0.00     0.127 S 
ATOM     77  O   UNL A   1      50.211  24.870  26.864  1.00  0.00    -0.237 OA
ATOM     78  O   UNL A   1      51.534  26.219  25.284  1.00  0.00    -0.237 OA
ATOM     79  O   UNL A   1      50.856  27.195  27.425  1.00  0.00    -0.744 OA
ENDBRANCH  73  76
ENDBRANCH  45  69
BRANCH  57  80
ATOM     80  C   UNL A   1      45.013  33.383  29.228  1.00  0.00     0.023 A 
ATOM     81  C   UNL A   1      45.918  33.538  30.298  1.00  0.00     0.012 A 
ATOM     82  C   UNL A   1      44.822  34.446  28.325  1.00  0.00     0.148 A 
ATOM     83  C   UNL A   1      46.603  34.738  30.479  1.00  0.00     0.002 A 
ATOM     84  C   UNL A   1      45.538  35.626  28.488  1.00  0.00     0.091 A 
ATOM     85  F   UNL A   1      43.940  34.288  27.326  1.00  0.00    -0.205 F 
ATOM     86  C   UNL A   1      46.422  35.777  29.569  1.00  0.00     0.022 A 
BRANCH  84  87
ATOM     87  S   UNL A   1      45.426  36.977  27.309  1.00  0.00     0.127 S 
ATOM     88  O   UNL A   1      43.984  37.063  27.087  1.00  0.00    -0.237 OA
ATOM     89  O   UNL A   1      45.996  38.099  28.056  1.00  0.00    -0.237 OA
ATOM     90  O   UNL A   1      46.218  36.561  26.159  1.00  0.00    -0.744 OA
ENDBRANCH  84  87
ENDBRANCH  57  80
ENDBRANCH  31  32
ENDBRANCH  24  26
ENDBRANCH  23  24
ENDBRANCH  22  23
ENDBRANCH   1  22
TORSDOF 17
ENDMDL
