MODEL 1
REMARK VINA RESULT:     -12.0      0.000      0.000
REMARK SMILES CCc1ccc2[nH]c(C(=O)c3cc(C)ccn3)c(CC(=O)OCCOC(=O)c3ccc(-c4c5nc(c(-c6cccc(S(=O)(=O)[O-])c6F)c6ccc([nH]6)c(-c6cccc(S(=O)(=O)[O-])c6F)c6nc(c(-c7cccc(S(=O)(=O)[O-])c7F)c7ccc4[nH]7)C=C6)C=C5)cc3)c2c1
REMARK SMILES IDX 23 1 22 2 20 3 21 4 19 5 18 6 3 7 4 8 92 9 5 10 91 11 6 12
REMARK SMILES IDX 7 13 8 14 2 16 1 17 9 18 10 19 11 20 12 21 17 22 13 23 16 24
REMARK SMILES IDX 14 25 15 26 24 27 25 28 26 29 27 30 28 31 29 32 90 33 30 34
REMARK SMILES IDX 89 35 31 36 32 37 33 38 83 39 34 40 88 41 82 42 84 43 35 44
REMARK SMILES IDX 87 45 81 46 80 47 36 49 68 50 48 51 67 52 49 53 52 54 66 55
REMARK SMILES IDX 85 56 50 57 51 58 65 60 86 61 53 62 37 63 38 64 46 65 39 66
REMARK SMILES IDX 41 67 47 68 40 69 42 70 43 71 44 72 45 73 69 74 70 75 78 76
REMARK SMILES IDX 71 77 73 78 79 79 72 80 74 81 75 82 76 83 77 84 54 85 55 86
REMARK SMILES IDX 63 87 56 88 58 89 64 90 57 91 59 92 60 93 61 94 62 95
REMARK H PARENT 7 15 84 48 52 59
REMARK Flexibility Score: inf
ROOT
ATOM      1  C   UNL A   1      36.167  21.440  24.267  1.00  0.00     0.274 C 
ENDROOT
BRANCH   1   2
ATOM      2  O   UNL A   1      36.482  22.835  24.078  1.00  0.00    -0.462 OA
BRANCH   2   3
ATOM      3  C   UNL A   1      35.435  23.696  24.199  1.00  0.00     0.310 C 
ATOM      4  O   UNL A   1      34.770  24.108  23.252  1.00  0.00    -0.252 OA
BRANCH   3   5
ATOM      5  C   UNL A   1      35.096  24.084  25.623  1.00  0.00     0.161 C 
BRANCH   5   6
ATOM      6  C   UNL A   1      33.644  24.050  25.995  1.00  0.00     0.000 A 
ATOM      7  C   UNL A   1      31.734  27.202  24.972  1.00  0.00    -0.048 A 
ATOM      8  C   UNL A   1      30.481  26.727  25.388  1.00  0.00     0.006 A 
ATOM      9  C   UNL A   1      32.868  26.416  25.218  1.00  0.00     0.014 A 
ATOM     10  C   UNL A   1      30.326  25.485  26.019  1.00  0.00     0.027 A 
ATOM     11  C   UNL A   1      32.732  25.133  25.791  1.00  0.00     0.004 A 
ATOM     12  C   UNL A   1      31.472  24.703  26.185  1.00  0.00     0.046 A 
ATOM     13  N   UNL A   1      31.627  23.435  26.696  1.00  0.00    -0.352 N 
ATOM     14  C   UNL A   1      32.886  22.953  26.406  1.00  0.00     0.093 A 
ATOM     15  H   UNL A   1      30.936  22.943  27.198  1.00  0.00     0.167 HD
BRANCH   7  16
ATOM     16  C   UNL A   1      31.804  28.528  24.245  1.00  0.00     0.032 C 
ATOM     17  C   UNL A   1      32.883  29.505  24.701  1.00  0.00     0.009 C 
ENDBRANCH   7  16
BRANCH  14  18
ATOM     18  C   UNL A   1      33.258  21.546  26.430  1.00  0.00     0.227 C 
ATOM     19  O   UNL A   1      34.029  21.073  27.261  1.00  0.00    -0.285 OA
BRANCH  18  20
ATOM     20  C   UNL A   1      32.814  20.653  25.333  1.00  0.00     0.113 A 
ATOM     21  C   UNL A   1      32.505  21.204  24.094  1.00  0.00     0.036 A 
ATOM     22  N   UNL A   1      32.781  19.330  25.606  1.00  0.00    -0.253 NA
ATOM     23  C   UNL A   1      32.156  20.336  23.057  1.00  0.00    -0.047 A 
ATOM     24  C   UNL A   1      32.528  18.511  24.567  1.00  0.00     0.112 A 
ATOM     25  C   UNL A   1      31.778  20.854  21.702  1.00  0.00     0.044 C 
ATOM     26  C   UNL A   1      32.207  18.960  23.294  1.00  0.00     0.023 A 
ENDBRANCH  18  20
ENDBRANCH  14  18
ENDBRANCH   5   6
ENDBRANCH   3   5
ENDBRANCH   2   3
ENDBRANCH   1   2
BRANCH   1  27
ATOM     27  C   UNL A   1      37.316  20.726  24.972  1.00  0.00     0.275 C 
BRANCH  27  28
ATOM     28  O   UNL A   1      37.801  21.543  26.050  1.00  0.00    -0.458 OA
BRANCH  28  29
ATOM     29  C   UNL A   1      39.129  21.450  26.284  1.00  0.00     0.338 C 
ATOM     30  O   UNL A   1      39.821  20.446  26.173  1.00  0.00    -0.246 OA
BRANCH  29  31
ATOM     31  C   UNL A   1      39.658  22.740  26.766  1.00  0.00     0.060 A 
ATOM     32  C   UNL A   1      39.132  23.955  26.323  1.00  0.00     0.016 A 
ATOM     33  C   UNL A   1      40.762  22.726  27.618  1.00  0.00     0.016 A 
ATOM     34  C   UNL A   1      39.768  25.151  26.661  1.00  0.00     0.010 A 
ATOM     35  C   UNL A   1      41.328  23.930  28.041  1.00  0.00     0.010 A 
ATOM     36  C   UNL A   1      40.857  25.156  27.547  1.00  0.00    -0.014 A 
BRANCH  36  37
ATOM     37  C   UNL A   1      41.485  26.433  27.990  1.00  0.00     0.031 A 
ATOM     38  C   UNL A   1      40.689  27.461  28.749  1.00  0.00     0.074 A 
ATOM     39  C   UNL A   1      42.765  26.695  27.655  1.00  0.00     0.049 A 
ATOM     40  N   UNL A   1      41.006  28.698  29.041  1.00  0.00    -0.248 NA
ATOM     41  C   UNL A   1      39.357  27.057  29.229  1.00  0.00     0.031 C 
ATOM     42  C   UNL A   1      43.648  25.792  26.915  1.00  0.00     0.029 A 
ATOM     43  N   UNL A   1      43.541  27.806  27.879  1.00  0.00    -0.354 N 
ATOM     44  C   UNL A   1      39.898  29.237  29.684  1.00  0.00     0.074 A 
ATOM     45  C   UNL A   1      38.897  28.191  29.744  1.00  0.00     0.031 C 
ATOM     46  C   UNL A   1      44.846  26.371  26.764  1.00  0.00     0.029 A 
ATOM     47  C   UNL A   1      44.799  27.715  27.328  1.00  0.00     0.049 A 
ATOM     48  H   UNL A   1      43.229  28.592  28.383  1.00  0.00     0.167 HD
ATOM     49  C   UNL A   1      39.735  30.483  30.191  1.00  0.00     0.034 A 
ATOM     50  C   UNL A   1      45.795  28.617  27.249  1.00  0.00     0.034 A 
ATOM     51  C   UNL A   1      40.755  31.500  30.193  1.00  0.00     0.049 A 
ATOM     52  C   UNL A   1      45.597  29.981  27.842  1.00  0.00     0.074 A 
ATOM     53  C   UNL A   1      40.688  32.785  30.704  1.00  0.00     0.029 A 
ATOM     54  N   UNL A   1      42.034  31.342  29.681  1.00  0.00    -0.354 N 
ATOM     55  N   UNL A   1      44.554  30.461  28.473  1.00  0.00    -0.248 NA
ATOM     56  C   UNL A   1      46.716  30.926  27.722  1.00  0.00     0.031 C 
ATOM     57  C   UNL A   1      41.928  33.402  30.507  1.00  0.00     0.029 A 
ATOM     58  C   UNL A   1      42.769  32.501  29.875  1.00  0.00     0.049 A 
ATOM     59  H   UNL A   1      42.371  30.526  29.245  1.00  0.00     0.167 HD
ATOM     60  C   UNL A   1      44.893  31.758  28.836  1.00  0.00     0.074 A 
ATOM     61  C   UNL A   1      46.250  31.979  28.382  1.00  0.00     0.031 C 
ATOM     62  C   UNL A   1      44.136  32.691  29.464  1.00  0.00     0.034 A 
BRANCH  49  63
ATOM     63  C   UNL A   1      38.418  30.811  30.843  1.00  0.00     0.023 A 
ATOM     64  C   UNL A   1      38.221  30.480  32.198  1.00  0.00     0.012 A 
ATOM     65  C   UNL A   1      37.414  31.516  30.149  1.00  0.00     0.148 A 
ATOM     66  C   UNL A   1      37.038  30.829  32.849  1.00  0.00     0.002 A 
ATOM     67  C   UNL A   1      36.251  31.889  30.814  1.00  0.00     0.091 A 
ATOM     68  F   UNL A   1      37.610  31.802  28.854  1.00  0.00    -0.205 F 
ATOM     69  C   UNL A   1      36.059  31.543  32.162  1.00  0.00     0.022 A 
BRANCH  67  70
ATOM     70  S   UNL A   1      34.962  32.865  30.028  1.00  0.00     0.127 S 
ATOM     71  O   UNL A   1      35.733  33.975  29.469  1.00  0.00    -0.237 OA
ATOM     72  O   UNL A   1      34.427  31.935  29.032  1.00  0.00    -0.237 OA
ATOM     73  O   UNL A   1      34.027  33.215  31.089  1.00  0.00    -0.744 OA
ENDBRANCH  67  70
ENDBRANCH  49  63
BRANCH  50  74
ATOM     74  C   UNL A   1      47.084  28.224  26.616  1.00  0.00     0.023 A 
ATOM     75  C   UNL A   1      48.149  27.803  27.434  1.00  0.00     0.012 A 
ATOM     76  C   UNL A   1      47.232  28.181  25.216  1.00  0.00     0.148 A 
ATOM     77  C   UNL A   1      49.342  27.350  26.869  1.00  0.00     0.002 A 
ATOM     78  C   UNL A   1      48.400  27.675  24.659  1.00  0.00     0.091 A 
ATOM     79  F   UNL A   1      46.214  28.610  24.454  1.00  0.00    -0.205 F 
ATOM     80  C   UNL A   1      49.461  27.271  25.483  1.00  0.00     0.022 A 
BRANCH  78  81
ATOM     81  S   UNL A   1      48.572  27.399  22.891  1.00  0.00     0.127 S 
ATOM     82  O   UNL A   1      49.944  27.837  22.652  1.00  0.00    -0.237 OA
ATOM     83  O   UNL A   1      48.360  25.955  22.783  1.00  0.00    -0.237 OA
ATOM     84  O   UNL A   1      47.528  28.202  22.270  1.00  0.00    -0.744 OA
ENDBRANCH  78  81
ENDBRANCH  50  74
BRANCH  62  85
ATOM     85  C   UNL A   1      44.759  34.038  29.703  1.00  0.00     0.023 A 
ATOM     86  C   UNL A   1      45.438  34.276  30.914  1.00  0.00     0.012 A 
ATOM     87  C   UNL A   1      44.731  35.041  28.716  1.00  0.00     0.148 A 
ATOM     88  C   UNL A   1      46.060  35.501  31.150  1.00  0.00     0.002 A 
ATOM     89  C   UNL A   1      45.382  36.249  28.943  1.00  0.00     0.091 A 
ATOM     90  F   UNL A   1      44.058  34.805  27.580  1.00  0.00    -0.205 F 
ATOM     91  C   UNL A   1      46.041  36.482  30.162  1.00  0.00     0.022 A 
BRANCH  89  92
ATOM     92  S   UNL A   1      45.468  37.534  27.691  1.00  0.00     0.127 S 
ATOM     93  O   UNL A   1      44.074  37.961  27.604  1.00  0.00    -0.237 OA
ATOM     94  O   UNL A   1      46.367  38.514  28.304  1.00  0.00    -0.237 OA
ATOM     95  O   UNL A   1      46.009  36.889  26.502  1.00  0.00    -0.744 OA
ENDBRANCH  89  92
ENDBRANCH  62  85
ENDBRANCH  36  37
ENDBRANCH  29  31
ENDBRANCH  28  29
ENDBRANCH  27  28
ENDBRANCH   1  27
TORSDOF 18
ENDMDL
MODEL 2
REMARK VINA RESULT:     -12.0      5.174     10.121
REMARK SMILES CCc1ccc2[nH]c(C(=O)c3cc(C)ccn3)c(CC(=O)OCCOC(=O)c3ccc(-c4c5nc(c(-c6cccc(S(=O)(=O)[O-])c6F)c6ccc([nH]6)c(-c6cccc(S(=O)(=O)[O-])c6F)c6nc(c(-c7cccc(S(=O)(=O)[O-])c7F)c7ccc4[nH]7)C=C6)C=C5)cc3)c2c1
REMARK SMILES IDX 23 1 22 2 20 3 21 4 19 5 18 6 3 7 4 8 92 9 5 10 91 11 6 12
REMARK SMILES IDX 7 13 8 14 2 16 1 17 9 18 10 19 11 20 12 21 17 22 13 23 16 24
REMARK SMILES IDX 14 25 15 26 24 27 25 28 26 29 27 30 28 31 29 32 90 33 30 34
REMARK SMILES IDX 89 35 31 36 32 37 33 38 83 39 34 40 88 41 82 42 84 43 35 44
REMARK SMILES IDX 87 45 81 46 80 47 36 49 68 50 48 51 67 52 49 53 52 54 66 55
REMARK SMILES IDX 85 56 50 57 51 58 65 60 86 61 53 62 37 63 38 64 46 65 39 66
REMARK SMILES IDX 41 67 47 68 40 69 42 70 43 71 44 72 45 73 69 74 70 75 78 76
REMARK SMILES IDX 71 77 73 78 79 79 72 80 74 81 75 82 76 83 77 84 54 85 55 86
REMARK SMILES IDX 63 87 56 88 58 89 64 90 57 91 59 92 60 93 61 94 62 95
REMARK H PARENT 7 15 84 48 52 59
REMARK Flexibility Score: inf
ROOT
ATOM      1  C   UNL A   1      31.408  28.497  25.958  1.00  0.00     0.274 C 
ENDROOT
BRANCH   1   2
ATOM      2  O   UNL A   1      31.047  27.348  26.751  1.00  0.00    -0.462 OA
BRANCH   2   3
ATOM      3  C   UNL A   1      31.793  26.230  26.541  1.00  0.00     0.310 C 
ATOM      4  O   UNL A   1      31.446  25.099  26.874  1.00  0.00    -0.252 OA
BRANCH   3   5
ATOM      5  C   UNL A   1      33.092  26.465  25.800  1.00  0.00     0.161 C 
BRANCH   5   6
ATOM      6  C   UNL A   1      33.394  25.529  24.669  1.00  0.00     0.000 A 
ATOM      7  C   UNL A   1      36.609  23.518  25.172  1.00  0.00    -0.048 A 
ATOM      8  C   UNL A   1      36.456  22.749  24.009  1.00  0.00     0.006 A 
ATOM      9  C   UNL A   1      35.684  24.540  25.430  1.00  0.00     0.014 A 
ATOM     10  C   UNL A   1      35.398  22.954  23.113  1.00  0.00     0.027 A 
ATOM     11  C   UNL A   1      34.572  24.722  24.581  1.00  0.00     0.004 A 
ATOM     12  C   UNL A   1      34.460  23.936  23.442  1.00  0.00     0.046 A 
ATOM     13  N   UNL A   1      33.298  24.315  22.810  1.00  0.00    -0.352 N 
ATOM     14  C   UNL A   1      32.548  25.126  23.636  1.00  0.00     0.093 A 
ATOM     15  H   UNL A   1      33.039  24.045  21.898  1.00  0.00     0.167 HD
BRANCH   7  16
ATOM     16  C   UNL A   1      37.747  23.191  26.115  1.00  0.00     0.032 C 
ATOM     17  C   UNL A   1      38.494  24.373  26.726  1.00  0.00     0.009 C 
ENDBRANCH   7  16
BRANCH  14  18
ATOM     18  C   UNL A   1      31.123  25.379  23.472  1.00  0.00     0.227 C 
ATOM     19  O   UNL A   1      30.277  24.491  23.527  1.00  0.00    -0.285 OA
BRANCH  18  20
ATOM     20  C   UNL A   1      30.662  26.732  23.080  1.00  0.00     0.113 A 
ATOM     21  C   UNL A   1      29.332  27.080  23.283  1.00  0.00     0.036 A 
ATOM     22  N   UNL A   1      31.600  27.569  22.581  1.00  0.00    -0.253 NA
ATOM     23  C   UNL A   1      28.937  28.383  22.970  1.00  0.00    -0.047 A 
ATOM     24  C   UNL A   1      31.213  28.842  22.371  1.00  0.00     0.112 A 
ATOM     25  C   UNL A   1      27.514  28.826  23.129  1.00  0.00     0.044 C 
ATOM     26  C   UNL A   1      29.911  29.289  22.541  1.00  0.00     0.023 A 
ENDBRANCH  18  20
ENDBRANCH  14  18
ENDBRANCH   5   6
ENDBRANCH   3   5
ENDBRANCH   2   3
ENDBRANCH   1   2
BRANCH   1  27
ATOM     27  C   UNL A   1      31.697  29.695  26.855  1.00  0.00     0.275 C 
BRANCH  27  28
ATOM     28  O   UNL A   1      32.714  30.513  26.253  1.00  0.00    -0.458 OA
BRANCH  28  29
ATOM     29  C   UNL A   1      33.182  31.511  27.036  1.00  0.00     0.338 C 
ATOM     30  O   UNL A   1      32.683  32.619  27.181  1.00  0.00    -0.246 OA
BRANCH  29  31
ATOM     31  C   UNL A   1      34.450  31.112  27.676  1.00  0.00     0.060 A 
ATOM     32  C   UNL A   1      34.729  29.776  27.970  1.00  0.00     0.016 A 
ATOM     33  C   UNL A   1      35.340  32.113  28.063  1.00  0.00     0.016 A 
ATOM     34  C   UNL A   1      35.854  29.454  28.732  1.00  0.00     0.010 A 
ATOM     35  C   UNL A   1      36.519  31.775  28.729  1.00  0.00     0.010 A 
ATOM     36  C   UNL A   1      36.778  30.445  29.097  1.00  0.00    -0.014 A 
BRANCH  36  37
ATOM     37  C   UNL A   1      38.031  30.101  29.827  1.00  0.00     0.031 A 
ATOM     38  C   UNL A   1      39.092  29.250  29.181  1.00  0.00     0.074 A 
ATOM     39  C   UNL A   1      38.189  30.508  31.103  1.00  0.00     0.049 A 
ATOM     40  N   UNL A   1      40.145  28.691  29.724  1.00  0.00    -0.248 NA
ATOM     41  C   UNL A   1      38.946  28.975  27.742  1.00  0.00     0.031 C 
ATOM     42  C   UNL A   1      37.238  31.330  31.853  1.00  0.00     0.029 A 
ATOM     43  N   UNL A   1      39.201  30.270  32.002  1.00  0.00    -0.354 N 
ATOM     44  C   UNL A   1      40.752  27.954  28.715  1.00  0.00     0.074 A 
ATOM     45  C   UNL A   1      39.952  28.138  27.521  1.00  0.00     0.031 C 
ATOM     46  C   UNL A   1      37.716  31.546  33.086  1.00  0.00     0.029 A 
ATOM     47  C   UNL A   1      38.970  30.820  33.242  1.00  0.00     0.049 A 
ATOM     48  H   UNL A   1      40.011  29.757  31.781  1.00  0.00     0.167 HD
ATOM     49  C   UNL A   1      41.880  27.205  28.773  1.00  0.00     0.034 A 
ATOM     50  C   UNL A   1      39.666  30.726  34.392  1.00  0.00     0.034 A 
ATOM     51  C   UNL A   1      42.712  27.079  29.942  1.00  0.00     0.049 A 
ATOM     52  C   UNL A   1      40.926  29.911  34.421  1.00  0.00     0.074 A 
ATOM     53  C   UNL A   1      43.886  26.359  30.088  1.00  0.00     0.029 A 
ATOM     54  N   UNL A   1      42.475  27.703  31.157  1.00  0.00    -0.354 N 
ATOM     55  N   UNL A   1      41.500  29.247  33.448  1.00  0.00    -0.248 NA
ATOM     56  C   UNL A   1      41.640  29.840  35.704  1.00  0.00     0.031 C 
ATOM     57  C   UNL A   1      44.362  26.554  31.389  1.00  0.00     0.029 A 
ATOM     58  C   UNL A   1      43.485  27.396  32.054  1.00  0.00     0.049 A 
ATOM     59  H   UNL A   1      41.702  28.281  31.353  1.00  0.00     0.167 HD
ATOM     60  C   UNL A   1      42.648  28.689  33.996  1.00  0.00     0.074 A 
ATOM     61  C   UNL A   1      42.705  29.118  35.378  1.00  0.00     0.031 C 
ATOM     62  C   UNL A   1      43.557  27.871  33.411  1.00  0.00     0.034 A 
BRANCH  49  63
ATOM     63  C   UNL A   1      42.323  26.500  27.519  1.00  0.00     0.023 A 
ATOM     64  C   UNL A   1      42.993  27.231  26.519  1.00  0.00     0.012 A 
ATOM     65  C   UNL A   1      42.153  25.109  27.363  1.00  0.00     0.148 A 
ATOM     66  C   UNL A   1      43.475  26.595  25.376  1.00  0.00     0.002 A 
ATOM     67  C   UNL A   1      42.664  24.476  26.235  1.00  0.00     0.091 A 
ATOM     68  F   UNL A   1      41.492  24.434  28.314  1.00  0.00    -0.205 F 
ATOM     69  C   UNL A   1      43.320  25.218  25.238  1.00  0.00     0.022 A 
BRANCH  67  70
ATOM     70  S   UNL A   1      42.568  22.696  26.002  1.00  0.00     0.127 S 
ATOM     71  O   UNL A   1      43.149  22.542  24.669  1.00  0.00    -0.237 OA
ATOM     72  O   UNL A   1      43.405  22.192  27.091  1.00  0.00    -0.237 OA
ATOM     73  O   UNL A   1      41.157  22.356  26.119  1.00  0.00    -0.744 OA
ENDBRANCH  67  70
ENDBRANCH  49  63
BRANCH  50  74
ATOM     74  C   UNL A   1      39.191  31.468  35.592  1.00  0.00     0.023 A 
ATOM     75  C   UNL A   1      38.187  30.899  36.397  1.00  0.00     0.012 A 
ATOM     76  C   UNL A   1      39.785  32.683  35.987  1.00  0.00     0.148 A 
ATOM     77  C   UNL A   1      37.777  31.529  37.572  1.00  0.00     0.002 A 
ATOM     78  C   UNL A   1      39.414  33.275  37.188  1.00  0.00     0.091 A 
ATOM     79  F   UNL A   1      40.724  33.221  35.194  1.00  0.00    -0.205 F 
ATOM     80  C   UNL A   1      38.402  32.707  37.976  1.00  0.00     0.022 A 
BRANCH  78  81
ATOM     81  S   UNL A   1      40.275  34.707  37.852  1.00  0.00     0.127 S 
ATOM     82  O   UNL A   1      41.664  34.258  37.828  1.00  0.00    -0.237 OA
ATOM     83  O   UNL A   1      39.946  35.744  36.873  1.00  0.00    -0.237 OA
ATOM     84  O   UNL A   1      39.698  34.929  39.171  1.00  0.00    -0.744 OA
ENDBRANCH  78  81
ENDBRANCH  50  74
BRANCH  62  85
ATOM     85  C   UNL A   1      44.698  27.388  34.263  1.00  0.00     0.023 A 
ATOM     86  C   UNL A   1      45.884  28.147  34.320  1.00  0.00     0.012 A 
ATOM     87  C   UNL A   1      44.580  26.228  35.052  1.00  0.00     0.148 A 
ATOM     88  C   UNL A   1      46.944  27.747  35.131  1.00  0.00     0.002 A 
ATOM     89  C   UNL A   1      45.629  25.852  35.884  1.00  0.00     0.091 A 
ATOM     90  F   UNL A   1      43.454  25.504  34.964  1.00  0.00    -0.205 F 
ATOM     91  C   UNL A   1      46.813  26.607  35.920  1.00  0.00     0.022 A 
BRANCH  89  92
ATOM     92  S   UNL A   1      45.509  24.439  36.987  1.00  0.00     0.127 S 
ATOM     93  O   UNL A   1      44.339  24.786  37.792  1.00  0.00    -0.237 OA
ATOM     94  O   UNL A   1      45.301  23.328  36.058  1.00  0.00    -0.237 OA
ATOM     95  O   UNL A   1      46.777  24.391  37.703  1.00  0.00    -0.744 OA
ENDBRANCH  89  92
ENDBRANCH  62  85
ENDBRANCH  36  37
ENDBRANCH  29  31
ENDBRANCH  28  29
ENDBRANCH  27  28
ENDBRANCH   1  27
TORSDOF 18
ENDMDL
MODEL 3
REMARK VINA RESULT:     -11.8      5.194     10.224
REMARK SMILES CCc1ccc2[nH]c(C(=O)c3cc(C)ccn3)c(CC(=O)OCCOC(=O)c3ccc(-c4c5nc(c(-c6cccc(S(=O)(=O)[O-])c6F)c6ccc([nH]6)c(-c6cccc(S(=O)(=O)[O-])c6F)c6nc(c(-c7cccc(S(=O)(=O)[O-])c7F)c7ccc4[nH]7)C=C6)C=C5)cc3)c2c1
REMARK SMILES IDX 23 1 22 2 20 3 21 4 19 5 18 6 3 7 4 8 92 9 5 10 91 11 6 12
REMARK SMILES IDX 7 13 8 14 2 16 1 17 9 18 10 19 11 20 12 21 17 22 13 23 16 24
REMARK SMILES IDX 14 25 15 26 24 27 25 28 26 29 27 30 28 31 29 32 90 33 30 34
REMARK SMILES IDX 89 35 31 36 32 37 33 38 83 39 34 40 88 41 82 42 84 43 35 44
REMARK SMILES IDX 87 45 81 46 80 47 36 49 68 50 48 51 67 52 49 53 52 54 66 55
REMARK SMILES IDX 85 56 50 57 51 58 65 60 86 61 53 62 37 63 38 64 46 65 39 66
REMARK SMILES IDX 41 67 47 68 40 69 42 70 43 71 44 72 45 73 69 74 70 75 78 76
REMARK SMILES IDX 71 77 73 78 79 79 72 80 74 81 75 82 76 83 77 84 54 85 55 86
REMARK SMILES IDX 63 87 56 88 58 89 64 90 57 91 59 92 60 93 61 94 62 95
REMARK H PARENT 7 15 84 48 52 59
REMARK Flexibility Score: inf
ROOT
ATOM      1  C   UNL A   1      31.557  29.112  26.682  1.00  0.00     0.274 C 
ENDROOT
BRANCH   1   2
ATOM      2  O   UNL A   1      32.827  28.436  26.795  1.00  0.00    -0.462 OA
BRANCH   2   3
ATOM      3  C   UNL A   1      32.812  27.105  26.517  1.00  0.00     0.310 C 
ATOM      4  O   UNL A   1      31.914  26.340  26.862  1.00  0.00    -0.252 OA
BRANCH   3   5
ATOM      5  C   UNL A   1      33.978  26.619  25.683  1.00  0.00     0.161 C 
BRANCH   5   6
ATOM      6  C   UNL A   1      33.648  26.092  24.319  1.00  0.00     0.000 A 
ATOM      7  C   UNL A   1      33.683  22.272  24.112  1.00  0.00    -0.048 A 
ATOM      8  C   UNL A   1      33.245  22.218  22.780  1.00  0.00     0.006 A 
ATOM      9  C   UNL A   1      33.937  23.526  24.686  1.00  0.00     0.014 A 
ATOM     10  C   UNL A   1      33.032  23.374  22.016  1.00  0.00     0.027 A 
ATOM     11  C   UNL A   1      33.667  24.707  23.962  1.00  0.00     0.004 A 
ATOM     12  C   UNL A   1      33.232  24.604  22.647  1.00  0.00     0.046 A 
ATOM     13  N   UNL A   1      33.043  25.889  22.190  1.00  0.00    -0.352 N 
ATOM     14  C   UNL A   1      33.095  26.781  23.239  1.00  0.00     0.093 A 
ATOM     15  H   UNL A   1      32.892  26.134  21.248  1.00  0.00     0.167 HD
BRANCH   7  16
ATOM     16  C   UNL A   1      33.830  20.978  24.882  1.00  0.00     0.032 C 
ATOM     17  C   UNL A   1      32.867  19.851  24.522  1.00  0.00     0.009 C 
ENDBRANCH   7  16
BRANCH  14  18
ATOM     18  C   UNL A   1      32.554  28.133  23.202  1.00  0.00     0.227 C 
ATOM     19  O   UNL A   1      33.258  29.136  23.282  1.00  0.00    -0.285 OA
BRANCH  18  20
ATOM     20  C   UNL A   1      31.085  28.332  23.211  1.00  0.00     0.113 A 
ATOM     21  C   UNL A   1      30.566  29.565  22.834  1.00  0.00     0.036 A 
ATOM     22  N   UNL A   1      30.332  27.262  23.552  1.00  0.00    -0.253 NA
ATOM     23  C   UNL A   1      29.177  29.707  22.784  1.00  0.00    -0.047 A 
ATOM     24  C   UNL A   1      28.999  27.399  23.411  1.00  0.00     0.112 A 
ATOM     25  C   UNL A   1      28.540  31.014  22.418  1.00  0.00     0.044 C 
ATOM     26  C   UNL A   1      28.383  28.586  23.043  1.00  0.00     0.023 A 
ENDBRANCH  18  20
ENDBRANCH  14  18
ENDBRANCH   5   6
ENDBRANCH   3   5
ENDBRANCH   2   3
ENDBRANCH   1   2
BRANCH   1  27
ATOM     27  C   UNL A   1      31.766  30.608  26.473  1.00  0.00     0.275 C 
BRANCH  27  28
ATOM     28  O   UNL A   1      33.172  30.904  26.492  1.00  0.00    -0.458 OA
BRANCH  28  29
ATOM     29  C   UNL A   1      33.529  31.934  27.292  1.00  0.00     0.338 C 
ATOM     30  O   UNL A   1      32.957  33.012  27.390  1.00  0.00    -0.246 OA
BRANCH  29  31
ATOM     31  C   UNL A   1      34.772  31.616  28.018  1.00  0.00     0.060 A 
ATOM     32  C   UNL A   1      35.810  32.542  28.127  1.00  0.00     0.016 A 
ATOM     33  C   UNL A   1      34.929  30.326  28.528  1.00  0.00     0.016 A 
ATOM     34  C   UNL A   1      37.037  32.149  28.666  1.00  0.00     0.010 A 
ATOM     35  C   UNL A   1      36.120  29.971  29.164  1.00  0.00     0.010 A 
ATOM     36  C   UNL A   1      37.199  30.868  29.216  1.00  0.00    -0.014 A 
BRANCH  36  37
ATOM     37  C   UNL A   1      38.472  30.468  29.879  1.00  0.00     0.031 A 
ATOM     38  C   UNL A   1      39.413  29.494  29.220  1.00  0.00     0.074 A 
ATOM     39  C   UNL A   1      38.757  30.939  31.110  1.00  0.00     0.049 A 
ATOM     40  N   UNL A   1      40.457  28.885  29.725  1.00  0.00    -0.248 NA
ATOM     41  C   UNL A   1      39.138  29.142  27.816  1.00  0.00     0.031 C 
ATOM     42  C   UNL A   1      37.932  31.882  31.867  1.00  0.00     0.029 A 
ATOM     43  N   UNL A   1      39.813  30.676  31.950  1.00  0.00    -0.354 N 
ATOM     44  C   UNL A   1      40.927  28.039  28.728  1.00  0.00     0.074 A 
ATOM     45  C   UNL A   1      40.057  28.213  27.584  1.00  0.00     0.031 C 
ATOM     46  C   UNL A   1      38.517  32.135  33.045  1.00  0.00     0.029 A 
ATOM     47  C   UNL A   1      39.719  31.319  33.163  1.00  0.00     0.049 A 
ATOM     48  H   UNL A   1      40.561  30.085  31.708  1.00  0.00     0.167 HD
ATOM     49  C   UNL A   1      41.995  27.205  28.758  1.00  0.00     0.034 A 
ATOM     50  C   UNL A   1      40.490  31.241  34.264  1.00  0.00     0.034 A 
ATOM     51  C   UNL A   1      42.901  27.084  29.872  1.00  0.00     0.049 A 
ATOM     52  C   UNL A   1      41.682  30.328  34.261  1.00  0.00     0.074 A 
ATOM     53  C   UNL A   1      44.023  26.281  29.985  1.00  0.00     0.029 A 
ATOM     54  N   UNL A   1      42.804  27.801  31.055  1.00  0.00    -0.354 N 
ATOM     55  N   UNL A   1      42.128  29.560  33.298  1.00  0.00    -0.248 NA
ATOM     56  C   UNL A   1      42.483  30.279  35.492  1.00  0.00     0.031 C 
ATOM     57  C   UNL A   1      44.609  26.517  31.233  1.00  0.00     0.029 A 
ATOM     58  C   UNL A   1      43.853  27.468  31.898  1.00  0.00     0.049 A 
ATOM     59  H   UNL A   1      42.096  28.451  31.265  1.00  0.00     0.167 HD
ATOM     60  C   UNL A   1      43.267  28.944  33.800  1.00  0.00     0.074 A 
ATOM     61  C   UNL A   1      43.461  29.453  35.143  1.00  0.00     0.031 C 
ATOM     62  C   UNL A   1      44.063  28.019  33.211  1.00  0.00     0.034 A 
BRANCH  49  63
ATOM     63  C   UNL A   1      42.286  26.388  27.528  1.00  0.00     0.023 A 
ATOM     64  C   UNL A   1      42.953  26.993  26.444  1.00  0.00     0.012 A 
ATOM     65  C   UNL A   1      41.979  25.014  27.472  1.00  0.00     0.148 A 
ATOM     66  C   UNL A   1      43.296  26.247  25.316  1.00  0.00     0.002 A 
ATOM     67  C   UNL A   1      42.353  24.270  26.358  1.00  0.00     0.091 A 
ATOM     68  F   UNL A   1      41.324  24.462  28.503  1.00  0.00    -0.205 F 
ATOM     69  C   UNL A   1      43.007  24.886  25.278  1.00  0.00     0.022 A 
BRANCH  67  70
ATOM     70  S   UNL A   1      42.079  22.497  26.246  1.00  0.00     0.127 S 
ATOM     71  O   UNL A   1      42.755  22.018  27.452  1.00  0.00    -0.237 OA
ATOM     72  O   UNL A   1      40.620  22.401  26.291  1.00  0.00    -0.237 OA
ATOM     73  O   UNL A   1      42.672  22.082  24.983  1.00  0.00    -0.744 OA
ENDBRANCH  67  70
ENDBRANCH  49  63
BRANCH  50  74
ATOM     74  C   UNL A   1      40.166  32.093  35.441  1.00  0.00     0.023 A 
ATOM     75  C   UNL A   1      40.815  33.334  35.588  1.00  0.00     0.012 A 
ATOM     76  C   UNL A   1      39.165  31.727  36.361  1.00  0.00     0.148 A 
ATOM     77  C   UNL A   1      40.476  34.192  36.633  1.00  0.00     0.002 A 
ATOM     78  C   UNL A   1      38.791  32.611  37.366  1.00  0.00     0.091 A 
ATOM     79  F   UNL A   1      38.576  30.530  36.218  1.00  0.00    -0.205 F 
ATOM     80  C   UNL A   1      39.454  33.839  37.511  1.00  0.00     0.022 A 
BRANCH  78  81
ATOM     81  S   UNL A   1      37.385  32.296  38.440  1.00  0.00     0.127 S 
ATOM     82  O   UNL A   1      37.792  32.967  39.670  1.00  0.00    -0.237 OA
ATOM     83  O   UNL A   1      36.293  32.946  37.715  1.00  0.00    -0.237 OA
ATOM     84  O   UNL A   1      37.271  30.845  38.512  1.00  0.00    -0.744 OA
ENDBRANCH  78  81
ENDBRANCH  50  74
BRANCH  62  85
ATOM     85  C   UNL A   1      45.225  27.498  34.012  1.00  0.00     0.023 A 
ATOM     86  C   UNL A   1      46.456  28.182  33.964  1.00  0.00     0.012 A 
ATOM     87  C   UNL A   1      45.086  26.380  34.856  1.00  0.00     0.148 A 
ATOM     88  C   UNL A   1      47.539  27.746  34.725  1.00  0.00     0.002 A 
ATOM     89  C   UNL A   1      46.160  25.971  35.639  1.00  0.00     0.091 A 
ATOM     90  F   UNL A   1      43.914  25.727  34.869  1.00  0.00    -0.205 F 
ATOM     91  C   UNL A   1      47.388  26.649  35.569  1.00  0.00     0.022 A 
BRANCH  89  92
ATOM     92  S   UNL A   1      46.024  24.614  36.808  1.00  0.00     0.127 S 
ATOM     93  O   UNL A   1      44.767  24.925  37.484  1.00  0.00    -0.237 OA
ATOM     94  O   UNL A   1      45.969  23.444  35.930  1.00  0.00    -0.237 OA
ATOM     95  O   UNL A   1      47.222  24.686  37.635  1.00  0.00    -0.744 OA
ENDBRANCH  89  92
ENDBRANCH  62  85
ENDBRANCH  36  37
ENDBRANCH  29  31
ENDBRANCH  28  29
ENDBRANCH  27  28
ENDBRANCH   1  27
TORSDOF 18
ENDMDL
