MODEL 1
REMARK VINA RESULT:     -11.7      0.000      0.000
REMARK SMILES COc1ccc(-c2cc(Cl)cc3c2O[C@H](C(F)(F)F)C(C(=O)OCCOC(=O)c2ccc(-c4c5nc(c(-c6cccc(S(=O)(=O)[O-])c6F)c6ccc([nH]6)c(-c6cccc(S(=O)(=O)[O-])c6F)c6nc(c(-c7cccc(S(=O)(=O)[O-])c7F)c7ccc4[nH]7)C=C6)C=C5)cc2)=C3)cc1C
REMARK SMILES IDX 25 1 24 2 23 3 21 4 22 5 20 6 7 7 8 8 13 9 9 10 12 11 14 12
REMARK SMILES IDX 10 13 11 14 92 15 15 16 6 17 3 18 4 19 94 20 5 21 93 22
REMARK SMILES IDX 95 23 2 24 1 25 16 26 17 27 18 28 19 29 26 30 27 31 28 32
REMARK SMILES IDX 29 33 30 34 91 35 31 36 90 37 32 38 33 39 34 40 84 41 35 42
REMARK SMILES IDX 89 43 83 44 85 45 36 46 88 47 82 48 81 49 37 51 69 52 49 53
REMARK SMILES IDX 68 54 50 55 53 56 67 57 86 58 51 59 52 60 66 62 87 63 54 64
REMARK SMILES IDX 38 65 39 66 47 67 40 68 42 69 48 70 41 71 43 72 44 73 45 74
REMARK SMILES IDX 46 75 70 76 71 77 79 78 72 79 74 80 80 81 73 82 75 83 76 84
REMARK SMILES IDX 77 85 78 86 55 87 56 88 64 89 57 90 59 91 65 92 58 93 60 94
REMARK SMILES IDX 61 95 62 96 63 97
REMARK H PARENT 85 50 53 61
REMARK Flexibility Score: inf
ROOT
ATOM      1  C   UNL A   1      45.442  26.740  26.504  1.00  0.00     0.275 C 
ENDROOT
BRANCH   1   2
ATOM      2  C   UNL A   1      44.167  27.163  27.388  1.00  0.00     0.275 C 
BRANCH   2   3
ATOM      3  O   UNL A   1      42.780  26.907  27.046  1.00  0.00    -0.459 OA
BRANCH   3   4
ATOM      4  C   UNL A   1      41.996  26.129  27.954  1.00  0.00     0.338 C 
ATOM      5  O   UNL A   1      42.764  25.968  28.921  1.00  0.00    -0.246 OA
BRANCH   4   6
ATOM      6  C   UNL A   1      40.354  25.115  27.168  1.00  0.00     0.087 C 
ATOM      7  C   UNL A   1      39.567  21.863  26.396  1.00  0.00     0.026 A 
ATOM      8  C   UNL A   1      38.538  21.153  25.749  1.00  0.00     0.033 A 
ATOM      9  C   UNL A   1      39.159  23.109  26.912  1.00  0.00     0.135 A 
ATOM     10  C   UNL A   1      37.300  21.772  25.511  1.00  0.00     0.042 A 
ATOM     11  C   UNL A   1      38.300  23.783  26.161  1.00  0.00     0.019 A 
ATOM     12  O   UNL A   1      39.828  24.123  27.617  1.00  0.00    -0.475 OA
ATOM     13  Cl  UNL A   1      36.056  20.879  24.723  1.00  0.00    -0.084 Cl
ATOM     14  C   UNL A   1      37.181  23.150  25.685  1.00  0.00     0.032 A 
ATOM     15  C   UNL A   1      39.225  24.909  25.903  1.00  0.00     0.027 C 
ATOM     16  C   UNL A   1      40.557  25.843  28.410  1.00  0.00     0.316 C 
BRANCH   7  17
ATOM     17  C   UNL A   1      40.982  21.408  26.132  1.00  0.00    -0.014 A 
ATOM     18  C   UNL A   1      43.670  20.461  25.696  1.00  0.00     0.121 A 
ATOM     19  C   UNL A   1      43.319  21.807  25.527  1.00  0.00     0.047 A 
ATOM     20  C   UNL A   1      42.698  19.562  26.136  1.00  0.00    -0.008 A 
ATOM     21  C   UNL A   1      42.009  22.279  25.768  1.00  0.00     0.013 A 
ATOM     22  C   UNL A   1      41.367  20.044  26.300  1.00  0.00     0.016 A 
ATOM     23  C   UNL A   1      43.026  18.134  26.486  1.00  0.00     0.048 C 
BRANCH  18  24
ATOM     24  O   UNL A   1      45.005  20.177  25.555  1.00  0.00    -0.496 OA
ATOM     25  C   UNL A   1      45.498  20.167  24.215  1.00  0.00     0.278 C 
ENDBRANCH  18  24
ENDBRANCH   7  17
BRANCH  16  26
ATOM     26  C   UNL A   1      39.937  27.570  29.025  1.00  0.00     0.430 C 
ATOM     27  F   UNL A   1      40.683  28.251  29.935  1.00  0.00    -0.167 F 
ATOM     28  F   UNL A   1      39.701  28.408  27.976  1.00  0.00    -0.167 F 
ATOM     29  F   UNL A   1      38.720  27.527  29.655  1.00  0.00    -0.167 F 
ENDBRANCH  16  26
ENDBRANCH   4   6
ENDBRANCH   3   4
ENDBRANCH   2   3
ENDBRANCH   1   2
BRANCH   1  30
ATOM     30  O   UNL A   1      45.764  25.489  25.750  1.00  0.00    -0.458 OA
BRANCH  30  31
ATOM     31  C   UNL A   1      46.452  24.363  26.137  1.00  0.00     0.338 C 
ATOM     32  O   UNL A   1      46.566  23.325  25.513  1.00  0.00    -0.246 OA
BRANCH  31  33
ATOM     33  C   UNL A   1      46.764  24.480  27.538  1.00  0.00     0.060 A 
ATOM     34  C   UNL A   1      48.263  25.327  28.554  1.00  0.00     0.016 A 
ATOM     35  C   UNL A   1      45.275  23.805  28.606  1.00  0.00     0.016 A 
ATOM     36  C   UNL A   1      47.931  25.804  30.453  1.00  0.00     0.010 A 
ATOM     37  C   UNL A   1      44.966  24.189  30.504  1.00  0.00     0.010 A 
ATOM     38  C   UNL A   1      46.204  25.441  31.375  1.00  0.00    -0.014 A 
BRANCH  38  39
ATOM     39  C   UNL A   1      45.610  25.742  32.711  1.00  0.00     0.031 A 
ATOM     40  C   UNL A   1      44.762  26.934  33.004  1.00  0.00     0.074 A 
ATOM     41  C   UNL A   1      45.327  24.636  33.461  1.00  0.00     0.049 A 
ATOM     42  N   UNL A   1      44.397  27.299  34.196  1.00  0.00    -0.248 NA
ATOM     43  C   UNL A   1      44.206  27.787  31.962  1.00  0.00     0.031 C 
ATOM     44  C   UNL A   1      44.054  24.369  34.138  1.00  0.00     0.029 A 
ATOM     45  N   UNL A   1      46.021  23.428  33.644  1.00  0.00    -0.354 N 
ATOM     46  C   UNL A   1      43.419  28.272  34.044  1.00  0.00     0.074 A 
ATOM     47  C   UNL A   1      43.490  28.671  32.664  1.00  0.00     0.031 C 
ATOM     48  C   UNL A   1      44.124  23.194  34.783  1.00  0.00     0.029 A 
ATOM     49  C   UNL A   1      45.505  22.760  34.762  1.00  0.00     0.049 A 
ATOM     50  H   UNL A   1      46.755  23.103  33.076  1.00  0.00     0.167 HD
ATOM     51  C   UNL A   1      42.439  28.465  34.978  1.00  0.00     0.034 A 
ATOM     52  C   UNL A   1      46.208  22.297  35.842  1.00  0.00     0.034 A 
ATOM     53  C   UNL A   1      42.451  27.377  35.959  1.00  0.00     0.049 A 
ATOM     54  C   UNL A   1      45.703  22.823  37.164  1.00  0.00     0.074 A 
ATOM     55  C   UNL A   1      41.684  26.225  36.045  1.00  0.00     0.029 A 
ATOM     56  N   UNL A   1      43.483  27.238  36.870  1.00  0.00    -0.354 N 
ATOM     57  N   UNL A   1      44.666  23.593  37.305  1.00  0.00    -0.248 NA
ATOM     58  C   UNL A   1      46.478  22.694  38.400  1.00  0.00     0.031 C 
ATOM     59  C   UNL A   1      42.282  25.375  37.003  1.00  0.00     0.029 A 
ATOM     60  C   UNL A   1      43.394  26.015  37.523  1.00  0.00     0.049 A 
ATOM     61  H   UNL A   1      44.182  27.912  37.033  1.00  0.00     0.167 HD
ATOM     62  C   UNL A   1      44.903  24.376  38.406  1.00  0.00     0.074 A 
ATOM     63  C   UNL A   1      45.918  23.654  39.149  1.00  0.00     0.031 C 
ATOM     64  C   UNL A   1      44.388  25.638  38.522  1.00  0.00     0.034 A 
BRANCH  51  65
ATOM     65  C   UNL A   1      41.215  29.381  34.840  1.00  0.00     0.023 A 
ATOM     66  C   UNL A   1      41.101  30.451  35.764  1.00  0.00     0.012 A 
ATOM     67  C   UNL A   1      40.180  29.301  33.876  1.00  0.00     0.148 A 
ATOM     68  C   UNL A   1      39.996  31.308  35.812  1.00  0.00     0.002 A 
ATOM     69  C   UNL A   1      39.044  30.124  33.956  1.00  0.00     0.091 A 
ATOM     70  F   UNL A   1      40.315  28.488  32.823  1.00  0.00    -0.205 F 
ATOM     71  C   UNL A   1      38.949  31.125  34.928  1.00  0.00     0.022 A 
BRANCH  69  72
ATOM     72  S   UNL A   1      37.609  29.934  32.878  1.00  0.00     0.127 S 
ATOM     73  O   UNL A   1      38.202  30.079  31.546  1.00  0.00    -0.237 OA
ATOM     74  O   UNL A   1      37.155  28.580  33.191  1.00  0.00    -0.237 OA
ATOM     75  O   UNL A   1      36.688  31.004  33.237  1.00  0.00    -0.744 OA
ENDBRANCH  69  72
ENDBRANCH  51  65
BRANCH  52  76
ATOM     76  C   UNL A   1      47.670  22.216  35.602  1.00  0.00     0.023 A 
ATOM     77  C   UNL A   1      48.393  23.420  35.542  1.00  0.00     0.012 A 
ATOM     78  C   UNL A   1      48.288  21.016  36.009  1.00  0.00     0.148 A 
ATOM     79  C   UNL A   1      49.662  23.458  36.099  1.00  0.00     0.002 A 
ATOM     80  C   UNL A   1      49.498  21.089  36.650  1.00  0.00     0.091 A 
ATOM     81  F   UNL A   1      47.619  19.860  35.930  1.00  0.00    -0.205 F 
ATOM     82  C   UNL A   1      50.175  22.305  36.690  1.00  0.00     0.022 A 
BRANCH  80  83
ATOM     83  S   UNL A   1      50.044  19.705  37.652  1.00  0.00     0.127 S 
ATOM     84  O   UNL A   1      50.904  20.346  38.647  1.00  0.00    -0.237 OA
ATOM     85  O   UNL A   1      48.788  19.204  38.197  1.00  0.00    -0.237 OA
ATOM     86  O   UNL A   1      50.745  18.862  36.694  1.00  0.00    -0.744 OA
ENDBRANCH  80  83
ENDBRANCH  52  76
BRANCH  64  87
ATOM     87  C   UNL A   1      44.803  26.615  39.598  1.00  0.00     0.023 A 
ATOM     88  C   UNL A   1      44.305  26.547  40.914  1.00  0.00     0.012 A 
ATOM     89  C   UNL A   1      45.780  27.604  39.335  1.00  0.00     0.148 A 
ATOM     90  C   UNL A   1      44.624  27.512  41.873  1.00  0.00     0.002 A 
ATOM     91  C   UNL A   1      46.192  28.482  40.330  1.00  0.00     0.091 A 
ATOM     92  F   UNL A   1      46.293  27.721  38.101  1.00  0.00    -0.205 F 
ATOM     93  C   UNL A   1      45.574  28.480  41.582  1.00  0.00     0.022 A 
BRANCH  91  94
ATOM     94  S   UNL A   1      47.604  29.566  40.088  1.00  0.00     0.127 S 
ATOM     95  O   UNL A   1      47.712  30.215  41.393  1.00  0.00    -0.237 OA
ATOM     96  O   UNL A   1      48.680  28.618  39.789  1.00  0.00    -0.237 OA
ATOM     97  O   UNL A   1      47.238  30.425  38.972  1.00  0.00    -0.744 OA
ENDBRANCH  91  94
ENDBRANCH  64  87
ENDBRANCH  38  39
ENDBRANCH  31  33
ENDBRANCH  30  31
ENDBRANCH   1  30
TORSDOF 17
ENDMDL
MODEL 2
REMARK VINA RESULT:     -11.7      5.709     10.626
REMARK SMILES COc1ccc(-c2cc(Cl)cc3c2O[C@H](C(F)(F)F)C(C(=O)OCCOC(=O)c2ccc(-c4c5nc(c(-c6cccc(S(=O)(=O)[O-])c6F)c6ccc([nH]6)c(-c6cccc(S(=O)(=O)[O-])c6F)c6nc(c(-c7cccc(S(=O)(=O)[O-])c7F)c7ccc4[nH]7)C=C6)C=C5)cc2)=C3)cc1C
REMARK SMILES IDX 25 1 24 2 23 3 21 4 22 5 20 6 7 7 8 8 13 9 9 10 12 11 14 12
REMARK SMILES IDX 10 13 11 14 92 15 15 16 6 17 3 18 4 19 94 20 5 21 93 22
REMARK SMILES IDX 95 23 2 24 1 25 16 26 17 27 18 28 19 29 26 30 27 31 28 32
REMARK SMILES IDX 29 33 30 34 91 35 31 36 90 37 32 38 33 39 34 40 84 41 35 42
REMARK SMILES IDX 89 43 83 44 85 45 36 46 88 47 82 48 81 49 37 51 69 52 49 53
REMARK SMILES IDX 68 54 50 55 53 56 67 57 86 58 51 59 52 60 66 62 87 63 54 64
REMARK SMILES IDX 38 65 39 66 47 67 40 68 42 69 48 70 41 71 43 72 44 73 45 74
REMARK SMILES IDX 46 75 70 76 71 77 79 78 72 79 74 80 80 81 73 82 75 83 76 84
REMARK SMILES IDX 77 85 78 86 55 87 56 88 64 89 57 90 59 91 65 92 58 93 60 94
REMARK SMILES IDX 61 95 62 96 63 97
REMARK H PARENT 85 50 53 61
REMARK Flexibility Score: inf
ROOT
ATOM      1  C   UNL A   1      37.089  23.644  25.503  1.00  0.00     0.275 C 
ENDROOT
BRANCH   1   2
ATOM      2  C   UNL A   1      35.644  23.952  26.136  1.00  0.00     0.275 C 
BRANCH   2   3
ATOM      3  O   UNL A   1      34.580  24.695  25.489  1.00  0.00    -0.459 OA
BRANCH   3   4
ATOM      4  C   UNL A   1      33.287  24.688  26.100  1.00  0.00     0.338 C 
ATOM      5  O   UNL A   1      33.360  23.737  26.902  1.00  0.00    -0.246 OA
BRANCH   4   6
ATOM      6  C   UNL A   1      31.752  25.674  25.093  1.00  0.00     0.087 C 
ATOM      7  C   UNL A   1      31.089  28.891  24.093  1.00  0.00     0.026 A 
ATOM      8  C   UNL A   1      30.023  29.624  23.537  1.00  0.00     0.033 A 
ATOM      9  C   UNL A   1      31.033  27.510  23.817  1.00  0.00     0.135 A 
ATOM     10  C   UNL A   1      28.944  28.951  22.942  1.00  0.00     0.042 A 
ATOM     11  C   UNL A   1      29.822  26.975  23.832  1.00  0.00     0.019 A 
ATOM     12  O   UNL A   1      31.863  26.429  24.156  1.00  0.00    -0.475 OA
ATOM     13  Cl  UNL A   1      27.655  29.871  22.264  1.00  0.00    -0.084 Cl
ATOM     14  C   UNL A   1      28.812  27.575  23.126  1.00  0.00     0.032 A 
ATOM     15  C   UNL A   1      30.097  26.087  24.984  1.00  0.00     0.027 C 
ATOM     16  C   UNL A   1      32.704  24.658  24.678  1.00  0.00     0.316 C 
BRANCH   7  17
ATOM     17  C   UNL A   1      31.894  29.570  25.174  1.00  0.00    -0.014 A 
ATOM     18  C   UNL A   1      33.477  30.775  27.261  1.00  0.00     0.121 A 
ATOM     19  C   UNL A   1      32.222  31.279  26.895  1.00  0.00     0.047 A 
ATOM     20  C   UNL A   1      33.953  29.626  26.628  1.00  0.00    -0.008 A 
ATOM     21  C   UNL A   1      31.431  30.673  25.893  1.00  0.00     0.013 A 
ATOM     22  C   UNL A   1      33.173  29.075  25.569  1.00  0.00     0.016 A 
ATOM     23  C   UNL A   1      35.218  28.935  27.064  1.00  0.00     0.048 C 
BRANCH  18  24
ATOM     24  O   UNL A   1      34.068  31.386  28.338  1.00  0.00    -0.496 OA
ATOM     25  C   UNL A   1      34.814  32.568  28.048  1.00  0.00     0.278 C 
ENDBRANCH  18  24
ENDBRANCH   7  17
BRANCH  16  26
ATOM     26  C   UNL A   1      32.518  22.766  24.317  1.00  0.00     0.430 C 
ATOM     27  F   UNL A   1      33.609  21.963  24.434  1.00  0.00    -0.167 F 
ATOM     28  F   UNL A   1      31.522  22.219  25.071  1.00  0.00    -0.167 F 
ATOM     29  F   UNL A   1      32.114  22.485  23.038  1.00  0.00    -0.167 F 
ENDBRANCH  16  26
ENDBRANCH   4   6
ENDBRANCH   3   4
ENDBRANCH   2   3
ENDBRANCH   1   2
BRANCH   1  30
ATOM     30  O   UNL A   1      38.459  24.140  25.847  1.00  0.00    -0.458 OA
BRANCH  30  31
ATOM     31  C   UNL A   1      39.063  24.323  27.070  1.00  0.00     0.338 C 
ATOM     32  O   UNL A   1      38.511  24.451  28.146  1.00  0.00    -0.246 OA
BRANCH  31  33
ATOM     33  C   UNL A   1      40.446  24.653  26.848  1.00  0.00     0.060 A 
ATOM     34  C   UNL A   1      41.379  26.241  26.071  1.00  0.00     0.016 A 
ATOM     35  C   UNL A   1      41.590  23.299  27.667  1.00  0.00     0.016 A 
ATOM     36  C   UNL A   1      43.280  26.525  26.572  1.00  0.00     0.010 A 
ATOM     37  C   UNL A   1      43.491  23.519  28.095  1.00  0.00     0.010 A 
ATOM     38  C   UNL A   1      44.282  25.287  27.766  1.00  0.00    -0.014 A 
BRANCH  38  39
ATOM     39  C   UNL A   1      45.635  25.254  28.395  1.00  0.00     0.031 A 
ATOM     40  C   UNL A   1      46.909  25.082  27.639  1.00  0.00     0.074 A 
ATOM     41  C   UNL A   1      45.741  25.994  29.539  1.00  0.00     0.049 A 
ATOM     42  N   UNL A   1      48.066  24.867  28.189  1.00  0.00    -0.248 NA
ATOM     43  C   UNL A   1      46.992  25.193  26.189  1.00  0.00     0.031 C 
ATOM     44  C   UNL A   1      46.798  26.969  29.828  1.00  0.00     0.029 A 
ATOM     45  N   UNL A   1      44.854  26.189  30.612  1.00  0.00    -0.354 N 
ATOM     46  C   UNL A   1      49.026  25.026  27.200  1.00  0.00     0.074 A 
ATOM     47  C   UNL A   1      48.298  25.024  25.960  1.00  0.00     0.031 C 
ATOM     48  C   UNL A   1      46.593  27.510  31.040  1.00  0.00     0.029 A 
ATOM     49  C   UNL A   1      45.547  26.750  31.692  1.00  0.00     0.049 A 
ATOM     50  H   UNL A   1      43.897  25.965  30.605  1.00  0.00     0.167 HD
ATOM     51  C   UNL A   1      50.298  25.437  27.485  1.00  0.00     0.034 A 
ATOM     52  C   UNL A   1      45.593  26.277  32.976  1.00  0.00     0.034 A 
ATOM     53  C   UNL A   1      50.386  25.895  28.874  1.00  0.00     0.049 A 
ATOM     54  C   UNL A   1      46.995  26.040  33.484  1.00  0.00     0.074 A 
ATOM     55  C   UNL A   1      50.332  27.170  29.414  1.00  0.00     0.029 A 
ATOM     56  N   UNL A   1      50.286  25.010  29.933  1.00  0.00    -0.354 N 
ATOM     57  N   UNL A   1      48.077  26.305  32.816  1.00  0.00    -0.248 NA
ATOM     58  C   UNL A   1      47.261  25.270  34.702  1.00  0.00     0.031 C 
ATOM     59  C   UNL A   1      50.172  27.046  30.812  1.00  0.00     0.029 A 
ATOM     60  C   UNL A   1      50.157  25.698  31.132  1.00  0.00     0.049 A 
ATOM     61  H   UNL A   1      50.306  24.029  29.848  1.00  0.00     0.167 HD
ATOM     62  C   UNL A   1      49.024  25.399  33.222  1.00  0.00     0.074 A 
ATOM     63  C   UNL A   1      48.542  24.927  34.506  1.00  0.00     0.031 C 
ATOM     64  C   UNL A   1      50.021  24.971  32.389  1.00  0.00     0.034 A 
BRANCH  51  65
ATOM     65  C   UNL A   1      51.385  25.813  26.468  1.00  0.00     0.023 A 
ATOM     66  C   UNL A   1      52.367  24.830  26.179  1.00  0.00     0.012 A 
ATOM     67  C   UNL A   1      51.519  27.030  25.756  1.00  0.00     0.148 A 
ATOM     68  C   UNL A   1      53.463  25.065  25.341  1.00  0.00     0.002 A 
ATOM     69  C   UNL A   1      52.648  27.288  24.959  1.00  0.00     0.091 A 
ATOM     70  F   UNL A   1      50.523  27.921  25.773  1.00  0.00    -0.205 F 
ATOM     71  C   UNL A   1      53.623  26.308  24.756  1.00  0.00     0.022 A 
BRANCH  69  72
ATOM     72  S   UNL A   1      52.968  28.889  24.191  1.00  0.00     0.127 S 
ATOM     73  O   UNL A   1      51.819  29.036  23.293  1.00  0.00    -0.237 OA
ATOM     74  O   UNL A   1      52.957  29.799  25.336  1.00  0.00    -0.237 OA
ATOM     75  O   UNL A   1      54.245  28.760  23.502  1.00  0.00    -0.744 OA
ENDBRANCH  69  72
ENDBRANCH  51  65
BRANCH  52  76
ATOM     76  C   UNL A   1      44.533  25.284  33.276  1.00  0.00     0.023 A 
ATOM     77  C   UNL A   1      44.887  23.923  33.268  1.00  0.00     0.012 A 
ATOM     78  C   UNL A   1      43.466  25.753  34.069  1.00  0.00     0.148 A 
ATOM     79  C   UNL A   1      44.319  23.086  34.216  1.00  0.00     0.002 A 
ATOM     80  C   UNL A   1      42.990  24.944  35.068  1.00  0.00     0.091 A 
ATOM     81  F   UNL A   1      43.061  27.024  33.959  1.00  0.00    -0.205 F 
ATOM     82  C   UNL A   1      43.417  23.620  35.135  1.00  0.00     0.022 A 
BRANCH  80  83
ATOM     83  S   UNL A   1      42.057  25.672  36.416  1.00  0.00     0.127 S 
ATOM     84  O   UNL A   1      41.422  24.509  37.036  1.00  0.00    -0.237 OA
ATOM     85  O   UNL A   1      43.107  26.271  37.230  1.00  0.00    -0.237 OA
ATOM     86  O   UNL A   1      41.140  26.573  35.732  1.00  0.00    -0.744 OA
ENDBRANCH  80  83
ENDBRANCH  52  76
BRANCH  64  87
ATOM     87  C   UNL A   1      50.941  23.816  32.711  1.00  0.00     0.023 A 
ATOM     88  C   UNL A   1      52.343  23.921  32.636  1.00  0.00     0.012 A 
ATOM     89  C   UNL A   1      50.417  22.587  33.179  1.00  0.00     0.148 A 
ATOM     90  C   UNL A   1      53.178  22.819  32.844  1.00  0.00     0.002 A 
ATOM     91  C   UNL A   1      51.259  21.533  33.511  1.00  0.00     0.091 A 
ATOM     92  F   UNL A   1      49.089  22.423  33.273  1.00  0.00    -0.205 F 
ATOM     93  C   UNL A   1      52.635  21.623  33.287  1.00  0.00     0.022 A 
BRANCH  91  94
ATOM     94  S   UNL A   1      50.633  20.069  34.343  1.00  0.00     0.127 S 
ATOM     95  O   UNL A   1      51.800  19.188  34.320  1.00  0.00    -0.237 OA
ATOM     96  O   UNL A   1      50.287  20.585  35.669  1.00  0.00    -0.237 OA
ATOM     97  O   UNL A   1      49.489  19.641  33.552  1.00  0.00    -0.744 OA
ENDBRANCH  91  94
ENDBRANCH  64  87
ENDBRANCH  38  39
ENDBRANCH  31  33
ENDBRANCH  30  31
ENDBRANCH   1  30
TORSDOF 17
ENDMDL
MODEL 3
REMARK VINA RESULT:     -11.6      5.811     10.474
REMARK SMILES COc1ccc(-c2cc(Cl)cc3c2O[C@H](C(F)(F)F)C(C(=O)OCCOC(=O)c2ccc(-c4c5nc(c(-c6cccc(S(=O)(=O)[O-])c6F)c6ccc([nH]6)c(-c6cccc(S(=O)(=O)[O-])c6F)c6nc(c(-c7cccc(S(=O)(=O)[O-])c7F)c7ccc4[nH]7)C=C6)C=C5)cc2)=C3)cc1C
REMARK SMILES IDX 25 1 24 2 23 3 21 4 22 5 20 6 7 7 8 8 13 9 9 10 12 11 14 12
REMARK SMILES IDX 10 13 11 14 92 15 15 16 6 17 3 18 4 19 94 20 5 21 93 22
REMARK SMILES IDX 95 23 2 24 1 25 16 26 17 27 18 28 19 29 26 30 27 31 28 32
REMARK SMILES IDX 29 33 30 34 91 35 31 36 90 37 32 38 33 39 34 40 84 41 35 42
REMARK SMILES IDX 89 43 83 44 85 45 36 46 88 47 82 48 81 49 37 51 69 52 49 53
REMARK SMILES IDX 68 54 50 55 53 56 67 57 86 58 51 59 52 60 66 62 87 63 54 64
REMARK SMILES IDX 38 65 39 66 47 67 40 68 42 69 48 70 41 71 43 72 44 73 45 74
REMARK SMILES IDX 46 75 70 76 71 77 79 78 72 79 74 80 80 81 73 82 75 83 76 84
REMARK SMILES IDX 77 85 78 86 55 87 56 88 64 89 57 90 59 91 65 92 58 93 60 94
REMARK SMILES IDX 61 95 62 96 63 97
REMARK H PARENT 85 50 53 61
REMARK Flexibility Score: inf
ROOT
ATOM      1  C   UNL A   1      36.843  23.887  25.189  1.00  0.00     0.275 C 
ENDROOT
BRANCH   1   2
ATOM      2  C   UNL A   1      35.324  23.941  25.712  1.00  0.00     0.275 C 
BRANCH   2   3
ATOM      3  O   UNL A   1      34.324  24.908  25.300  1.00  0.00    -0.459 OA
BRANCH   3   4
ATOM      4  C   UNL A   1      33.027  24.830  25.898  1.00  0.00     0.338 C 
ATOM      5  O   UNL A   1      33.108  23.812  26.612  1.00  0.00    -0.246 OA
BRANCH   4   6
ATOM      6  C   UNL A   1      31.485  25.883  24.972  1.00  0.00     0.087 C 
ATOM      7  C   UNL A   1      30.872  29.144  24.091  1.00  0.00     0.026 A 
ATOM      8  C   UNL A   1      29.807  29.919  23.592  1.00  0.00     0.033 A 
ATOM      9  C   UNL A   1      30.773  27.774  23.776  1.00  0.00     0.135 A 
ATOM     10  C   UNL A   1      28.693  29.290  23.013  1.00  0.00     0.042 A 
ATOM     11  C   UNL A   1      29.549  27.268  23.814  1.00  0.00     0.019 A 
ATOM     12  O   UNL A   1      31.586  26.664  24.055  1.00  0.00    -0.475 OA
ATOM     13  Cl  UNL A   1      27.407  30.262  22.405  1.00  0.00    -0.084 Cl
ATOM     14  C   UNL A   1      28.533  27.913  23.160  1.00  0.00     0.032 A 
ATOM     15  C   UNL A   1      29.839  26.339  24.929  1.00  0.00     0.027 C 
ATOM     16  C   UNL A   1      32.398  24.857  24.496  1.00  0.00     0.316 C 
BRANCH   7  17
ATOM     17  C   UNL A   1      31.728  29.770  25.165  1.00  0.00    -0.014 A 
ATOM     18  C   UNL A   1      33.401  30.870  27.239  1.00  0.00     0.121 A 
ATOM     19  C   UNL A   1      32.188  31.466  26.868  1.00  0.00     0.047 A 
ATOM     20  C   UNL A   1      33.785  29.681  26.619  1.00  0.00    -0.008 A 
ATOM     21  C   UNL A   1      31.353  30.913  25.872  1.00  0.00     0.013 A 
ATOM     22  C   UNL A   1      32.965  29.181  25.565  1.00  0.00     0.016 A 
ATOM     23  C   UNL A   1      34.993  28.898  27.062  1.00  0.00     0.048 C 
BRANCH  18  24
ATOM     24  O   UNL A   1      34.038  31.446  28.310  1.00  0.00    -0.496 OA
ATOM     25  C   UNL A   1      34.038  32.873  28.338  1.00  0.00     0.278 C 
ENDBRANCH  18  24
ENDBRANCH   7  17
BRANCH  16  26
ATOM     26  C   UNL A   1      32.153  22.982  24.085  1.00  0.00     0.430 C 
ATOM     27  F   UNL A   1      33.235  22.158  24.101  1.00  0.00    -0.167 F 
ATOM     28  F   UNL A   1      31.200  22.426  24.886  1.00  0.00    -0.167 F 
ATOM     29  F   UNL A   1      31.660  22.753  22.827  1.00  0.00    -0.167 F 
ENDBRANCH  16  26
ENDBRANCH   4   6
ENDBRANCH   3   4
ENDBRANCH   2   3
ENDBRANCH   1   2
BRANCH   1  30
ATOM     30  O   UNL A   1      38.132  23.593  25.891  1.00  0.00    -0.458 OA
BRANCH  30  31
ATOM     31  C   UNL A   1      38.891  22.446  25.925  1.00  0.00     0.338 C 
ATOM     32  O   UNL A   1      38.615  21.372  25.425  1.00  0.00    -0.246 OA
BRANCH  31  33
ATOM     33  C   UNL A   1      39.927  22.616  26.909  1.00  0.00     0.060 A 
ATOM     34  C   UNL A   1      40.851  21.371  28.172  1.00  0.00     0.016 A 
ATOM     35  C   UNL A   1      40.653  24.426  26.801  1.00  0.00     0.016 A 
ATOM     36  C   UNL A   1      42.637  21.912  28.852  1.00  0.00     0.010 A 
ATOM     37  C   UNL A   1      42.374  25.011  27.538  1.00  0.00     0.010 A 
ATOM     38  C   UNL A   1      43.507  23.634  28.361  1.00  0.00    -0.014 A 
BRANCH  38  39
ATOM     39  C   UNL A   1      44.829  24.284  28.607  1.00  0.00     0.031 A 
ATOM     40  C   UNL A   1      45.918  24.380  27.594  1.00  0.00     0.074 A 
ATOM     41  C   UNL A   1      44.791  25.308  29.511  1.00  0.00     0.049 A 
ATOM     42  N   UNL A   1      47.128  24.776  27.853  1.00  0.00    -0.248 NA
ATOM     43  C   UNL A   1      45.716  24.089  26.181  1.00  0.00     0.031 C 
ATOM     44  C   UNL A   1      45.368  26.641  29.312  1.00  0.00     0.029 A 
ATOM     45  N   UNL A   1      44.087  25.465  30.717  1.00  0.00    -0.354 N 
ATOM     46  C   UNL A   1      47.762  24.982  26.636  1.00  0.00     0.074 A 
ATOM     47  C   UNL A   1      46.916  24.354  25.656  1.00  0.00     0.031 C 
ATOM     48  C   UNL A   1      45.148  27.395  30.401  1.00  0.00     0.029 A 
ATOM     49  C   UNL A   1      44.639  26.528  31.443  1.00  0.00     0.049 A 
ATOM     50  H   UNL A   1      43.326  24.913  31.007  1.00  0.00     0.167 HD
ATOM     51  C   UNL A   1      48.768  25.895  26.488  1.00  0.00     0.034 A 
ATOM     52  C   UNL A   1      45.083  26.499  32.737  1.00  0.00     0.034 A 
ATOM     53  C   UNL A   1      48.872  26.734  27.685  1.00  0.00     0.049 A 
ATOM     54  C   UNL A   1      46.515  26.951  32.897  1.00  0.00     0.074 A 
ATOM     55  C   UNL A   1      48.370  27.998  27.953  1.00  0.00     0.029 A 
ATOM     56  N   UNL A   1      49.325  26.222  28.888  1.00  0.00    -0.354 N 
ATOM     57  N   UNL A   1      47.262  27.390  31.930  1.00  0.00    -0.248 NA
ATOM     58  C   UNL A   1      47.271  26.722  34.131  1.00  0.00     0.031 C 
ATOM     59  C   UNL A   1      48.502  28.234  29.340  1.00  0.00     0.029 A 
ATOM     60  C   UNL A   1      49.109  27.130  29.916  1.00  0.00     0.049 A 
ATOM     61  H   UNL A   1      49.744  25.337  28.999  1.00  0.00     0.167 HD
ATOM     62  C   UNL A   1      48.554  27.054  32.246  1.00  0.00     0.074 A 
ATOM     63  C   UNL A   1      48.528  26.832  33.679  1.00  0.00     0.031 C 
ATOM     64  C   UNL A   1      49.494  26.802  31.284  1.00  0.00     0.034 A 
BRANCH  51  65
ATOM     65  C   UNL A   1      49.418  26.332  25.168  1.00  0.00     0.023 A 
ATOM     66  C   UNL A   1      50.832  26.251  25.086  1.00  0.00     0.012 A 
ATOM     67  C   UNL A   1      48.770  26.794  23.996  1.00  0.00     0.148 A 
ATOM     68  C   UNL A   1      51.563  26.697  23.980  1.00  0.00     0.002 A 
ATOM     69  C   UNL A   1      49.502  27.295  22.907  1.00  0.00     0.091 A 
ATOM     70  F   UNL A   1      47.442  26.681  23.884  1.00  0.00    -0.205 F 
ATOM     71  C   UNL A   1      50.900  27.252  22.900  1.00  0.00     0.022 A 
BRANCH  69  72
ATOM     72  S   UNL A   1      48.731  28.076  21.475  1.00  0.00     0.127 S 
ATOM     73  O   UNL A   1      48.599  26.953  20.543  1.00  0.00    -0.237 OA
ATOM     74  O   UNL A   1      47.464  28.558  22.020  1.00  0.00    -0.237 OA
ATOM     75  O   UNL A   1      49.657  29.110  21.029  1.00  0.00    -0.744 OA
ENDBRANCH  69  72
ENDBRANCH  51  65
BRANCH  52  76
ATOM     76  C   UNL A   1      44.604  25.319  33.498  1.00  0.00     0.023 A 
ATOM     77  C   UNL A   1      45.428  24.180  33.529  1.00  0.00     0.012 A 
ATOM     78  C   UNL A   1      43.704  25.594  34.547  1.00  0.00     0.148 A 
ATOM     79  C   UNL A   1      45.506  23.451  34.706  1.00  0.00     0.002 A 
ATOM     80  C   UNL A   1      43.866  24.932  35.737  1.00  0.00     0.091 A 
ATOM     81  F   UNL A   1      42.837  26.607  34.434  1.00  0.00    -0.205 F 
ATOM     82  C   UNL A   1      44.762  23.868  35.808  1.00  0.00     0.022 A 
BRANCH  80  83
ATOM     83  S   UNL A   1      43.141  25.618  37.227  1.00  0.00     0.127 S 
ATOM     84  O   UNL A   1      44.008  25.091  38.281  1.00  0.00    -0.237 OA
ATOM     85  O   UNL A   1      43.286  27.052  37.009  1.00  0.00    -0.237 OA
ATOM     86  O   UNL A   1      41.792  25.070  37.218  1.00  0.00    -0.744 OA
ENDBRANCH  80  83
ENDBRANCH  52  76
BRANCH  64  87
ATOM     87  C   UNL A   1      50.853  26.211  31.578  1.00  0.00     0.023 A 
ATOM     88  C   UNL A   1      52.037  26.974  31.527  1.00  0.00     0.012 A 
ATOM     89  C   UNL A   1      50.980  24.865  31.994  1.00  0.00     0.148 A 
ATOM     90  C   UNL A   1      53.296  26.395  31.709  1.00  0.00     0.002 A 
ATOM     91  C   UNL A   1      52.224  24.326  32.301  1.00  0.00     0.091 A 
ATOM     92  F   UNL A   1      49.890  24.085  32.062  1.00  0.00    -0.205 F 
ATOM     93  C   UNL A   1      53.389  25.068  32.101  1.00  0.00     0.022 A 
BRANCH  91  94
ATOM     94  S   UNL A   1      52.373  22.710  33.070  1.00  0.00     0.127 S 
ATOM     95  O   UNL A   1      53.769  22.713  33.506  1.00  0.00    -0.237 OA
ATOM     96  O   UNL A   1      51.396  22.789  34.159  1.00  0.00    -0.237 OA
ATOM     97  O   UNL A   1      52.028  21.757  32.026  1.00  0.00    -0.744 OA
ENDBRANCH  91  94
ENDBRANCH  64  87
ENDBRANCH  38  39
ENDBRANCH  31  33
ENDBRANCH  30  31
ENDBRANCH   1  30
TORSDOF 17
ENDMDL
