MODEL 1
REMARK VINA RESULT:     -12.1      0.000      0.000
REMARK SMILES O=C(OCCOC(=O)[C@@H]1[C@H](C(=O)Nc2ccccc2OC(F)F)[C@@H]2C=C[C@H]1C2)c1ccc(-c2c3nc(c(-c4cccc(S(=O)(=O)[O-])c4F)c4ccc([nH]4)c(-c4cccc(S(=O)(=O)[O-])c4F)c4nc(c(-c5cccc(S(=O)(=O)[O-])c5F)c5ccc2[nH]5)C=C4)C=C3)cc1
REMARK SMILES IDX 5 1 4 2 3 3 2 4 1 5 29 6 30 7 91 8 31 9 90 10 32 11 33 12
REMARK SMILES IDX 34 13 84 14 35 15 89 16 83 17 85 18 36 19 88 20 82 21 81 22
REMARK SMILES IDX 37 24 69 25 49 26 68 27 50 28 53 29 67 30 86 31 51 32 52 33
REMARK SMILES IDX 66 35 87 36 54 37 38 38 39 39 47 40 40 41 42 42 48 43 41 44
REMARK SMILES IDX 43 45 44 46 45 47 46 48 70 49 71 50 79 51 72 52 74 53 80 54
REMARK SMILES IDX 73 55 75 56 76 57 77 58 78 59 55 60 56 61 64 62 57 63 59 64
REMARK SMILES IDX 65 65 58 66 60 67 61 68 62 69 63 70 6 71 7 72 8 73 9 74
REMARK SMILES IDX 10 75 27 76 24 77 26 78 28 79 25 80 11 81 12 82 13 83 14 85
REMARK SMILES IDX 15 86 19 87 16 88 18 89 17 90 20 91 21 92 22 93 23 94
REMARK H PARENT 85 23 53 34 13 84
REMARK Flexibility Score: inf
ROOT
ATOM      1  C   UNL A   1      33.148  29.572  25.006  1.00  0.00     0.274 C 
ENDROOT
BRANCH   1   2
ATOM      2  C   UNL A   1      32.096  30.213  25.914  1.00  0.00     0.275 C 
BRANCH   2   3
ATOM      3  O   UNL A   1      32.540  30.559  27.244  1.00  0.00    -0.458 OA
BRANCH   3   4
ATOM      4  C   UNL A   1      33.294  31.645  27.569  1.00  0.00     0.338 C 
ATOM      5  O   UNL A   1      32.894  32.786  27.369  1.00  0.00    -0.246 OA
BRANCH   4   6
ATOM      6  C   UNL A   1      34.670  31.393  28.016  1.00  0.00     0.060 A 
ATOM      7  C   UNL A   1      35.614  32.417  27.995  1.00  0.00     0.016 A 
ATOM      8  C   UNL A   1      34.996  30.123  28.510  1.00  0.00     0.016 A 
ATOM      9  C   UNL A   1      36.839  32.216  28.606  1.00  0.00     0.010 A 
ATOM     10  C   UNL A   1      36.234  29.914  29.109  1.00  0.00     0.010 A 
ATOM     11  C   UNL A   1      37.151  30.968  29.166  1.00  0.00    -0.014 A 
BRANCH  11  12
ATOM     12  C   UNL A   1      38.545  30.787  29.599  1.00  0.00     0.031 A 
ATOM     13  C   UNL A   1      38.908  31.361  30.927  1.00  0.00     0.074 A 
ATOM     14  C   UNL A   1      39.350  29.927  28.954  1.00  0.00     0.049 A 
ATOM     15  N   UNL A   1      39.760  30.906  31.800  1.00  0.00    -0.248 NA
ATOM     16  C   UNL A   1      38.156  32.551  31.363  1.00  0.00     0.031 C 
ATOM     17  C   UNL A   1      39.091  29.331  27.643  1.00  0.00     0.029 A 
ATOM     18  N   UNL A   1      40.537  29.370  29.349  1.00  0.00    -0.354 N 
ATOM     19  C   UNL A   1      39.579  31.694  32.925  1.00  0.00     0.074 A 
ATOM     20  C   UNL A   1      38.598  32.703  32.601  1.00  0.00     0.031 C 
ATOM     21  C   UNL A   1      40.099  28.495  27.337  1.00  0.00     0.029 A 
ATOM     22  C   UNL A   1      41.034  28.451  28.457  1.00  0.00     0.049 A 
ATOM     23  H   UNL A   1      40.990  29.606  30.191  1.00  0.00     0.167 HD
ATOM     24  C   UNL A   1      40.146  31.541  34.140  1.00  0.00     0.034 A 
ATOM     25  C   UNL A   1      42.093  27.627  28.573  1.00  0.00     0.034 A 
ATOM     26  C   UNL A   1      41.177  30.583  34.407  1.00  0.00     0.049 A 
ATOM     27  C   UNL A   1      42.785  27.545  29.910  1.00  0.00     0.074 A 
ATOM     28  C   UNL A   1      41.876  30.367  35.577  1.00  0.00     0.029 A 
ATOM     29  N   UNL A   1      41.688  29.708  33.458  1.00  0.00    -0.354 N 
ATOM     30  N   UNL A   1      42.479  28.148  31.037  1.00  0.00    -0.248 NA
ATOM     31  C   UNL A   1      43.919  26.617  30.016  1.00  0.00     0.031 C 
ATOM     32  C   UNL A   1      42.834  29.377  35.326  1.00  0.00     0.029 A 
ATOM     33  C   UNL A   1      42.712  28.962  34.007  1.00  0.00     0.049 A 
ATOM     34  H   UNL A   1      41.368  29.630  32.531  1.00  0.00     0.167 HD
ATOM     35  C   UNL A   1      43.356  27.646  31.991  1.00  0.00     0.074 A 
ATOM     36  C   UNL A   1      44.187  26.668  31.313  1.00  0.00     0.031 C 
ATOM     37  C   UNL A   1      43.483  27.967  33.304  1.00  0.00     0.034 A 
BRANCH  24  38
ATOM     38  C   UNL A   1      39.618  32.410  35.242  1.00  0.00     0.023 A 
ATOM     39  C   UNL A   1      38.547  31.936  36.030  1.00  0.00     0.012 A 
ATOM     40  C   UNL A   1      40.143  33.690  35.481  1.00  0.00     0.148 A 
ATOM     41  C   UNL A   1      37.991  32.736  37.026  1.00  0.00     0.002 A 
ATOM     42  C   UNL A   1      39.601  34.472  36.494  1.00  0.00     0.091 A 
ATOM     43  F   UNL A   1      41.138  34.128  34.696  1.00  0.00    -0.205 F 
ATOM     44  C   UNL A   1      38.521  34.001  37.261  1.00  0.00     0.022 A 
BRANCH  42  45
ATOM     45  S   UNL A   1      40.224  36.107  36.897  1.00  0.00     0.127 S 
ATOM     46  O   UNL A   1      40.029  36.816  35.633  1.00  0.00    -0.237 OA
ATOM     47  O   UNL A   1      39.324  36.517  37.974  1.00  0.00    -0.237 OA
ATOM     48  O   UNL A   1      41.613  35.922  37.294  1.00  0.00    -0.744 OA
ENDBRANCH  42  45
ENDBRANCH  24  38
BRANCH  25  49
ATOM     49  C   UNL A   1      42.503  26.760  27.431  1.00  0.00     0.023 A 
ATOM     50  C   UNL A   1      43.260  27.287  26.368  1.00  0.00     0.012 A 
ATOM     51  C   UNL A   1      42.124  25.403  27.394  1.00  0.00     0.148 A 
ATOM     52  C   UNL A   1      43.596  26.492  25.269  1.00  0.00     0.002 A 
ATOM     53  C   UNL A   1      42.500  24.605  26.319  1.00  0.00     0.091 A 
ATOM     54  F   UNL A   1      41.387  24.920  28.403  1.00  0.00    -0.205 F 
ATOM     55  C   UNL A   1      43.222  25.150  25.247  1.00  0.00     0.022 A 
BRANCH  53  56
ATOM     56  S   UNL A   1      42.143  22.845  26.277  1.00  0.00     0.127 S 
ATOM     57  O   UNL A   1      42.837  22.370  27.471  1.00  0.00    -0.237 OA
ATOM     58  O   UNL A   1      40.682  22.822  26.363  1.00  0.00    -0.237 OA
ATOM     59  O   UNL A   1      42.671  22.380  25.000  1.00  0.00    -0.744 OA
ENDBRANCH  53  56
ENDBRANCH  25  49
BRANCH  37  60
ATOM     60  C   UNL A   1      44.552  27.258  34.089  1.00  0.00     0.023 A 
ATOM     61  C   UNL A   1      45.853  27.798  34.133  1.00  0.00     0.012 A 
ATOM     62  C   UNL A   1      44.247  26.117  34.854  1.00  0.00     0.148 A 
ATOM     63  C   UNL A   1      46.842  27.194  34.906  1.00  0.00     0.002 A 
ATOM     64  C   UNL A   1      45.224  25.551  35.663  1.00  0.00     0.091 A 
ATOM     65  F   UNL A   1      43.009  25.606  34.781  1.00  0.00    -0.205 F 
ATOM     66  C   UNL A   1      46.524  26.081  35.681  1.00  0.00     0.022 A 
BRANCH  64  67
ATOM     67  S   UNL A   1      44.866  24.186  36.774  1.00  0.00     0.127 S 
ATOM     68  O   UNL A   1      46.149  24.008  37.450  1.00  0.00    -0.237 OA
ATOM     69  O   UNL A   1      43.803  24.736  37.616  1.00  0.00    -0.237 OA
ATOM     70  O   UNL A   1      44.444  23.084  35.920  1.00  0.00    -0.744 OA
ENDBRANCH  64  67
ENDBRANCH  37  60
ENDBRANCH  11  12
ENDBRANCH   4   6
ENDBRANCH   3   4
ENDBRANCH   2   3
ENDBRANCH   1   2
BRANCH   1  71
ATOM     71  O   UNL A   1      33.643  28.289  25.432  1.00  0.00    -0.462 OA
BRANCH  71  72
ATOM     72  C   UNL A   1      33.392  27.308  24.502  1.00  0.00     0.310 C 
ATOM     73  O   UNL A   1      33.656  27.440  23.310  1.00  0.00    -0.252 OA
BRANCH  72  74
ATOM     74  C   UNL A   1      32.592  26.155  25.064  1.00  0.00     0.119 C 
ATOM     75  C   UNL A   1      32.247  24.790  24.395  1.00  0.00     0.100 C 
ATOM     76  C   UNL A   1      31.193  26.643  25.554  1.00  0.00     0.027 C 
ATOM     77  C   UNL A   1      30.713  24.648  24.685  1.00  0.00     0.025 C 
ATOM     78  C   UNL A   1      30.279  26.871  24.368  1.00  0.00    -0.027 C 
ATOM     79  C   UNL A   1      30.589  25.327  26.053  1.00  0.00     0.017 C 
ATOM     80  C   UNL A   1      29.966  25.669  23.868  1.00  0.00    -0.027 C 
BRANCH  75  81
ATOM     81  C   UNL A   1      32.569  24.136  23.044  1.00  0.00     0.229 C 
ATOM     82  O   UNL A   1      32.359  24.817  22.024  1.00  0.00    -0.274 OA
ATOM     83  N   UNL A   1      33.325  23.024  22.830  1.00  0.00    -0.323 N 
ATOM     84  H   UNL A   1      33.874  23.078  22.015  1.00  0.00     0.170 HD
BRANCH  83  85
ATOM     85  C   UNL A   1      33.486  21.823  23.526  1.00  0.00     0.084 A 
ATOM     86  C   UNL A   1      32.451  20.886  23.475  1.00  0.00     0.030 A 
ATOM     87  C   UNL A   1      34.538  21.579  24.401  1.00  0.00     0.149 A 
ATOM     88  C   UNL A   1      32.593  19.639  24.094  1.00  0.00     0.002 A 
ATOM     89  C   UNL A   1      34.749  20.301  24.921  1.00  0.00     0.049 A 
ATOM     90  C   UNL A   1      33.776  19.321  24.758  1.00  0.00     0.004 A 
BRANCH  87  91
ATOM     91  O   UNL A   1      35.330  22.559  24.917  1.00  0.00    -0.433 OA
BRANCH  91  92
ATOM     92  C   UNL A   1      36.653  22.640  24.378  1.00  0.00     0.542 C 
ATOM     93  F   UNL A   1      36.578  22.385  23.056  1.00  0.00    -0.167 F 
ATOM     94  F   UNL A   1      37.209  23.866  24.540  1.00  0.00    -0.167 F 
ENDBRANCH  91  92
ENDBRANCH  87  91
ENDBRANCH  83  85
ENDBRANCH  75  81
ENDBRANCH  72  74
ENDBRANCH  71  72
ENDBRANCH   1  71
TORSDOF 18
ENDMDL
MODEL 2
REMARK VINA RESULT:     -11.7      1.602      2.115
REMARK SMILES O=C(OCCOC(=O)[C@@H]1[C@H](C(=O)Nc2ccccc2OC(F)F)[C@@H]2C=C[C@H]1C2)c1ccc(-c2c3nc(c(-c4cccc(S(=O)(=O)[O-])c4F)c4ccc([nH]4)c(-c4cccc(S(=O)(=O)[O-])c4F)c4nc(c(-c5cccc(S(=O)(=O)[O-])c5F)c5ccc2[nH]5)C=C4)C=C3)cc1
REMARK SMILES IDX 5 1 4 2 3 3 2 4 1 5 29 6 30 7 91 8 31 9 90 10 32 11 33 12
REMARK SMILES IDX 34 13 84 14 35 15 89 16 83 17 85 18 36 19 88 20 82 21 81 22
REMARK SMILES IDX 37 24 69 25 49 26 68 27 50 28 53 29 67 30 86 31 51 32 52 33
REMARK SMILES IDX 66 35 87 36 54 37 38 38 39 39 47 40 40 41 42 42 48 43 41 44
REMARK SMILES IDX 43 45 44 46 45 47 46 48 70 49 71 50 79 51 72 52 74 53 80 54
REMARK SMILES IDX 73 55 75 56 76 57 77 58 78 59 55 60 56 61 64 62 57 63 59 64
REMARK SMILES IDX 65 65 58 66 60 67 61 68 62 69 63 70 6 71 7 72 8 73 9 74
REMARK SMILES IDX 10 75 27 76 24 77 26 78 28 79 25 80 11 81 12 82 13 83 14 85
REMARK SMILES IDX 15 86 19 87 16 88 18 89 17 90 20 91 21 92 22 93 23 94
REMARK H PARENT 85 23 53 34 13 84
REMARK Flexibility Score: inf
ROOT
ATOM      1  C   UNL A   1      31.944  29.411  24.883  1.00  0.00     0.274 C 
ENDROOT
BRANCH   1   2
ATOM      2  C   UNL A   1      33.198  29.653  25.725  1.00  0.00     0.275 C 
BRANCH   2   3
ATOM      3  O   UNL A   1      32.977  30.200  27.043  1.00  0.00    -0.458 OA
BRANCH   3   4
ATOM      4  C   UNL A   1      33.672  31.230  27.599  1.00  0.00     0.338 C 
ATOM      5  O   UNL A   1      33.217  32.367  27.630  1.00  0.00    -0.246 OA
BRANCH   4   6
ATOM      6  C   UNL A   1      35.055  30.957  28.012  1.00  0.00     0.060 A 
ATOM      7  C   UNL A   1      36.039  31.931  27.857  1.00  0.00     0.016 A 
ATOM      8  C   UNL A   1      35.348  29.724  28.609  1.00  0.00     0.016 A 
ATOM      9  C   UNL A   1      37.280  31.730  28.435  1.00  0.00     0.010 A 
ATOM     10  C   UNL A   1      36.602  29.515  29.175  1.00  0.00     0.010 A 
ATOM     11  C   UNL A   1      37.564  30.526  29.097  1.00  0.00    -0.014 A 
BRANCH  11  12
ATOM     12  C   UNL A   1      38.967  30.322  29.488  1.00  0.00     0.031 A 
ATOM     13  C   UNL A   1      39.396  30.950  30.771  1.00  0.00     0.074 A 
ATOM     14  C   UNL A   1      39.720  29.405  28.860  1.00  0.00     0.049 A 
ATOM     15  N   UNL A   1      40.266  30.512  31.635  1.00  0.00    -0.248 NA
ATOM     16  C   UNL A   1      38.698  32.184  31.172  1.00  0.00     0.031 C 
ATOM     17  C   UNL A   1      39.395  28.753  27.591  1.00  0.00     0.029 A 
ATOM     18  N   UNL A   1      40.904  28.830  29.240  1.00  0.00    -0.354 N 
ATOM     19  C   UNL A   1      40.151  31.361  32.724  1.00  0.00     0.074 A 
ATOM     20  C   UNL A   1      39.191  32.384  32.385  1.00  0.00     0.031 C 
ATOM     21  C   UNL A   1      40.365  27.871  27.292  1.00  0.00     0.029 A 
ATOM     22  C   UNL A   1      41.339  27.852  28.379  1.00  0.00     0.049 A 
ATOM     23  H   UNL A   1      41.395  29.093  30.053  1.00  0.00     0.167 HD
ATOM     24  C   UNL A   1      40.758  31.250  33.925  1.00  0.00     0.034 A 
ATOM     25  C   UNL A   1      42.376  27.001  28.499  1.00  0.00     0.034 A 
ATOM     26  C   UNL A   1      41.769  30.274  34.203  1.00  0.00     0.049 A 
ATOM     27  C   UNL A   1      43.115  26.963  29.814  1.00  0.00     0.074 A 
ATOM     28  C   UNL A   1      42.504  30.094  35.357  1.00  0.00     0.029 A 
ATOM     29  N   UNL A   1      42.218  29.336  33.283  1.00  0.00    -0.354 N 
ATOM     30  N   UNL A   1      42.869  27.632  30.918  1.00  0.00    -0.248 NA
ATOM     31  C   UNL A   1      44.222  26.006  29.926  1.00  0.00     0.031 C 
ATOM     32  C   UNL A   1      43.421  29.062  35.123  1.00  0.00     0.029 A 
ATOM     33  C   UNL A   1      43.237  28.585  33.833  1.00  0.00     0.049 A 
ATOM     34  H   UNL A   1      41.861  29.222  32.373  1.00  0.00     0.167 HD
ATOM     35  C   UNL A   1      43.765  27.150  31.865  1.00  0.00     0.074 A 
ATOM     36  C   UNL A   1      44.540  26.113  31.209  1.00  0.00     0.031 C 
ATOM     37  C   UNL A   1      43.951  27.532  33.154  1.00  0.00     0.034 A 
BRANCH  24  38
ATOM     38  C   UNL A   1      40.299  32.189  34.998  1.00  0.00     0.023 A 
ATOM     39  C   UNL A   1      40.959  33.428  35.149  1.00  0.00     0.012 A 
ATOM     40  C   UNL A   1      39.252  31.849  35.871  1.00  0.00     0.148 A 
ATOM     41  C   UNL A   1      40.599  34.304  36.171  1.00  0.00     0.002 A 
ATOM     42  C   UNL A   1      38.881  32.740  36.871  1.00  0.00     0.091 A 
ATOM     43  F   UNL A   1      38.664  30.653  35.727  1.00  0.00    -0.205 F 
ATOM     44  C   UNL A   1      39.557  33.962  37.028  1.00  0.00     0.022 A 
BRANCH  42  45
ATOM     45  S   UNL A   1      37.537  32.410  38.015  1.00  0.00     0.127 S 
ATOM     46  O   UNL A   1      38.047  33.005  39.249  1.00  0.00    -0.237 OA
ATOM     47  O   UNL A   1      36.429  33.137  37.398  1.00  0.00    -0.237 OA
ATOM     48  O   UNL A   1      37.379  30.962  38.045  1.00  0.00    -0.744 OA
ENDBRANCH  42  45
ENDBRANCH  24  38
BRANCH  25  49
ATOM     49  C   UNL A   1      42.716  26.065  27.390  1.00  0.00     0.023 A 
ATOM     50  C   UNL A   1      43.561  26.475  26.340  1.00  0.00     0.012 A 
ATOM     51  C   UNL A   1      42.184  24.760  27.368  1.00  0.00     0.148 A 
ATOM     52  C   UNL A   1      43.834  25.620  25.270  1.00  0.00     0.002 A 
ATOM     53  C   UNL A   1      42.496  23.898  26.323  1.00  0.00     0.091 A 
ATOM     54  F   UNL A   1      41.367  24.390  28.363  1.00  0.00    -0.205 F 
ATOM     55  C   UNL A   1      43.308  24.330  25.264  1.00  0.00     0.022 A 
BRANCH  53  56
ATOM     56  S   UNL A   1      41.940  22.191  26.306  1.00  0.00     0.127 S 
ATOM     57  O   UNL A   1      42.671  21.649  25.163  1.00  0.00    -0.237 OA
ATOM     58  O   UNL A   1      42.389  21.705  27.611  1.00  0.00    -0.237 OA
ATOM     59  O   UNL A   1      40.491  22.263  26.165  1.00  0.00    -0.744 OA
ENDBRANCH  53  56
ENDBRANCH  25  49
BRANCH  37  60
ATOM     60  C   UNL A   1      45.026  26.828  33.935  1.00  0.00     0.023 A 
ATOM     61  C   UNL A   1      46.345  27.325  33.902  1.00  0.00     0.012 A 
ATOM     62  C   UNL A   1      44.714  25.741  34.772  1.00  0.00     0.148 A 
ATOM     63  C   UNL A   1      47.343  26.729  34.669  1.00  0.00     0.002 A 
ATOM     64  C   UNL A   1      45.704  25.185  35.573  1.00  0.00     0.091 A 
ATOM     65  F   UNL A   1      43.458  25.270  34.773  1.00  0.00    -0.205 F 
ATOM     66  C   UNL A   1      47.020  25.670  35.514  1.00  0.00     0.022 A 
BRANCH  64  67
ATOM     67  S   UNL A   1      45.345  23.893  36.768  1.00  0.00     0.127 S 
ATOM     68  O   UNL A   1      44.268  24.500  37.548  1.00  0.00    -0.237 OA
ATOM     69  O   UNL A   1      44.927  22.780  35.914  1.00  0.00    -0.237 OA
ATOM     70  O   UNL A   1      46.592  23.663  37.485  1.00  0.00    -0.744 OA
ENDBRANCH  64  67
ENDBRANCH  37  60
ENDBRANCH  11  12
ENDBRANCH   4   6
ENDBRANCH   3   4
ENDBRANCH   2   3
ENDBRANCH   1   2
BRANCH   1  71
ATOM     71  O   UNL A   1      31.309  28.131  25.063  1.00  0.00    -0.462 OA
BRANCH  71  72
ATOM     72  C   UNL A   1      30.610  27.743  23.944  1.00  0.00     0.310 C 
ATOM     73  O   UNL A   1      29.611  28.337  23.546  1.00  0.00    -0.252 OA
BRANCH  72  74
ATOM     74  C   UNL A   1      31.080  26.420  23.385  1.00  0.00     0.119 C 
ATOM     75  C   UNL A   1      31.845  25.272  24.111  1.00  0.00     0.100 C 
ATOM     76  C   UNL A   1      31.954  26.641  22.111  1.00  0.00     0.027 C 
ATOM     77  C   UNL A   1      32.992  24.934  23.098  1.00  0.00     0.025 C 
ATOM     78  C   UNL A   1      33.336  27.116  22.505  1.00  0.00    -0.027 C 
ATOM     79  C   UNL A   1      32.307  25.194  21.753  1.00  0.00     0.017 C 
ATOM     80  C   UNL A   1      33.970  26.080  23.068  1.00  0.00    -0.027 C 
BRANCH  75  81
ATOM     81  C   UNL A   1      32.353  25.047  25.543  1.00  0.00     0.229 C 
ATOM     82  O   UNL A   1      32.328  26.027  26.310  1.00  0.00    -0.274 OA
ATOM     83  N   UNL A   1      32.550  23.853  26.165  1.00  0.00    -0.323 N 
ATOM     84  H   UNL A   1      32.312  23.867  27.121  1.00  0.00     0.170 HD
BRANCH  83  85
ATOM     85  C   UNL A   1      33.018  22.609  25.732  1.00  0.00     0.084 A 
ATOM     86  C   UNL A   1      32.079  21.622  25.419  1.00  0.00     0.030 A 
ATOM     87  C   UNL A   1      34.358  22.243  25.757  1.00  0.00     0.149 A 
ATOM     88  C   UNL A   1      32.493  20.385  24.913  1.00  0.00     0.002 A 
ATOM     89  C   UNL A   1      34.785  21.066  25.141  1.00  0.00     0.049 A 
ATOM     90  C   UNL A   1      33.847  20.135  24.706  1.00  0.00     0.004 A 
BRANCH  87  91
ATOM     91  O   UNL A   1      35.305  22.902  26.481  1.00  0.00    -0.433 OA
BRANCH  91  92
ATOM     92  C   UNL A   1      36.120  23.822  25.750  1.00  0.00     0.542 C 
ATOM     93  F   UNL A   1      37.406  23.448  25.902  1.00  0.00    -0.167 F 
ATOM     94  F   UNL A   1      35.837  23.831  24.424  1.00  0.00    -0.167 F 
ENDBRANCH  91  92
ENDBRANCH  87  91
ENDBRANCH  83  85
ENDBRANCH  75  81
ENDBRANCH  72  74
ENDBRANCH  71  72
ENDBRANCH   1  71
TORSDOF 18
ENDMDL
MODEL 3
REMARK VINA RESULT:     -11.5      1.491      2.322
REMARK SMILES O=C(OCCOC(=O)[C@@H]1[C@H](C(=O)Nc2ccccc2OC(F)F)[C@@H]2C=C[C@H]1C2)c1ccc(-c2c3nc(c(-c4cccc(S(=O)(=O)[O-])c4F)c4ccc([nH]4)c(-c4cccc(S(=O)(=O)[O-])c4F)c4nc(c(-c5cccc(S(=O)(=O)[O-])c5F)c5ccc2[nH]5)C=C4)C=C3)cc1
REMARK SMILES IDX 5 1 4 2 3 3 2 4 1 5 29 6 30 7 91 8 31 9 90 10 32 11 33 12
REMARK SMILES IDX 34 13 84 14 35 15 89 16 83 17 85 18 36 19 88 20 82 21 81 22
REMARK SMILES IDX 37 24 69 25 49 26 68 27 50 28 53 29 67 30 86 31 51 32 52 33
REMARK SMILES IDX 66 35 87 36 54 37 38 38 39 39 47 40 40 41 42 42 48 43 41 44
REMARK SMILES IDX 43 45 44 46 45 47 46 48 70 49 71 50 79 51 72 52 74 53 80 54
REMARK SMILES IDX 73 55 75 56 76 57 77 58 78 59 55 60 56 61 64 62 57 63 59 64
REMARK SMILES IDX 65 65 58 66 60 67 61 68 62 69 63 70 6 71 7 72 8 73 9 74
REMARK SMILES IDX 10 75 27 76 24 77 26 78 28 79 25 80 11 81 12 82 13 83 14 85
REMARK SMILES IDX 15 86 19 87 16 88 18 89 17 90 20 91 21 92 22 93 23 94
REMARK H PARENT 85 23 53 34 13 84
REMARK Flexibility Score: inf
ROOT
ATOM      1  C   UNL A   1      33.305  27.395  26.322  1.00  0.00     0.274 C 
ENDROOT
BRANCH   1   2
ATOM      2  C   UNL A   1      32.461  28.659  26.139  1.00  0.00     0.275 C 
BRANCH   2   3
ATOM      3  O   UNL A   1      33.194  29.901  26.068  1.00  0.00    -0.458 OA
BRANCH   3   4
ATOM      4  C   UNL A   1      33.560  30.666  27.132  1.00  0.00     0.338 C 
ATOM      5  O   UNL A   1      32.831  31.552  27.565  1.00  0.00    -0.246 OA
BRANCH   4   6
ATOM      6  C   UNL A   1      34.928  30.498  27.638  1.00  0.00     0.060 A 
ATOM      7  C   UNL A   1      35.841  31.548  27.558  1.00  0.00     0.016 A 
ATOM      8  C   UNL A   1      35.277  29.285  28.247  1.00  0.00     0.016 A 
ATOM      9  C   UNL A   1      37.051  31.438  28.219  1.00  0.00     0.010 A 
ATOM     10  C   UNL A   1      36.502  29.168  28.897  1.00  0.00     0.010 A 
ATOM     11  C   UNL A   1      37.383  30.252  28.891  1.00  0.00    -0.014 A 
BRANCH  11  12
ATOM     12  C   UNL A   1      38.768  30.154  29.377  1.00  0.00     0.031 A 
ATOM     13  C   UNL A   1      39.052  30.776  30.703  1.00  0.00     0.074 A 
ATOM     14  C   UNL A   1      39.639  29.323  28.782  1.00  0.00     0.049 A 
ATOM     15  N   UNL A   1      39.895  30.386  31.616  1.00  0.00    -0.248 NA
ATOM     16  C   UNL A   1      38.225  31.935  31.083  1.00  0.00     0.031 C 
ATOM     17  C   UNL A   1      39.460  28.685  27.478  1.00  0.00     0.029 A 
ATOM     18  N   UNL A   1      40.838  28.838  29.232  1.00  0.00    -0.354 N 
ATOM     19  C   UNL A   1      39.632  31.189  32.714  1.00  0.00     0.074 A 
ATOM     20  C   UNL A   1      38.613  32.138  32.332  1.00  0.00     0.031 C 
ATOM     21  C   UNL A   1      40.520  27.897  27.228  1.00  0.00     0.029 A 
ATOM     22  C   UNL A   1      41.414  27.926  28.381  1.00  0.00     0.049 A 
ATOM     23  H   UNL A   1      41.248  29.116  30.084  1.00  0.00     0.167 HD
ATOM     24  C   UNL A   1      40.161  31.092  33.952  1.00  0.00     0.034 A 
ATOM     25  C   UNL A   1      42.509  27.162  28.554  1.00  0.00     0.034 A 
ATOM     26  C   UNL A   1      41.230  30.196  34.279  1.00  0.00     0.049 A 
ATOM     27  C   UNL A   1      43.155  27.145  29.917  1.00  0.00     0.074 A 
ATOM     28  C   UNL A   1      41.896  30.043  35.478  1.00  0.00     0.029 A 
ATOM     29  N   UNL A   1      41.820  29.328  33.370  1.00  0.00    -0.354 N 
ATOM     30  N   UNL A   1      42.777  27.757  31.017  1.00  0.00    -0.248 NA
ATOM     31  C   UNL A   1      44.330  26.281  30.085  1.00  0.00     0.031 C 
ATOM     32  C   UNL A   1      42.911  29.099  35.285  1.00  0.00     0.029 A 
ATOM     33  C   UNL A   1      42.859  28.648  33.973  1.00  0.00     0.049 A 
ATOM     34  H   UNL A   1      41.538  29.212  32.434  1.00  0.00     0.167 HD
ATOM     35  C   UNL A   1      43.643  27.323  32.014  1.00  0.00     0.074 A 
ATOM     36  C   UNL A   1      44.548  26.375  31.390  1.00  0.00     0.031 C 
ATOM     37  C   UNL A   1      43.706  27.680  33.322  1.00  0.00     0.034 A 
BRANCH  24  38
ATOM     38  C   UNL A   1      39.549  31.957  35.013  1.00  0.00     0.023 A 
ATOM     39  C   UNL A   1      38.412  31.486  35.705  1.00  0.00     0.012 A 
ATOM     40  C   UNL A   1      40.063  33.231  35.307  1.00  0.00     0.148 A 
ATOM     41  C   UNL A   1      37.781  32.283  36.657  1.00  0.00     0.002 A 
ATOM     42  C   UNL A   1      39.443  34.009  36.277  1.00  0.00     0.091 A 
ATOM     43  F   UNL A   1      41.123  33.667  34.612  1.00  0.00    -0.205 F 
ATOM     44  C   UNL A   1      38.299  33.542  36.946  1.00  0.00     0.022 A 
BRANCH  42  45
ATOM     45  S   UNL A   1      40.043  35.636  36.744  1.00  0.00     0.127 S 
ATOM     46  O   UNL A   1      39.647  36.439  35.588  1.00  0.00    -0.237 OA
ATOM     47  O   UNL A   1      39.281  35.900  37.964  1.00  0.00    -0.237 OA
ATOM     48  O   UNL A   1      41.480  35.496  36.938  1.00  0.00    -0.744 OA
ENDBRANCH  42  45
ENDBRANCH  24  38
BRANCH  25  49
ATOM     49  C   UNL A   1      43.005  26.291  27.449  1.00  0.00     0.023 A 
ATOM     50  C   UNL A   1      43.899  26.797  26.486  1.00  0.00     0.012 A 
ATOM     51  C   UNL A   1      42.573  24.954  27.345  1.00  0.00     0.148 A 
ATOM     52  C   UNL A   1      44.318  26.002  25.417  1.00  0.00     0.002 A 
ATOM     53  C   UNL A   1      43.029  24.154  26.304  1.00  0.00     0.091 A 
ATOM     54  F   UNL A   1      41.707  24.492  28.259  1.00  0.00    -0.205 F 
ATOM     55  C   UNL A   1      43.890  24.679  25.329  1.00  0.00     0.022 A 
BRANCH  53  56
ATOM     56  S   UNL A   1      42.602  22.413  26.191  1.00  0.00     0.127 S 
ATOM     57  O   UNL A   1      43.122  21.894  27.454  1.00  0.00    -0.237 OA
ATOM     58  O   UNL A   1      41.142  22.457  26.097  1.00  0.00    -0.237 OA
ATOM     59  O   UNL A   1      43.262  21.937  24.981  1.00  0.00    -0.744 OA
ENDBRANCH  53  56
ENDBRANCH  25  49
BRANCH  37  60
ATOM     60  C   UNL A   1      44.780  27.045  34.161  1.00  0.00     0.023 A 
ATOM     61  C   UNL A   1      46.021  27.697  34.308  1.00  0.00     0.012 A 
ATOM     62  C   UNL A   1      44.530  25.859  34.876  1.00  0.00     0.148 A 
ATOM     63  C   UNL A   1      47.007  27.161  35.132  1.00  0.00     0.002 A 
ATOM     64  C   UNL A   1      45.499  25.358  35.736  1.00  0.00     0.091 A 
ATOM     65  F   UNL A   1      43.351  25.242  34.706  1.00  0.00    -0.205 F 
ATOM     66  C   UNL A   1      46.741  26.001  35.856  1.00  0.00     0.022 A 
BRANCH  64  67
ATOM     67  S   UNL A   1      45.193  23.934  36.787  1.00  0.00     0.127 S 
ATOM     68  O   UNL A   1      46.518  23.690  37.350  1.00  0.00    -0.237 OA
ATOM     69  O   UNL A   1      44.210  24.451  37.740  1.00  0.00    -0.237 OA
ATOM     70  O   UNL A   1      44.681  22.895  35.903  1.00  0.00    -0.744 OA
ENDBRANCH  64  67
ENDBRANCH  37  60
ENDBRANCH  11  12
ENDBRANCH   4   6
ENDBRANCH   3   4
ENDBRANCH   2   3
ENDBRANCH   1   2
BRANCH   1  71
ATOM     71  O   UNL A   1      33.353  26.507  25.190  1.00  0.00    -0.462 OA
BRANCH  71  72
ATOM     72  C   UNL A   1      33.018  25.219  25.534  1.00  0.00     0.310 C 
ATOM     73  O   UNL A   1      32.386  24.946  26.552  1.00  0.00    -0.252 OA
BRANCH  72  74
ATOM     74  C   UNL A   1      33.669  24.184  24.645  1.00  0.00     0.119 C 
ATOM     75  C   UNL A   1      33.674  22.632  24.797  1.00  0.00     0.100 C 
ATOM     76  C   UNL A   1      35.186  24.499  24.454  1.00  0.00     0.027 C 
ATOM     77  C   UNL A   1      35.183  22.274  24.573  1.00  0.00     0.025 C 
ATOM     78  C   UNL A   1      35.957  24.109  25.698  1.00  0.00    -0.027 C 
ATOM     79  C   UNL A   1      35.609  23.335  23.553  1.00  0.00     0.017 C 
ATOM     80  C   UNL A   1      35.983  22.771  25.749  1.00  0.00    -0.027 C 
BRANCH  75  81
ATOM     81  C   UNL A   1      33.062  21.642  25.798  1.00  0.00     0.229 C 
ATOM     82  O   UNL A   1      32.667  22.108  26.883  1.00  0.00    -0.274 OA
ATOM     83  N   UNL A   1      32.629  20.378  25.540  1.00  0.00    -0.323 N 
ATOM     84  H   UNL A   1      31.820  20.133  26.047  1.00  0.00     0.170 HD
BRANCH  83  85
ATOM     85  C   UNL A   1      33.089  19.355  24.707  1.00  0.00     0.084 A 
ATOM     86  C   UNL A   1      34.319  18.761  25.008  1.00  0.00     0.030 A 
ATOM     87  C   UNL A   1      32.481  19.012  23.506  1.00  0.00     0.149 A 
ATOM     88  C   UNL A   1      34.790  17.685  24.248  1.00  0.00     0.002 A 
ATOM     89  C   UNL A   1      32.873  17.865  22.813  1.00  0.00     0.049 A 
ATOM     90  C   UNL A   1      34.028  17.191  23.192  1.00  0.00     0.004 A 
BRANCH  87  91
ATOM     91  O   UNL A   1      31.589  19.812  22.859  1.00  0.00    -0.433 OA
BRANCH  91  92
ATOM     92  C   UNL A   1      32.149  20.905  22.126  1.00  0.00     0.542 C 
ATOM     93  F   UNL A   1      31.875  20.712  20.820  1.00  0.00    -0.167 F 
ATOM     94  F   UNL A   1      31.629  22.102  22.495  1.00  0.00    -0.167 F 
ENDBRANCH  91  92
ENDBRANCH  87  91
ENDBRANCH  83  85
ENDBRANCH  75  81
ENDBRANCH  72  74
ENDBRANCH  71  72
ENDBRANCH   1  71
TORSDOF 18
ENDMDL
