MODEL 1
REMARK VINA RESULT:     -12.0      0.000      0.000
REMARK SMILES C=CCn1c(=S)[nH]c2cc(C(=O)OCCOC(=O)c3ccc(-c4c5nc(c(-c6cccc(S(=O)(=O)[O-])c6F)c6ccc([nH]6)c(-c6cccc(S(=O)(=O)[O-])c6F)c6nc(c(-c7cccc(S(=O)(=O)[O-])c7F)c7ccc4[nH]7)C=C6)C=C5)cc3)ccc2c1=O
REMARK SMILES IDX 15 1 14 2 13 3 11 4 12 5 10 6 4 7 5 8 85 9 6 10 7 11 84 12
REMARK SMILES IDX 86 13 8 14 83 16 9 17 82 18 3 19 2 20 1 21 16 22 17 23 18 24
REMARK SMILES IDX 19 25 20 26 81 27 21 28 80 29 22 30 23 31 24 32 74 33 25 34
REMARK SMILES IDX 79 35 73 36 75 37 26 38 78 39 72 40 71 41 27 43 59 44 39 45
REMARK SMILES IDX 58 46 40 47 43 48 57 49 76 50 41 51 42 52 56 54 77 55 44 56
REMARK SMILES IDX 28 57 29 58 37 59 30 60 32 61 38 62 31 63 33 64 34 65 35 66
REMARK SMILES IDX 36 67 60 68 61 69 69 70 62 71 64 72 70 73 63 74 65 75 66 76
REMARK SMILES IDX 67 77 68 78 45 79 46 80 54 81 47 82 49 83 55 84 48 85 50 86
REMARK SMILES IDX 51 87 52 88 53 89
REMARK H PARENT 7 15 75 42 43 53
REMARK Flexibility Score: inf
ROOT
ATOM      1  C   UNL A   1      31.766  30.897  26.336  1.00  0.00     0.275 C 
ENDROOT
BRANCH   1   2
ATOM      2  C   UNL A   1      31.750  29.743  25.328  1.00  0.00     0.275 C 
BRANCH   2   3
ATOM      3  O   UNL A   1      31.846  28.452  25.970  1.00  0.00    -0.458 OA
BRANCH   3   4
ATOM      4  C   UNL A   1      32.856  27.667  25.530  1.00  0.00     0.338 C 
ATOM      5  O   UNL A   1      33.929  28.049  25.084  1.00  0.00    -0.246 OA
BRANCH   4   6
ATOM      6  C   UNL A   1      32.567  26.228  25.713  1.00  0.00     0.062 A 
ATOM      7  N   UNL A   1      33.237  21.225  25.520  1.00  0.00    -0.281 N 
ATOM      8  C   UNL A   1      34.508  21.797  25.430  1.00  0.00     0.180 A 
ATOM      9  C   UNL A   1      32.051  21.979  25.619  1.00  0.00     0.262 A 
ATOM     10  S   UNL A   1      35.975  21.021  25.187  1.00  0.00    -0.040 S 
ATOM     11  N   UNL A   1      34.575  23.153  25.550  1.00  0.00    -0.332 N 
ATOM     12  C   UNL A   1      32.188  23.451  25.679  1.00  0.00     0.064 A 
ATOM     13  O   UNL A   1      30.917  21.506  25.636  1.00  0.00    -0.269 OA
ATOM     14  C   UNL A   1      33.463  23.976  25.662  1.00  0.00     0.054 A 
ATOM     15  H   UNL A   1      35.464  23.574  25.559  1.00  0.00     0.169 HD
ATOM     16  C   UNL A   1      31.082  24.318  25.724  1.00  0.00     0.017 A 
ATOM     17  C   UNL A   1      33.651  25.348  25.695  1.00  0.00     0.042 A 
ATOM     18  C   UNL A   1      31.270  25.714  25.736  1.00  0.00     0.016 A 
BRANCH   7  19
ATOM     19  C   UNL A   1      33.074  19.771  25.511  1.00  0.00     0.155 C 
BRANCH  19  20
ATOM     20  C   UNL A   1      32.719  19.329  24.115  1.00  0.00    -0.013 C 
ATOM     21  C   UNL A   1      32.787  18.071  23.665  1.00  0.00     0.006 C 
ENDBRANCH  19  20
ENDBRANCH   7  19
ENDBRANCH   4   6
ENDBRANCH   3   4
ENDBRANCH   2   3
ENDBRANCH   1   2
BRANCH   1  22
ATOM     22  O   UNL A   1      32.791  30.719  27.331  1.00  0.00    -0.458 OA
BRANCH  22  23
ATOM     23  C   UNL A   1      33.544  31.814  27.567  1.00  0.00     0.338 C 
ATOM     24  O   UNL A   1      33.167  32.973  27.613  1.00  0.00    -0.246 OA
BRANCH  23  25
ATOM     25  C   UNL A   1      34.925  31.428  27.888  1.00  0.00     0.060 A 
ATOM     26  C   UNL A   1      35.932  32.368  28.054  1.00  0.00     0.016 A 
ATOM     27  C   UNL A   1      35.147  30.106  28.248  1.00  0.00     0.016 A 
ATOM     28  C   UNL A   1      37.161  31.956  28.587  1.00  0.00     0.010 A 
ATOM     29  C   UNL A   1      36.285  29.749  28.959  1.00  0.00     0.010 A 
ATOM     30  C   UNL A   1      37.341  30.651  29.097  1.00  0.00    -0.014 A 
BRANCH  30  31
ATOM     31  C   UNL A   1      38.622  30.231  29.741  1.00  0.00     0.031 A 
ATOM     32  C   UNL A   1      38.992  30.686  31.140  1.00  0.00     0.074 A 
ATOM     33  C   UNL A   1      39.485  29.445  29.060  1.00  0.00     0.049 A 
ATOM     34  N   UNL A   1      40.019  30.330  31.872  1.00  0.00    -0.248 NA
ATOM     35  C   UNL A   1      38.138  31.697  31.794  1.00  0.00     0.031 C 
ATOM     36  C   UNL A   1      39.346  29.054  27.653  1.00  0.00     0.029 A 
ATOM     37  N   UNL A   1      40.640  28.816  29.459  1.00  0.00    -0.354 N 
ATOM     38  C   UNL A   1      39.951  31.096  33.032  1.00  0.00     0.074 A 
ATOM     39  C   UNL A   1      38.825  31.984  32.890  1.00  0.00     0.031 C 
ATOM     40  C   UNL A   1      40.316  28.183  27.338  1.00  0.00     0.029 A 
ATOM     41  C   UNL A   1      41.169  27.976  28.504  1.00  0.00     0.049 A 
ATOM     42  H   UNL A   1      41.050  28.952  30.344  1.00  0.00     0.167 HD
ATOM     43  C   UNL A   1      40.710  31.025  34.149  1.00  0.00     0.034 A 
ATOM     44  C   UNL A   1      42.200  27.110  28.565  1.00  0.00     0.034 A 
ATOM     45  C   UNL A   1      41.756  30.065  34.344  1.00  0.00     0.049 A 
ATOM     46  C   UNL A   1      42.959  26.958  29.853  1.00  0.00     0.074 A 
ATOM     47  C   UNL A   1      42.489  29.819  35.490  1.00  0.00     0.029 A 
ATOM     48  N   UNL A   1      42.207  29.187  33.375  1.00  0.00    -0.354 N 
ATOM     49  N   UNL A   1      42.757  27.568  30.996  1.00  0.00    -0.248 NA
ATOM     50  C   UNL A   1      44.066  25.991  29.873  1.00  0.00     0.031 C 
ATOM     51  C   UNL A   1      43.391  28.791  35.212  1.00  0.00     0.029 A 
ATOM     52  C   UNL A   1      43.213  28.396  33.896  1.00  0.00     0.049 A 
ATOM     53  H   UNL A   1      41.863  29.132  32.454  1.00  0.00     0.167 HD
ATOM     54  C   UNL A   1      43.704  27.051  31.873  1.00  0.00     0.074 A 
ATOM     55  C   UNL A   1      44.466  26.065  31.137  1.00  0.00     0.031 C 
ATOM     56  C   UNL A   1      43.928  27.384  33.166  1.00  0.00     0.034 A 
BRANCH  43  57
ATOM     57  C   UNL A   1      40.365  31.925  35.305  1.00  0.00     0.023 A 
ATOM     58  C   UNL A   1      41.101  33.114  35.488  1.00  0.00     0.012 A 
ATOM     59  C   UNL A   1      39.259  31.660  36.135  1.00  0.00     0.148 A 
ATOM     60  C   UNL A   1      40.754  34.018  36.490  1.00  0.00     0.002 A 
ATOM     61  C   UNL A   1      38.898  32.582  37.110  1.00  0.00     0.091 A 
ATOM     62  F   UNL A   1      38.579  30.521  35.947  1.00  0.00    -0.205 F 
ATOM     63  C   UNL A   1      39.647  33.758  37.293  1.00  0.00     0.022 A 
BRANCH  61  64
ATOM     64  S   UNL A   1      37.456  32.379  38.163  1.00  0.00     0.127 S 
ATOM     65  O   UNL A   1      37.344  30.922  38.232  1.00  0.00    -0.237 OA
ATOM     66  O   UNL A   1      37.893  33.017  39.405  1.00  0.00    -0.237 OA
ATOM     67  O   UNL A   1      36.359  33.051  37.481  1.00  0.00    -0.744 OA
ENDBRANCH  61  64
ENDBRANCH  43  57
BRANCH  44  68
ATOM     68  C   UNL A   1      42.486  26.238  27.391  1.00  0.00     0.023 A 
ATOM     69  C   UNL A   1      43.277  26.741  26.339  1.00  0.00     0.012 A 
ATOM     70  C   UNL A   1      42.060  24.897  27.353  1.00  0.00     0.148 A 
ATOM     71  C   UNL A   1      43.636  25.924  25.268  1.00  0.00     0.002 A 
ATOM     72  C   UNL A   1      42.455  24.077  26.301  1.00  0.00     0.091 A 
ATOM     73  F   UNL A   1      41.310  24.442  28.366  1.00  0.00    -0.205 F 
ATOM     74  C   UNL A   1      43.235  24.591  25.253  1.00  0.00     0.022 A 
BRANCH  72  75
ATOM     75  S   UNL A   1      42.080  22.321  26.245  1.00  0.00     0.127 S 
ATOM     76  O   UNL A   1      40.622  22.331  26.142  1.00  0.00    -0.237 OA
ATOM     77  O   UNL A   1      42.781  21.905  25.029  1.00  0.00    -0.237 OA
ATOM     78  O   UNL A   1      42.618  21.760  27.476  1.00  0.00    -0.744 OA
ENDBRANCH  72  75
ENDBRANCH  44  68
BRANCH  56  79
ATOM     79  C   UNL A   1      45.039  26.695  33.903  1.00  0.00     0.023 A 
ATOM     80  C   UNL A   1      46.330  27.255  33.867  1.00  0.00     0.012 A 
ATOM     81  C   UNL A   1      44.761  25.628  34.778  1.00  0.00     0.148 A 
ATOM     82  C   UNL A   1      47.332  26.765  34.701  1.00  0.00     0.002 A 
ATOM     83  C   UNL A   1      45.756  25.166  35.630  1.00  0.00     0.091 A 
ATOM     84  F   UNL A   1      43.520  25.121  34.792  1.00  0.00    -0.205 F 
ATOM     85  C   UNL A   1      47.042  25.733  35.591  1.00  0.00     0.022 A 
BRANCH  83  86
ATOM     86  S   UNL A   1      45.462  23.901  36.870  1.00  0.00     0.127 S 
ATOM     87  O   UNL A   1      44.961  22.795  36.054  1.00  0.00    -0.237 OA
ATOM     88  O   UNL A   1      46.799  23.695  37.423  1.00  0.00    -0.237 OA
ATOM     89  O   UNL A   1      44.493  24.463  37.802  1.00  0.00    -0.744 OA
ENDBRANCH  83  86
ENDBRANCH  56  79
ENDBRANCH  30  31
ENDBRANCH  23  25
ENDBRANCH  22  23
ENDBRANCH   1  22
TORSDOF 16
ENDMDL
MODEL 2
REMARK VINA RESULT:     -11.9      1.830      2.362
REMARK SMILES C=CCn1c(=S)[nH]c2cc(C(=O)OCCOC(=O)c3ccc(-c4c5nc(c(-c6cccc(S(=O)(=O)[O-])c6F)c6ccc([nH]6)c(-c6cccc(S(=O)(=O)[O-])c6F)c6nc(c(-c7cccc(S(=O)(=O)[O-])c7F)c7ccc4[nH]7)C=C6)C=C5)cc3)ccc2c1=O
REMARK SMILES IDX 15 1 14 2 13 3 11 4 12 5 10 6 4 7 5 8 85 9 6 10 7 11 84 12
REMARK SMILES IDX 86 13 8 14 83 16 9 17 82 18 3 19 2 20 1 21 16 22 17 23 18 24
REMARK SMILES IDX 19 25 20 26 81 27 21 28 80 29 22 30 23 31 24 32 74 33 25 34
REMARK SMILES IDX 79 35 73 36 75 37 26 38 78 39 72 40 71 41 27 43 59 44 39 45
REMARK SMILES IDX 58 46 40 47 43 48 57 49 76 50 41 51 42 52 56 54 77 55 44 56
REMARK SMILES IDX 28 57 29 58 37 59 30 60 32 61 38 62 31 63 33 64 34 65 35 66
REMARK SMILES IDX 36 67 60 68 61 69 69 70 62 71 64 72 70 73 63 74 65 75 66 76
REMARK SMILES IDX 67 77 68 78 45 79 46 80 54 81 47 82 49 83 55 84 48 85 50 86
REMARK SMILES IDX 51 87 52 88 53 89
REMARK H PARENT 7 15 75 42 43 53
REMARK Flexibility Score: inf
ROOT
ATOM      1  C   UNL A   1      32.456  29.783  25.144  1.00  0.00     0.275 C 
ENDROOT
BRANCH   1   2
ATOM      2  C   UNL A   1      31.059  29.625  24.534  1.00  0.00     0.275 C 
BRANCH   2   3
ATOM      3  O   UNL A   1      30.637  28.244  24.477  1.00  0.00    -0.458 OA
BRANCH   3   4
ATOM      4  C   UNL A   1      30.622  27.700  23.240  1.00  0.00     0.338 C 
ATOM      5  O   UNL A   1      30.014  28.125  22.268  1.00  0.00    -0.246 OA
BRANCH   4   6
ATOM      6  C   UNL A   1      31.512  26.523  23.136  1.00  0.00     0.062 A 
ATOM      7  N   UNL A   1      34.596  22.801  24.607  1.00  0.00    -0.281 N 
ATOM      8  C   UNL A   1      33.853  23.166  25.732  1.00  0.00     0.180 A 
ATOM      9  C   UNL A   1      34.460  23.425  23.351  1.00  0.00     0.262 A 
ATOM     10  S   UNL A   1      34.005  22.592  27.301  1.00  0.00    -0.040 S 
ATOM     11  N   UNL A   1      32.884  24.106  25.543  1.00  0.00    -0.332 N 
ATOM     12  C   UNL A   1      33.434  24.485  23.229  1.00  0.00     0.064 A 
ATOM     13  O   UNL A   1      35.143  23.169  22.361  1.00  0.00    -0.269 OA
ATOM     14  C   UNL A   1      32.669  24.766  24.341  1.00  0.00     0.054 A 
ATOM     15  H   UNL A   1      32.301  24.330  26.303  1.00  0.00     0.169 HD
ATOM     16  C   UNL A   1      33.235  25.220  22.047  1.00  0.00     0.017 A 
ATOM     17  C   UNL A   1      31.708  25.762  24.290  1.00  0.00     0.042 A 
ATOM     18  C   UNL A   1      32.274  26.247  21.999  1.00  0.00     0.016 A 
BRANCH   7  19
ATOM     19  C   UNL A   1      35.584  21.726  24.686  1.00  0.00     0.155 C 
BRANCH  19  20
ATOM     20  C   UNL A   1      36.964  22.329  24.668  1.00  0.00    -0.013 C 
ATOM     21  C   UNL A   1      37.494  23.072  25.647  1.00  0.00     0.006 C 
ENDBRANCH  19  20
ENDBRANCH   7  19
ENDBRANCH   4   6
ENDBRANCH   3   4
ENDBRANCH   2   3
ENDBRANCH   1   2
BRANCH   1  22
ATOM     22  O   UNL A   1      32.397  29.929  26.575  1.00  0.00    -0.458 OA
BRANCH  22  23
ATOM     23  C   UNL A   1      32.918  31.083  27.045  1.00  0.00     0.338 C 
ATOM     24  O   UNL A   1      32.333  32.137  27.224  1.00  0.00    -0.246 OA
BRANCH  23  25
ATOM     25  C   UNL A   1      34.319  30.887  27.444  1.00  0.00     0.060 A 
ATOM     26  C   UNL A   1      35.152  31.954  27.751  1.00  0.00     0.016 A 
ATOM     27  C   UNL A   1      34.724  29.590  27.727  1.00  0.00     0.016 A 
ATOM     28  C   UNL A   1      36.394  31.694  28.345  1.00  0.00     0.010 A 
ATOM     29  C   UNL A   1      35.856  29.356  28.498  1.00  0.00     0.010 A 
ATOM     30  C   UNL A   1      36.745  30.395  28.777  1.00  0.00    -0.014 A 
BRANCH  30  31
ATOM     31  C   UNL A   1      38.032  30.126  29.487  1.00  0.00     0.031 A 
ATOM     32  C   UNL A   1      38.277  30.625  30.898  1.00  0.00     0.074 A 
ATOM     33  C   UNL A   1      39.011  29.442  28.855  1.00  0.00     0.049 A 
ATOM     34  N   UNL A   1      39.301  30.390  31.682  1.00  0.00    -0.248 NA
ATOM     35  C   UNL A   1      37.283  31.533  31.501  1.00  0.00     0.031 C 
ATOM     36  C   UNL A   1      38.987  29.033  27.447  1.00  0.00     0.029 A 
ATOM     37  N   UNL A   1      40.208  28.950  29.316  1.00  0.00    -0.354 N 
ATOM     38  C   UNL A   1      39.088  31.146  32.831  1.00  0.00     0.074 A 
ATOM     39  C   UNL A   1      37.877  31.900  32.627  1.00  0.00     0.031 C 
ATOM     40  C   UNL A   1      40.065  28.277  27.187  1.00  0.00     0.029 A 
ATOM     41  C   UNL A   1      40.876  28.173  28.395  1.00  0.00     0.049 A 
ATOM     42  H   UNL A   1      40.556  29.134  30.218  1.00  0.00     0.167 HD
ATOM     43  C   UNL A   1      39.794  31.166  33.985  1.00  0.00     0.034 A 
ATOM     44  C   UNL A   1      41.995  27.430  28.514  1.00  0.00     0.034 A 
ATOM     45  C   UNL A   1      40.932  30.332  34.238  1.00  0.00     0.049 A 
ATOM     46  C   UNL A   1      42.701  27.370  29.838  1.00  0.00     0.074 A 
ATOM     47  C   UNL A   1      41.630  30.175  35.421  1.00  0.00     0.029 A 
ATOM     48  N   UNL A   1      41.527  29.508  33.301  1.00  0.00    -0.354 N 
ATOM     49  N   UNL A   1      42.375  27.955  30.965  1.00  0.00    -0.248 NA
ATOM     50  C   UNL A   1      43.909  26.536  29.920  1.00  0.00     0.031 C 
ATOM     51  C   UNL A   1      42.656  29.255  35.197  1.00  0.00     0.029 A 
ATOM     52  C   UNL A   1      42.589  28.839  33.876  1.00  0.00     0.049 A 
ATOM     53  H   UNL A   1      41.238  29.412  32.364  1.00  0.00     0.167 HD
ATOM     54  C   UNL A   1      43.330  27.553  31.891  1.00  0.00     0.074 A 
ATOM     55  C   UNL A   1      44.235  26.658  31.202  1.00  0.00     0.031 C 
ATOM     56  C   UNL A   1      43.450  27.913  33.191  1.00  0.00     0.034 A 
BRANCH  43  57
ATOM     57  C   UNL A   1      39.292  32.024  35.114  1.00  0.00     0.023 A 
ATOM     58  C   UNL A   1      38.393  31.469  36.047  1.00  0.00     0.012 A 
ATOM     59  C   UNL A   1      39.786  33.327  35.318  1.00  0.00     0.148 A 
ATOM     60  C   UNL A   1      37.977  32.202  37.157  1.00  0.00     0.002 A 
ATOM     61  C   UNL A   1      39.393  34.040  36.445  1.00  0.00     0.091 A 
ATOM     62  F   UNL A   1      40.635  33.837  34.415  1.00  0.00    -0.205 F 
ATOM     63  C   UNL A   1      38.485  33.481  37.362  1.00  0.00     0.022 A 
BRANCH  61  64
ATOM     64  S   UNL A   1      40.029  35.673  36.842  1.00  0.00     0.127 S 
ATOM     65  O   UNL A   1      39.550  36.460  35.706  1.00  0.00    -0.237 OA
ATOM     66  O   UNL A   1      39.358  35.962  38.110  1.00  0.00    -0.237 OA
ATOM     67  O   UNL A   1      41.475  35.534  36.930  1.00  0.00    -0.744 OA
ENDBRANCH  61  64
ENDBRANCH  43  57
BRANCH  44  68
ATOM     68  C   UNL A   1      42.436  26.593  27.363  1.00  0.00     0.023 A 
ATOM     69  C   UNL A   1      43.300  27.151  26.400  1.00  0.00     0.012 A 
ATOM     70  C   UNL A   1      42.082  25.234  27.266  1.00  0.00     0.148 A 
ATOM     71  C   UNL A   1      43.802  26.371  25.359  1.00  0.00     0.002 A 
ATOM     72  C   UNL A   1      42.617  24.452  26.248  1.00  0.00     0.091 A 
ATOM     73  F   UNL A   1      41.259  24.727  28.195  1.00  0.00    -0.205 F 
ATOM     74  C   UNL A   1      43.470  25.020  25.288  1.00  0.00     0.022 A 
BRANCH  72  75
ATOM     75  S   UNL A   1      42.336  22.682  26.133  1.00  0.00     0.127 S 
ATOM     76  O   UNL A   1      42.924  22.370  24.832  1.00  0.00    -0.237 OA
ATOM     77  O   UNL A   1      43.090  22.185  27.285  1.00  0.00    -0.237 OA
ATOM     78  O   UNL A   1      40.894  22.501  26.229  1.00  0.00    -0.744 OA
ENDBRANCH  72  75
ENDBRANCH  44  68
BRANCH  56  79
ATOM     79  C   UNL A   1      44.595  27.357  33.988  1.00  0.00     0.023 A 
ATOM     80  C   UNL A   1      45.809  28.068  34.021  1.00  0.00     0.012 A 
ATOM     81  C   UNL A   1      44.400  26.259  34.847  1.00  0.00     0.148 A 
ATOM     82  C   UNL A   1      46.817  27.696  34.908  1.00  0.00     0.002 A 
ATOM     83  C   UNL A   1      45.396  25.916  35.752  1.00  0.00     0.091 A 
ATOM     84  F   UNL A   1      43.229  25.608  34.794  1.00  0.00    -0.205 F 
ATOM     85  C   UNL A   1      46.605  26.632  35.782  1.00  0.00     0.022 A 
BRANCH  83  86
ATOM     86  S   UNL A   1      45.189  24.617  36.975  1.00  0.00     0.127 S 
ATOM     87  O   UNL A   1      46.379  24.799  37.806  1.00  0.00    -0.237 OA
ATOM     88  O   UNL A   1      43.932  24.996  37.617  1.00  0.00    -0.237 OA
ATOM     89  O   UNL A   1      45.146  23.363  36.233  1.00  0.00    -0.744 OA
ENDBRANCH  83  86
ENDBRANCH  56  79
ENDBRANCH  30  31
ENDBRANCH  23  25
ENDBRANCH  22  23
ENDBRANCH   1  22
TORSDOF 16
ENDMDL
MODEL 3
REMARK VINA RESULT:     -11.8      5.188     10.173
REMARK SMILES C=CCn1c(=S)[nH]c2cc(C(=O)OCCOC(=O)c3ccc(-c4c5nc(c(-c6cccc(S(=O)(=O)[O-])c6F)c6ccc([nH]6)c(-c6cccc(S(=O)(=O)[O-])c6F)c6nc(c(-c7cccc(S(=O)(=O)[O-])c7F)c7ccc4[nH]7)C=C6)C=C5)cc3)ccc2c1=O
REMARK SMILES IDX 15 1 14 2 13 3 11 4 12 5 10 6 4 7 5 8 85 9 6 10 7 11 84 12
REMARK SMILES IDX 86 13 8 14 83 16 9 17 82 18 3 19 2 20 1 21 16 22 17 23 18 24
REMARK SMILES IDX 19 25 20 26 81 27 21 28 80 29 22 30 23 31 24 32 74 33 25 34
REMARK SMILES IDX 79 35 73 36 75 37 26 38 78 39 72 40 71 41 27 43 59 44 39 45
REMARK SMILES IDX 58 46 40 47 43 48 57 49 76 50 41 51 42 52 56 54 77 55 44 56
REMARK SMILES IDX 28 57 29 58 37 59 30 60 32 61 38 62 31 63 33 64 34 65 35 66
REMARK SMILES IDX 36 67 60 68 61 69 69 70 62 71 64 72 70 73 63 74 65 75 66 76
REMARK SMILES IDX 67 77 68 78 45 79 46 80 54 81 47 82 49 83 55 84 48 85 50 86
REMARK SMILES IDX 51 87 52 88 53 89
REMARK H PARENT 7 15 75 42 43 53
REMARK Flexibility Score: inf
ROOT
ATOM      1  C   UNL A   1      36.412  20.599  24.763  1.00  0.00     0.275 C 
ENDROOT
BRANCH   1   2
ATOM      2  C   UNL A   1      34.989  20.747  25.310  1.00  0.00     0.275 C 
BRANCH   2   3
ATOM      3  O   UNL A   1      33.984  20.418  24.323  1.00  0.00    -0.458 OA
BRANCH   3   4
ATOM      4  C   UNL A   1      32.717  20.362  24.793  1.00  0.00     0.338 C 
ATOM      5  O   UNL A   1      32.126  19.359  25.168  1.00  0.00    -0.246 OA
BRANCH   4   6
ATOM      6  C   UNL A   1      32.098  21.702  24.892  1.00  0.00     0.062 A 
ATOM      7  N   UNL A   1      31.559  26.696  24.350  1.00  0.00    -0.281 N 
ATOM      8  C   UNL A   1      32.477  26.291  23.379  1.00  0.00     0.180 A 
ATOM      9  C   UNL A   1      30.967  25.813  25.275  1.00  0.00     0.262 A 
ATOM     10  S   UNL A   1      33.340  27.251  22.308  1.00  0.00    -0.040 S 
ATOM     11  N   UNL A   1      32.711  24.950  23.284  1.00  0.00    -0.332 N 
ATOM     12  C   UNL A   1      31.313  24.380  25.161  1.00  0.00     0.064 A 
ATOM     13  O   UNL A   1      30.205  26.151  26.179  1.00  0.00    -0.269 OA
ATOM     14  C   UNL A   1      32.166  24.007  24.143  1.00  0.00     0.054 A 
ATOM     15  H   UNL A   1      33.301  24.634  22.564  1.00  0.00     0.169 HD
ATOM     16  C   UNL A   1      30.834  23.405  26.054  1.00  0.00     0.017 A 
ATOM     17  C   UNL A   1      32.541  22.681  24.001  1.00  0.00     0.042 A 
ATOM     18  C   UNL A   1      31.230  22.061  25.924  1.00  0.00     0.016 A 
BRANCH   7  19
ATOM     19  C   UNL A   1      31.162  28.099  24.457  1.00  0.00     0.155 C 
BRANCH  19  20
ATOM     20  C   UNL A   1      30.020  28.357  23.509  1.00  0.00    -0.013 C 
ATOM     21  C   UNL A   1      30.033  29.248  22.510  1.00  0.00     0.006 C 
ENDBRANCH  19  20
ENDBRANCH   7  19
ENDBRANCH   4   6
ENDBRANCH   3   4
ENDBRANCH   2   3
ENDBRANCH   1   2
BRANCH   1  22
ATOM     22  O   UNL A   1      37.256  21.690  25.175  1.00  0.00    -0.458 OA
BRANCH  22  23
ATOM     23  C   UNL A   1      38.444  21.317  25.698  1.00  0.00     0.338 C 
ATOM     24  O   UNL A   1      39.033  20.266  25.514  1.00  0.00    -0.246 OA
BRANCH  23  25
ATOM     25  C   UNL A   1      39.035  22.420  26.467  1.00  0.00     0.060 A 
ATOM     26  C   UNL A   1      40.169  22.248  27.249  1.00  0.00     0.016 A 
ATOM     27  C   UNL A   1      38.561  23.700  26.211  1.00  0.00     0.016 A 
ATOM     28  C   UNL A   1      40.814  23.379  27.765  1.00  0.00     0.010 A 
ATOM     29  C   UNL A   1      39.316  24.814  26.550  1.00  0.00     0.010 A 
ATOM     30  C   UNL A   1      40.430  24.684  27.381  1.00  0.00    -0.014 A 
BRANCH  30  31
ATOM     31  C   UNL A   1      41.167  25.892  27.862  1.00  0.00     0.031 A 
ATOM     32  C   UNL A   1      42.609  26.149  27.467  1.00  0.00     0.074 A 
ATOM     33  C   UNL A   1      40.547  26.767  28.684  1.00  0.00     0.049 A 
ATOM     34  N   UNL A   1      43.352  27.198  27.722  1.00  0.00    -0.248 NA
ATOM     35  C   UNL A   1      43.331  25.093  26.733  1.00  0.00     0.031 C 
ATOM     36  C   UNL A   1      39.219  26.579  29.278  1.00  0.00     0.029 A 
ATOM     37  N   UNL A   1      40.939  27.999  29.149  1.00  0.00    -0.354 N 
ATOM     38  C   UNL A   1      44.617  26.905  27.223  1.00  0.00     0.074 A 
ATOM     39  C   UNL A   1      44.570  25.561  26.706  1.00  0.00     0.031 C 
ATOM     40  C   UNL A   1      38.872  27.689  29.946  1.00  0.00     0.029 A 
ATOM     41  C   UNL A   1      39.960  28.657  29.860  1.00  0.00     0.049 A 
ATOM     42  H   UNL A   1      41.835  28.376  28.990  1.00  0.00     0.167 HD
ATOM     43  C   UNL A   1      45.707  27.701  27.134  1.00  0.00     0.034 A 
ATOM     44  C   UNL A   1      39.922  29.910  30.358  1.00  0.00     0.034 A 
ATOM     45  C   UNL A   1      45.726  29.076  27.539  1.00  0.00     0.049 A 
ATOM     46  C   UNL A   1      41.098  30.821  30.147  1.00  0.00     0.074 A 
ATOM     47  C   UNL A   1      46.734  30.006  27.362  1.00  0.00     0.029 A 
ATOM     48  N   UNL A   1      44.687  29.719  28.186  1.00  0.00    -0.354 N 
ATOM     49  N   UNL A   1      42.217  30.576  29.510  1.00  0.00    -0.248 NA
ATOM     50  C   UNL A   1      41.003  32.181  30.697  1.00  0.00     0.031 C 
ATOM     51  C   UNL A   1      46.305  31.215  27.910  1.00  0.00     0.029 A 
ATOM     52  C   UNL A   1      45.029  31.036  28.421  1.00  0.00     0.049 A 
ATOM     53  H   UNL A   1      43.832  29.302  28.441  1.00  0.00     0.167 HD
ATOM     54  C   UNL A   1      42.955  31.752  29.573  1.00  0.00     0.074 A 
ATOM     55  C   UNL A   1      42.150  32.716  30.292  1.00  0.00     0.031 C 
ATOM     56  C   UNL A   1      44.196  31.998  29.093  1.00  0.00     0.034 A 
BRANCH  43  57
ATOM     57  C   UNL A   1      46.939  27.154  26.465  1.00  0.00     0.023 A 
ATOM     58  C   UNL A   1      47.138  27.402  25.092  1.00  0.00     0.012 A 
ATOM     59  C   UNL A   1      47.942  26.498  27.204  1.00  0.00     0.148 A 
ATOM     60  C   UNL A   1      48.309  26.990  24.458  1.00  0.00     0.002 A 
ATOM     61  C   UNL A   1      49.122  26.120  26.572  1.00  0.00     0.091 A 
ATOM     62  F   UNL A   1      47.728  26.267  28.506  1.00  0.00    -0.205 F 
ATOM     63  C   UNL A   1      49.304  26.361  25.199  1.00  0.00     0.022 A 
BRANCH  61  64
ATOM     64  S   UNL A   1      50.496  25.355  27.441  1.00  0.00     0.127 S 
ATOM     65  O   UNL A   1      49.852  24.187  28.041  1.00  0.00    -0.237 OA
ATOM     66  O   UNL A   1      51.417  25.049  26.346  1.00  0.00    -0.237 OA
ATOM     67  O   UNL A   1      50.979  26.349  28.390  1.00  0.00    -0.744 OA
ENDBRANCH  61  64
ENDBRANCH  43  57
BRANCH  44  68
ATOM     68  C   UNL A   1      38.670  30.398  31.001  1.00  0.00     0.023 A 
ATOM     69  C   UNL A   1      38.533  30.297  32.399  1.00  0.00     0.012 A 
ATOM     70  C   UNL A   1      37.664  31.039  30.253  1.00  0.00     0.148 A 
ATOM     71  C   UNL A   1      37.412  30.824  33.042  1.00  0.00     0.002 A 
ATOM     72  C   UNL A   1      36.569  31.595  30.905  1.00  0.00     0.091 A 
ATOM     73  F   UNL A   1      37.819  31.122  28.925  1.00  0.00    -0.205 F 
ATOM     74  C   UNL A   1      36.436  31.481  32.298  1.00  0.00     0.022 A 
BRANCH  72  75
ATOM     75  S   UNL A   1      35.314  32.554  30.049  1.00  0.00     0.127 S 
ATOM     76  O   UNL A   1      34.380  32.857  31.131  1.00  0.00    -0.237 OA
ATOM     77  O   UNL A   1      36.090  33.697  29.567  1.00  0.00    -0.237 OA
ATOM     78  O   UNL A   1      34.797  31.687  29.000  1.00  0.00    -0.744 OA
ENDBRANCH  72  75
ENDBRANCH  44  68
BRANCH  56  79
ATOM     79  C   UNL A   1      44.797  33.356  29.312  1.00  0.00     0.023 A 
ATOM     80  C   UNL A   1      45.548  33.588  30.480  1.00  0.00     0.012 A 
ATOM     81  C   UNL A   1      44.784  34.317  28.283  1.00  0.00     0.148 A 
ATOM     82  C   UNL A   1      46.288  34.760  30.618  1.00  0.00     0.002 A 
ATOM     83  C   UNL A   1      45.550  35.468  28.414  1.00  0.00     0.091 A 
ATOM     84  F   UNL A   1      44.062  34.062  27.182  1.00  0.00    -0.205 F 
ATOM     85  C   UNL A   1      46.300  35.691  29.581  1.00  0.00     0.022 A 
BRANCH  83  86
ATOM     86  S   UNL A   1      45.701  36.687  27.104  1.00  0.00     0.127 S 
ATOM     87  O   UNL A   1      44.315  37.128  26.946  1.00  0.00    -0.237 OA
ATOM     88  O   UNL A   1      46.592  37.677  27.706  1.00  0.00    -0.237 OA
ATOM     89  O   UNL A   1      46.255  35.981  25.955  1.00  0.00    -0.744 OA
ENDBRANCH  83  86
ENDBRANCH  56  79
ENDBRANCH  30  31
ENDBRANCH  23  25
ENDBRANCH  22  23
ENDBRANCH   1  22
TORSDOF 16
ENDMDL
