MODEL 1
REMARK VINA RESULT:     -11.8      0.000      0.000
REMARK SMILES Cc1nccc(CNC(=O)N2CC[C@@H](C(=O)OCCOC(=O)c3ccc(-c4c5nc(c(-c6cccc(S(=O)(=O)[O-])c6F)c6ccc([nH]6)c(-c6cccc(S(=O)(=O)[O-])c6F)c6nc(c(-c7cccc(S(=O)(=O)[O-])c7F)c7ccc4[nH]7)C=C6)C=C5)cc3)[C@H]2C)n1
REMARK SMILES IDX 18 1 17 2 15 3 16 4 14 5 11 6 12 7 86 8 13 9 87 10 9 11 8 12
REMARK SMILES IDX 10 14 7 15 6 16 1 17 2 18 3 19 88 20 4 21 5 22 19 23 20 24
REMARK SMILES IDX 21 25 22 26 23 27 24 28 85 29 25 30 84 31 26 32 27 33 28 34
REMARK SMILES IDX 78 35 29 36 83 37 77 38 79 39 30 40 82 41 76 42 75 43 31 45
REMARK SMILES IDX 63 46 43 47 62 48 44 49 47 50 61 51 80 52 45 53 46 54 60 56
REMARK SMILES IDX 81 57 48 58 32 59 33 60 41 61 34 62 36 63 42 64 35 65 37 66
REMARK SMILES IDX 38 67 39 68 40 69 64 70 65 71 73 72 66 73 68 74 74 75 67 76
REMARK SMILES IDX 69 77 70 78 71 79 72 80 49 81 50 82 58 83 51 84 53 85 59 86
REMARK SMILES IDX 52 87 54 88 55 89 56 90 57 91
REMARK H PARENT 8 13 79 44 47 55
REMARK Flexibility Score: inf
ROOT
ATOM      1  C   UNL A   1      31.679  28.950  27.289  1.00  0.00     0.274 C 
ENDROOT
BRANCH   1   2
ATOM      2  O   UNL A   1      32.416  27.883  26.657  1.00  0.00    -0.462 OA
BRANCH   2   3
ATOM      3  C   UNL A   1      31.712  26.779  26.318  1.00  0.00     0.311 C 
ATOM      4  O   UNL A   1      30.673  26.437  26.871  1.00  0.00    -0.252 OA
BRANCH   3   5
ATOM      5  C   UNL A   1      32.342  25.955  25.214  1.00  0.00     0.123 C 
ATOM      6  N   UNL A   1      33.016  25.505  22.966  1.00  0.00    -0.321 N 
ATOM      7  C   UNL A   1      34.155  25.365  23.870  1.00  0.00     0.122 C 
ATOM      8  C   UNL A   1      31.818  25.963  23.750  1.00  0.00     0.098 C 
ATOM      9  C   UNL A   1      33.830  26.225  25.071  1.00  0.00     0.039 C 
ATOM     10  C   UNL A   1      31.261  27.296  23.264  1.00  0.00     0.032 C 
BRANCH   6  11
ATOM     11  C   UNL A   1      33.030  24.661  21.888  1.00  0.00     0.317 C 
ATOM     12  N   UNL A   1      32.662  23.373  21.973  1.00  0.00    -0.332 N 
ATOM     13  H   UNL A   1      32.908  22.850  21.176  1.00  0.00     0.165 HD
ATOM     14  O   UNL A   1      33.257  25.071  20.746  1.00  0.00    -0.249 OA
BRANCH  12  15
ATOM     15  C   UNL A   1      31.985  22.587  22.976  1.00  0.00     0.174 C 
BRANCH  15  16
ATOM     16  C   UNL A   1      32.821  21.604  23.762  1.00  0.00     0.063 A 
ATOM     17  C   UNL A   1      32.534  18.003  24.435  1.00  0.00     0.089 C 
ATOM     18  C   UNL A   1      33.076  19.398  24.408  1.00  0.00     0.125 A 
ATOM     19  N   UNL A   1      34.304  19.605  24.910  1.00  0.00    -0.242 NA
ATOM     20  N   UNL A   1      32.312  20.350  23.843  1.00  0.00    -0.236 NA
ATOM     21  C   UNL A   1      34.776  20.862  24.815  1.00  0.00     0.115 A 
ATOM     22  C   UNL A   1      34.081  21.903  24.241  1.00  0.00     0.046 A 
ENDBRANCH  15  16
ENDBRANCH  12  15
ENDBRANCH   6  11
ENDBRANCH   3   5
ENDBRANCH   2   3
ENDBRANCH   1   2
BRANCH   1  23
ATOM     23  C   UNL A   1      31.863  30.287  26.552  1.00  0.00     0.275 C 
BRANCH  23  24
ATOM     24  O   UNL A   1      33.254  30.641  26.424  1.00  0.00    -0.458 OA
BRANCH  24  25
ATOM     25  C   UNL A   1      33.705  31.597  27.264  1.00  0.00     0.338 C 
ATOM     26  O   UNL A   1      33.100  32.596  27.639  1.00  0.00    -0.246 OA
BRANCH  25  27
ATOM     27  C   UNL A   1      35.004  31.212  27.828  1.00  0.00     0.060 A 
ATOM     28  C   UNL A   1      35.155  29.898  28.280  1.00  0.00     0.016 A 
ATOM     29  C   UNL A   1      36.032  32.142  27.986  1.00  0.00     0.016 A 
ATOM     30  C   UNL A   1      36.337  29.500  28.895  1.00  0.00     0.010 A 
ATOM     31  C   UNL A   1      37.219  31.742  28.607  1.00  0.00     0.010 A 
ATOM     32  C   UNL A   1      37.371  30.424  29.075  1.00  0.00    -0.014 A 
BRANCH  32  33
ATOM     33  C   UNL A   1      38.589  30.015  29.810  1.00  0.00     0.031 A 
ATOM     34  C   UNL A   1      39.522  29.015  29.197  1.00  0.00     0.074 A 
ATOM     35  C   UNL A   1      38.854  30.554  31.014  1.00  0.00     0.049 A 
ATOM     36  N   UNL A   1      40.607  28.484  29.695  1.00  0.00    -0.248 NA
ATOM     37  C   UNL A   1      39.190  28.546  27.841  1.00  0.00     0.031 C 
ATOM     38  C   UNL A   1      38.025  31.552  31.692  1.00  0.00     0.029 A 
ATOM     39  N   UNL A   1      39.889  30.328  31.885  1.00  0.00    -0.354 N 
ATOM     40  C   UNL A   1      41.067  27.591  28.737  1.00  0.00     0.074 A 
ATOM     41  C   UNL A   1      40.143  27.650  27.624  1.00  0.00     0.031 C 
ATOM     42  C   UNL A   1      38.577  31.843  32.881  1.00  0.00     0.029 A 
ATOM     43  C   UNL A   1      39.776  31.030  33.062  1.00  0.00     0.049 A 
ATOM     44  H   UNL A   1      40.638  29.722  31.687  1.00  0.00     0.167 HD
ATOM     45  C   UNL A   1      42.168  26.805  28.774  1.00  0.00     0.034 A 
ATOM     46  C   UNL A   1      40.547  31.003  34.167  1.00  0.00     0.034 A 
ATOM     47  C   UNL A   1      43.100  26.780  29.869  1.00  0.00     0.049 A 
ATOM     48  C   UNL A   1      41.763  30.117  34.184  1.00  0.00     0.074 A 
ATOM     49  C   UNL A   1      44.257  26.032  29.999  1.00  0.00     0.029 A 
ATOM     50  N   UNL A   1      42.983  27.541  31.023  1.00  0.00    -0.354 N 
ATOM     51  N   UNL A   1      42.227  29.334  33.238  1.00  0.00    -0.248 NA
ATOM     52  C   UNL A   1      42.580  30.131  35.405  1.00  0.00     0.031 C 
ATOM     53  C   UNL A   1      44.836  26.337  31.237  1.00  0.00     0.029 A 
ATOM     54  C   UNL A   1      44.047  27.284  31.871  1.00  0.00     0.049 A 
ATOM     55  H   UNL A   1      42.250  28.171  31.211  1.00  0.00     0.167 HD
ATOM     56  C   UNL A   1      43.404  28.791  33.736  1.00  0.00     0.074 A 
ATOM     57  C   UNL A   1      43.593  29.348  35.061  1.00  0.00     0.031 C 
ATOM     58  C   UNL A   1      44.247  27.897  33.158  1.00  0.00     0.034 A 
BRANCH  45  59
ATOM     59  C   UNL A   1      42.436  25.927  27.581  1.00  0.00     0.023 A 
ATOM     60  C   UNL A   1      43.160  26.442  26.487  1.00  0.00     0.012 A 
ATOM     61  C   UNL A   1      42.004  24.587  27.555  1.00  0.00     0.148 A 
ATOM     62  C   UNL A   1      43.423  25.647  25.372  1.00  0.00     0.002 A 
ATOM     63  C   UNL A   1      42.304  23.789  26.456  1.00  0.00     0.091 A 
ATOM     64  F   UNL A   1      41.292  24.122  28.592  1.00  0.00    -0.205 F 
ATOM     65  C   UNL A   1      43.004  24.320  25.360  1.00  0.00     0.022 A 
BRANCH  63  66
ATOM     66  S   UNL A   1      41.862  22.049  26.383  1.00  0.00     0.127 S 
ATOM     67  O   UNL A   1      42.606  21.604  25.206  1.00  0.00    -0.237 OA
ATOM     68  O   UNL A   1      42.377  21.543  27.656  1.00  0.00    -0.237 OA
ATOM     69  O   UNL A   1      40.411  22.012  26.262  1.00  0.00    -0.744 OA
ENDBRANCH  63  66
ENDBRANCH  45  59
BRANCH  46  70
ATOM     70  C   UNL A   1      40.214  31.880  35.324  1.00  0.00     0.023 A 
ATOM     71  C   UNL A   1      40.911  33.092  35.493  1.00  0.00     0.012 A 
ATOM     72  C   UNL A   1      39.190  31.545  36.231  1.00  0.00     0.148 A 
ATOM     73  C   UNL A   1      40.608  33.944  36.557  1.00  0.00     0.002 A 
ATOM     74  C   UNL A   1      38.857  32.422  37.256  1.00  0.00     0.091 A 
ATOM     75  F   UNL A   1      38.552  30.377  36.066  1.00  0.00    -0.205 F 
ATOM     76  C   UNL A   1      39.574  33.616  37.430  1.00  0.00     0.022 A 
BRANCH  74  77
ATOM     77  S   UNL A   1      37.456  32.139  38.345  1.00  0.00     0.127 S 
ATOM     78  O   UNL A   1      37.975  32.601  39.629  1.00  0.00    -0.237 OA
ATOM     79  O   UNL A   1      36.429  32.995  37.751  1.00  0.00    -0.237 OA
ATOM     80  O   UNL A   1      37.171  30.713  38.250  1.00  0.00    -0.744 OA
ENDBRANCH  74  77
ENDBRANCH  46  70
BRANCH  58  81
ATOM     81  C   UNL A   1      45.470  27.492  33.937  1.00  0.00     0.023 A 
ATOM     82  C   UNL A   1      46.642  28.268  33.847  1.00  0.00     0.012 A 
ATOM     83  C   UNL A   1      45.433  26.390  34.813  1.00  0.00     0.148 A 
ATOM     84  C   UNL A   1      47.769  27.937  34.597  1.00  0.00     0.002 A 
ATOM     85  C   UNL A   1      46.545  26.092  35.591  1.00  0.00     0.091 A 
ATOM     86  F   UNL A   1      44.315  25.651  34.868  1.00  0.00    -0.205 F 
ATOM     87  C   UNL A   1      47.717  26.858  35.478  1.00  0.00     0.022 A 
BRANCH  85  88
ATOM     88  S   UNL A   1      46.528  24.778  36.815  1.00  0.00     0.127 S 
ATOM     89  O   UNL A   1      47.718  25.089  37.605  1.00  0.00    -0.237 OA
ATOM     90  O   UNL A   1      45.260  25.008  37.509  1.00  0.00    -0.237 OA
ATOM     91  O   UNL A   1      46.580  23.533  36.060  1.00  0.00    -0.744 OA
ENDBRANCH  85  88
ENDBRANCH  58  81
ENDBRANCH  32  33
ENDBRANCH  25  27
ENDBRANCH  24  25
ENDBRANCH  23  24
ENDBRANCH   1  23
TORSDOF 17
ENDMDL
MODEL 2
REMARK VINA RESULT:     -11.7      5.266      7.996
REMARK SMILES Cc1nccc(CNC(=O)N2CC[C@@H](C(=O)OCCOC(=O)c3ccc(-c4c5nc(c(-c6cccc(S(=O)(=O)[O-])c6F)c6ccc([nH]6)c(-c6cccc(S(=O)(=O)[O-])c6F)c6nc(c(-c7cccc(S(=O)(=O)[O-])c7F)c7ccc4[nH]7)C=C6)C=C5)cc3)[C@H]2C)n1
REMARK SMILES IDX 18 1 17 2 15 3 16 4 14 5 11 6 12 7 86 8 13 9 87 10 9 11 8 12
REMARK SMILES IDX 10 14 7 15 6 16 1 17 2 18 3 19 88 20 4 21 5 22 19 23 20 24
REMARK SMILES IDX 21 25 22 26 23 27 24 28 85 29 25 30 84 31 26 32 27 33 28 34
REMARK SMILES IDX 78 35 29 36 83 37 77 38 79 39 30 40 82 41 76 42 75 43 31 45
REMARK SMILES IDX 63 46 43 47 62 48 44 49 47 50 61 51 80 52 45 53 46 54 60 56
REMARK SMILES IDX 81 57 48 58 32 59 33 60 41 61 34 62 36 63 42 64 35 65 37 66
REMARK SMILES IDX 38 67 39 68 40 69 64 70 65 71 73 72 66 73 68 74 74 75 67 76
REMARK SMILES IDX 69 77 70 78 71 79 72 80 49 81 50 82 58 83 51 84 53 85 59 86
REMARK SMILES IDX 52 87 54 88 55 89 56 90 57 91
REMARK H PARENT 8 13 79 44 47 55
REMARK Flexibility Score: inf
ROOT
ATOM      1  C   UNL A   1      36.845  21.938  23.950  1.00  0.00     0.274 C 
ENDROOT
BRANCH   1   2
ATOM      2  O   UNL A   1      35.486  22.102  24.410  1.00  0.00    -0.462 OA
BRANCH   2   3
ATOM      3  C   UNL A   1      35.226  23.202  25.152  1.00  0.00     0.311 C 
ATOM      4  O   UNL A   1      36.066  24.050  25.430  1.00  0.00    -0.252 OA
BRANCH   3   5
ATOM      5  C   UNL A   1      33.804  23.283  25.666  1.00  0.00     0.123 C 
ATOM      6  N   UNL A   1      31.487  23.851  25.537  1.00  0.00    -0.321 N 
ATOM      7  C   UNL A   1      31.640  22.435  25.865  1.00  0.00     0.122 C 
ATOM      8  C   UNL A   1      32.844  24.455  25.314  1.00  0.00     0.098 C 
ATOM      9  C   UNL A   1      32.999  22.039  25.332  1.00  0.00     0.039 C 
ATOM     10  C   UNL A   1      33.015  25.041  23.918  1.00  0.00     0.032 C 
BRANCH   6  11
ATOM     11  C   UNL A   1      30.389  24.454  26.093  1.00  0.00     0.317 C 
ATOM     12  N   UNL A   1      29.661  25.373  25.440  1.00  0.00    -0.332 N 
ATOM     13  H   UNL A   1      29.033  25.854  26.026  1.00  0.00     0.165 HD
ATOM     14  O   UNL A   1      29.929  24.090  27.179  1.00  0.00    -0.249 OA
BRANCH  12  15
ATOM     15  C   UNL A   1      29.597  25.813  24.067  1.00  0.00     0.174 C 
BRANCH  15  16
ATOM     16  C   UNL A   1      29.787  27.288  23.805  1.00  0.00     0.063 A 
ATOM     17  C   UNL A   1      27.593  29.934  22.507  1.00  0.00     0.089 C 
ATOM     18  C   UNL A   1      28.787  29.248  23.093  1.00  0.00     0.125 A 
ATOM     19  N   UNL A   1      29.819  30.012  23.488  1.00  0.00    -0.242 NA
ATOM     20  N   UNL A   1      28.733  27.910  23.221  1.00  0.00    -0.236 NA
ATOM     21  C   UNL A   1      30.848  29.359  24.061  1.00  0.00     0.115 A 
ATOM     22  C   UNL A   1      30.883  27.997  24.254  1.00  0.00     0.046 A 
ENDBRANCH  15  16
ENDBRANCH  12  15
ENDBRANCH   6  11
ENDBRANCH   3   5
ENDBRANCH   2   3
ENDBRANCH   1   2
BRANCH   1  23
ATOM     23  C   UNL A   1      37.558  20.786  24.676  1.00  0.00     0.275 C 
BRANCH  23  24
ATOM     24  O   UNL A   1      37.965  21.161  26.006  1.00  0.00    -0.458 OA
BRANCH  24  25
ATOM     25  C   UNL A   1      39.288  21.091  26.267  1.00  0.00     0.338 C 
ATOM     26  O   UNL A   1      40.040  20.153  26.025  1.00  0.00    -0.246 OA
BRANCH  25  27
ATOM     27  C   UNL A   1      39.782  22.385  26.754  1.00  0.00     0.060 A 
ATOM     28  C   UNL A   1      39.239  23.544  26.195  1.00  0.00     0.016 A 
ATOM     29  C   UNL A   1      40.819  22.462  27.684  1.00  0.00     0.016 A 
ATOM     30  C   UNL A   1      39.725  24.793  26.560  1.00  0.00     0.010 A 
ATOM     31  C   UNL A   1      41.309  23.719  28.050  1.00  0.00     0.010 A 
ATOM     32  C   UNL A   1      40.773  24.888  27.480  1.00  0.00    -0.014 A 
BRANCH  32  33
ATOM     33  C   UNL A   1      41.344  26.217  27.796  1.00  0.00     0.031 A 
ATOM     34  C   UNL A   1      42.746  26.540  27.370  1.00  0.00     0.074 A 
ATOM     35  C   UNL A   1      40.598  27.127  28.448  1.00  0.00     0.049 A 
ATOM     36  N   UNL A   1      43.450  27.618  27.596  1.00  0.00    -0.248 NA
ATOM     37  C   UNL A   1      43.452  25.512  26.589  1.00  0.00     0.031 C 
ATOM     38  C   UNL A   1      39.216  26.925  28.887  1.00  0.00     0.029 A 
ATOM     39  N   UNL A   1      40.901  28.397  28.865  1.00  0.00    -0.354 N 
ATOM     40  C   UNL A   1      44.692  27.386  27.021  1.00  0.00     0.074 A 
ATOM     41  C   UNL A   1      44.649  26.062  26.436  1.00  0.00     0.031 C 
ATOM     42  C   UNL A   1      38.795  28.028  29.525  1.00  0.00     0.029 A 
ATOM     43  C   UNL A   1      39.884  28.999  29.569  1.00  0.00     0.049 A 
ATOM     44  H   UNL A   1      41.763  28.834  28.680  1.00  0.00     0.167 HD
ATOM     45  C   UNL A   1      45.767  28.208  26.973  1.00  0.00     0.034 A 
ATOM     46  C   UNL A   1      39.847  30.193  30.192  1.00  0.00     0.034 A 
ATOM     47  C   UNL A   1      45.788  29.535  27.526  1.00  0.00     0.049 A 
ATOM     48  C   UNL A   1      41.057  31.085  30.126  1.00  0.00     0.074 A 
ATOM     49  C   UNL A   1      46.819  30.456  27.516  1.00  0.00     0.029 A 
ATOM     50  N   UNL A   1      44.724  30.132  28.187  1.00  0.00    -0.354 N 
ATOM     51  N   UNL A   1      42.200  30.882  29.513  1.00  0.00    -0.248 NA
ATOM     52  C   UNL A   1      40.964  32.383  30.810  1.00  0.00     0.031 C 
ATOM     53  C   UNL A   1      46.381  31.610  28.177  1.00  0.00     0.029 A 
ATOM     54  C   UNL A   1      45.071  31.411  28.587  1.00  0.00     0.049 A 
ATOM     55  H   UNL A   1      43.850  29.708  28.347  1.00  0.00     0.167 HD
ATOM     56  C   UNL A   1      42.947  32.037  29.708  1.00  0.00     0.074 A 
ATOM     57  C   UNL A   1      42.121  32.944  30.481  1.00  0.00     0.031 C 
ATOM     58  C   UNL A   1      44.211  32.318  29.301  1.00  0.00     0.034 A 
BRANCH  45  59
ATOM     59  C   UNL A   1      46.998  27.700  26.274  1.00  0.00     0.023 A 
ATOM     60  C   UNL A   1      47.951  26.954  26.997  1.00  0.00     0.012 A 
ATOM     61  C   UNL A   1      47.197  27.928  24.898  1.00  0.00     0.148 A 
ATOM     62  C   UNL A   1      49.098  26.470  26.370  1.00  0.00     0.002 A 
ATOM     63  C   UNL A   1      48.326  27.408  24.271  1.00  0.00     0.091 A 
ATOM     64  F   UNL A   1      46.295  28.663  24.233  1.00  0.00    -0.205 F 
ATOM     65  C   UNL A   1      49.281  26.688  25.007  1.00  0.00     0.022 A 
BRANCH  63  66
ATOM     66  S   UNL A   1      48.610  27.583  22.506  1.00  0.00     0.127 S 
ATOM     67  O   UNL A   1      49.891  28.286  22.481  1.00  0.00    -0.237 OA
ATOM     68  O   UNL A   1      48.669  26.190  22.060  1.00  0.00    -0.237 OA
ATOM     69  O   UNL A   1      47.471  28.332  21.993  1.00  0.00    -0.744 OA
ENDBRANCH  63  66
ENDBRANCH  45  59
BRANCH  46  70
ATOM     70  C   UNL A   1      38.603  30.627  30.887  1.00  0.00     0.023 A 
ATOM     71  C   UNL A   1      38.464  30.385  32.267  1.00  0.00     0.012 A 
ATOM     72  C   UNL A   1      37.580  31.312  30.204  1.00  0.00     0.148 A 
ATOM     73  C   UNL A   1      37.318  30.797  32.949  1.00  0.00     0.002 A 
ATOM     74  C   UNL A   1      36.466  31.768  30.899  1.00  0.00     0.091 A 
ATOM     75  F   UNL A   1      37.721  31.516  28.886  1.00  0.00    -0.205 F 
ATOM     76  C   UNL A   1      36.326  31.499  32.270  1.00  0.00     0.022 A 
BRANCH  74  77
ATOM     77  S   UNL A   1      35.206  32.792  30.129  1.00  0.00     0.127 S 
ATOM     78  O   UNL A   1      35.998  33.903  29.610  1.00  0.00    -0.237 OA
ATOM     79  O   UNL A   1      34.663  31.893  29.110  1.00  0.00    -0.237 OA
ATOM     80  O   UNL A   1      34.268  33.122  31.194  1.00  0.00    -0.744 OA
ENDBRANCH  74  77
ENDBRANCH  46  70
BRANCH  58  81
ATOM     81  C   UNL A   1      44.767  33.673  29.648  1.00  0.00     0.023 A 
ATOM     82  C   UNL A   1      45.473  33.849  30.854  1.00  0.00     0.012 A 
ATOM     83  C   UNL A   1      44.657  34.749  28.745  1.00  0.00     0.148 A 
ATOM     84  C   UNL A   1      46.038  35.084  31.169  1.00  0.00     0.002 A 
ATOM     85  C   UNL A   1      45.261  35.964  29.046  1.00  0.00     0.091 A 
ATOM     86  F   UNL A   1      43.962  34.567  27.613  1.00  0.00    -0.205 F 
ATOM     87  C   UNL A   1      45.943  36.136  30.261  1.00  0.00     0.022 A 
BRANCH  85  88
ATOM     88  S   UNL A   1      45.263  37.339  27.891  1.00  0.00     0.127 S 
ATOM     89  O   UNL A   1      43.835  37.625  27.762  1.00  0.00    -0.237 OA
ATOM     90  O   UNL A   1      46.025  38.359  28.614  1.00  0.00    -0.237 OA
ATOM     91  O   UNL A   1      45.919  36.844  26.688  1.00  0.00    -0.744 OA
ENDBRANCH  85  88
ENDBRANCH  58  81
ENDBRANCH  32  33
ENDBRANCH  25  27
ENDBRANCH  24  25
ENDBRANCH  23  24
ENDBRANCH   1  23
TORSDOF 17
ENDMDL
MODEL 3
REMARK VINA RESULT:     -11.5      5.262      8.035
REMARK SMILES Cc1nccc(CNC(=O)N2CC[C@@H](C(=O)OCCOC(=O)c3ccc(-c4c5nc(c(-c6cccc(S(=O)(=O)[O-])c6F)c6ccc([nH]6)c(-c6cccc(S(=O)(=O)[O-])c6F)c6nc(c(-c7cccc(S(=O)(=O)[O-])c7F)c7ccc4[nH]7)C=C6)C=C5)cc3)[C@H]2C)n1
REMARK SMILES IDX 18 1 17 2 15 3 16 4 14 5 11 6 12 7 86 8 13 9 87 10 9 11 8 12
REMARK SMILES IDX 10 14 7 15 6 16 1 17 2 18 3 19 88 20 4 21 5 22 19 23 20 24
REMARK SMILES IDX 21 25 22 26 23 27 24 28 85 29 25 30 84 31 26 32 27 33 28 34
REMARK SMILES IDX 78 35 29 36 83 37 77 38 79 39 30 40 82 41 76 42 75 43 31 45
REMARK SMILES IDX 63 46 43 47 62 48 44 49 47 50 61 51 80 52 45 53 46 54 60 56
REMARK SMILES IDX 81 57 48 58 32 59 33 60 41 61 34 62 36 63 42 64 35 65 37 66
REMARK SMILES IDX 38 67 39 68 40 69 64 70 65 71 73 72 66 73 68 74 74 75 67 76
REMARK SMILES IDX 69 77 70 78 71 79 72 80 49 81 50 82 58 83 51 84 53 85 59 86
REMARK SMILES IDX 52 87 54 88 55 89 56 90 57 91
REMARK H PARENT 8 13 79 44 47 55
REMARK Flexibility Score: inf
ROOT
ATOM      1  C   UNL A   1      36.083  19.671  24.995  1.00  0.00     0.274 C 
ENDROOT
BRANCH   1   2
ATOM      2  O   UNL A   1      35.077  20.684  24.779  1.00  0.00    -0.462 OA
BRANCH   2   3
ATOM      3  C   UNL A   1      33.804  20.349  25.087  1.00  0.00     0.311 C 
ATOM      4  O   UNL A   1      33.416  19.194  25.218  1.00  0.00    -0.252 OA
BRANCH   3   5
ATOM      5  C   UNL A   1      32.864  21.530  25.214  1.00  0.00     0.123 C 
ATOM      6  N   UNL A   1      32.188  23.681  26.004  1.00  0.00    -0.321 N 
ATOM      7  C   UNL A   1      32.105  23.632  24.547  1.00  0.00     0.122 C 
ATOM      8  C   UNL A   1      32.747  22.381  26.510  1.00  0.00     0.098 C 
ATOM      9  C   UNL A   1      33.082  22.560  24.119  1.00  0.00     0.039 C 
ATOM     10  C   UNL A   1      34.042  22.554  27.296  1.00  0.00     0.032 C 
BRANCH   6  11
ATOM     11  C   UNL A   1      31.245  24.471  26.608  1.00  0.00     0.317 C 
ATOM     12  N   UNL A   1      31.443  25.776  26.851  1.00  0.00    -0.332 N 
ATOM     13  H   UNL A   1      30.769  26.161  27.457  1.00  0.00     0.165 HD
ATOM     14  O   UNL A   1      30.106  24.057  26.843  1.00  0.00    -0.249 OA
BRANCH  12  15
ATOM     15  C   UNL A   1      32.428  26.739  26.420  1.00  0.00     0.174 C 
BRANCH  15  16
ATOM     16  C   UNL A   1      32.218  27.384  25.071  1.00  0.00     0.063 A 
ATOM     17  C   UNL A   1      29.231  28.271  23.123  1.00  0.00     0.089 C 
ATOM     18  C   UNL A   1      30.664  28.143  23.535  1.00  0.00     0.125 A 
ATOM     19  N   UNL A   1      31.591  28.754  22.779  1.00  0.00    -0.242 NA
ATOM     20  N   UNL A   1      30.928  27.454  24.660  1.00  0.00    -0.236 NA
ATOM     21  C   UNL A   1      32.861  28.660  23.216  1.00  0.00     0.115 A 
ATOM     22  C   UNL A   1      33.234  27.994  24.362  1.00  0.00     0.046 A 
ENDBRANCH  15  16
ENDBRANCH  12  15
ENDBRANCH   6  11
ENDBRANCH   3   5
ENDBRANCH   2   3
ENDBRANCH   1   2
BRANCH   1  23
ATOM     23  C   UNL A   1      37.499  20.204  24.722  1.00  0.00     0.275 C 
BRANCH  23  24
ATOM     24  O   UNL A   1      37.920  21.146  25.728  1.00  0.00    -0.458 OA
BRANCH  24  25
ATOM     25  C   UNL A   1      39.187  21.011  26.177  1.00  0.00     0.338 C 
ATOM     26  O   UNL A   1      39.891  20.009  26.112  1.00  0.00    -0.246 OA
BRANCH  25  27
ATOM     27  C   UNL A   1      39.709  22.304  26.633  1.00  0.00     0.060 A 
ATOM     28  C   UNL A   1      39.103  23.463  26.140  1.00  0.00     0.016 A 
ATOM     29  C   UNL A   1      40.824  22.384  27.466  1.00  0.00     0.016 A 
ATOM     30  C   UNL A   1      39.606  24.714  26.476  1.00  0.00     0.010 A 
ATOM     31  C   UNL A   1      41.332  23.643  27.802  1.00  0.00     0.010 A 
ATOM     32  C   UNL A   1      40.733  24.812  27.298  1.00  0.00    -0.014 A 
BRANCH  32  33
ATOM     33  C   UNL A   1      41.315  26.144  27.577  1.00  0.00     0.031 A 
ATOM     34  C   UNL A   1      42.695  26.466  27.085  1.00  0.00     0.074 A 
ATOM     35  C   UNL A   1      40.598  27.057  28.256  1.00  0.00     0.049 A 
ATOM     36  N   UNL A   1      43.406  27.547  27.270  1.00  0.00    -0.248 NA
ATOM     37  C   UNL A   1      43.367  25.433  26.280  1.00  0.00     0.031 C 
ATOM     38  C   UNL A   1      39.237  26.856  28.760  1.00  0.00     0.029 A 
ATOM     39  N   UNL A   1      40.917  28.331  28.650  1.00  0.00    -0.354 N 
ATOM     40  C   UNL A   1      44.621  27.313  26.641  1.00  0.00     0.074 A 
ATOM     41  C   UNL A   1      44.554  25.985  26.069  1.00  0.00     0.031 C 
ATOM     42  C   UNL A   1      38.844  27.963  29.408  1.00  0.00     0.029 A 
ATOM     43  C   UNL A   1      39.932  28.936  29.395  1.00  0.00     0.049 A 
ATOM     44  H   UNL A   1      41.768  28.768  28.422  1.00  0.00     0.167 HD
ATOM     45  C   UNL A   1      45.691  28.136  26.538  1.00  0.00     0.034 A 
ATOM     46  C   UNL A   1      39.921  30.135  30.010  1.00  0.00     0.034 A 
ATOM     47  C   UNL A   1      45.735  29.467  27.080  1.00  0.00     0.049 A 
ATOM     48  C   UNL A   1      41.125  31.029  29.883  1.00  0.00     0.074 A 
ATOM     49  C   UNL A   1      46.763  30.390  27.015  1.00  0.00     0.029 A 
ATOM     50  N   UNL A   1      44.701  30.067  27.784  1.00  0.00    -0.354 N 
ATOM     51  N   UNL A   1      42.239  30.823  29.220  1.00  0.00    -0.248 NA
ATOM     52  C   UNL A   1      41.061  32.331  30.560  1.00  0.00     0.031 C 
ATOM     53  C   UNL A   1      46.353  31.548  27.688  1.00  0.00     0.029 A 
ATOM     54  C   UNL A   1      45.064  31.349  28.159  1.00  0.00     0.049 A 
ATOM     55  H   UNL A   1      43.836  29.643  27.987  1.00  0.00     0.167 HD
ATOM     56  C   UNL A   1      42.993  31.980  29.371  1.00  0.00     0.074 A 
ATOM     57  C   UNL A   1      42.201  32.891  30.175  1.00  0.00     0.031 C 
ATOM     58  C   UNL A   1      44.235  32.261  28.904  1.00  0.00     0.034 A 
BRANCH  45  59
ATOM     59  C   UNL A   1      46.890  27.625  25.786  1.00  0.00     0.023 A 
ATOM     60  C   UNL A   1      46.972  27.819  24.393  1.00  0.00     0.012 A 
ATOM     61  C   UNL A   1      47.950  26.986  26.459  1.00  0.00     0.148 A 
ATOM     62  C   UNL A   1      48.075  27.357  23.675  1.00  0.00     0.002 A 
ATOM     63  C   UNL A   1      49.064  26.562  25.742  1.00  0.00     0.091 A 
ATOM     64  F   UNL A   1      47.842  26.785  27.780  1.00  0.00    -0.205 F 
ATOM     65  C   UNL A   1      49.124  26.738  24.350  1.00  0.00     0.022 A 
BRANCH  63  66
ATOM     66  S   UNL A   1      50.492  25.816  26.538  1.00  0.00     0.127 S 
ATOM     67  O   UNL A   1      51.372  25.570  25.397  1.00  0.00    -0.237 OA
ATOM     68  O   UNL A   1      50.940  26.881  27.436  1.00  0.00    -0.237 OA
ATOM     69  O   UNL A   1      49.992  24.627  27.215  1.00  0.00    -0.744 OA
ENDBRANCH  63  66
ENDBRANCH  45  59
BRANCH  46  70
ATOM     70  C   UNL A   1      38.710  30.572  30.758  1.00  0.00     0.023 A 
ATOM     71  C   UNL A   1      38.638  30.347  32.146  1.00  0.00     0.012 A 
ATOM     72  C   UNL A   1      37.651  31.244  30.116  1.00  0.00     0.148 A 
ATOM     73  C   UNL A   1      37.524  30.763  32.878  1.00  0.00     0.002 A 
ATOM     74  C   UNL A   1      36.570  31.703  30.859  1.00  0.00     0.091 A 
ATOM     75  F   UNL A   1      37.729  31.431  28.791  1.00  0.00    -0.205 F 
ATOM     76  C   UNL A   1      36.497  31.451  32.237  1.00  0.00     0.022 A 
BRANCH  74  77
ATOM     77  S   UNL A   1      35.269  32.710  30.137  1.00  0.00     0.127 S 
ATOM     78  O   UNL A   1      34.798  31.858  29.049  1.00  0.00    -0.237 OA
ATOM     79  O   UNL A   1      34.336  32.853  31.255  1.00  0.00    -0.237 OA
ATOM     80  O   UNL A   1      35.915  33.953  29.736  1.00  0.00    -0.744 OA
ENDBRANCH  74  77
ENDBRANCH  46  70
BRANCH  58  81
ATOM     81  C   UNL A   1      44.805  33.619  29.216  1.00  0.00     0.023 A 
ATOM     82  C   UNL A   1      45.592  33.798  30.369  1.00  0.00     0.012 A 
ATOM     83  C   UNL A   1      44.623  34.697  28.326  1.00  0.00     0.148 A 
ATOM     84  C   UNL A   1      46.168  35.036  30.648  1.00  0.00     0.002 A 
ATOM     85  C   UNL A   1      45.236  35.915  28.588  1.00  0.00     0.091 A 
ATOM     86  F   UNL A   1      43.851  34.512  27.245  1.00  0.00    -0.205 F 
ATOM     87  C   UNL A   1      46.001  36.090  29.752  1.00  0.00     0.022 A 
BRANCH  85  88
ATOM     88  S   UNL A   1      45.147  37.294  27.439  1.00  0.00     0.127 S 
ATOM     89  O   UNL A   1      45.472  38.426  28.305  1.00  0.00    -0.237 OA
ATOM     90  O   UNL A   1      46.184  36.958  26.461  1.00  0.00    -0.237 OA
ATOM     91  O   UNL A   1      43.792  37.276  26.904  1.00  0.00    -0.744 OA
ENDBRANCH  85  88
ENDBRANCH  58  81
ENDBRANCH  32  33
ENDBRANCH  25  27
ENDBRANCH  24  25
ENDBRANCH  23  24
ENDBRANCH   1  23
TORSDOF 17
ENDMDL
