MODEL 1
REMARK VINA RESULT:     -11.9      0.000      0.000
REMARK SMILES C[C@@H](C(=O)OCCOC(=O)c1ccc(-c2c3nc(c(-c4cccc(S(=O)(=O)[O-])c4F)c4ccc([nH]4)c(-c4cccc(S(=O)(=O)[O-])c4F)c4nc(c(-c5cccc(S(=O)(=O)[O-])c5F)c5ccc2[nH]5)C=C4)C=C3)cc1)c1ccc(C[C@H]2CCC[C@@H]2O)cc1F
REMARK SMILES IDX 6 1 5 2 3 3 4 4 2 5 1 6 74 7 75 8 86 9 76 10 85 11 87 12
REMARK SMILES IDX 77 13 78 14 79 15 80 16 83 17 81 18 82 19 84 20 7 22 8 23
REMARK SMILES IDX 9 24 10 25 11 26 12 27 73 28 13 29 72 30 14 31 15 32 16 33
REMARK SMILES IDX 66 34 17 35 71 36 65 37 67 38 18 39 70 40 64 41 63 42 19 44
REMARK SMILES IDX 51 45 31 46 50 47 32 48 35 49 49 50 68 51 33 52 34 53 48 55
REMARK SMILES IDX 69 56 36 57 20 58 21 59 29 60 22 61 24 62 30 63 23 64 25 65
REMARK SMILES IDX 26 66 27 67 28 68 52 69 53 70 61 71 54 72 56 73 62 74 55 75
REMARK SMILES IDX 57 76 58 77 59 78 60 79 37 80 38 81 46 82 39 83 41 84 47 85
REMARK SMILES IDX 40 86 42 87 43 88 44 89 45 90
REMARK H PARENT 84 21 67 43 35 54
REMARK Flexibility Score: inf
ROOT
ATOM      1  C   UNL A   1      31.324  29.071  24.680  1.00  0.00     0.274 C 
ENDROOT
BRANCH   1   2
ATOM      2  O   UNL A   1      31.974  27.835  25.038  1.00  0.00    -0.462 OA
BRANCH   2   3
ATOM      3  C   UNL A   1      31.138  26.857  25.497  1.00  0.00     0.313 C 
ATOM      4  O   UNL A   1      31.023  26.623  26.693  1.00  0.00    -0.252 OA
BRANCH   3   5
ATOM      5  C   UNL A   1      30.474  26.036  24.354  1.00  0.00     0.129 C 
ATOM      6  C   UNL A   1      28.944  26.147  24.448  1.00  0.00     0.025 C 
BRANCH   5   7
ATOM      7  C   UNL A   1      31.003  24.592  24.275  1.00  0.00     0.002 A 
ATOM      8  C   UNL A   1      31.739  24.190  23.150  1.00  0.00     0.008 A 
ATOM      9  C   UNL A   1      30.842  23.622  25.274  1.00  0.00     0.127 A 
ATOM     10  C   UNL A   1      32.448  22.988  23.122  1.00  0.00     0.004 A 
ATOM     11  C   UNL A   1      31.491  22.380  25.218  1.00  0.00     0.043 A 
ATOM     12  F   UNL A   1      30.087  23.861  26.354  1.00  0.00    -0.207 F 
ATOM     13  C   UNL A   1      32.346  22.061  24.156  1.00  0.00    -0.045 A 
BRANCH  13  14
ATOM     14  C   UNL A   1      33.203  20.812  24.201  1.00  0.00     0.041 C 
BRANCH  14  15
ATOM     15  C   UNL A   1      32.512  19.439  24.311  1.00  0.00     0.022 C 
ATOM     16  C   UNL A   1      32.311  18.715  22.972  1.00  0.00     0.007 C 
ATOM     17  C   UNL A   1      33.211  18.432  25.237  1.00  0.00     0.117 C 
ATOM     18  C   UNL A   1      33.106  17.421  23.080  1.00  0.00     0.003 C 
ATOM     19  C   UNL A   1      33.051  17.081  24.557  1.00  0.00     0.032 C 
BRANCH  17  20
ATOM     20  O   UNL A   1      32.584  18.406  26.501  1.00  0.00    -0.393 OA
ATOM     21  H   UNL A   1      32.225  17.520  26.667  1.00  0.00     0.210 HD
ENDBRANCH  17  20
ENDBRANCH  14  15
ENDBRANCH  13  14
ENDBRANCH   5   7
ENDBRANCH   3   5
ENDBRANCH   2   3
ENDBRANCH   1   2
BRANCH   1  22
ATOM     22  C   UNL A   1      31.628  30.218  25.653  1.00  0.00     0.275 C 
BRANCH  22  23
ATOM     23  O   UNL A   1      32.990  30.214  26.126  1.00  0.00    -0.458 OA
BRANCH  23  24
ATOM     24  C   UNL A   1      33.308  31.223  26.972  1.00  0.00     0.338 C 
ATOM     25  O   UNL A   1      32.574  32.150  27.296  1.00  0.00    -0.246 OA
BRANCH  24  26
ATOM     26  C   UNL A   1      34.624  30.995  27.602  1.00  0.00     0.060 A 
ATOM     27  C   UNL A   1      34.941  29.678  27.941  1.00  0.00     0.016 A 
ATOM     28  C   UNL A   1      35.516  32.025  27.914  1.00  0.00     0.016 A 
ATOM     29  C   UNL A   1      36.155  29.379  28.552  1.00  0.00     0.010 A 
ATOM     30  C   UNL A   1      36.731  31.724  28.557  1.00  0.00     0.010 A 
ATOM     31  C   UNL A   1      37.061  30.395  28.870  1.00  0.00    -0.014 A 
BRANCH  31  32
ATOM     32  C   UNL A   1      38.312  30.025  29.581  1.00  0.00     0.031 A 
ATOM     33  C   UNL A   1      38.491  30.417  31.021  1.00  0.00     0.074 A 
ATOM     34  C   UNL A   1      39.245  29.264  28.976  1.00  0.00     0.049 A 
ATOM     35  N   UNL A   1      39.452  30.102  31.850  1.00  0.00    -0.248 NA
ATOM     36  C   UNL A   1      37.445  31.271  31.603  1.00  0.00     0.031 C 
ATOM     37  C   UNL A   1      39.166  28.773  27.602  1.00  0.00     0.029 A 
ATOM     38  N   UNL A   1      40.426  28.744  29.450  1.00  0.00    -0.354 N 
ATOM     39  C   UNL A   1      39.162  30.767  33.034  1.00  0.00     0.074 A 
ATOM     40  C   UNL A   1      37.905  31.458  32.833  1.00  0.00     0.031 C 
ATOM     41  C   UNL A   1      40.232  27.992  27.356  1.00  0.00     0.029 A 
ATOM     42  C   UNL A   1      41.075  27.928  28.549  1.00  0.00     0.049 A 
ATOM     43  H   UNL A   1      40.776  28.936  30.351  1.00  0.00     0.167 HD
ATOM     44  C   UNL A   1      39.889  30.825  34.174  1.00  0.00     0.034 A 
ATOM     45  C   UNL A   1      42.202  27.196  28.687  1.00  0.00     0.034 A 
ATOM     46  C   UNL A   1      41.139  30.148  34.384  1.00  0.00     0.049 A 
ATOM     47  C   UNL A   1      42.960  27.242  29.994  1.00  0.00     0.074 A 
ATOM     48  C   UNL A   1      41.963  30.188  35.497  1.00  0.00     0.029 A 
ATOM     49  N   UNL A   1      41.756  29.318  33.462  1.00  0.00    -0.354 N 
ATOM     50  N   UNL A   1      42.638  27.820  31.125  1.00  0.00    -0.248 NA
ATOM     51  C   UNL A   1      44.246  26.523  30.036  1.00  0.00     0.031 C 
ATOM     52  C   UNL A   1      43.091  29.404  35.237  1.00  0.00     0.029 A 
ATOM     53  C   UNL A   1      42.957  28.853  33.974  1.00  0.00     0.049 A 
ATOM     54  H   UNL A   1      41.395  29.092  32.575  1.00  0.00     0.167 HD
ATOM     55  C   UNL A   1      43.674  27.535  32.009  1.00  0.00     0.074 A 
ATOM     56  C   UNL A   1      44.607  26.684  31.302  1.00  0.00     0.031 C 
ATOM     57  C   UNL A   1      43.861  27.974  33.279  1.00  0.00     0.034 A 
BRANCH  44  58
ATOM     58  C   UNL A   1      39.372  31.709  35.275  1.00  0.00     0.023 A 
ATOM     59  C   UNL A   1      38.448  31.209  36.211  1.00  0.00     0.012 A 
ATOM     60  C   UNL A   1      39.838  33.033  35.394  1.00  0.00     0.148 A 
ATOM     61  C   UNL A   1      37.976  32.025  37.239  1.00  0.00     0.002 A 
ATOM     62  C   UNL A   1      39.392  33.828  36.441  1.00  0.00     0.091 A 
ATOM     63  F   UNL A   1      40.695  33.495  34.472  1.00  0.00    -0.205 F 
ATOM     64  C   UNL A   1      38.453  33.329  37.360  1.00  0.00     0.022 A 
BRANCH  62  65
ATOM     65  S   UNL A   1      40.001  35.495  36.710  1.00  0.00     0.127 S 
ATOM     66  O   UNL A   1      39.445  36.202  35.559  1.00  0.00    -0.237 OA
ATOM     67  O   UNL A   1      39.390  35.844  37.994  1.00  0.00    -0.237 OA
ATOM     68  O   UNL A   1      41.453  35.391  36.741  1.00  0.00    -0.744 OA
ENDBRANCH  62  65
ENDBRANCH  44  58
BRANCH  45  69
ATOM     69  C   UNL A   1      42.654  26.270  27.601  1.00  0.00     0.023 A 
ATOM     70  C   UNL A   1      43.618  26.728  26.678  1.00  0.00     0.012 A 
ATOM     71  C   UNL A   1      42.165  24.960  27.471  1.00  0.00     0.148 A 
ATOM     72  C   UNL A   1      44.076  25.910  25.646  1.00  0.00     0.002 A 
ATOM     73  C   UNL A   1      42.669  24.126  26.474  1.00  0.00     0.091 A 
ATOM     74  F   UNL A   1      41.218  24.541  28.321  1.00  0.00    -0.205 F 
ATOM     75  C   UNL A   1      43.610  24.603  25.551  1.00  0.00     0.022 A 
BRANCH  73  76
ATOM     76  S   UNL A   1      42.237  22.385  26.402  1.00  0.00     0.127 S 
ATOM     77  O   UNL A   1      42.719  21.898  27.690  1.00  0.00    -0.237 OA
ATOM     78  O   UNL A   1      40.780  22.430  26.265  1.00  0.00    -0.237 OA
ATOM     79  O   UNL A   1      42.924  21.879  25.221  1.00  0.00    -0.744 OA
ENDBRANCH  73  76
ENDBRANCH  45  69
BRANCH  57  80
ATOM     80  C   UNL A   1      45.136  27.581  33.983  1.00  0.00     0.023 A 
ATOM     81  C   UNL A   1      46.241  28.456  33.946  1.00  0.00     0.012 A 
ATOM     82  C   UNL A   1      45.217  26.403  34.754  1.00  0.00     0.148 A 
ATOM     83  C   UNL A   1      47.414  28.155  34.637  1.00  0.00     0.002 A 
ATOM     84  C   UNL A   1      46.374  26.132  35.478  1.00  0.00     0.091 A 
ATOM     85  F   UNL A   1      44.165  25.573  34.767  1.00  0.00    -0.205 F 
ATOM     86  C   UNL A   1      47.477  27.000  35.412  1.00  0.00     0.022 A 
BRANCH  84  87
ATOM     87  S   UNL A   1      46.515  24.719  36.580  1.00  0.00     0.127 S 
ATOM     88  O   UNL A   1      47.798  24.975  37.232  1.00  0.00    -0.237 OA
ATOM     89  O   UNL A   1      45.348  24.882  37.448  1.00  0.00    -0.237 OA
ATOM     90  O   UNL A   1      46.472  23.539  35.726  1.00  0.00    -0.744 OA
ENDBRANCH  84  87
ENDBRANCH  57  80
ENDBRANCH  31  32
ENDBRANCH  24  26
ENDBRANCH  23  24
ENDBRANCH  22  23
ENDBRANCH   1  22
TORSDOF 18
ENDMDL
MODEL 2
REMARK VINA RESULT:     -11.8      5.301     10.374
REMARK SMILES C[C@@H](C(=O)OCCOC(=O)c1ccc(-c2c3nc(c(-c4cccc(S(=O)(=O)[O-])c4F)c4ccc([nH]4)c(-c4cccc(S(=O)(=O)[O-])c4F)c4nc(c(-c5cccc(S(=O)(=O)[O-])c5F)c5ccc2[nH]5)C=C4)C=C3)cc1)c1ccc(C[C@H]2CCC[C@@H]2O)cc1F
REMARK SMILES IDX 6 1 5 2 3 3 4 4 2 5 1 6 74 7 75 8 86 9 76 10 85 11 87 12
REMARK SMILES IDX 77 13 78 14 79 15 80 16 83 17 81 18 82 19 84 20 7 22 8 23
REMARK SMILES IDX 9 24 10 25 11 26 12 27 73 28 13 29 72 30 14 31 15 32 16 33
REMARK SMILES IDX 66 34 17 35 71 36 65 37 67 38 18 39 70 40 64 41 63 42 19 44
REMARK SMILES IDX 51 45 31 46 50 47 32 48 35 49 49 50 68 51 33 52 34 53 48 55
REMARK SMILES IDX 69 56 36 57 20 58 21 59 29 60 22 61 24 62 30 63 23 64 25 65
REMARK SMILES IDX 26 66 27 67 28 68 52 69 53 70 61 71 54 72 56 73 62 74 55 75
REMARK SMILES IDX 57 76 58 77 59 78 60 79 37 80 38 81 46 82 39 83 41 84 47 85
REMARK SMILES IDX 40 86 42 87 43 88 44 89 45 90
REMARK H PARENT 84 21 67 43 35 54
REMARK Flexibility Score: inf
ROOT
ATOM      1  C   UNL A   1      36.653  22.457  23.635  1.00  0.00     0.274 C 
ENDROOT
BRANCH   1   2
ATOM      2  O   UNL A   1      35.234  22.601  23.424  1.00  0.00    -0.462 OA
BRANCH   2   3
ATOM      3  C   UNL A   1      34.575  23.292  24.401  1.00  0.00     0.313 C 
ATOM      4  O   UNL A   1      35.177  23.994  25.204  1.00  0.00    -0.252 OA
BRANCH   3   5
ATOM      5  C   UNL A   1      33.050  22.990  24.441  1.00  0.00     0.129 C 
ATOM      6  C   UNL A   1      32.720  21.819  23.502  1.00  0.00     0.025 C 
BRANCH   5   7
ATOM      7  C   UNL A   1      32.189  24.248  24.215  1.00  0.00     0.002 A 
ATOM      8  C   UNL A   1      31.352  24.701  25.246  1.00  0.00     0.008 A 
ATOM      9  C   UNL A   1      32.196  25.025  23.049  1.00  0.00     0.127 A 
ATOM     10  C   UNL A   1      30.738  25.955  25.200  1.00  0.00     0.004 A 
ATOM     11  C   UNL A   1      31.519  26.251  22.969  1.00  0.00     0.043 A 
ATOM     12  F   UNL A   1      32.888  24.646  21.968  1.00  0.00    -0.207 F 
ATOM     13  C   UNL A   1      30.813  26.759  24.067  1.00  0.00    -0.045 A 
BRANCH  13  14
ATOM     14  C   UNL A   1      30.262  28.170  24.046  1.00  0.00     0.041 C 
BRANCH  14  15
ATOM     15  C   UNL A   1      29.364  28.601  22.870  1.00  0.00     0.022 C 
ATOM     16  C   UNL A   1      27.858  28.448  23.126  1.00  0.00     0.007 C 
ATOM     17  C   UNL A   1      29.568  30.047  22.391  1.00  0.00     0.117 C 
ATOM     18  C   UNL A   1      27.278  29.853  23.028  1.00  0.00     0.003 C 
ATOM     19  C   UNL A   1      28.181  30.551  22.028  1.00  0.00     0.032 C 
BRANCH  17  20
ATOM     20  O   UNL A   1      30.399  30.078  21.251  1.00  0.00    -0.393 OA
ATOM     21  H   UNL A   1      30.437  29.194  20.854  1.00  0.00     0.210 HD
ENDBRANCH  17  20
ENDBRANCH  14  15
ENDBRANCH  13  14
ENDBRANCH   5   7
ENDBRANCH   3   5
ENDBRANCH   2   3
ENDBRANCH   1   2
BRANCH   1  22
ATOM     22  C   UNL A   1      37.024  21.174  24.391  1.00  0.00     0.275 C 
BRANCH  22  23
ATOM     23  O   UNL A   1      37.427  21.416  25.753  1.00  0.00    -0.458 OA
BRANCH  23  24
ATOM     24  C   UNL A   1      38.730  21.158  26.022  1.00  0.00     0.338 C 
ATOM     25  O   UNL A   1      39.331  20.124  25.752  1.00  0.00    -0.246 OA
BRANCH  24  26
ATOM     26  C   UNL A   1      39.411  22.355  26.555  1.00  0.00     0.060 A 
ATOM     27  C   UNL A   1      38.973  23.593  26.081  1.00  0.00     0.016 A 
ATOM     28  C   UNL A   1      40.486  22.295  27.448  1.00  0.00     0.016 A 
ATOM     29  C   UNL A   1      39.572  24.771  26.522  1.00  0.00     0.010 A 
ATOM     30  C   UNL A   1      41.108  23.484  27.870  1.00  0.00     0.010 A 
ATOM     31  C   UNL A   1      40.646  24.731  27.416  1.00  0.00    -0.014 A 
BRANCH  31  32
ATOM     32  C   UNL A   1      41.289  26.014  27.800  1.00  0.00     0.031 A 
ATOM     33  C   UNL A   1      42.639  26.364  27.243  1.00  0.00     0.074 A 
ATOM     34  C   UNL A   1      40.634  26.905  28.569  1.00  0.00     0.049 A 
ATOM     35  N   UNL A   1      43.323  27.471  27.364  1.00  0.00    -0.248 NA
ATOM     36  C   UNL A   1      43.304  25.328  26.435  1.00  0.00     0.031 C 
ATOM     37  C   UNL A   1      39.298  26.710  29.128  1.00  0.00     0.029 A 
ATOM     38  N   UNL A   1      40.990  28.167  28.985  1.00  0.00    -0.354 N 
ATOM     39  C   UNL A   1      44.523  27.250  26.703  1.00  0.00     0.074 A 
ATOM     40  C   UNL A   1      44.452  25.920  26.134  1.00  0.00     0.031 C 
ATOM     41  C   UNL A   1      38.931  27.827  29.781  1.00  0.00     0.029 A 
ATOM     42  C   UNL A   1      40.004  28.817  29.695  1.00  0.00     0.049 A 
ATOM     43  H   UNL A   1      41.869  28.568  28.793  1.00  0.00     0.167 HD
ATOM     44  C   UNL A   1      45.601  28.064  26.604  1.00  0.00     0.034 A 
ATOM     45  C   UNL A   1      39.967  30.073  30.190  1.00  0.00     0.034 A 
ATOM     46  C   UNL A   1      45.685  29.383  27.168  1.00  0.00     0.049 A 
ATOM     47  C   UNL A   1      41.167  30.974  30.014  1.00  0.00     0.074 A 
ATOM     48  C   UNL A   1      46.758  30.259  27.150  1.00  0.00     0.029 A 
ATOM     49  N   UNL A   1      44.666  30.016  27.862  1.00  0.00    -0.354 N 
ATOM     50  N   UNL A   1      42.267  30.774  29.329  1.00  0.00    -0.248 NA
ATOM     51  C   UNL A   1      41.113  32.285  30.686  1.00  0.00     0.031 C 
ATOM     52  C   UNL A   1      46.396  31.410  27.856  1.00  0.00     0.029 A 
ATOM     53  C   UNL A   1      45.090  31.264  28.290  1.00  0.00     0.049 A 
ATOM     54  H   UNL A   1      43.773  29.635  28.026  1.00  0.00     0.167 HD
ATOM     55  C   UNL A   1      43.030  31.927  29.486  1.00  0.00     0.074 A 
ATOM     56  C   UNL A   1      42.244  32.846  30.281  1.00  0.00     0.031 C 
ATOM     57  C   UNL A   1      44.287  32.188  29.047  1.00  0.00     0.034 A 
BRANCH  44  58
ATOM     58  C   UNL A   1      46.812  27.518  25.901  1.00  0.00     0.023 A 
ATOM     59  C   UNL A   1      47.712  26.680  26.586  1.00  0.00     0.012 A 
ATOM     60  C   UNL A   1      47.034  27.816  24.543  1.00  0.00     0.148 A 
ATOM     61  C   UNL A   1      48.831  26.165  25.932  1.00  0.00     0.002 A 
ATOM     62  C   UNL A   1      48.129  27.270  23.888  1.00  0.00     0.091 A 
ATOM     63  F   UNL A   1      46.178  28.641  23.921  1.00  0.00    -0.205 F 
ATOM     64  C   UNL A   1      49.035  26.451  24.583  1.00  0.00     0.022 A 
BRANCH  62  65
ATOM     65  S   UNL A   1      48.433  27.534  22.139  1.00  0.00     0.127 S 
ATOM     66  O   UNL A   1      47.203  28.203  21.722  1.00  0.00    -0.237 OA
ATOM     67  O   UNL A   1      49.619  28.392  22.157  1.00  0.00    -0.237 OA
ATOM     68  O   UNL A   1      48.653  26.212  21.566  1.00  0.00    -0.744 OA
ENDBRANCH  62  65
ENDBRANCH  44  58
BRANCH  45  69
ATOM     69  C   UNL A   1      38.723  30.613  30.822  1.00  0.00     0.023 A 
ATOM     70  C   UNL A   1      38.572  30.508  32.221  1.00  0.00     0.012 A 
ATOM     71  C   UNL A   1      37.703  31.231  30.079  1.00  0.00     0.148 A 
ATOM     72  C   UNL A   1      37.434  30.992  32.865  1.00  0.00     0.002 A 
ATOM     73  C   UNL A   1      36.595  31.767  30.733  1.00  0.00     0.091 A 
ATOM     74  F   UNL A   1      37.826  31.292  28.746  1.00  0.00    -0.205 F 
ATOM     75  C   UNL A   1      36.450  31.634  32.121  1.00  0.00     0.022 A 
BRANCH  73  76
ATOM     76  S   UNL A   1      35.375  32.752  29.857  1.00  0.00     0.127 S 
ATOM     77  O   UNL A   1      36.186  33.848  29.339  1.00  0.00    -0.237 OA
ATOM     78  O   UNL A   1      34.885  31.815  28.845  1.00  0.00    -0.237 OA
ATOM     79  O   UNL A   1      34.383  33.101  30.866  1.00  0.00    -0.744 OA
ENDBRANCH  73  76
ENDBRANCH  45  69
BRANCH  57  80
ATOM     80  C   UNL A   1      44.917  33.500  29.445  1.00  0.00     0.023 A 
ATOM     81  C   UNL A   1      45.666  33.570  30.639  1.00  0.00     0.012 A 
ATOM     82  C   UNL A   1      44.853  34.631  28.607  1.00  0.00     0.148 A 
ATOM     83  C   UNL A   1      46.315  34.748  31.006  1.00  0.00     0.002 A 
ATOM     84  C   UNL A   1      45.540  35.789  28.956  1.00  0.00     0.091 A 
ATOM     85  F   UNL A   1      44.125  34.555  27.483  1.00  0.00    -0.205 F 
ATOM     86  C   UNL A   1      46.262  35.853  30.161  1.00  0.00     0.022 A 
BRANCH  84  87
ATOM     87  S   UNL A   1      45.612  37.232  27.887  1.00  0.00     0.127 S 
ATOM     88  O   UNL A   1      44.215  37.664  27.874  1.00  0.00    -0.237 OA
ATOM     89  O   UNL A   1      46.517  38.119  28.619  1.00  0.00    -0.237 OA
ATOM     90  O   UNL A   1      46.132  36.759  26.611  1.00  0.00    -0.744 OA
ENDBRANCH  84  87
ENDBRANCH  57  80
ENDBRANCH  31  32
ENDBRANCH  24  26
ENDBRANCH  23  24
ENDBRANCH  22  23
ENDBRANCH   1  22
TORSDOF 18
ENDMDL
MODEL 3
REMARK VINA RESULT:     -11.5      5.289      8.020
REMARK SMILES C[C@@H](C(=O)OCCOC(=O)c1ccc(-c2c3nc(c(-c4cccc(S(=O)(=O)[O-])c4F)c4ccc([nH]4)c(-c4cccc(S(=O)(=O)[O-])c4F)c4nc(c(-c5cccc(S(=O)(=O)[O-])c5F)c5ccc2[nH]5)C=C4)C=C3)cc1)c1ccc(C[C@H]2CCC[C@@H]2O)cc1F
REMARK SMILES IDX 6 1 5 2 3 3 4 4 2 5 1 6 74 7 75 8 86 9 76 10 85 11 87 12
REMARK SMILES IDX 77 13 78 14 79 15 80 16 83 17 81 18 82 19 84 20 7 22 8 23
REMARK SMILES IDX 9 24 10 25 11 26 12 27 73 28 13 29 72 30 14 31 15 32 16 33
REMARK SMILES IDX 66 34 17 35 71 36 65 37 67 38 18 39 70 40 64 41 63 42 19 44
REMARK SMILES IDX 51 45 31 46 50 47 32 48 35 49 49 50 68 51 33 52 34 53 48 55
REMARK SMILES IDX 69 56 36 57 20 58 21 59 29 60 22 61 24 62 30 63 23 64 25 65
REMARK SMILES IDX 26 66 27 67 28 68 52 69 53 70 61 71 54 72 56 73 62 74 55 75
REMARK SMILES IDX 57 76 58 77 59 78 60 79 37 80 38 81 46 82 39 83 41 84 47 85
REMARK SMILES IDX 40 86 42 87 43 88 44 89 45 90
REMARK H PARENT 84 21 67 43 35 54
REMARK Flexibility Score: inf
ROOT
ATOM      1  C   UNL A   1      35.391  21.836  26.176  1.00  0.00     0.274 C 
ENDROOT
BRANCH   1   2
ATOM      2  O   UNL A   1      34.397  22.662  25.535  1.00  0.00    -0.462 OA
BRANCH   2   3
ATOM      3  C   UNL A   1      33.122  22.483  25.989  1.00  0.00     0.313 C 
ATOM      4  O   UNL A   1      32.894  22.181  27.154  1.00  0.00    -0.252 OA
BRANCH   3   5
ATOM      5  C   UNL A   1      32.053  22.586  24.864  1.00  0.00     0.129 C 
ATOM      6  C   UNL A   1      32.614  22.016  23.551  1.00  0.00     0.025 C 
BRANCH   5   7
ATOM      7  C   UNL A   1      31.455  24.000  24.739  1.00  0.00     0.002 A 
ATOM      8  C   UNL A   1      31.850  24.996  25.645  1.00  0.00     0.008 A 
ATOM      9  C   UNL A   1      30.551  24.404  23.746  1.00  0.00     0.127 A 
ATOM     10  C   UNL A   1      31.541  26.342  25.443  1.00  0.00     0.004 A 
ATOM     11  C   UNL A   1      30.176  25.746  23.584  1.00  0.00     0.043 A 
ATOM     12  F   UNL A   1      30.037  23.524  22.879  1.00  0.00    -0.207 F 
ATOM     13  C   UNL A   1      30.705  26.748  24.407  1.00  0.00    -0.045 A 
BRANCH  13  14
ATOM     14  C   UNL A   1      30.461  28.211  24.098  1.00  0.00     0.041 C 
BRANCH  14  15
ATOM     15  C   UNL A   1      29.563  28.580  22.902  1.00  0.00     0.022 C 
ATOM     16  C   UNL A   1      28.058  28.410  23.156  1.00  0.00     0.007 C 
ATOM     17  C   UNL A   1      29.744  30.009  22.368  1.00  0.00     0.117 C 
ATOM     18  C   UNL A   1      27.455  29.800  23.001  1.00  0.00     0.003 C 
ATOM     19  C   UNL A   1      28.350  30.474  21.979  1.00  0.00     0.032 C 
BRANCH  17  20
ATOM     20  O   UNL A   1      30.581  30.010  21.232  1.00  0.00    -0.393 OA
ATOM     21  H   UNL A   1      30.047  29.862  20.436  1.00  0.00     0.210 HD
ENDBRANCH  17  20
ENDBRANCH  14  15
ENDBRANCH  13  14
ENDBRANCH   5   7
ENDBRANCH   3   5
ENDBRANCH   2   3
ENDBRANCH   1   2
BRANCH   1  22
ATOM     22  C   UNL A   1      36.097  20.878  25.206  1.00  0.00     0.275 C 
BRANCH  22  23
ATOM     23  O   UNL A   1      37.393  21.349  24.788  1.00  0.00    -0.458 OA
BRANCH  23  24
ATOM     24  C   UNL A   1      38.423  20.985  25.589  1.00  0.00     0.338 C 
ATOM     25  O   UNL A   1      38.777  19.837  25.831  1.00  0.00    -0.246 OA
BRANCH  24  26
ATOM     26  C   UNL A   1      39.196  22.163  26.032  1.00  0.00     0.060 A 
ATOM     27  C   UNL A   1      38.608  23.414  25.832  1.00  0.00     0.016 A 
ATOM     28  C   UNL A   1      40.481  22.080  26.576  1.00  0.00     0.016 A 
ATOM     29  C   UNL A   1      39.276  24.577  26.207  1.00  0.00     0.010 A 
ATOM     30  C   UNL A   1      41.166  23.257  26.928  1.00  0.00     0.010 A 
ATOM     31  C   UNL A   1      40.561  24.513  26.755  1.00  0.00    -0.014 A 
BRANCH  31  32
ATOM     32  C   UNL A   1      41.252  25.789  27.076  1.00  0.00     0.031 A 
ATOM     33  C   UNL A   1      40.624  26.751  28.043  1.00  0.00     0.074 A 
ATOM     34  C   UNL A   1      42.477  26.048  26.578  1.00  0.00     0.049 A 
ATOM     35  N   UNL A   1      41.107  27.860  28.538  1.00  0.00    -0.248 NA
ATOM     36  C   UNL A   1      39.274  26.413  28.521  1.00  0.00     0.031 C 
ATOM     37  C   UNL A   1      43.218  25.173  25.672  1.00  0.00     0.029 A 
ATOM     38  N   UNL A   1      43.327  27.108  26.790  1.00  0.00    -0.354 N 
ATOM     39  C   UNL A   1      40.102  28.387  29.337  1.00  0.00     0.074 A 
ATOM     40  C   UNL A   1      39.001  27.446  29.306  1.00  0.00     0.031 C 
ATOM     41  C   UNL A   1      44.427  25.711  25.438  1.00  0.00     0.029 A 
ATOM     42  C   UNL A   1      44.549  26.973  26.168  1.00  0.00     0.049 A 
ATOM     43  H   UNL A   1      43.085  27.891  27.336  1.00  0.00     0.167 HD
ATOM     44  C   UNL A   1      40.080  29.562  30.011  1.00  0.00     0.034 A 
ATOM     45  C   UNL A   1      45.643  27.764  26.209  1.00  0.00     0.034 A 
ATOM     46  C   UNL A   1      41.165  30.505  30.047  1.00  0.00     0.049 A 
ATOM     47  C   UNL A   1      45.604  29.041  27.016  1.00  0.00     0.074 A 
ATOM     48  C   UNL A   1      41.209  31.740  30.672  1.00  0.00     0.029 A 
ATOM     49  N   UNL A   1      42.390  30.329  29.424  1.00  0.00    -0.354 N 
ATOM     50  N   UNL A   1      44.672  29.491  27.820  1.00  0.00    -0.248 NA
ATOM     51  C   UNL A   1      46.783  29.920  26.918  1.00  0.00     0.031 C 
ATOM     52  C   UNL A   1      42.452  32.322  30.404  1.00  0.00     0.029 A 
ATOM     53  C   UNL A   1      43.192  31.439  29.637  1.00  0.00     0.049 A 
ATOM     54  H   UNL A   1      42.652  29.534  28.907  1.00  0.00     0.167 HD
ATOM     55  C   UNL A   1      45.149  30.698  28.321  1.00  0.00     0.074 A 
ATOM     56  C   UNL A   1      46.478  30.882  27.778  1.00  0.00     0.031 C 
ATOM     57  C   UNL A   1      44.527  31.597  29.125  1.00  0.00     0.034 A 
BRANCH  44  58
ATOM     58  C   UNL A   1      38.807  29.923  30.724  1.00  0.00     0.023 A 
ATOM     59  C   UNL A   1      38.576  29.466  32.035  1.00  0.00     0.012 A 
ATOM     60  C   UNL A   1      37.856  30.749  30.095  1.00  0.00     0.148 A 
ATOM     61  C   UNL A   1      37.400  29.810  32.702  1.00  0.00     0.002 A 
ATOM     62  C   UNL A   1      36.705  31.117  30.779  1.00  0.00     0.091 A 
ATOM     63  F   UNL A   1      38.087  31.146  28.835  1.00  0.00    -0.205 F 
ATOM     64  C   UNL A   1      36.470  30.640  32.079  1.00  0.00     0.022 A 
BRANCH  62  65
ATOM     65  S   UNL A   1      35.486  32.233  30.078  1.00  0.00     0.127 S 
ATOM     66  O   UNL A   1      36.303  33.404  29.765  1.00  0.00    -0.237 OA
ATOM     67  O   UNL A   1      35.018  31.486  28.909  1.00  0.00    -0.237 OA
ATOM     68  O   UNL A   1      34.480  32.428  31.113  1.00  0.00    -0.744 OA
ENDBRANCH  62  65
ENDBRANCH  44  58
BRANCH  45  69
ATOM     69  C   UNL A   1      46.919  27.344  25.549  1.00  0.00     0.023 A 
ATOM     70  C   UNL A   1      47.861  26.610  26.299  1.00  0.00     0.012 A 
ATOM     71  C   UNL A   1      47.212  27.644  24.208  1.00  0.00     0.148 A 
ATOM     72  C   UNL A   1      49.067  26.193  25.737  1.00  0.00     0.002 A 
ATOM     73  C   UNL A   1      48.392  27.175  23.633  1.00  0.00     0.091 A 
ATOM     74  F   UNL A   1      46.337  28.379  23.508  1.00  0.00    -0.205 F 
ATOM     75  C   UNL A   1      49.328  26.465  24.399  1.00  0.00     0.022 A 
BRANCH  73  76
ATOM     76  S   UNL A   1      48.709  27.345  21.874  1.00  0.00     0.127 S 
ATOM     77  O   UNL A   1      49.987  28.050  21.863  1.00  0.00    -0.237 OA
ATOM     78  O   UNL A   1      48.769  25.951  21.431  1.00  0.00    -0.237 OA
ATOM     79  O   UNL A   1      47.561  28.078  21.357  1.00  0.00    -0.744 OA
ENDBRANCH  73  76
ENDBRANCH  45  69
BRANCH  57  80
ATOM     80  C   UNL A   1      45.252  32.882  29.441  1.00  0.00     0.023 A 
ATOM     81  C   UNL A   1      46.058  32.952  30.596  1.00  0.00     0.012 A 
ATOM     82  C   UNL A   1      45.217  33.982  28.560  1.00  0.00     0.148 A 
ATOM     83  C   UNL A   1      46.792  34.102  30.887  1.00  0.00     0.002 A 
ATOM     84  C   UNL A   1      45.987  35.108  28.832  1.00  0.00     0.091 A 
ATOM     85  F   UNL A   1      44.434  33.908  27.473  1.00  0.00    -0.205 F 
ATOM     86  C   UNL A   1      46.766  35.174  30.000  1.00  0.00     0.022 A 
BRANCH  84  87
ATOM     87  S   UNL A   1      46.095  36.502  27.701  1.00  0.00     0.127 S 
ATOM     88  O   UNL A   1      44.693  36.900  27.583  1.00  0.00    -0.237 OA
ATOM     89  O   UNL A   1      46.934  37.443  28.445  1.00  0.00    -0.237 OA
ATOM     90  O   UNL A   1      46.703  35.984  26.484  1.00  0.00    -0.744 OA
ENDBRANCH  84  87
ENDBRANCH  57  80
ENDBRANCH  31  32
ENDBRANCH  24  26
ENDBRANCH  23  24
ENDBRANCH  22  23
ENDBRANCH   1  22
TORSDOF 18
ENDMDL
