MODEL 1
REMARK VINA RESULT:     -12.2      0.000      0.000
REMARK SMILES O=C(OCCOC(=O)c1cccc(Nc2ccnc3ccc(F)cc23)c1)c1ccc(-c2c3nc(c(-c4cccc(S(=O)(=O)[O-])c4F)c4ccc([nH]4)c(-c4cccc(S(=O)(=O)[O-])c4F)c4nc(c(-c5cccc(S(=O)(=O)[O-])c5F)c5ccc2[nH]5)C=C4)C=C3)cc1
REMARK SMILES IDX 4 1 3 2 2 3 1 4 27 5 28 6 89 7 29 8 88 9 30 10 31 11 32 12
REMARK SMILES IDX 82 13 33 14 87 15 81 16 83 17 34 18 86 19 80 20 79 21 35 23
REMARK SMILES IDX 67 24 47 25 66 26 48 27 51 28 65 29 84 30 49 31 50 32 64 34
REMARK SMILES IDX 85 35 52 36 36 37 37 38 45 39 38 40 40 41 46 42 39 43 41 44
REMARK SMILES IDX 42 45 43 46 44 47 68 48 69 49 77 50 70 51 72 52 78 53 71 54
REMARK SMILES IDX 73 55 74 56 75 57 76 58 53 59 54 60 62 61 55 62 57 63 63 64
REMARK SMILES IDX 56 65 58 66 59 67 60 68 61 69 5 70 6 71 7 72 8 73 9 74 10 75
REMARK SMILES IDX 26 76 11 77 13 78 12 79 14 80 15 82 16 83 25 84 17 85 19 86
REMARK SMILES IDX 24 87 18 88 20 89 22 90 21 91 23 92
REMARK H PARENT 83 22 51 33 14 81
REMARK Flexibility Score: inf
ROOT
ATOM      1  C   UNL A   1      43.935  21.972  24.966  1.00  0.00     0.275 C 
ENDROOT
BRANCH   1   2
ATOM      2  O   UNL A   1      43.558  23.291  24.537  1.00  0.00    -0.458 OA
BRANCH   2   3
ATOM      3  C   UNL A   1      44.001  24.487  25.001  1.00  0.00     0.338 C 
ATOM      4  O   UNL A   1      45.065  24.923  24.560  1.00  0.00    -0.246 OA
BRANCH   3   5
ATOM      5  C   UNL A   1      43.371  25.210  26.153  1.00  0.00     0.060 A 
ATOM      6  C   UNL A   1      42.493  24.660  27.086  1.00  0.00     0.016 A 
ATOM      7  C   UNL A   1      43.729  26.563  26.311  1.00  0.00     0.016 A 
ATOM      8  C   UNL A   1      42.041  25.403  28.174  1.00  0.00     0.010 A 
ATOM      9  C   UNL A   1      43.314  27.304  27.422  1.00  0.00     0.010 A 
ATOM     10  C   UNL A   1      42.456  26.722  28.358  1.00  0.00    -0.014 A 
BRANCH  10  11
ATOM     11  C   UNL A   1      41.854  27.491  29.465  1.00  0.00     0.031 A 
ATOM     12  C   UNL A   1      42.502  27.425  30.817  1.00  0.00     0.074 A 
ATOM     13  C   UNL A   1      40.823  28.322  29.225  1.00  0.00     0.049 A 
ATOM     14  N   UNL A   1      42.221  28.105  31.895  1.00  0.00    -0.248 NA
ATOM     15  C   UNL A   1      43.631  26.491  30.968  1.00  0.00     0.031 C 
ATOM     16  C   UNL A   1      40.154  28.488  27.931  1.00  0.00     0.029 A 
ATOM     17  N   UNL A   1      40.152  29.180  30.056  1.00  0.00    -0.354 N 
ATOM     18  C   UNL A   1      43.146  27.693  32.846  1.00  0.00     0.074 A 
ATOM     19  C   UNL A   1      43.959  26.665  32.239  1.00  0.00     0.031 C 
ATOM     20  C   UNL A   1      39.144  29.365  28.066  1.00  0.00     0.029 A 
ATOM     21  C   UNL A   1      39.099  29.826  29.451  1.00  0.00     0.049 A 
ATOM     22  H   UNL A   1      40.400  29.320  30.999  1.00  0.00     0.167 HD
ATOM     23  C   UNL A   1      43.330  28.161  34.101  1.00  0.00     0.034 A 
ATOM     24  C   UNL A   1      38.198  30.685  29.966  1.00  0.00     0.034 A 
ATOM     25  C   UNL A   1      42.511  29.177  34.696  1.00  0.00     0.049 A 
ATOM     26  C   UNL A   1      38.374  31.127  31.394  1.00  0.00     0.074 A 
ATOM     27  C   UNL A   1      42.586  29.711  35.968  1.00  0.00     0.029 A 
ATOM     28  N   UNL A   1      41.452  29.804  34.057  1.00  0.00    -0.354 N 
ATOM     29  N   UNL A   1      39.311  30.795  32.250  1.00  0.00    -0.248 NA
ATOM     30  C   UNL A   1      37.405  32.101  31.914  1.00  0.00     0.031 C 
ATOM     31  C   UNL A   1      41.554  30.644  36.105  1.00  0.00     0.029 A 
ATOM     32  C   UNL A   1      40.861  30.718  34.908  1.00  0.00     0.049 A 
ATOM     33  H   UNL A   1      41.165  29.625  33.133  1.00  0.00     0.167 HD
ATOM     34  C   UNL A   1      39.072  31.549  33.392  1.00  0.00     0.074 A 
ATOM     35  C   UNL A   1      37.913  32.372  33.108  1.00  0.00     0.031 C 
ATOM     36  C   UNL A   1      39.739  31.558  34.573  1.00  0.00     0.034 A 
BRANCH  23  37
ATOM     37  C   UNL A   1      44.475  27.578  34.884  1.00  0.00     0.023 A 
ATOM     38  C   UNL A   1      45.730  28.224  34.867  1.00  0.00     0.012 A 
ATOM     39  C   UNL A   1      44.317  26.392  35.623  1.00  0.00     0.148 A 
ATOM     40  C   UNL A   1      46.820  27.672  35.536  1.00  0.00     0.002 A 
ATOM     41  C   UNL A   1      45.397  25.872  36.323  1.00  0.00     0.091 A 
ATOM     42  F   UNL A   1      43.122  25.784  35.605  1.00  0.00    -0.205 F 
ATOM     43  C   UNL A   1      46.653  26.501  36.270  1.00  0.00     0.022 A 
BRANCH  41  44
ATOM     44  S   UNL A   1      45.276  24.400  37.344  1.00  0.00     0.127 S 
ATOM     45  O   UNL A   1      44.302  24.820  38.352  1.00  0.00    -0.237 OA
ATOM     46  O   UNL A   1      44.779  23.409  36.391  1.00  0.00    -0.237 OA
ATOM     47  O   UNL A   1      46.618  24.147  37.848  1.00  0.00    -0.744 OA
ENDBRANCH  41  44
ENDBRANCH  23  37
BRANCH  24  48
ATOM     48  C   UNL A   1      37.074  31.197  29.130  1.00  0.00     0.023 A 
ATOM     49  C   UNL A   1      36.997  32.564  28.798  1.00  0.00     0.012 A 
ATOM     50  C   UNL A   1      36.065  30.327  28.673  1.00  0.00     0.148 A 
ATOM     51  C   UNL A   1      35.913  33.061  28.072  1.00  0.00     0.002 A 
ATOM     52  C   UNL A   1      35.019  30.817  27.900  1.00  0.00     0.091 A 
ATOM     53  F   UNL A   1      36.144  29.030  29.005  1.00  0.00    -0.205 F 
ATOM     54  C   UNL A   1      34.927  32.188  27.618  1.00  0.00     0.022 A 
BRANCH  52  55
ATOM     55  S   UNL A   1      33.796  29.732  27.157  1.00  0.00     0.127 S 
ATOM     56  O   UNL A   1      32.734  30.670  26.807  1.00  0.00    -0.237 OA
ATOM     57  O   UNL A   1      34.532  29.179  26.019  1.00  0.00    -0.237 OA
ATOM     58  O   UNL A   1      33.476  28.748  28.185  1.00  0.00    -0.744 OA
ENDBRANCH  52  55
ENDBRANCH  24  48
BRANCH  36  59
ATOM     59  C   UNL A   1      39.262  32.520  35.628  1.00  0.00     0.023 A 
ATOM     60  C   UNL A   1      38.309  32.107  36.578  1.00  0.00     0.012 A 
ATOM     61  C   UNL A   1      39.823  33.808  35.719  1.00  0.00     0.148 A 
ATOM     62  C   UNL A   1      37.892  32.978  37.584  1.00  0.00     0.002 A 
ATOM     63  C   UNL A   1      39.446  34.650  36.757  1.00  0.00     0.091 A 
ATOM     64  F   UNL A   1      40.715  34.186  34.792  1.00  0.00    -0.205 F 
ATOM     65  C   UNL A   1      38.470  34.242  37.681  1.00  0.00     0.022 A 
BRANCH  63  66
ATOM     66  S   UNL A   1      40.216  36.250  37.022  1.00  0.00     0.127 S 
ATOM     67  O   UNL A   1      41.611  35.875  37.241  1.00  0.00    -0.237 OA
ATOM     68  O   UNL A   1      39.958  36.931  35.752  1.00  0.00    -0.237 OA
ATOM     69  O   UNL A   1      39.538  36.836  38.169  1.00  0.00    -0.744 OA
ENDBRANCH  63  66
ENDBRANCH  36  59
ENDBRANCH  10  11
ENDBRANCH   3   5
ENDBRANCH   2   3
ENDBRANCH   1   2
BRANCH   1  70
ATOM     70  C   UNL A   1      42.956  21.337  25.964  1.00  0.00     0.275 C 
BRANCH  70  71
ATOM     71  O   UNL A   1      41.587  21.666  25.661  1.00  0.00    -0.458 OA
BRANCH  71  72
ATOM     72  C   UNL A   1      40.654  21.409  26.616  1.00  0.00     0.338 C 
ATOM     73  O   UNL A   1      40.835  20.843  27.689  1.00  0.00    -0.246 OA
BRANCH  72  74
ATOM     74  C   UNL A   1      39.402  22.102  26.245  1.00  0.00     0.062 A 
ATOM     75  C   UNL A   1      39.220  23.359  26.830  1.00  0.00     0.016 A 
ATOM     76  C   UNL A   1      38.432  21.569  25.372  1.00  0.00     0.041 A 
ATOM     77  C   UNL A   1      38.148  24.151  26.450  1.00  0.00     0.003 A 
ATOM     78  C   UNL A   1      37.313  22.349  25.020  1.00  0.00     0.039 A 
ATOM     79  C   UNL A   1      37.226  23.657  25.535  1.00  0.00     0.026 A 
BRANCH  78  80
ATOM     80  N   UNL A   1      36.290  21.910  24.139  1.00  0.00    -0.355 N 
ATOM     81  H   UNL A   1      36.536  21.675  23.215  1.00  0.00     0.167 HD
BRANCH  80  82
ATOM     82  C   UNL A   1      34.922  21.791  24.529  1.00  0.00     0.050 A 
ATOM     83  C   UNL A   1      34.641  20.897  25.564  1.00  0.00     0.047 A 
ATOM     84  C   UNL A   1      33.850  22.537  23.971  1.00  0.00     0.027 A 
ATOM     85  C   UNL A   1      33.338  20.646  25.914  1.00  0.00     0.114 A 
ATOM     86  C   UNL A   1      32.561  22.286  24.513  1.00  0.00     0.072 A 
ATOM     87  C   UNL A   1      33.950  23.469  22.909  1.00  0.00     0.051 A 
ATOM     88  N   UNL A   1      32.299  21.321  25.399  1.00  0.00    -0.256 NA
ATOM     89  C   UNL A   1      31.482  23.059  24.118  1.00  0.00     0.032 A 
ATOM     90  C   UNL A   1      32.825  24.183  22.492  1.00  0.00     0.124 A 
ATOM     91  C   UNL A   1      31.601  24.022  23.121  1.00  0.00     0.041 A 
ATOM     92  F   UNL A   1      32.916  25.034  21.461  1.00  0.00    -0.207 F 
ENDBRANCH  80  82
ENDBRANCH  78  80
ENDBRANCH  72  74
ENDBRANCH  71  72
ENDBRANCH  70  71
ENDBRANCH   1  70
TORSDOF 16
ENDMDL
MODEL 2
REMARK VINA RESULT:     -12.1      5.173      7.571
REMARK SMILES O=C(OCCOC(=O)c1cccc(Nc2ccnc3ccc(F)cc23)c1)c1ccc(-c2c3nc(c(-c4cccc(S(=O)(=O)[O-])c4F)c4ccc([nH]4)c(-c4cccc(S(=O)(=O)[O-])c4F)c4nc(c(-c5cccc(S(=O)(=O)[O-])c5F)c5ccc2[nH]5)C=C4)C=C3)cc1
REMARK SMILES IDX 4 1 3 2 2 3 1 4 27 5 28 6 89 7 29 8 88 9 30 10 31 11 32 12
REMARK SMILES IDX 82 13 33 14 87 15 81 16 83 17 34 18 86 19 80 20 79 21 35 23
REMARK SMILES IDX 67 24 47 25 66 26 48 27 51 28 65 29 84 30 49 31 50 32 64 34
REMARK SMILES IDX 85 35 52 36 36 37 37 38 45 39 38 40 40 41 46 42 39 43 41 44
REMARK SMILES IDX 42 45 43 46 44 47 68 48 69 49 77 50 70 51 72 52 78 53 71 54
REMARK SMILES IDX 73 55 74 56 75 57 76 58 53 59 54 60 62 61 55 62 57 63 63 64
REMARK SMILES IDX 56 65 58 66 59 67 60 68 61 69 5 70 6 71 7 72 8 73 9 74 10 75
REMARK SMILES IDX 26 76 11 77 13 78 12 79 14 80 15 82 16 83 25 84 17 85 19 86
REMARK SMILES IDX 24 87 18 88 20 89 22 90 21 91 23 92
REMARK H PARENT 83 22 51 33 14 81
REMARK Flexibility Score: inf
ROOT
ATOM      1  C   UNL A   1      40.593  21.335  27.140  1.00  0.00     0.275 C 
ENDROOT
BRANCH   1   2
ATOM      2  O   UNL A   1      39.624  21.793  26.181  1.00  0.00    -0.458 OA
BRANCH   2   3
ATOM      3  C   UNL A   1      38.828  22.890  26.247  1.00  0.00     0.338 C 
ATOM      4  O   UNL A   1      37.769  22.878  25.619  1.00  0.00    -0.246 OA
BRANCH   3   5
ATOM      5  C   UNL A   1      39.251  24.181  26.882  1.00  0.00     0.060 A 
ATOM      6  C   UNL A   1      39.123  24.513  28.230  1.00  0.00     0.016 A 
ATOM      7  C   UNL A   1      39.857  25.125  26.030  1.00  0.00     0.016 A 
ATOM      8  C   UNL A   1      39.637  25.707  28.728  1.00  0.00     0.010 A 
ATOM      9  C   UNL A   1      40.413  26.308  26.529  1.00  0.00     0.010 A 
ATOM     10  C   UNL A   1      40.295  26.605  27.889  1.00  0.00    -0.014 A 
BRANCH  10  11
ATOM     11  C   UNL A   1      40.717  27.902  28.454  1.00  0.00     0.031 A 
ATOM     12  C   UNL A   1      42.181  28.229  28.482  1.00  0.00     0.074 A 
ATOM     13  C   UNL A   1      39.792  28.810  28.820  1.00  0.00     0.049 A 
ATOM     14  N   UNL A   1      42.766  29.347  28.817  1.00  0.00    -0.248 NA
ATOM     15  C   UNL A   1      43.106  27.168  28.049  1.00  0.00     0.031 C 
ATOM     16  C   UNL A   1      38.341  28.600  28.788  1.00  0.00     0.029 A 
ATOM     17  N   UNL A   1      39.930  30.087  29.295  1.00  0.00    -0.354 N 
ATOM     18  C   UNL A   1      44.123  29.129  28.621  1.00  0.00     0.074 A 
ATOM     19  C   UNL A   1      44.283  27.758  28.194  1.00  0.00     0.031 C 
ATOM     20  C   UNL A   1      37.727  29.698  29.259  1.00  0.00     0.029 A 
ATOM     21  C   UNL A   1      38.736  30.688  29.621  1.00  0.00     0.049 A 
ATOM     22  H   UNL A   1      40.803  30.533  29.395  1.00  0.00     0.167 HD
ATOM     23  C   UNL A   1      45.145  30.006  28.745  1.00  0.00     0.034 A 
ATOM     24  C   UNL A   1      38.495  31.899  30.159  1.00  0.00     0.034 A 
ATOM     25  C   UNL A   1      44.976  31.363  29.178  1.00  0.00     0.049 A 
ATOM     26  C   UNL A   1      39.660  32.829  30.368  1.00  0.00     0.074 A 
ATOM     27  C   UNL A   1      45.939  32.336  29.366  1.00  0.00     0.029 A 
ATOM     28  N   UNL A   1      43.755  31.935  29.504  1.00  0.00    -0.354 N 
ATOM     29  N   UNL A   1      40.928  32.637  30.090  1.00  0.00    -0.248 NA
ATOM     30  C   UNL A   1      39.360  34.161  30.911  1.00  0.00     0.031 C 
ATOM     31  C   UNL A   1      45.301  33.490  29.832  1.00  0.00     0.029 A 
ATOM     32  C   UNL A   1      43.938  33.247  29.897  1.00  0.00     0.049 A 
ATOM     33  H   UNL A   1      42.886  31.474  29.461  1.00  0.00     0.167 HD
ATOM     34  C   UNL A   1      41.570  33.834  30.383  1.00  0.00     0.074 A 
ATOM     35  C   UNL A   1      40.545  34.752  30.839  1.00  0.00     0.031 C 
ATOM     36  C   UNL A   1      42.886  34.148  30.295  1.00  0.00     0.034 A 
BRANCH  23  37
ATOM     37  C   UNL A   1      46.518  29.509  28.385  1.00  0.00     0.023 A 
ATOM     38  C   UNL A   1      46.969  29.614  27.052  1.00  0.00     0.012 A 
ATOM     39  C   UNL A   1      47.354  28.927  29.355  1.00  0.00     0.148 A 
ATOM     40  C   UNL A   1      48.213  29.108  26.682  1.00  0.00     0.002 A 
ATOM     41  C   UNL A   1      48.611  28.464  28.987  1.00  0.00     0.091 A 
ATOM     42  F   UNL A   1      46.895  28.816  30.609  1.00  0.00    -0.205 F 
ATOM     43  C   UNL A   1      49.037  28.539  27.649  1.00  0.00     0.022 A 
BRANCH  41  44
ATOM     44  S   UNL A   1      49.772  27.766  30.165  1.00  0.00     0.127 S 
ATOM     45  O   UNL A   1      50.790  27.203  29.278  1.00  0.00    -0.237 OA
ATOM     46  O   UNL A   1      50.199  28.951  30.908  1.00  0.00    -0.237 OA
ATOM     47  O   UNL A   1      49.021  26.792  30.944  1.00  0.00    -0.744 OA
ENDBRANCH  41  44
ENDBRANCH  23  37
BRANCH  24  48
ATOM     48  C   UNL A   1      37.105  32.308  30.514  1.00  0.00     0.023 A 
ATOM     49  C   UNL A   1      36.612  32.102  31.819  1.00  0.00     0.012 A 
ATOM     50  C   UNL A   1      36.260  32.892  29.551  1.00  0.00     0.148 A 
ATOM     51  C   UNL A   1      35.292  32.424  32.139  1.00  0.00     0.002 A 
ATOM     52  C   UNL A   1      34.965  33.264  29.893  1.00  0.00     0.091 A 
ATOM     53  F   UNL A   1      36.738  33.072  28.311  1.00  0.00    -0.205 F 
ATOM     54  C   UNL A   1      34.470  33.009  31.179  1.00  0.00     0.022 A 
BRANCH  52  55
ATOM     55  S   UNL A   1      33.900  34.157  28.754  1.00  0.00     0.127 S 
ATOM     56  O   UNL A   1      32.836  34.619  29.638  1.00  0.00    -0.237 OA
ATOM     57  O   UNL A   1      34.794  35.205  28.261  1.00  0.00    -0.237 OA
ATOM     58  O   UNL A   1      33.519  33.183  27.737  1.00  0.00    -0.744 OA
ENDBRANCH  52  55
ENDBRANCH  24  48
BRANCH  36  59
ATOM     59  C   UNL A   1      43.286  35.554  30.653  1.00  0.00     0.023 A 
ATOM     60  C   UNL A   1      43.671  35.864  31.972  1.00  0.00     0.012 A 
ATOM     61  C   UNL A   1      43.353  36.548  29.658  1.00  0.00     0.148 A 
ATOM     62  C   UNL A   1      44.082  37.154  32.303  1.00  0.00     0.002 A 
ATOM     63  C   UNL A   1      43.818  37.816  29.983  1.00  0.00     0.091 A 
ATOM     64  F   UNL A   1      42.963  36.235  28.413  1.00  0.00    -0.205 F 
ATOM     65  C   UNL A   1      44.168  38.124  31.307  1.00  0.00     0.022 A 
BRANCH  63  66
ATOM     66  S   UNL A   1      44.064  39.092  28.744  1.00  0.00     0.127 S 
ATOM     67  O   UNL A   1      42.698  39.319  28.277  1.00  0.00    -0.237 OA
ATOM     68  O   UNL A   1      44.629  40.186  29.535  1.00  0.00    -0.237 OA
ATOM     69  O   UNL A   1      44.976  38.525  27.760  1.00  0.00    -0.744 OA
ENDBRANCH  63  66
ENDBRANCH  36  59
ENDBRANCH  10  11
ENDBRANCH   3   5
ENDBRANCH   2   3
ENDBRANCH   1   2
BRANCH   1  70
ATOM     70  C   UNL A   1      41.017  19.872  26.946  1.00  0.00     0.275 C 
BRANCH  70  71
ATOM     71  O   UNL A   1      41.675  19.661  25.683  1.00  0.00    -0.458 OA
BRANCH  71  72
ATOM     72  C   UNL A   1      42.770  18.858  25.672  1.00  0.00     0.338 C 
ATOM     73  O   UNL A   1      42.784  17.631  25.687  1.00  0.00    -0.246 OA
BRANCH  72  74
ATOM     74  C   UNL A   1      43.964  19.698  25.435  1.00  0.00     0.062 A 
ATOM     75  C   UNL A   1      45.125  19.001  25.086  1.00  0.00     0.016 A 
ATOM     76  C   UNL A   1      43.976  21.104  25.546  1.00  0.00     0.041 A 
ATOM     77  C   UNL A   1      46.264  19.696  24.713  1.00  0.00     0.003 A 
ATOM     78  C   UNL A   1      45.147  21.815  25.217  1.00  0.00     0.039 A 
ATOM     79  C   UNL A   1      46.259  21.085  24.754  1.00  0.00     0.026 A 
BRANCH  78  80
ATOM     80  N   UNL A   1      45.256  23.228  25.281  1.00  0.00    -0.355 N 
ATOM     81  H   UNL A   1      44.826  23.765  24.577  1.00  0.00     0.167 HD
BRANCH  80  82
ATOM     82  C   UNL A   1      45.959  23.910  26.320  1.00  0.00     0.050 A 
ATOM     83  C   UNL A   1      47.161  24.524  25.965  1.00  0.00     0.047 A 
ATOM     84  C   UNL A   1      45.505  24.039  27.660  1.00  0.00     0.027 A 
ATOM     85  C   UNL A   1      47.946  25.099  26.933  1.00  0.00     0.114 A 
ATOM     86  C   UNL A   1      46.342  24.776  28.539  1.00  0.00     0.072 A 
ATOM     87  C   UNL A   1      44.323  23.470  28.195  1.00  0.00     0.051 A 
ATOM     88  N   UNL A   1      47.557  25.226  28.211  1.00  0.00    -0.256 NA
ATOM     89  C   UNL A   1      45.916  25.058  29.826  1.00  0.00     0.032 A 
ATOM     90  C   UNL A   1      43.959  23.722  29.519  1.00  0.00     0.124 A 
ATOM     91  C   UNL A   1      44.720  24.553  30.325  1.00  0.00     0.041 A 
ATOM     92  F   UNL A   1      42.861  23.150  30.033  1.00  0.00    -0.207 F 
ENDBRANCH  80  82
ENDBRANCH  78  80
ENDBRANCH  72  74
ENDBRANCH  71  72
ENDBRANCH  70  71
ENDBRANCH   1  70
TORSDOF 16
ENDMDL
MODEL 3
REMARK VINA RESULT:     -12.0      4.878      7.115
REMARK SMILES O=C(OCCOC(=O)c1cccc(Nc2ccnc3ccc(F)cc23)c1)c1ccc(-c2c3nc(c(-c4cccc(S(=O)(=O)[O-])c4F)c4ccc([nH]4)c(-c4cccc(S(=O)(=O)[O-])c4F)c4nc(c(-c5cccc(S(=O)(=O)[O-])c5F)c5ccc2[nH]5)C=C4)C=C3)cc1
REMARK SMILES IDX 4 1 3 2 2 3 1 4 27 5 28 6 89 7 29 8 88 9 30 10 31 11 32 12
REMARK SMILES IDX 82 13 33 14 87 15 81 16 83 17 34 18 86 19 80 20 79 21 35 23
REMARK SMILES IDX 67 24 47 25 66 26 48 27 51 28 65 29 84 30 49 31 50 32 64 34
REMARK SMILES IDX 85 35 52 36 36 37 37 38 45 39 38 40 40 41 46 42 39 43 41 44
REMARK SMILES IDX 42 45 43 46 44 47 68 48 69 49 77 50 70 51 72 52 78 53 71 54
REMARK SMILES IDX 73 55 74 56 75 57 76 58 53 59 54 60 62 61 55 62 57 63 63 64
REMARK SMILES IDX 56 65 58 66 59 67 60 68 61 69 5 70 6 71 7 72 8 73 9 74 10 75
REMARK SMILES IDX 26 76 11 77 13 78 12 79 14 80 15 82 16 83 25 84 17 85 19 86
REMARK SMILES IDX 24 87 18 88 20 89 22 90 21 91 23 92
REMARK H PARENT 83 22 51 33 14 81
REMARK Flexibility Score: inf
ROOT
ATOM      1  C   UNL A   1      37.221  20.780  24.603  1.00  0.00     0.275 C 
ENDROOT
BRANCH   1   2
ATOM      2  O   UNL A   1      37.875  20.923  25.876  1.00  0.00    -0.458 OA
BRANCH   2   3
ATOM      3  C   UNL A   1      39.192  21.128  26.127  1.00  0.00     0.338 C 
ATOM      4  O   UNL A   1      39.935  20.147  26.175  1.00  0.00    -0.246 OA
BRANCH   3   5
ATOM      5  C   UNL A   1      39.758  22.455  26.536  1.00  0.00     0.060 A 
ATOM      6  C   UNL A   1      39.392  23.697  26.020  1.00  0.00     0.016 A 
ATOM      7  C   UNL A   1      40.730  22.431  27.556  1.00  0.00     0.016 A 
ATOM      8  C   UNL A   1      39.918  24.876  26.542  1.00  0.00     0.010 A 
ATOM      9  C   UNL A   1      41.232  23.610  28.114  1.00  0.00     0.010 A 
ATOM     10  C   UNL A   1      40.828  24.844  27.598  1.00  0.00    -0.014 A 
BRANCH  10  11
ATOM     11  C   UNL A   1      41.434  26.119  28.032  1.00  0.00     0.031 A 
ATOM     12  C   UNL A   1      42.859  26.399  27.655  1.00  0.00     0.074 A 
ATOM     13  C   UNL A   1      40.678  27.049  28.644  1.00  0.00     0.049 A 
ATOM     14  N   UNL A   1      43.551  27.493  27.821  1.00  0.00    -0.248 NA
ATOM     15  C   UNL A   1      43.592  25.316  26.977  1.00  0.00     0.031 C 
ATOM     16  C   UNL A   1      39.268  26.886  29.013  1.00  0.00     0.029 A 
ATOM     17  N   UNL A   1      40.985  28.315  29.069  1.00  0.00    -0.354 N 
ATOM     18  C   UNL A   1      44.794  27.235  27.256  1.00  0.00     0.074 A 
ATOM     19  C   UNL A   1      44.782  25.867  26.794  1.00  0.00     0.031 C 
ATOM     20  C   UNL A   1      38.846  27.995  29.643  1.00  0.00     0.029 A 
ATOM     21  C   UNL A   1      39.949  28.948  29.716  1.00  0.00     0.049 A 
ATOM     22  H   UNL A   1      41.866  28.732  28.926  1.00  0.00     0.167 HD
ATOM     23  C   UNL A   1      45.838  28.078  27.097  1.00  0.00     0.034 A 
ATOM     24  C   UNL A   1      39.907  30.158  30.306  1.00  0.00     0.034 A 
ATOM     25  C   UNL A   1      45.842  29.434  27.566  1.00  0.00     0.049 A 
ATOM     26  C   UNL A   1      41.116  31.048  30.189  1.00  0.00     0.074 A 
ATOM     27  C   UNL A   1      46.852  30.373  27.486  1.00  0.00     0.029 A 
ATOM     28  N   UNL A   1      44.779  30.039  28.221  1.00  0.00    -0.354 N 
ATOM     29  N   UNL A   1      42.250  30.820  29.571  1.00  0.00    -0.248 NA
ATOM     30  C   UNL A   1      41.023  32.380  30.801  1.00  0.00     0.031 C 
ATOM     31  C   UNL A   1      46.408  31.540  28.116  1.00  0.00     0.029 A 
ATOM     32  C   UNL A   1      45.108  31.339  28.555  1.00  0.00     0.049 A 
ATOM     33  H   UNL A   1      43.917  29.606  28.418  1.00  0.00     0.167 HD
ATOM     34  C   UNL A   1      42.989  31.992  29.680  1.00  0.00     0.074 A 
ATOM     35  C   UNL A   1      42.161  32.935  30.407  1.00  0.00     0.031 C 
ATOM     36  C   UNL A   1      44.239  32.266  29.234  1.00  0.00     0.034 A 
BRANCH  23  37
ATOM     37  C   UNL A   1      47.041  27.544  26.368  1.00  0.00     0.023 A 
ATOM     38  C   UNL A   1      47.146  27.723  24.972  1.00  0.00     0.012 A 
ATOM     39  C   UNL A   1      48.057  26.855  27.056  1.00  0.00     0.148 A 
ATOM     40  C   UNL A   1      48.221  27.186  24.267  1.00  0.00     0.002 A 
ATOM     41  C   UNL A   1      49.147  26.361  26.351  1.00  0.00     0.091 A 
ATOM     42  F   UNL A   1      47.924  26.676  28.377  1.00  0.00    -0.205 F 
ATOM     43  C   UNL A   1      49.224  26.512  24.956  1.00  0.00     0.022 A 
BRANCH  41  44
ATOM     44  S   UNL A   1      50.521  25.526  27.149  1.00  0.00     0.127 S 
ATOM     45  O   UNL A   1      49.872  24.327  27.679  1.00  0.00    -0.237 OA
ATOM     46  O   UNL A   1      51.424  25.284  26.024  1.00  0.00    -0.237 OA
ATOM     47  O   UNL A   1      51.028  26.451  28.153  1.00  0.00    -0.744 OA
ENDBRANCH  41  44
ENDBRANCH  23  37
BRANCH  24  48
ATOM     48  C   UNL A   1      38.685  30.605  31.035  1.00  0.00     0.023 A 
ATOM     49  C   UNL A   1      38.546  30.359  32.415  1.00  0.00     0.012 A 
ATOM     50  C   UNL A   1      37.645  31.267  30.353  1.00  0.00     0.148 A 
ATOM     51  C   UNL A   1      37.377  30.717  33.089  1.00  0.00     0.002 A 
ATOM     52  C   UNL A   1      36.508  31.674  31.042  1.00  0.00     0.091 A 
ATOM     53  F   UNL A   1      37.784  31.486  29.037  1.00  0.00    -0.205 F 
ATOM     54  C   UNL A   1      36.361  31.379  32.404  1.00  0.00     0.022 A 
BRANCH  52  55
ATOM     55  S   UNL A   1      35.226  32.661  30.261  1.00  0.00     0.127 S 
ATOM     56  O   UNL A   1      35.972  33.842  29.838  1.00  0.00    -0.237 OA
ATOM     57  O   UNL A   1      34.787  31.784  29.174  1.00  0.00    -0.237 OA
ATOM     58  O   UNL A   1      34.216  32.869  31.292  1.00  0.00    -0.744 OA
ENDBRANCH  52  55
ENDBRANCH  24  48
BRANCH  36  59
ATOM     59  C   UNL A   1      44.770  33.654  29.474  1.00  0.00     0.023 A 
ATOM     60  C   UNL A   1      45.514  33.932  30.637  1.00  0.00     0.012 A 
ATOM     61  C   UNL A   1      44.594  34.659  28.504  1.00  0.00     0.148 A 
ATOM     62  C   UNL A   1      46.045  35.204  30.848  1.00  0.00     0.002 A 
ATOM     63  C   UNL A   1      45.173  35.907  28.695  1.00  0.00     0.091 A 
ATOM     64  F   UNL A   1      43.865  34.377  27.415  1.00  0.00    -0.205 F 
ATOM     65  C   UNL A   1      45.886  36.185  29.872  1.00  0.00     0.022 A 
BRANCH  63  66
ATOM     66  S   UNL A   1      45.111  37.193  27.443  1.00  0.00     0.127 S 
ATOM     67  O   UNL A   1      45.611  38.350  28.182  1.00  0.00    -0.237 OA
ATOM     68  O   UNL A   1      46.026  36.677  26.424  1.00  0.00    -0.237 OA
ATOM     69  O   UNL A   1      43.720  37.273  27.019  1.00  0.00    -0.744 OA
ENDBRANCH  63  66
ENDBRANCH  36  59
ENDBRANCH  10  11
ENDBRANCH   3   5
ENDBRANCH   2   3
ENDBRANCH   1   2
BRANCH   1  70
ATOM     70  C   UNL A   1      36.888  22.115  23.921  1.00  0.00     0.275 C 
BRANCH  70  71
ATOM     71  O   UNL A   1      35.508  22.485  24.101  1.00  0.00    -0.458 OA
BRANCH  71  72
ATOM     72  C   UNL A   1      35.177  23.139  25.245  1.00  0.00     0.338 C 
ATOM     73  O   UNL A   1      35.924  23.804  25.956  1.00  0.00    -0.246 OA
BRANCH  72  74
ATOM     74  C   UNL A   1      33.708  23.091  25.404  1.00  0.00     0.062 A 
ATOM     75  C   UNL A   1      33.129  21.830  25.230  1.00  0.00     0.016 A 
ATOM     76  C   UNL A   1      32.908  24.214  25.704  1.00  0.00     0.041 A 
ATOM     77  C   UNL A   1      31.779  21.647  25.487  1.00  0.00     0.003 A 
ATOM     78  C   UNL A   1      31.526  24.043  25.917  1.00  0.00     0.039 A 
ATOM     79  C   UNL A   1      31.001  22.738  25.852  1.00  0.00     0.026 A 
BRANCH  78  80
ATOM     80  N   UNL A   1      30.641  25.105  26.238  1.00  0.00    -0.355 N 
ATOM     81  H   UNL A   1      30.047  25.001  27.016  1.00  0.00     0.167 HD
BRANCH  80  82
ATOM     82  C   UNL A   1      30.570  26.316  25.486  1.00  0.00     0.050 A 
ATOM     83  C   UNL A   1      29.639  26.355  24.446  1.00  0.00     0.047 A 
ATOM     84  C   UNL A   1      31.341  27.480  25.746  1.00  0.00     0.027 A 
ATOM     85  C   UNL A   1      29.595  27.442  23.610  1.00  0.00     0.114 A 
ATOM     86  C   UNL A   1      31.106  28.592  24.894  1.00  0.00     0.072 A 
ATOM     87  C   UNL A   1      32.337  27.611  26.745  1.00  0.00     0.051 A 
ATOM     88  N   UNL A   1      30.318  28.554  23.815  1.00  0.00    -0.256 NA
ATOM     89  C   UNL A   1      31.720  29.806  25.156  1.00  0.00     0.032 A 
ATOM     90  C   UNL A   1      32.984  28.834  26.936  1.00  0.00     0.124 A 
ATOM     91  C   UNL A   1      32.648  29.947  26.183  1.00  0.00     0.041 A 
ATOM     92  F   UNL A   1      33.954  28.942  27.855  1.00  0.00    -0.207 F 
ENDBRANCH  80  82
ENDBRANCH  78  80
ENDBRANCH  72  74
ENDBRANCH  71  72
ENDBRANCH  70  71
ENDBRANCH   1  70
TORSDOF 16
ENDMDL
