MODEL 1
REMARK VINA RESULT:     -13.2      0.000      0.000
REMARK SMILES O=C(CC1CCN(C(=O)c2ccc3[nH]ccc3c2)CC1)OCCOC(=O)c1ccc(-c2c3nc(c(-c4cccc(S(=O)(=O)[O-])c4F)c4ccc([nH]4)c(-c4cccc(S(=O)(=O)[O-])c4F)c4nc(c(-c5cccc(S(=O)(=O)[O-])c5F)c5ccc2[nH]5)C=C4)C=C3)cc1
REMARK SMILES IDX 23 1 22 2 21 3 2 4 1 5 3 6 4 7 5 8 20 9 6 10 19 11 7 12 8 13
REMARK SMILES IDX 9 14 10 15 11 16 18 17 12 18 17 19 13 20 16 21 14 22 15 23
REMARK SMILES IDX 24 25 25 26 26 27 27 28 28 29 89 30 29 31 88 32 30 33 31 34
REMARK SMILES IDX 32 35 82 36 33 37 87 38 81 39 83 40 34 41 86 42 80 43 79 44
REMARK SMILES IDX 35 46 67 47 47 48 66 49 48 50 51 51 65 52 84 53 49 54 50 55
REMARK SMILES IDX 64 57 85 58 52 59 36 60 37 61 45 62 38 63 40 64 46 65 39 66
REMARK SMILES IDX 41 67 42 68 43 69 44 70 68 71 69 72 77 73 70 74 72 75 78 76
REMARK SMILES IDX 71 77 73 78 74 79 75 80 76 81 53 82 54 83 62 84 55 85 57 86
REMARK SMILES IDX 63 87 56 88 58 89 59 90 60 91 61 92
REMARK H PARENT 14 24 83 45 51 56
REMARK Flexibility Score: inf
ROOT
ATOM      1  C   UNL A   1      36.780  20.325  25.000  1.00  0.00     0.275 C 
ENDROOT
BRANCH   1   2
ATOM      2  C   UNL A   1      35.366  20.847  24.746  1.00  0.00     0.274 C 
BRANCH   2   3
ATOM      3  O   UNL A   1      34.376  19.799  24.844  1.00  0.00    -0.462 OA
BRANCH   3   4
ATOM      4  C   UNL A   1      33.053  19.975  25.079  1.00  0.00     0.306 C 
ATOM      5  O   UNL A   1      32.286  19.018  24.998  1.00  0.00    -0.252 OA
BRANCH   4   6
ATOM      6  C   UNL A   1      32.545  21.346  25.462  1.00  0.00     0.126 C 
BRANCH   6   7
ATOM      7  C   UNL A   1      31.698  22.116  24.439  1.00  0.00     0.003 C 
ATOM      8  C   UNL A   1      32.259  22.164  23.014  1.00  0.00     0.026 C 
ATOM      9  C   UNL A   1      31.296  23.522  24.906  1.00  0.00     0.026 C 
ATOM     10  C   UNL A   1      33.333  23.231  22.814  1.00  0.00     0.120 C 
ATOM     11  C   UNL A   1      32.338  24.598  24.630  1.00  0.00     0.120 C 
ATOM     12  N   UNL A   1      32.866  24.533  23.264  1.00  0.00    -0.339 N 
ATOM     13  C   UNL A   1      33.059  25.626  22.423  1.00  0.00     0.253 C 
ATOM     14  O   UNL A   1      33.644  25.573  21.343  1.00  0.00    -0.269 OA
BRANCH  13  15
ATOM     15  C   UNL A   1      32.441  26.909  22.794  1.00  0.00     0.040 A 
ATOM     16  C   UNL A   1      33.149  27.880  23.504  1.00  0.00     0.016 A 
ATOM     17  C   UNL A   1      31.102  27.091  22.425  1.00  0.00     0.024 A 
ATOM     18  C   UNL A   1      32.508  29.050  23.922  1.00  0.00     0.027 A 
ATOM     19  C   UNL A   1      30.449  28.265  22.832  1.00  0.00     0.000 A 
ATOM     20  C   UNL A   1      31.158  29.208  23.578  1.00  0.00     0.045 A 
ATOM     21  C   UNL A   1      29.127  28.759  22.668  1.00  0.00     0.028 A 
ATOM     22  N   UNL A   1      30.276  30.223  23.876  1.00  0.00    -0.361 N 
ATOM     23  C   UNL A   1      29.050  29.967  23.321  1.00  0.00     0.083 A 
ATOM     24  H   UNL A   1      30.495  31.020  24.412  1.00  0.00     0.166 HD
ENDBRANCH  13  15
ENDBRANCH   6   7
ENDBRANCH   4   6
ENDBRANCH   3   4
ENDBRANCH   2   3
ENDBRANCH   1   2
BRANCH   1  25
ATOM     25  O   UNL A   1      37.661  21.418  25.304  1.00  0.00    -0.458 OA
BRANCH  25  26
ATOM     26  C   UNL A   1      38.853  21.068  25.856  1.00  0.00     0.338 C 
ATOM     27  O   UNL A   1      39.414  19.995  25.755  1.00  0.00    -0.246 OA
BRANCH  26  28
ATOM     28  C   UNL A   1      39.470  22.277  26.449  1.00  0.00     0.060 A 
ATOM     29  C   UNL A   1      38.960  23.529  26.078  1.00  0.00     0.016 A 
ATOM     30  C   UNL A   1      40.506  22.184  27.384  1.00  0.00     0.016 A 
ATOM     31  C   UNL A   1      39.512  24.695  26.612  1.00  0.00     0.010 A 
ATOM     32  C   UNL A   1      41.060  23.350  27.911  1.00  0.00     0.010 A 
ATOM     33  C   UNL A   1      40.589  24.610  27.502  1.00  0.00    -0.014 A 
BRANCH  33  34
ATOM     34  C   UNL A   1      41.380  25.809  27.858  1.00  0.00     0.031 A 
ATOM     35  C   UNL A   1      40.676  26.926  28.574  1.00  0.00     0.074 A 
ATOM     36  C   UNL A   1      42.656  25.950  27.464  1.00  0.00     0.049 A 
ATOM     37  N   UNL A   1      41.109  28.121  28.873  1.00  0.00    -0.248 NA
ATOM     38  C   UNL A   1      39.289  26.663  28.990  1.00  0.00     0.031 C 
ATOM     39  C   UNL A   1      43.437  24.947  26.744  1.00  0.00     0.029 A 
ATOM     40  N   UNL A   1      43.502  27.027  27.572  1.00  0.00    -0.354 N 
ATOM     41  C   UNL A   1      40.039  28.764  29.480  1.00  0.00     0.074 A 
ATOM     42  C   UNL A   1      38.934  27.830  29.502  1.00  0.00     0.031 C 
ATOM     43  C   UNL A   1      44.632  25.475  26.425  1.00  0.00     0.029 A 
ATOM     44  C   UNL A   1      44.690  26.858  26.901  1.00  0.00     0.049 A 
ATOM     45  H   UNL A   1      43.280  27.840  28.081  1.00  0.00     0.167 HD
ATOM     46  C   UNL A   1      39.978  30.019  29.984  1.00  0.00     0.034 A 
ATOM     47  C   UNL A   1      45.692  27.730  26.671  1.00  0.00     0.034 A 
ATOM     48  C   UNL A   1      41.075  30.945  29.970  1.00  0.00     0.049 A 
ATOM     49  C   UNL A   1      45.606  29.125  27.237  1.00  0.00     0.074 A 
ATOM     50  C   UNL A   1      41.135  32.215  30.511  1.00  0.00     0.029 A 
ATOM     51  N   UNL A   1      42.298  30.706  29.364  1.00  0.00    -0.354 N 
ATOM     52  N   UNL A   1      44.647  29.671  27.947  1.00  0.00    -0.248 NA
ATOM     53  C   UNL A   1      46.753  30.016  26.999  1.00  0.00     0.031 C 
ATOM     54  C   UNL A   1      42.391  32.754  30.216  1.00  0.00     0.029 A 
ATOM     55  C   UNL A   1      43.118  31.811  29.506  1.00  0.00     0.049 A 
ATOM     56  H   UNL A   1      42.547  29.874  28.901  1.00  0.00     0.167 HD
ATOM     57  C   UNL A   1      45.089  30.951  28.270  1.00  0.00     0.074 A 
ATOM     58  C   UNL A   1      46.405  31.098  27.686  1.00  0.00     0.031 C 
ATOM     59  C   UNL A   1      44.455  31.920  28.976  1.00  0.00     0.034 A 
BRANCH  46  60
ATOM     60  C   UNL A   1      38.681  30.441  30.613  1.00  0.00     0.023 A 
ATOM     61  C   UNL A   1      38.442  30.151  31.971  1.00  0.00     0.012 A 
ATOM     62  C   UNL A   1      37.703  31.124  29.866  1.00  0.00     0.148 A 
ATOM     63  C   UNL A   1      37.232  30.501  32.568  1.00  0.00     0.002 A 
ATOM     64  C   UNL A   1      36.515  31.504  30.479  1.00  0.00     0.091 A 
ATOM     65  F   UNL A   1      37.933  31.357  28.566  1.00  0.00    -0.205 F 
ATOM     66  C   UNL A   1      36.273  31.186  31.825  1.00  0.00     0.022 A 
BRANCH  64  67
ATOM     67  S   UNL A   1      35.257  32.444  29.607  1.00  0.00     0.127 S 
ATOM     68  O   UNL A   1      34.296  32.713  30.674  1.00  0.00    -0.237 OA
ATOM     69  O   UNL A   1      36.002  33.617  29.148  1.00  0.00    -0.237 OA
ATOM     70  O   UNL A   1      34.793  31.573  28.536  1.00  0.00    -0.744 OA
ENDBRANCH  64  67
ENDBRANCH  46  60
BRANCH  47  71
ATOM     71  C   UNL A   1      46.883  27.292  25.890  1.00  0.00     0.023 A 
ATOM     72  C   UNL A   1      47.804  26.401  26.475  1.00  0.00     0.012 A 
ATOM     73  C   UNL A   1      47.081  27.714  24.561  1.00  0.00     0.148 A 
ATOM     74  C   UNL A   1      48.914  25.956  25.756  1.00  0.00     0.002 A 
ATOM     75  C   UNL A   1      48.161  27.226  23.834  1.00  0.00     0.091 A 
ATOM     76  F   UNL A   1      46.198  28.571  24.030  1.00  0.00    -0.205 F 
ATOM     77  C   UNL A   1      49.086  26.359  24.434  1.00  0.00     0.022 A 
BRANCH  75  78
ATOM     78  S   UNL A   1      48.398  27.591  22.091  1.00  0.00     0.127 S 
ATOM     79  O   UNL A   1      49.561  28.474  22.125  1.00  0.00    -0.237 OA
ATOM     80  O   UNL A   1      48.652  26.259  21.541  1.00  0.00    -0.237 OA
ATOM     81  O   UNL A   1      47.156  28.202  21.641  1.00  0.00    -0.744 OA
ENDBRANCH  75  78
ENDBRANCH  47  71
BRANCH  59  82
ATOM     82  C   UNL A   1      45.174  33.224  29.203  1.00  0.00     0.023 A 
ATOM     83  C   UNL A   1      46.100  33.336  30.258  1.00  0.00     0.012 A 
ATOM     84  C   UNL A   1      45.024  34.292  28.296  1.00  0.00     0.148 A 
ATOM     85  C   UNL A   1      46.856  34.498  30.415  1.00  0.00     0.002 A 
ATOM     86  C   UNL A   1      45.812  35.429  28.432  1.00  0.00     0.091 A 
ATOM     87  F   UNL A   1      44.123  34.171  27.309  1.00  0.00    -0.205 F 
ATOM     88  C   UNL A   1      46.724  35.537  29.495  1.00  0.00     0.022 A 
BRANCH  86  89
ATOM     89  S   UNL A   1      45.777  36.771  27.238  1.00  0.00     0.127 S 
ATOM     90  O   UNL A   1      44.342  37.006  27.095  1.00  0.00    -0.237 OA
ATOM     91  O   UNL A   1      46.503  37.832  27.939  1.00  0.00    -0.237 OA
ATOM     92  O   UNL A   1      46.451  36.266  26.049  1.00  0.00    -0.744 OA
ENDBRANCH  86  89
ENDBRANCH  59  82
ENDBRANCH  33  34
ENDBRANCH  26  28
ENDBRANCH  25  26
ENDBRANCH   1  25
TORSDOF 16
ENDMDL
MODEL 2
REMARK VINA RESULT:     -13.1      5.274     10.429
REMARK SMILES O=C(CC1CCN(C(=O)c2ccc3[nH]ccc3c2)CC1)OCCOC(=O)c1ccc(-c2c3nc(c(-c4cccc(S(=O)(=O)[O-])c4F)c4ccc([nH]4)c(-c4cccc(S(=O)(=O)[O-])c4F)c4nc(c(-c5cccc(S(=O)(=O)[O-])c5F)c5ccc2[nH]5)C=C4)C=C3)cc1
REMARK SMILES IDX 23 1 22 2 21 3 2 4 1 5 3 6 4 7 5 8 20 9 6 10 19 11 7 12 8 13
REMARK SMILES IDX 9 14 10 15 11 16 18 17 12 18 17 19 13 20 16 21 14 22 15 23
REMARK SMILES IDX 24 25 25 26 26 27 27 28 28 29 89 30 29 31 88 32 30 33 31 34
REMARK SMILES IDX 32 35 82 36 33 37 87 38 81 39 83 40 34 41 86 42 80 43 79 44
REMARK SMILES IDX 35 46 67 47 47 48 66 49 48 50 51 51 65 52 84 53 49 54 50 55
REMARK SMILES IDX 64 57 85 58 52 59 36 60 37 61 45 62 38 63 40 64 46 65 39 66
REMARK SMILES IDX 41 67 42 68 43 69 44 70 68 71 69 72 77 73 70 74 72 75 78 76
REMARK SMILES IDX 71 77 73 78 74 79 75 80 76 81 53 82 54 83 62 84 55 85 57 86
REMARK SMILES IDX 63 87 56 88 58 89 59 90 60 91 61 92
REMARK H PARENT 14 24 83 45 51 56
REMARK Flexibility Score: inf
ROOT
ATOM      1  C   UNL A   1      31.475  30.763  25.898  1.00  0.00     0.275 C 
ENDROOT
BRANCH   1   2
ATOM      2  C   UNL A   1      31.497  29.574  24.938  1.00  0.00     0.274 C 
BRANCH   2   3
ATOM      3  O   UNL A   1      30.496  29.693  23.904  1.00  0.00    -0.462 OA
BRANCH   3   4
ATOM      4  C   UNL A   1      30.352  28.868  22.839  1.00  0.00     0.306 C 
ATOM      5  O   UNL A   1      29.472  29.090  22.010  1.00  0.00    -0.252 OA
BRANCH   4   6
ATOM      6  C   UNL A   1      31.294  27.698  22.675  1.00  0.00     0.126 C 
BRANCH   6   7
ATOM      7  C   UNL A   1      30.727  26.281  22.850  1.00  0.00     0.003 C 
ATOM      8  C   UNL A   1      29.791  26.084  24.047  1.00  0.00     0.026 C 
ATOM      9  C   UNL A   1      31.797  25.181  22.818  1.00  0.00     0.026 C 
ATOM     10  C   UNL A   1      30.524  25.871  25.369  1.00  0.00     0.120 C 
ATOM     11  C   UNL A   1      32.468  24.916  24.158  1.00  0.00     0.120 C 
ATOM     12  N   UNL A   1      31.504  24.803  25.258  1.00  0.00    -0.339 N 
ATOM     13  C   UNL A   1      31.529  23.829  26.252  1.00  0.00     0.253 C 
ATOM     14  O   UNL A   1      30.810  23.838  27.249  1.00  0.00    -0.269 OA
BRANCH  13  15
ATOM     15  C   UNL A   1      32.399  22.657  26.059  1.00  0.00     0.040 A 
ATOM     16  C   UNL A   1      33.687  22.610  26.593  1.00  0.00     0.016 A 
ATOM     17  C   UNL A   1      31.879  21.609  25.289  1.00  0.00     0.024 A 
ATOM     18  C   UNL A   1      34.523  21.524  26.317  1.00  0.00     0.027 A 
ATOM     19  C   UNL A   1      32.705  20.509  25.010  1.00  0.00     0.000 A 
ATOM     20  C   UNL A   1      34.006  20.496  25.515  1.00  0.00     0.045 A 
ATOM     21  C   UNL A   1      32.528  19.315  24.262  1.00  0.00     0.028 A 
ATOM     22  N   UNL A   1      34.599  19.340  25.058  1.00  0.00    -0.361 N 
ATOM     23  C   UNL A   1      33.710  18.613  24.310  1.00  0.00     0.083 A 
ATOM     24  H   UNL A   1      35.528  19.073  25.243  1.00  0.00     0.166 HD
ENDBRANCH  13  15
ENDBRANCH   6   7
ENDBRANCH   4   6
ENDBRANCH   3   4
ENDBRANCH   2   3
ENDBRANCH   1   2
BRANCH   1  25
ATOM     25  O   UNL A   1      32.505  30.617  26.887  1.00  0.00    -0.458 OA
BRANCH  25  26
ATOM     26  C   UNL A   1      33.128  31.769  27.254  1.00  0.00     0.338 C 
ATOM     27  O   UNL A   1      32.639  32.881  27.288  1.00  0.00    -0.246 OA
BRANCH  26  28
ATOM     28  C   UNL A   1      34.462  31.430  27.800  1.00  0.00     0.060 A 
ATOM     29  C   UNL A   1      34.736  30.085  28.089  1.00  0.00     0.016 A 
ATOM     30  C   UNL A   1      35.443  32.408  27.991  1.00  0.00     0.016 A 
ATOM     31  C   UNL A   1      35.980  29.720  28.606  1.00  0.00     0.010 A 
ATOM     32  C   UNL A   1      36.683  32.043  28.515  1.00  0.00     0.010 A 
ATOM     33  C   UNL A   1      36.945  30.704  28.855  1.00  0.00    -0.014 A 
BRANCH  33  34
ATOM     34  C   UNL A   1      38.148  30.404  29.663  1.00  0.00     0.031 A 
ATOM     35  C   UNL A   1      39.126  29.401  29.119  1.00  0.00     0.074 A 
ATOM     36  C   UNL A   1      38.316  30.922  30.891  1.00  0.00     0.049 A 
ATOM     37  N   UNL A   1      40.175  28.873  29.689  1.00  0.00    -0.248 NA
ATOM     38  C   UNL A   1      38.868  28.914  27.754  1.00  0.00     0.031 C 
ATOM     39  C   UNL A   1      37.425  31.885  31.534  1.00  0.00     0.029 A 
ATOM     40  N   UNL A   1      39.278  30.662  31.837  1.00  0.00    -0.354 N 
ATOM     41  C   UNL A   1      40.684  27.969  28.768  1.00  0.00     0.074 A 
ATOM     42  C   UNL A   1      39.826  28.014  27.604  1.00  0.00     0.031 C 
ATOM     43  C   UNL A   1      37.851  32.095  32.792  1.00  0.00     0.029 A 
ATOM     44  C   UNL A   1      39.030  31.266  33.047  1.00  0.00     0.049 A 
ATOM     45  H   UNL A   1      40.067  30.100  31.665  1.00  0.00     0.167 HD
ATOM     46  C   UNL A   1      41.775  27.174  28.873  1.00  0.00     0.034 A 
ATOM     47  C   UNL A   1      39.664  31.138  34.230  1.00  0.00     0.034 A 
ATOM     48  C   UNL A   1      42.632  27.133  30.024  1.00  0.00     0.049 A 
ATOM     49  C   UNL A   1      40.876  30.245  34.330  1.00  0.00     0.074 A 
ATOM     50  C   UNL A   1      43.796  26.411  30.204  1.00  0.00     0.029 A 
ATOM     51  N   UNL A   1      42.404  27.831  31.199  1.00  0.00    -0.354 N 
ATOM     52  N   UNL A   1      41.440  29.512  33.400  1.00  0.00    -0.248 NA
ATOM     53  C   UNL A   1      41.558  30.186  35.633  1.00  0.00     0.031 C 
ATOM     54  C   UNL A   1      44.264  26.657  31.499  1.00  0.00     0.029 A 
ATOM     55  C   UNL A   1      43.399  27.547  32.117  1.00  0.00     0.049 A 
ATOM     56  H   UNL A   1      41.646  28.438  31.358  1.00  0.00     0.167 HD
ATOM     57  C   UNL A   1      42.559  28.935  33.993  1.00  0.00     0.074 A 
ATOM     58  C   UNL A   1      42.600  29.410  35.360  1.00  0.00     0.031 C 
ATOM     59  C   UNL A   1      43.464  28.080  33.455  1.00  0.00     0.034 A 
BRANCH  46  60
ATOM     60  C   UNL A   1      42.104  26.305  27.693  1.00  0.00     0.023 A 
ATOM     61  C   UNL A   1      42.800  26.857  26.598  1.00  0.00     0.012 A 
ATOM     62  C   UNL A   1      41.730  24.949  27.666  1.00  0.00     0.148 A 
ATOM     63  C   UNL A   1      43.086  26.081  25.477  1.00  0.00     0.002 A 
ATOM     64  C   UNL A   1      42.054  24.172  26.560  1.00  0.00     0.091 A 
ATOM     65  F   UNL A   1      41.036  24.452  28.700  1.00  0.00    -0.205 F 
ATOM     66  C   UNL A   1      42.722  24.737  25.462  1.00  0.00     0.022 A 
BRANCH  64  67
ATOM     67  S   UNL A   1      41.675  22.418  26.492  1.00  0.00     0.127 S 
ATOM     68  O   UNL A   1      42.266  21.938  27.739  1.00  0.00    -0.237 OA
ATOM     69  O   UNL A   1      40.211  22.411  26.469  1.00  0.00    -0.237 OA
ATOM     70  O   UNL A   1      42.295  21.933  25.266  1.00  0.00    -0.744 OA
ENDBRANCH  64  67
ENDBRANCH  46  60
BRANCH  47  71
ATOM     71  C   UNL A   1      39.178  31.906  35.411  1.00  0.00     0.023 A 
ATOM     72  C   UNL A   1      38.316  31.284  36.334  1.00  0.00     0.012 A 
ATOM     73  C   UNL A   1      39.602  33.229  35.646  1.00  0.00     0.148 A 
ATOM     74  C   UNL A   1      37.867  31.974  37.461  1.00  0.00     0.002 A 
ATOM     75  C   UNL A   1      39.192  33.892  36.797  1.00  0.00     0.091 A 
ATOM     76  F   UNL A   1      40.413  33.804  34.748  1.00  0.00    -0.205 F 
ATOM     77  C   UNL A   1      38.314  33.271  37.698  1.00  0.00     0.022 A 
BRANCH  75  78
ATOM     78  S   UNL A   1      39.809  35.517  37.251  1.00  0.00     0.127 S 
ATOM     79  O   UNL A   1      38.948  35.860  38.379  1.00  0.00    -0.237 OA
ATOM     80  O   UNL A   1      41.198  35.220  37.603  1.00  0.00    -0.237 OA
ATOM     81  O   UNL A   1      39.653  36.345  36.064  1.00  0.00    -0.744 OA
ENDBRANCH  75  78
ENDBRANCH  47  71
BRANCH  59  82
ATOM     82  C   UNL A   1      44.609  27.617  34.318  1.00  0.00     0.023 A 
ATOM     83  C   UNL A   1      45.749  28.432  34.461  1.00  0.00     0.012 A 
ATOM     84  C   UNL A   1      44.500  26.438  35.082  1.00  0.00     0.148 A 
ATOM     85  C   UNL A   1      46.769  28.072  35.342  1.00  0.00     0.002 A 
ATOM     86  C   UNL A   1      45.499  26.108  35.991  1.00  0.00     0.091 A 
ATOM     87  F   UNL A   1      43.414  25.667  34.916  1.00  0.00    -0.205 F 
ATOM     88  C   UNL A   1      46.638  26.920  36.117  1.00  0.00     0.022 A 
BRANCH  86  89
ATOM     89  S   UNL A   1      45.366  24.699  37.097  1.00  0.00     0.127 S 
ATOM     90  O   UNL A   1      46.560  24.855  37.924  1.00  0.00    -0.237 OA
ATOM     91  O   UNL A   1      44.104  24.964  37.791  1.00  0.00    -0.237 OA
ATOM     92  O   UNL A   1      45.345  23.520  36.242  1.00  0.00    -0.744 OA
ENDBRANCH  86  89
ENDBRANCH  59  82
ENDBRANCH  33  34
ENDBRANCH  26  28
ENDBRANCH  25  26
ENDBRANCH   1  25
TORSDOF 16
ENDMDL
MODEL 3
REMARK VINA RESULT:     -12.8      1.964      7.808
REMARK SMILES O=C(CC1CCN(C(=O)c2ccc3[nH]ccc3c2)CC1)OCCOC(=O)c1ccc(-c2c3nc(c(-c4cccc(S(=O)(=O)[O-])c4F)c4ccc([nH]4)c(-c4cccc(S(=O)(=O)[O-])c4F)c4nc(c(-c5cccc(S(=O)(=O)[O-])c5F)c5ccc2[nH]5)C=C4)C=C3)cc1
REMARK SMILES IDX 23 1 22 2 21 3 2 4 1 5 3 6 4 7 5 8 20 9 6 10 19 11 7 12 8 13
REMARK SMILES IDX 9 14 10 15 11 16 18 17 12 18 17 19 13 20 16 21 14 22 15 23
REMARK SMILES IDX 24 25 25 26 26 27 27 28 28 29 89 30 29 31 88 32 30 33 31 34
REMARK SMILES IDX 32 35 82 36 33 37 87 38 81 39 83 40 34 41 86 42 80 43 79 44
REMARK SMILES IDX 35 46 67 47 47 48 66 49 48 50 51 51 65 52 84 53 49 54 50 55
REMARK SMILES IDX 64 57 85 58 52 59 36 60 37 61 45 62 38 63 40 64 46 65 39 66
REMARK SMILES IDX 41 67 42 68 43 69 44 70 68 71 69 72 77 73 70 74 72 75 78 76
REMARK SMILES IDX 71 77 73 78 74 79 75 80 76 81 53 82 54 83 62 84 55 85 57 86
REMARK SMILES IDX 63 87 56 88 58 89 59 90 60 91 61 92
REMARK H PARENT 14 24 83 45 51 56
REMARK Flexibility Score: inf
ROOT
ATOM      1  C   UNL A   1      39.040  19.209  25.476  1.00  0.00     0.275 C 
ENDROOT
BRANCH   1   2
ATOM      2  C   UNL A   1      37.636  19.582  25.001  1.00  0.00     0.274 C 
BRANCH   2   3
ATOM      3  O   UNL A   1      37.290  20.942  25.346  1.00  0.00    -0.462 OA
BRANCH   3   4
ATOM      4  C   UNL A   1      36.227  21.635  24.873  1.00  0.00     0.306 C 
ATOM      5  O   UNL A   1      36.323  22.253  23.815  1.00  0.00    -0.252 OA
BRANCH   4   6
ATOM      6  C   UNL A   1      34.928  21.616  25.645  1.00  0.00     0.126 C 
BRANCH   6   7
ATOM      7  C   UNL A   1      34.578  22.841  26.504  1.00  0.00     0.003 C 
ATOM      8  C   UNL A   1      33.359  22.682  27.420  1.00  0.00     0.026 C 
ATOM      9  C   UNL A   1      34.481  24.147  25.703  1.00  0.00     0.026 C 
ATOM     10  C   UNL A   1      32.026  22.895  26.708  1.00  0.00     0.120 C 
ATOM     11  C   UNL A   1      33.122  24.394  25.062  1.00  0.00     0.120 C 
ATOM     12  N   UNL A   1      32.011  24.160  25.991  1.00  0.00    -0.339 N 
ATOM     13  C   UNL A   1      30.905  24.990  26.147  1.00  0.00     0.253 C 
ATOM     14  O   UNL A   1      29.913  24.704  26.814  1.00  0.00    -0.269 OA
BRANCH  13  15
ATOM     15  C   UNL A   1      30.959  26.340  25.563  1.00  0.00     0.040 A 
ATOM     16  C   UNL A   1      31.687  27.367  26.167  1.00  0.00     0.016 A 
ATOM     17  C   UNL A   1      30.220  26.548  24.392  1.00  0.00     0.024 A 
ATOM     18  C   UNL A   1      31.646  28.661  25.640  1.00  0.00     0.027 A 
ATOM     19  C   UNL A   1      30.175  27.841  23.848  1.00  0.00     0.000 A 
ATOM     20  C   UNL A   1      30.874  28.867  24.487  1.00  0.00     0.045 A 
ATOM     21  C   UNL A   1      29.524  28.409  22.721  1.00  0.00     0.028 A 
ATOM     22  N   UNL A   1      30.625  30.020  23.778  1.00  0.00    -0.361 N 
ATOM     23  C   UNL A   1      29.820  29.753  22.701  1.00  0.00     0.083 A 
ATOM     24  H   UNL A   1      30.974  30.911  24.010  1.00  0.00     0.166 HD
ENDBRANCH  13  15
ENDBRANCH   6   7
ENDBRANCH   4   6
ENDBRANCH   3   4
ENDBRANCH   2   3
ENDBRANCH   1   2
BRANCH   1  25
ATOM     25  O   UNL A   1      39.816  20.396  25.701  1.00  0.00    -0.458 OA
BRANCH  25  26
ATOM     26  C   UNL A   1      40.445  20.461  26.904  1.00  0.00     0.338 C 
ATOM     27  O   UNL A   1      40.893  19.528  27.542  1.00  0.00    -0.246 OA
BRANCH  26  28
ATOM     28  C   UNL A   1      40.681  21.885  27.236  1.00  0.00     0.060 A 
ATOM     29  C   UNL A   1      39.954  22.857  26.534  1.00  0.00     0.016 A 
ATOM     30  C   UNL A   1      41.572  22.262  28.246  1.00  0.00     0.016 A 
ATOM     31  C   UNL A   1      40.144  24.211  26.813  1.00  0.00     0.010 A 
ATOM     32  C   UNL A   1      41.766  23.615  28.519  1.00  0.00     0.010 A 
ATOM     33  C   UNL A   1      41.079  24.595  27.782  1.00  0.00    -0.014 A 
BRANCH  33  34
ATOM     34  C   UNL A   1      41.517  26.004  27.901  1.00  0.00     0.031 A 
ATOM     35  C   UNL A   1      42.911  26.345  27.453  1.00  0.00     0.074 A 
ATOM     36  C   UNL A   1      40.744  26.933  28.487  1.00  0.00     0.049 A 
ATOM     37  N   UNL A   1      43.570  27.466  27.577  1.00  0.00    -0.248 NA
ATOM     38  C   UNL A   1      43.667  25.266  26.797  1.00  0.00     0.031 C 
ATOM     39  C   UNL A   1      39.386  26.716  28.981  1.00  0.00     0.029 A 
ATOM     40  N   UNL A   1      41.021  28.238  28.812  1.00  0.00    -0.354 N 
ATOM     41  C   UNL A   1      44.828  27.219  27.046  1.00  0.00     0.074 A 
ATOM     42  C   UNL A   1      44.843  25.841  26.604  1.00  0.00     0.031 C 
ATOM     43  C   UNL A   1      38.966  27.835  29.597  1.00  0.00     0.029 A 
ATOM     44  C   UNL A   1      40.033  28.837  29.558  1.00  0.00     0.049 A 
ATOM     45  H   UNL A   1      41.845  28.700  28.537  1.00  0.00     0.167 HD
ATOM     46  C   UNL A   1      45.878  28.063  26.926  1.00  0.00     0.034 A 
ATOM     47  C   UNL A   1      40.008  30.041  30.165  1.00  0.00     0.034 A 
ATOM     48  C   UNL A   1      45.863  29.432  27.356  1.00  0.00     0.049 A 
ATOM     49  C   UNL A   1      41.190  30.968  30.023  1.00  0.00     0.074 A 
ATOM     50  C   UNL A   1      46.853  30.387  27.221  1.00  0.00     0.029 A 
ATOM     51  N   UNL A   1      44.809  30.035  28.024  1.00  0.00    -0.354 N 
ATOM     52  N   UNL A   1      42.318  30.776  29.381  1.00  0.00    -0.248 NA
ATOM     53  C   UNL A   1      41.084  32.289  30.663  1.00  0.00     0.031 C 
ATOM     54  C   UNL A   1      46.405  31.566  27.827  1.00  0.00     0.029 A 
ATOM     55  C   UNL A   1      45.128  31.347  28.323  1.00  0.00     0.049 A 
ATOM     56  H   UNL A   1      43.960  29.594  28.254  1.00  0.00     0.167 HD
ATOM     57  C   UNL A   1      43.038  31.960  29.508  1.00  0.00     0.074 A 
ATOM     58  C   UNL A   1      42.216  32.868  30.280  1.00  0.00     0.031 C 
ATOM     59  C   UNL A   1      44.273  32.262  29.036  1.00  0.00     0.034 A 
BRANCH  46  60
ATOM     60  C   UNL A   1      47.121  27.520  26.279  1.00  0.00     0.023 A 
ATOM     61  C   UNL A   1      47.354  27.765  24.910  1.00  0.00     0.012 A 
ATOM     62  C   UNL A   1      48.057  26.775  27.020  1.00  0.00     0.148 A 
ATOM     63  C   UNL A   1      48.481  27.242  24.279  1.00  0.00     0.002 A 
ATOM     64  C   UNL A   1      49.198  26.290  26.392  1.00  0.00     0.091 A 
ATOM     65  F   UNL A   1      47.799  26.521  28.311  1.00  0.00    -0.205 F 
ATOM     66  C   UNL A   1      49.407  26.514  25.022  1.00  0.00     0.022 A 
BRANCH  64  67
ATOM     67  S   UNL A   1      50.469  25.398  27.294  1.00  0.00     0.127 S 
ATOM     68  O   UNL A   1      50.872  26.385  28.293  1.00  0.00    -0.237 OA
ATOM     69  O   UNL A   1      49.731  24.254  27.831  1.00  0.00    -0.237 OA
ATOM     70  O   UNL A   1      51.477  25.048  26.303  1.00  0.00    -0.744 OA
ENDBRANCH  64  67
ENDBRANCH  46  60
BRANCH  47  71
ATOM     71  C   UNL A   1      38.801  30.450  30.936  1.00  0.00     0.023 A 
ATOM     72  C   UNL A   1      38.753  30.211  32.323  1.00  0.00     0.012 A 
ATOM     73  C   UNL A   1      37.726  31.114  30.313  1.00  0.00     0.148 A 
ATOM     74  C   UNL A   1      37.644  30.607  33.072  1.00  0.00     0.002 A 
ATOM     75  C   UNL A   1      36.649  31.551  31.074  1.00  0.00     0.091 A 
ATOM     76  F   UNL A   1      37.790  31.319  28.990  1.00  0.00    -0.205 F 
ATOM     77  C   UNL A   1      36.599  31.286  32.451  1.00  0.00     0.022 A 
BRANCH  75  78
ATOM     78  S   UNL A   1      35.315  32.539  30.387  1.00  0.00     0.127 S 
ATOM     79  O   UNL A   1      36.016  33.761  30.001  1.00  0.00    -0.237 OA
ATOM     80  O   UNL A   1      34.870  31.704  29.271  1.00  0.00    -0.237 OA
ATOM     81  O   UNL A   1      34.338  32.685  31.457  1.00  0.00    -0.744 OA
ENDBRANCH  75  78
ENDBRANCH  47  71
BRANCH  59  82
ATOM     82  C   UNL A   1      44.818  33.642  29.297  1.00  0.00     0.023 A 
ATOM     83  C   UNL A   1      45.568  33.887  30.463  1.00  0.00     0.012 A 
ATOM     84  C   UNL A   1      44.693  34.658  28.328  1.00  0.00     0.148 A 
ATOM     85  C   UNL A   1      46.174  35.127  30.667  1.00  0.00     0.002 A 
ATOM     86  C   UNL A   1      45.336  35.875  28.516  1.00  0.00     0.091 A 
ATOM     87  F   UNL A   1      43.958  34.408  27.233  1.00  0.00    -0.205 F 
ATOM     88  C   UNL A   1      46.071  36.115  29.688  1.00  0.00     0.022 A 
BRANCH  86  89
ATOM     89  S   UNL A   1      45.337  37.165  27.265  1.00  0.00     0.127 S 
ATOM     90  O   UNL A   1      46.042  38.246  27.952  1.00  0.00    -0.237 OA
ATOM     91  O   UNL A   1      46.090  36.543  26.175  1.00  0.00    -0.237 OA
ATOM     92  O   UNL A   1      43.937  37.426  26.958  1.00  0.00    -0.744 OA
ENDBRANCH  86  89
ENDBRANCH  59  82
ENDBRANCH  33  34
ENDBRANCH  26  28
ENDBRANCH  25  26
ENDBRANCH   1  25
TORSDOF 16
ENDMDL
