MODEL 1
REMARK VINA RESULT:     -10.6      0.000      0.000
REMARK SMILES CC(C)C[C@H](NC(=O)CNC(=O)[C@@H]([NH3+])C(C)C)C(=O)OCCOC(=O)c1ccc(-c2c3nc(c(-c4cccc(S(=O)(=O)[O-])c4F)c4ccc([nH]4)c(-c4cccc(S(=O)(=O)[O-])c4F)c4nc(c(-c5cccc(S(=O)(=O)[O-])c5F)c5ccc2[nH]5)C=C4)C=C3)cc1
REMARK SMILES IDX 21 1 20 2 18 3 19 4 5 5 4 6 2 7 1 8 3 9 6 10 7 11 8 13 9 14
REMARK SMILES IDX 10 15 11 16 12 18 13 19 14 20 15 24 16 25 17 26 22 27 23 28
REMARK SMILES IDX 24 29 25 30 26 31 27 32 88 33 28 34 87 35 29 36 30 37 31 38
REMARK SMILES IDX 81 39 32 40 86 41 80 42 82 43 33 44 85 45 79 46 78 47 34 49
REMARK SMILES IDX 66 50 46 51 65 52 47 53 50 54 64 55 83 56 48 57 49 58 63 60
REMARK SMILES IDX 84 61 51 62 35 63 36 64 44 65 37 66 39 67 45 68 38 69 40 70
REMARK SMILES IDX 41 71 42 72 43 73 67 74 68 75 76 76 69 77 71 78 77 79 70 80
REMARK SMILES IDX 72 81 73 82 74 83 75 84 52 85 53 86 61 87 54 88 56 89 62 90
REMARK SMILES IDX 55 91 57 92 58 93 59 94 60 95
REMARK H PARENT 6 12 10 17 14 21 14 22 14 23 82 48 50 59
REMARK Flexibility Score: inf
ROOT
ATOM      1  C   UNL A   1      35.063  20.903  24.707  1.00  0.00     0.274 C 
ENDROOT
BRANCH   1   2
ATOM      2  O   UNL A   1      34.860  22.326  24.823  1.00  0.00    -0.461 OA
BRANCH   2   3
ATOM      3  C   UNL A   1      34.854  22.996  23.636  1.00  0.00     0.328 C 
ATOM      4  O   UNL A   1      35.788  22.983  22.841  1.00  0.00    -0.250 OA
BRANCH   3   5
ATOM      5  C   UNL A   1      33.606  23.874  23.439  1.00  0.00     0.192 C 
BRANCH   5   6
ATOM      6  C   UNL A   1      32.353  23.137  23.948  1.00  0.00     0.040 C 
BRANCH   6   7
ATOM      7  C   UNL A   1      31.454  23.871  24.969  1.00  0.00    -0.015 C 
ATOM      8  C   UNL A   1      30.698  22.957  25.931  1.00  0.00     0.007 C 
ATOM      9  C   UNL A   1      32.306  24.845  25.790  1.00  0.00     0.007 C 
ENDBRANCH   6   7
ENDBRANCH   5   6
BRANCH   5  10
ATOM     10  N   UNL A   1      33.402  24.270  22.037  1.00  0.00    -0.341 N 
ATOM     11  C   UNL A   1      33.004  25.475  21.526  1.00  0.00     0.240 C 
ATOM     12  H   UNL A   1      33.577  23.567  21.371  1.00  0.00     0.164 HD
ATOM     13  O   UNL A   1      32.832  25.564  20.307  1.00  0.00    -0.273 OA
BRANCH  11  14
ATOM     14  C   UNL A   1      32.772  26.683  22.450  1.00  0.00     0.216 C 
BRANCH  14  15
ATOM     15  N   UNL A   1      31.371  26.792  22.823  1.00  0.00    -0.342 N 
ATOM     16  C   UNL A   1      30.683  27.764  23.480  1.00  0.00     0.278 C 
ATOM     17  H   UNL A   1      30.820  26.023  22.548  1.00  0.00     0.164 HD
ATOM     18  O   UNL A   1      29.495  27.525  23.730  1.00  0.00    -0.268 OA
BRANCH  16  19
ATOM     19  C   UNL A   1      31.301  29.131  23.875  1.00  0.00     0.273 C 
BRANCH  19  20
ATOM     20  N   UNL A   1      30.331  30.228  23.691  1.00  0.00    -0.347 N 
ATOM     21  H   UNL A   1      29.400  29.838  23.546  1.00  0.00     0.345 HD
ATOM     22  H   UNL A   1      30.597  30.784  22.879  1.00  0.00     0.345 HD
ATOM     23  H   UNL A   1      30.327  30.820  24.522  1.00  0.00     0.345 HD
ENDBRANCH  19  20
BRANCH  19  24
ATOM     24  C   UNL A   1      31.920  29.090  25.291  1.00  0.00     0.051 C 
ATOM     25  C   UNL A   1      33.432  28.834  25.191  1.00  0.00     0.014 C 
ATOM     26  C   UNL A   1      31.704  30.397  26.068  1.00  0.00     0.014 C 
ENDBRANCH  19  24
ENDBRANCH  16  19
ENDBRANCH  14  15
ENDBRANCH  11  14
ENDBRANCH   5  10
ENDBRANCH   3   5
ENDBRANCH   2   3
ENDBRANCH   1   2
BRANCH   1  27
ATOM     27  C   UNL A   1      36.509  20.479  24.992  1.00  0.00     0.275 C 
BRANCH  27  28
ATOM     28  O   UNL A   1      37.216  21.406  25.836  1.00  0.00    -0.458 OA
BRANCH  28  29
ATOM     29  C   UNL A   1      38.544  21.161  25.953  1.00  0.00     0.338 C 
ATOM     30  O   UNL A   1      39.133  20.160  25.578  1.00  0.00    -0.246 OA
BRANCH  29  31
ATOM     31  C   UNL A   1      39.252  22.345  26.475  1.00  0.00     0.060 A 
ATOM     32  C   UNL A   1      38.745  23.598  26.121  1.00  0.00     0.016 A 
ATOM     33  C   UNL A   1      40.431  22.247  27.216  1.00  0.00     0.016 A 
ATOM     34  C   UNL A   1      39.414  24.758  26.504  1.00  0.00     0.010 A 
ATOM     35  C   UNL A   1      41.105  23.416  27.598  1.00  0.00     0.010 A 
ATOM     36  C   UNL A   1      40.602  24.678  27.237  1.00  0.00    -0.014 A 
BRANCH  36  37
ATOM     37  C   UNL A   1      41.328  25.926  27.574  1.00  0.00     0.031 A 
ATOM     38  C   UNL A   1      40.644  26.998  28.373  1.00  0.00     0.074 A 
ATOM     39  C   UNL A   1      42.610  26.085  27.195  1.00  0.00     0.049 A 
ATOM     40  N   UNL A   1      41.099  28.166  28.744  1.00  0.00    -0.248 NA
ATOM     41  C   UNL A   1      39.272  26.714  28.823  1.00  0.00     0.031 C 
ATOM     42  C   UNL A   1      43.393  25.104  26.443  1.00  0.00     0.029 A 
ATOM     43  N   UNL A   1      43.474  27.136  27.379  1.00  0.00    -0.354 N 
ATOM     44  C   UNL A   1      40.063  28.772  29.442  1.00  0.00     0.074 A 
ATOM     45  C   UNL A   1      38.955  27.839  29.451  1.00  0.00     0.031 C 
ATOM     46  C   UNL A   1      44.616  25.609  26.210  1.00  0.00     0.029 A 
ATOM     47  C   UNL A   1      44.693  26.958  26.767  1.00  0.00     0.049 A 
ATOM     48  H   UNL A   1      43.244  27.938  27.899  1.00  0.00     0.167 HD
ATOM     49  C   UNL A   1      40.038  29.990  30.032  1.00  0.00     0.034 A 
ATOM     50  C   UNL A   1      45.740  27.798  26.645  1.00  0.00     0.034 A 
ATOM     51  C   UNL A   1      41.146  30.908  30.051  1.00  0.00     0.049 A 
ATOM     52  C   UNL A   1      45.670  29.164  27.279  1.00  0.00     0.074 A 
ATOM     53  C   UNL A   1      41.217  32.154  30.649  1.00  0.00     0.029 A 
ATOM     54  N   UNL A   1      42.369  30.687  29.441  1.00  0.00    -0.354 N 
ATOM     55  N   UNL A   1      44.718  29.683  28.018  1.00  0.00    -0.248 NA
ATOM     56  C   UNL A   1      46.825  30.052  27.079  1.00  0.00     0.031 C 
ATOM     57  C   UNL A   1      42.482  32.692  30.390  1.00  0.00     0.029 A 
ATOM     58  C   UNL A   1      43.201  31.776  29.639  1.00  0.00     0.049 A 
ATOM     59  H   UNL A   1      42.611  29.875  28.941  1.00  0.00     0.167 HD
ATOM     60  C   UNL A   1      45.170  30.944  28.389  1.00  0.00     0.074 A 
ATOM     61  C   UNL A   1      46.491  31.102  27.818  1.00  0.00     0.031 C 
ATOM     62  C   UNL A   1      44.537  31.898  29.117  1.00  0.00     0.034 A 
BRANCH  49  63
ATOM     63  C   UNL A   1      38.775  30.400  30.736  1.00  0.00     0.023 A 
ATOM     64  C   UNL A   1      38.646  30.167  32.120  1.00  0.00     0.012 A 
ATOM     65  C   UNL A   1      37.750  31.076  30.047  1.00  0.00     0.148 A 
ATOM     66  C   UNL A   1      37.507  30.586  32.804  1.00  0.00     0.002 A 
ATOM     67  C   UNL A   1      36.632  31.519  30.742  1.00  0.00     0.091 A 
ATOM     68  F   UNL A   1      37.885  31.262  28.726  1.00  0.00    -0.205 F 
ATOM     69  C   UNL A   1      36.506  31.271  32.119  1.00  0.00     0.022 A 
BRANCH  67  70
ATOM     70  S   UNL A   1      35.321  32.464  29.957  1.00  0.00     0.127 S 
ATOM     71  O   UNL A   1      34.384  32.644  31.065  1.00  0.00    -0.237 OA
ATOM     72  O   UNL A   1      36.020  33.682  29.545  1.00  0.00    -0.237 OA
ATOM     73  O   UNL A   1      34.840  31.642  28.856  1.00  0.00    -0.744 OA
ENDBRANCH  67  70
ENDBRANCH  49  63
BRANCH  50  74
ATOM     74  C   UNL A   1      46.960  27.369  25.904  1.00  0.00     0.023 A 
ATOM     75  C   UNL A   1      47.924  26.573  26.552  1.00  0.00     0.012 A 
ATOM     76  C   UNL A   1      47.165  27.736  24.561  1.00  0.00     0.148 A 
ATOM     77  C   UNL A   1      49.081  26.173  25.884  1.00  0.00     0.002 A 
ATOM     78  C   UNL A   1      48.293  27.287  23.884  1.00  0.00     0.091 A 
ATOM     79  F   UNL A   1      46.256  28.522  23.967  1.00  0.00    -0.205 F 
ATOM     80  C   UNL A   1      49.260  26.517  24.546  1.00  0.00     0.022 A 
BRANCH  78  81
ATOM     81  S   UNL A   1      48.516  27.579  22.124  1.00  0.00     0.127 S 
ATOM     82  O   UNL A   1      49.657  28.489  22.114  1.00  0.00    -0.237 OA
ATOM     83  O   UNL A   1      48.795  26.234  21.619  1.00  0.00    -0.237 OA
ATOM     84  O   UNL A   1      47.247  28.132  21.669  1.00  0.00    -0.744 OA
ENDBRANCH  78  81
ENDBRANCH  50  74
BRANCH  62  85
ATOM     85  C   UNL A   1      45.265  33.193  29.358  1.00  0.00     0.023 A 
ATOM     86  C   UNL A   1      46.084  33.326  30.498  1.00  0.00     0.012 A 
ATOM     87  C   UNL A   1      45.204  34.246  28.425  1.00  0.00     0.148 A 
ATOM     88  C   UNL A   1      46.811  34.495  30.716  1.00  0.00     0.002 A 
ATOM     89  C   UNL A   1      45.965  35.393  28.627  1.00  0.00     0.091 A 
ATOM     90  F   UNL A   1      44.403  34.111  27.358  1.00  0.00    -0.205 F 
ATOM     91  C   UNL A   1      46.762  35.522  29.776  1.00  0.00     0.022 A 
BRANCH  89  92
ATOM     92  S   UNL A   1      46.026  36.724  27.423  1.00  0.00     0.127 S 
ATOM     93  O   UNL A   1      46.962  37.653  28.051  1.00  0.00    -0.237 OA
ATOM     94  O   UNL A   1      46.545  36.049  26.232  1.00  0.00    -0.237 OA
ATOM     95  O   UNL A   1      44.655  37.201  27.292  1.00  0.00    -0.744 OA
ENDBRANCH  89  92
ENDBRANCH  62  85
ENDBRANCH  36  37
ENDBRANCH  29  31
ENDBRANCH  28  29
ENDBRANCH  27  28
ENDBRANCH   1  27
TORSDOF 22
ENDMDL
MODEL 2
REMARK VINA RESULT:     -10.5      1.515      7.715
REMARK SMILES CC(C)C[C@H](NC(=O)CNC(=O)[C@@H]([NH3+])C(C)C)C(=O)OCCOC(=O)c1ccc(-c2c3nc(c(-c4cccc(S(=O)(=O)[O-])c4F)c4ccc([nH]4)c(-c4cccc(S(=O)(=O)[O-])c4F)c4nc(c(-c5cccc(S(=O)(=O)[O-])c5F)c5ccc2[nH]5)C=C4)C=C3)cc1
REMARK SMILES IDX 21 1 20 2 18 3 19 4 5 5 4 6 2 7 1 8 3 9 6 10 7 11 8 13 9 14
REMARK SMILES IDX 10 15 11 16 12 18 13 19 14 20 15 24 16 25 17 26 22 27 23 28
REMARK SMILES IDX 24 29 25 30 26 31 27 32 88 33 28 34 87 35 29 36 30 37 31 38
REMARK SMILES IDX 81 39 32 40 86 41 80 42 82 43 33 44 85 45 79 46 78 47 34 49
REMARK SMILES IDX 66 50 46 51 65 52 47 53 50 54 64 55 83 56 48 57 49 58 63 60
REMARK SMILES IDX 84 61 51 62 35 63 36 64 44 65 37 66 39 67 45 68 38 69 40 70
REMARK SMILES IDX 41 71 42 72 43 73 67 74 68 75 76 76 69 77 71 78 77 79 70 80
REMARK SMILES IDX 72 81 73 82 74 83 75 84 52 85 53 86 61 87 54 88 56 89 62 90
REMARK SMILES IDX 55 91 57 92 58 93 59 94 60 95
REMARK H PARENT 6 12 10 17 14 21 14 22 14 23 82 48 50 59
REMARK Flexibility Score: inf
ROOT
ATOM      1  C   UNL A   1      35.122  20.488  24.970  1.00  0.00     0.274 C 
ENDROOT
BRANCH   1   2
ATOM      2  O   UNL A   1      34.658  21.835  24.747  1.00  0.00    -0.461 OA
BRANCH   2   3
ATOM      3  C   UNL A   1      33.428  21.920  24.164  1.00  0.00     0.328 C 
ATOM      4  O   UNL A   1      32.844  20.966  23.662  1.00  0.00    -0.250 OA
BRANCH   3   5
ATOM      5  C   UNL A   1      32.891  23.360  24.086  1.00  0.00     0.192 C 
BRANCH   5   6
ATOM      6  C   UNL A   1      31.384  23.382  24.408  1.00  0.00     0.040 C 
BRANCH   6   7
ATOM      7  C   UNL A   1      30.958  23.856  25.815  1.00  0.00    -0.015 C 
ATOM      8  C   UNL A   1      32.096  23.962  26.829  1.00  0.00     0.007 C 
ATOM      9  C   UNL A   1      30.274  25.224  25.706  1.00  0.00     0.007 C 
ENDBRANCH   6   7
ENDBRANCH   5   6
BRANCH   5  10
ATOM     10  N   UNL A   1      33.116  23.984  22.773  1.00  0.00    -0.341 N 
ATOM     11  C   UNL A   1      33.208  25.309  22.448  1.00  0.00     0.240 C 
ATOM     12  H   UNL A   1      33.217  23.357  22.021  1.00  0.00     0.164 HD
ATOM     13  O   UNL A   1      33.335  25.611  21.258  1.00  0.00    -0.273 OA
BRANCH  11  14
ATOM     14  C   UNL A   1      33.147  26.393  23.539  1.00  0.00     0.216 C 
BRANCH  14  15
ATOM     15  N   UNL A   1      31.940  27.195  23.409  1.00  0.00    -0.342 N 
ATOM     16  C   UNL A   1      31.532  28.323  24.049  1.00  0.00     0.278 C 
ATOM     17  H   UNL A   1      31.305  26.861  22.735  1.00  0.00     0.164 HD
ATOM     18  O   UNL A   1      30.395  28.729  23.778  1.00  0.00    -0.268 OA
BRANCH  16  19
ATOM     19  C   UNL A   1      32.425  29.117  25.039  1.00  0.00     0.273 C 
BRANCH  19  20
ATOM     20  N   UNL A   1      31.830  30.427  25.362  1.00  0.00    -0.347 N 
ATOM     21  H   UNL A   1      31.354  30.371  26.263  1.00  0.00     0.345 HD
ATOM     22  H   UNL A   1      31.160  30.683  24.639  1.00  0.00     0.345 HD
ATOM     23  H   UNL A   1      32.565  31.132  25.409  1.00  0.00     0.345 HD
ENDBRANCH  19  20
BRANCH  19  24
ATOM     24  C   UNL A   1      32.778  28.277  26.289  1.00  0.00     0.051 C 
ATOM     25  C   UNL A   1      34.152  28.700  26.829  1.00  0.00     0.014 C 
ATOM     26  C   UNL A   1      31.747  28.435  27.416  1.00  0.00     0.014 C 
ENDBRANCH  19  24
ENDBRANCH  16  19
ENDBRANCH  14  15
ENDBRANCH  11  14
ENDBRANCH   5  10
ENDBRANCH   3   5
ENDBRANCH   2   3
ENDBRANCH   1   2
BRANCH   1  27
ATOM     27  C   UNL A   1      36.652  20.380  25.003  1.00  0.00     0.275 C 
BRANCH  27  28
ATOM     28  O   UNL A   1      37.282  21.457  25.720  1.00  0.00    -0.458 OA
BRANCH  28  29
ATOM     29  C   UNL A   1      38.597  21.266  25.982  1.00  0.00     0.338 C 
ATOM     30  O   UNL A   1      39.249  20.265  25.730  1.00  0.00    -0.246 OA
BRANCH  29  31
ATOM     31  C   UNL A   1      39.214  22.502  26.497  1.00  0.00     0.060 A 
ATOM     32  C   UNL A   1      38.622  23.712  26.127  1.00  0.00     0.016 A 
ATOM     33  C   UNL A   1      40.392  22.496  27.247  1.00  0.00     0.016 A 
ATOM     34  C   UNL A   1      39.204  24.921  26.502  1.00  0.00     0.010 A 
ATOM     35  C   UNL A   1      40.978  23.714  27.622  1.00  0.00     0.010 A 
ATOM     36  C   UNL A   1      40.389  24.933  27.245  1.00  0.00    -0.014 A 
BRANCH  36  37
ATOM     37  C   UNL A   1      41.021  26.234  27.573  1.00  0.00     0.031 A 
ATOM     38  C   UNL A   1      42.428  26.516  27.130  1.00  0.00     0.074 A 
ATOM     39  C   UNL A   1      40.323  27.175  28.236  1.00  0.00     0.049 A 
ATOM     40  N   UNL A   1      43.160  27.579  27.341  1.00  0.00    -0.248 NA
ATOM     41  C   UNL A   1      43.094  25.471  26.336  1.00  0.00     0.031 C 
ATOM     42  C   UNL A   1      38.940  27.032  28.692  1.00  0.00     0.029 A 
ATOM     43  N   UNL A   1      40.687  28.431  28.653  1.00  0.00    -0.354 N 
ATOM     44  C   UNL A   1      44.384  27.321  26.737  1.00  0.00     0.074 A 
ATOM     45  C   UNL A   1      44.293  26.004  26.142  1.00  0.00     0.031 C 
ATOM     46  C   UNL A   1      38.579  28.149  29.346  1.00  0.00     0.029 A 
ATOM     47  C   UNL A   1      39.712  29.071  29.383  1.00  0.00     0.049 A 
ATOM     48  H   UNL A   1      41.560  28.835  28.449  1.00  0.00     0.167 HD
ATOM     49  C   UNL A   1      45.479  28.113  26.673  1.00  0.00     0.034 A 
ATOM     50  C   UNL A   1      39.740  30.253  30.030  1.00  0.00     0.034 A 
ATOM     51  C   UNL A   1      45.563  29.434  27.236  1.00  0.00     0.049 A 
ATOM     52  C   UNL A   1      40.988  31.097  29.975  1.00  0.00     0.074 A 
ATOM     53  C   UNL A   1      46.627  30.319  27.195  1.00  0.00     0.029 A 
ATOM     54  N   UNL A   1      44.552  30.058  27.948  1.00  0.00    -0.354 N 
ATOM     55  N   UNL A   1      42.102  30.880  29.317  1.00  0.00    -0.248 NA
ATOM     56  C   UNL A   1      40.975  32.357  30.733  1.00  0.00     0.031 C 
ATOM     57  C   UNL A   1      46.262  31.474  27.894  1.00  0.00     0.029 A 
ATOM     58  C   UNL A   1      44.968  31.312  28.361  1.00  0.00     0.049 A 
ATOM     59  H   UNL A   1      43.668  29.666  28.133  1.00  0.00     0.167 HD
ATOM     60  C   UNL A   1      42.911  31.984  29.564  1.00  0.00     0.074 A 
ATOM     61  C   UNL A   1      42.150  32.882  30.407  1.00  0.00     0.031 C 
ATOM     62  C   UNL A   1      44.180  32.223  29.150  1.00  0.00     0.034 A 
BRANCH  49  63
ATOM     63  C   UNL A   1      46.681  27.585  25.941  1.00  0.00     0.023 A 
ATOM     64  C   UNL A   1      46.816  27.833  24.561  1.00  0.00     0.012 A 
ATOM     65  C   UNL A   1      47.706  26.908  26.629  1.00  0.00     0.148 A 
ATOM     66  C   UNL A   1      47.948  27.400  23.872  1.00  0.00     0.002 A 
ATOM     67  C   UNL A   1      48.845  26.507  25.942  1.00  0.00     0.091 A 
ATOM     68  F   UNL A   1      47.542  26.660  27.937  1.00  0.00    -0.205 F 
ATOM     69  C   UNL A   1      48.966  26.747  24.564  1.00  0.00     0.022 A 
BRANCH  67  70
ATOM     70  S   UNL A   1      50.235  25.716  26.760  1.00  0.00     0.127 S 
ATOM     71  O   UNL A   1      51.194  25.595  25.663  1.00  0.00    -0.237 OA
ATOM     72  O   UNL A   1      50.597  26.701  27.780  1.00  0.00    -0.237 OA
ATOM     73  O   UNL A   1      49.726  24.459  27.288  1.00  0.00    -0.744 OA
ENDBRANCH  67  70
ENDBRANCH  49  63
BRANCH  50  74
ATOM     74  C   UNL A   1      38.541  30.723  30.779  1.00  0.00     0.023 A 
ATOM     75  C   UNL A   1      38.468  30.525  32.171  1.00  0.00     0.012 A 
ATOM     76  C   UNL A   1      37.478  31.373  30.123  1.00  0.00     0.148 A 
ATOM     77  C   UNL A   1      37.348  30.942  32.891  1.00  0.00     0.002 A 
ATOM     78  C   UNL A   1      36.391  31.836  30.855  1.00  0.00     0.091 A 
ATOM     79  F   UNL A   1      37.547  31.524  28.793  1.00  0.00    -0.205 F 
ATOM     80  C   UNL A   1      36.316  31.610  32.236  1.00  0.00     0.022 A 
BRANCH  78  81
ATOM     81  S   UNL A   1      35.095  32.823  30.096  1.00  0.00     0.127 S 
ATOM     82  O   UNL A   1      34.226  33.105  31.234  1.00  0.00    -0.237 OA
ATOM     83  O   UNL A   1      35.839  33.976  29.588  1.00  0.00    -0.237 OA
ATOM     84  O   UNL A   1      34.534  31.974  29.052  1.00  0.00    -0.744 OA
ENDBRANCH  78  81
ENDBRANCH  50  74
BRANCH  62  85
ATOM     85  C   UNL A   1      44.827  33.512  29.582  1.00  0.00     0.023 A 
ATOM     86  C   UNL A   1      45.604  33.535  30.758  1.00  0.00     0.012 A 
ATOM     87  C   UNL A   1      44.736  34.672  28.790  1.00  0.00     0.148 A 
ATOM     88  C   UNL A   1      46.259  34.701  31.151  1.00  0.00     0.002 A 
ATOM     89  C   UNL A   1      45.427  35.820  29.166  1.00  0.00     0.091 A 
ATOM     90  F   UNL A   1      43.976  34.637  27.686  1.00  0.00    -0.205 F 
ATOM     91  C   UNL A   1      46.181  35.838  30.350  1.00  0.00     0.022 A 
BRANCH  89  92
ATOM     92  S   UNL A   1      45.450  37.299  28.146  1.00  0.00     0.127 S 
ATOM     93  O   UNL A   1      45.788  36.752  26.834  1.00  0.00    -0.237 OA
ATOM     94  O   UNL A   1      44.075  37.787  28.266  1.00  0.00    -0.237 OA
ATOM     95  O   UNL A   1      46.451  38.174  28.742  1.00  0.00    -0.744 OA
ENDBRANCH  89  92
ENDBRANCH  62  85
ENDBRANCH  36  37
ENDBRANCH  29  31
ENDBRANCH  28  29
ENDBRANCH  27  28
ENDBRANCH   1  27
TORSDOF 22
ENDMDL
MODEL 3
REMARK VINA RESULT:     -10.3      5.317     10.195
REMARK SMILES CC(C)C[C@H](NC(=O)CNC(=O)[C@@H]([NH3+])C(C)C)C(=O)OCCOC(=O)c1ccc(-c2c3nc(c(-c4cccc(S(=O)(=O)[O-])c4F)c4ccc([nH]4)c(-c4cccc(S(=O)(=O)[O-])c4F)c4nc(c(-c5cccc(S(=O)(=O)[O-])c5F)c5ccc2[nH]5)C=C4)C=C3)cc1
REMARK SMILES IDX 21 1 20 2 18 3 19 4 5 5 4 6 2 7 1 8 3 9 6 10 7 11 8 13 9 14
REMARK SMILES IDX 10 15 11 16 12 18 13 19 14 20 15 24 16 25 17 26 22 27 23 28
REMARK SMILES IDX 24 29 25 30 26 31 27 32 88 33 28 34 87 35 29 36 30 37 31 38
REMARK SMILES IDX 81 39 32 40 86 41 80 42 82 43 33 44 85 45 79 46 78 47 34 49
REMARK SMILES IDX 66 50 46 51 65 52 47 53 50 54 64 55 83 56 48 57 49 58 63 60
REMARK SMILES IDX 84 61 51 62 35 63 36 64 44 65 37 66 39 67 45 68 38 69 40 70
REMARK SMILES IDX 41 71 42 72 43 73 67 74 68 75 76 76 69 77 71 78 77 79 70 80
REMARK SMILES IDX 72 81 73 82 74 83 75 84 52 85 53 86 61 87 54 88 56 89 62 90
REMARK SMILES IDX 55 91 57 92 58 93 59 94 60 95
REMARK H PARENT 6 12 10 17 14 21 14 22 14 23 82 48 50 59
REMARK Flexibility Score: inf
ROOT
ATOM      1  C   UNL A   1      31.642  28.863  27.452  1.00  0.00     0.274 C 
ENDROOT
BRANCH   1   2
ATOM      2  O   UNL A   1      31.037  27.600  27.106  1.00  0.00    -0.461 OA
BRANCH   2   3
ATOM      3  C   UNL A   1      31.844  26.763  26.395  1.00  0.00     0.328 C 
ATOM      4  O   UNL A   1      33.062  26.885  26.326  1.00  0.00    -0.250 OA
BRANCH   3   5
ATOM      5  C   UNL A   1      31.066  25.714  25.581  1.00  0.00     0.192 C 
BRANCH   5   6
ATOM      6  C   UNL A   1      30.122  26.411  24.583  1.00  0.00     0.040 C 
BRANCH   6   7
ATOM      7  C   UNL A   1      30.743  27.425  23.596  1.00  0.00    -0.015 C 
ATOM      8  C   UNL A   1      31.182  26.833  22.258  1.00  0.00     0.007 C 
ATOM      9  C   UNL A   1      29.739  28.551  23.324  1.00  0.00     0.007 C 
ENDBRANCH   6   7
ENDBRANCH   5   6
BRANCH   5  10
ATOM     10  N   UNL A   1      30.287  24.797  26.427  1.00  0.00    -0.341 N 
ATOM     11  C   UNL A   1      30.610  23.546  26.875  1.00  0.00     0.240 C 
ATOM     12  H   UNL A   1      29.407  25.132  26.713  1.00  0.00     0.164 HD
ATOM     13  O   UNL A   1      29.767  22.922  27.526  1.00  0.00    -0.273 OA
BRANCH  11  14
ATOM     14  C   UNL A   1      31.987  22.931  26.567  1.00  0.00     0.216 C 
BRANCH  14  15
ATOM     15  N   UNL A   1      31.855  21.553  26.122  1.00  0.00    -0.342 N 
ATOM     16  C   UNL A   1      32.555  20.826  25.211  1.00  0.00     0.278 C 
ATOM     17  H   UNL A   1      31.127  21.056  26.562  1.00  0.00     0.164 HD
ATOM     18  O   UNL A   1      32.141  19.683  24.982  1.00  0.00    -0.268 OA
BRANCH  16  19
ATOM     19  C   UNL A   1      33.836  21.345  24.504  1.00  0.00     0.273 C 
BRANCH  19  20
ATOM     20  N   UNL A   1      33.573  22.603  23.780  1.00  0.00    -0.347 N 
ATOM     21  H   UNL A   1      34.432  23.151  23.728  1.00  0.00     0.345 HD
ATOM     22  H   UNL A   1      32.858  23.136  24.274  1.00  0.00     0.345 HD
ATOM     23  H   UNL A   1      33.247  22.390  22.837  1.00  0.00     0.345 HD
ENDBRANCH  19  20
BRANCH  19  24
ATOM     24  C   UNL A   1      35.030  21.437  25.483  1.00  0.00     0.051 C 
ATOM     25  C   UNL A   1      36.168  20.524  25.002  1.00  0.00     0.014 C 
ATOM     26  C   UNL A   1      35.579  22.866  25.611  1.00  0.00     0.014 C 
ENDBRANCH  19  24
ENDBRANCH  16  19
ENDBRANCH  14  15
ENDBRANCH  11  14
ENDBRANCH   5  10
ENDBRANCH   3   5
ENDBRANCH   2   3
ENDBRANCH   1   2
BRANCH   1  27
ATOM     27  C   UNL A   1      31.819  29.794  26.246  1.00  0.00     0.275 C 
BRANCH  27  28
ATOM     28  O   UNL A   1      33.155  30.315  26.123  1.00  0.00    -0.458 OA
BRANCH  28  29
ATOM     29  C   UNL A   1      33.456  31.303  27.000  1.00  0.00     0.338 C 
ATOM     30  O   UNL A   1      32.817  32.326  27.189  1.00  0.00    -0.246 OA
BRANCH  29  31
ATOM     31  C   UNL A   1      34.610  30.927  27.838  1.00  0.00     0.060 A 
ATOM     32  C   UNL A   1      35.614  31.883  28.007  1.00  0.00     0.016 A 
ATOM     33  C   UNL A   1      34.760  29.646  28.374  1.00  0.00     0.016 A 
ATOM     34  C   UNL A   1      36.774  31.565  28.710  1.00  0.00     0.010 A 
ATOM     35  C   UNL A   1      35.929  29.327  29.080  1.00  0.00     0.010 A 
ATOM     36  C   UNL A   1      36.945  30.284  29.245  1.00  0.00    -0.014 A 
BRANCH  36  37
ATOM     37  C   UNL A   1      38.217  29.953  29.932  1.00  0.00     0.031 A 
ATOM     38  C   UNL A   1      39.194  29.012  29.287  1.00  0.00     0.074 A 
ATOM     39  C   UNL A   1      38.514  30.524  31.114  1.00  0.00     0.049 A 
ATOM     40  N   UNL A   1      40.343  28.581  29.738  1.00  0.00    -0.248 NA
ATOM     41  C   UNL A   1      38.836  28.497  27.956  1.00  0.00     0.031 C 
ATOM     42  C   UNL A   1      37.663  31.478  31.826  1.00  0.00     0.029 A 
ATOM     43  N   UNL A   1      39.607  30.374  31.931  1.00  0.00    -0.354 N 
ATOM     44  C   UNL A   1      40.832  27.719  28.765  1.00  0.00     0.074 A 
ATOM     45  C   UNL A   1      39.859  27.694  27.693  1.00  0.00     0.031 C 
ATOM     46  C   UNL A   1      38.255  31.810  32.985  1.00  0.00     0.029 A 
ATOM     47  C   UNL A   1      39.509  31.071  33.113  1.00  0.00     0.049 A 
ATOM     48  H   UNL A   1      40.385  29.821  31.694  1.00  0.00     0.167 HD
ATOM     49  C   UNL A   1      41.992  27.021  28.759  1.00  0.00     0.034 A 
ATOM     50  C   UNL A   1      40.325  31.090  34.186  1.00  0.00     0.034 A 
ATOM     51  C   UNL A   1      42.975  27.066  29.808  1.00  0.00     0.049 A 
ATOM     52  C   UNL A   1      41.590  30.271  34.168  1.00  0.00     0.074 A 
ATOM     53  C   UNL A   1      44.192  26.410  29.872  1.00  0.00     0.029 A 
ATOM     54  N   UNL A   1      42.853  27.798  30.977  1.00  0.00    -0.354 N 
ATOM     55  N   UNL A   1      42.084  29.537  33.199  1.00  0.00    -0.248 NA
ATOM     56  C   UNL A   1      42.420  30.298  35.382  1.00  0.00     0.031 C 
ATOM     57  C   UNL A   1      44.802  26.737  31.088  1.00  0.00     0.029 A 
ATOM     58  C   UNL A   1      43.968  27.604  31.776  1.00  0.00     0.049 A 
ATOM     59  H   UNL A   1      42.087  28.372  31.207  1.00  0.00     0.167 HD
ATOM     60  C   UNL A   1      43.290  29.037  33.677  1.00  0.00     0.074 A 
ATOM     61  C   UNL A   1      43.467  29.573  35.011  1.00  0.00     0.031 C 
ATOM     62  C   UNL A   1      44.162  28.190  33.076  1.00  0.00     0.034 A 
BRANCH  49  63
ATOM     63  C   UNL A   1      42.282  26.159  27.562  1.00  0.00     0.023 A 
ATOM     64  C   UNL A   1      42.994  26.702  26.474  1.00  0.00     0.012 A 
ATOM     65  C   UNL A   1      41.914  24.800  27.544  1.00  0.00     0.148 A 
ATOM     66  C   UNL A   1      43.321  25.907  25.376  1.00  0.00     0.002 A 
ATOM     67  C   UNL A   1      42.272  24.007  26.461  1.00  0.00     0.091 A 
ATOM     68  F   UNL A   1      41.214  24.314  28.580  1.00  0.00    -0.205 F 
ATOM     69  C   UNL A   1      42.970  24.559  25.375  1.00  0.00     0.022 A 
BRANCH  67  70
ATOM     70  S   UNL A   1      41.918  22.247  26.398  1.00  0.00     0.127 S 
ATOM     71  O   UNL A   1      40.463  22.244  26.247  1.00  0.00    -0.237 OA
ATOM     72  O   UNL A   1      42.655  21.824  25.206  1.00  0.00    -0.237 OA
ATOM     73  O   UNL A   1      42.420  21.693  27.647  1.00  0.00    -0.744 OA
ENDBRANCH  67  70
ENDBRANCH  49  63
BRANCH  50  74
ATOM     74  C   UNL A   1      39.981  31.926  35.371  1.00  0.00     0.023 A 
ATOM     75  C   UNL A   1      40.603  33.179  35.541  1.00  0.00     0.012 A 
ATOM     76  C   UNL A   1      39.039  31.493  36.322  1.00  0.00     0.148 A 
ATOM     77  C   UNL A   1      40.309  33.972  36.651  1.00  0.00     0.002 A 
ATOM     78  C   UNL A   1      38.709  32.314  37.395  1.00  0.00     0.091 A 
ATOM     79  F   UNL A   1      38.481  30.285  36.165  1.00  0.00    -0.205 F 
ATOM     80  C   UNL A   1      39.353  33.547  37.570  1.00  0.00     0.022 A 
BRANCH  78  81
ATOM     81  S   UNL A   1      37.389  31.888  38.538  1.00  0.00     0.127 S 
ATOM     82  O   UNL A   1      38.031  32.102  39.831  1.00  0.00    -0.237 OA
ATOM     83  O   UNL A   1      36.354  32.863  38.194  1.00  0.00    -0.237 OA
ATOM     84  O   UNL A   1      37.038  30.511  38.214  1.00  0.00    -0.744 OA
ENDBRANCH  78  81
ENDBRANCH  50  74
BRANCH  62  85
ATOM     85  C   UNL A   1      45.398  27.798  33.841  1.00  0.00     0.023 A 
ATOM     86  C   UNL A   1      46.544  28.615  33.770  1.00  0.00     0.012 A 
ATOM     87  C   UNL A   1      45.403  26.672  34.687  1.00  0.00     0.148 A 
ATOM     88  C   UNL A   1      47.683  28.304  34.511  1.00  0.00     0.002 A 
ATOM     89  C   UNL A   1      46.528  26.391  35.455  1.00  0.00     0.091 A 
ATOM     90  F   UNL A   1      44.311  25.894  34.724  1.00  0.00    -0.205 F 
ATOM     91  C   UNL A   1      47.671  27.201  35.362  1.00  0.00     0.022 A 
BRANCH  89  92
ATOM     92  S   UNL A   1      46.563  25.041  36.640  1.00  0.00     0.127 S 
ATOM     93  O   UNL A   1      45.444  25.382  37.515  1.00  0.00    -0.237 OA
ATOM     94  O   UNL A   1      46.339  23.870  35.791  1.00  0.00    -0.237 OA
ATOM     95  O   UNL A   1      47.883  25.091  37.256  1.00  0.00    -0.744 OA
ENDBRANCH  89  92
ENDBRANCH  62  85
ENDBRANCH  36  37
ENDBRANCH  29  31
ENDBRANCH  28  29
ENDBRANCH  27  28
ENDBRANCH   1  27
TORSDOF 22
ENDMDL
