MODEL 1
REMARK VINA RESULT:     -12.1      0.000      0.000
REMARK SMILES CC(C)c1ccc(NC(=O)C[C@H]2SC[C@@H](C(=O)OCCOC(=O)c3ccc(-c4c5nc(c(-c6cccc(S(=O)(=O)[O-])c6F)c6ccc([nH]6)c(-c6cccc(S(=O)(=O)[O-])c6F)c6nc(c(-c7cccc(S(=O)(=O)[O-])c7F)c7ccc4[nH]7)C=C6)C=C5)cc3)NC2=O)cc1
REMARK SMILES IDX 19 1 18 2 16 3 17 4 15 5 12 6 13 7 88 8 14 9 87 10 89 11
REMARK SMILES IDX 11 13 9 14 8 15 10 17 7 18 4 19 5 20 91 21 6 22 90 23 2 24
REMARK SMILES IDX 1 25 3 26 20 27 21 28 22 29 23 30 24 31 25 32 86 33 26 34
REMARK SMILES IDX 85 35 27 36 28 37 29 38 79 39 30 40 84 41 78 42 80 43 31 44
REMARK SMILES IDX 83 45 77 46 76 47 32 49 64 50 44 51 63 52 45 53 48 54 62 55
REMARK SMILES IDX 81 56 46 57 47 58 61 60 82 61 49 62 33 63 34 64 42 65 35 66
REMARK SMILES IDX 37 67 43 68 36 69 38 70 39 71 40 72 41 73 65 74 66 75 74 76
REMARK SMILES IDX 67 77 69 78 75 79 68 80 70 81 71 82 72 83 73 84 50 85 51 86
REMARK SMILES IDX 59 87 52 88 54 89 60 90 53 91 55 92 56 93 57 94 58 95
REMARK H PARENT 87 12 8 16 80 48 48 59
REMARK Flexibility Score: inf
ROOT
ATOM      1  C   UNL A   1      31.785  28.708  25.592  1.00  0.00     0.274 C 
ENDROOT
BRANCH   1   2
ATOM      2  O   UNL A   1      30.900  28.555  24.464  1.00  0.00    -0.461 OA
BRANCH   2   3
ATOM      3  C   UNL A   1      31.517  28.166  23.310  1.00  0.00     0.329 C 
ATOM      4  O   UNL A   1      32.564  28.624  22.901  1.00  0.00    -0.250 OA
BRANCH   3   5
ATOM      5  C   UNL A   1      30.651  27.182  22.523  1.00  0.00     0.202 C 
ATOM      6  C   UNL A   1      32.351  24.721  22.971  1.00  0.00     0.145 C 
ATOM      7  S   UNL A   1      30.665  24.560  23.708  1.00  0.00    -0.145 SA
ATOM      8  C   UNL A   1      32.422  25.613  21.735  1.00  0.00     0.234 C 
ATOM      9  C   UNL A   1      29.911  26.194  23.405  1.00  0.00     0.107 C 
ATOM     10  N   UNL A   1      31.493  26.580  21.511  1.00  0.00    -0.341 N 
ATOM     11  O   UNL A   1      33.284  25.483  20.864  1.00  0.00    -0.274 OA
ATOM     12  H   UNL A   1      31.385  26.898  20.584  1.00  0.00     0.164 HD
BRANCH   6  13
ATOM     13  C   UNL A   1      33.406  24.890  24.066  1.00  0.00     0.124 C 
BRANCH  13  14
ATOM     14  C   UNL A   1      33.077  24.523  25.504  1.00  0.00     0.226 C 
ATOM     15  N   UNL A   1      32.944  23.236  25.937  1.00  0.00    -0.326 N 
ATOM     16  H   UNL A   1      32.527  23.117  26.821  1.00  0.00     0.169 HD
ATOM     17  O   UNL A   1      32.888  25.418  26.336  1.00  0.00    -0.275 OA
BRANCH  15  18
ATOM     18  C   UNL A   1      33.326  22.066  25.278  1.00  0.00     0.041 A 
ATOM     19  C   UNL A   1      33.750  19.399  24.579  1.00  0.00    -0.045 A 
ATOM     20  C   UNL A   1      34.824  20.205  24.992  1.00  0.00     0.006 A 
ATOM     21  C   UNL A   1      32.503  20.000  24.363  1.00  0.00     0.006 A 
ATOM     22  C   UNL A   1      34.612  21.541  25.337  1.00  0.00     0.026 A 
ATOM     23  C   UNL A   1      32.300  21.340  24.675  1.00  0.00     0.026 A 
BRANCH  19  24
ATOM     24  C   UNL A   1      33.923  17.894  24.505  1.00  0.00     0.013 C 
ATOM     25  C   UNL A   1      33.034  17.220  25.560  1.00  0.00     0.012 C 
ATOM     26  C   UNL A   1      33.629  17.329  23.115  1.00  0.00     0.012 C 
ENDBRANCH  19  24
ENDBRANCH  15  18
ENDBRANCH  13  14
ENDBRANCH   6  13
ENDBRANCH   3   5
ENDBRANCH   2   3
ENDBRANCH   1   2
BRANCH   1  27
ATOM     27  C   UNL A   1      31.897  30.153  26.086  1.00  0.00     0.275 C 
BRANCH  27  28
ATOM     28  O   UNL A   1      33.258  30.619  26.135  1.00  0.00    -0.458 OA
BRANCH  28  29
ATOM     29  C   UNL A   1      33.494  31.616  27.020  1.00  0.00     0.338 C 
ATOM     30  O   UNL A   1      32.743  32.551  27.261  1.00  0.00    -0.246 OA
BRANCH  29  31
ATOM     31  C   UNL A   1      34.707  31.338  27.824  1.00  0.00     0.060 A 
ATOM     32  C   UNL A   1      34.781  30.072  28.411  1.00  0.00     0.016 A 
ATOM     33  C   UNL A   1      35.756  32.244  28.004  1.00  0.00     0.016 A 
ATOM     34  C   UNL A   1      35.919  29.674  29.103  1.00  0.00     0.010 A 
ATOM     35  C   UNL A   1      36.885  31.862  28.751  1.00  0.00     0.010 A 
ATOM     36  C   UNL A   1      36.979  30.566  29.286  1.00  0.00    -0.014 A 
BRANCH  36  37
ATOM     37  C   UNL A   1      38.134  30.108  30.095  1.00  0.00     0.031 A 
ATOM     38  C   UNL A   1      39.150  29.197  29.471  1.00  0.00     0.074 A 
ATOM     39  C   UNL A   1      38.351  30.609  31.326  1.00  0.00     0.049 A 
ATOM     40  N   UNL A   1      40.268  28.741  29.971  1.00  0.00    -0.248 NA
ATOM     41  C   UNL A   1      38.887  28.766  28.088  1.00  0.00     0.031 C 
ATOM     42  C   UNL A   1      37.497  31.580  32.004  1.00  0.00     0.029 A 
ATOM     43  N   UNL A   1      39.375  30.384  32.214  1.00  0.00    -0.354 N 
ATOM     44  C   UNL A   1      40.834  27.960  28.975  1.00  0.00     0.074 A 
ATOM     45  C   UNL A   1      39.955  28.029  27.827  1.00  0.00     0.031 C 
ATOM     46  C   UNL A   1      38.036  31.879  33.198  1.00  0.00     0.029 A 
ATOM     47  C   UNL A   1      39.249  31.086  33.390  1.00  0.00     0.049 A 
ATOM     48  H   UNL A   1      40.128  29.778  32.026  1.00  0.00     0.167 HD
ATOM     49  C   UNL A   1      41.974  27.231  29.012  1.00  0.00     0.034 A 
ATOM     50  C   UNL A   1      40.013  31.069  34.502  1.00  0.00     0.034 A 
ATOM     51  C   UNL A   1      42.825  27.112  30.162  1.00  0.00     0.049 A 
ATOM     52  C   UNL A   1      41.227  30.173  34.551  1.00  0.00     0.074 A 
ATOM     53  C   UNL A   1      43.943  26.313  30.325  1.00  0.00     0.029 A 
ATOM     54  N   UNL A   1      42.645  27.796  31.353  1.00  0.00    -0.354 N 
ATOM     55  N   UNL A   1      41.762  29.449  33.597  1.00  0.00    -0.248 NA
ATOM     56  C   UNL A   1      41.946  30.094  35.832  1.00  0.00     0.031 C 
ATOM     57  C   UNL A   1      44.427  26.499  31.624  1.00  0.00     0.029 A 
ATOM     58  C   UNL A   1      43.625  27.434  32.260  1.00  0.00     0.049 A 
ATOM     59  H   UNL A   1      41.924  28.443  31.529  1.00  0.00     0.167 HD
ATOM     60  C   UNL A   1      42.880  28.839  34.158  1.00  0.00     0.074 A 
ATOM     61  C   UNL A   1      42.971  29.310  35.524  1.00  0.00     0.031 C 
ATOM     62  C   UNL A   1      43.737  27.947  33.601  1.00  0.00     0.034 A 
BRANCH  49  63
ATOM     63  C   UNL A   1      42.329  26.466  27.770  1.00  0.00     0.023 A 
ATOM     64  C   UNL A   1      42.993  27.118  26.713  1.00  0.00     0.012 A 
ATOM     65  C   UNL A   1      42.003  25.101  27.654  1.00  0.00     0.148 A 
ATOM     66  C   UNL A   1      43.305  26.425  25.544  1.00  0.00     0.002 A 
ATOM     67  C   UNL A   1      42.345  24.411  26.499  1.00  0.00     0.091 A 
ATOM     68  F   UNL A   1      41.342  24.515  28.663  1.00  0.00    -0.205 F 
ATOM     69  C   UNL A   1      42.988  25.073  25.440  1.00  0.00     0.022 A 
BRANCH  67  70
ATOM     70  S   UNL A   1      42.018  22.658  26.293  1.00  0.00     0.127 S 
ATOM     71  O   UNL A   1      42.639  22.392  24.997  1.00  0.00    -0.237 OA
ATOM     72  O   UNL A   1      42.720  22.077  27.437  1.00  0.00    -0.237 OA
ATOM     73  O   UNL A   1      40.569  22.514  26.335  1.00  0.00    -0.744 OA
ENDBRANCH  67  70
ENDBRANCH  49  63
BRANCH  50  74
ATOM     74  C   UNL A   1      39.660  31.920  35.677  1.00  0.00     0.023 A 
ATOM     75  C   UNL A   1      40.303  33.161  35.854  1.00  0.00     0.012 A 
ATOM     76  C   UNL A   1      38.711  31.500  36.628  1.00  0.00     0.148 A 
ATOM     77  C   UNL A   1      40.028  33.953  36.971  1.00  0.00     0.002 A 
ATOM     78  C   UNL A   1      38.398  32.319  37.707  1.00  0.00     0.091 A 
ATOM     79  F   UNL A   1      38.136  30.300  36.466  1.00  0.00    -0.205 F 
ATOM     80  C   UNL A   1      39.069  33.537  37.891  1.00  0.00     0.022 A 
BRANCH  78  81
ATOM     81  S   UNL A   1      37.092  31.918  38.873  1.00  0.00     0.127 S 
ATOM     82  O   UNL A   1      35.990  32.741  38.382  1.00  0.00    -0.237 OA
ATOM     83  O   UNL A   1      36.927  30.480  38.660  1.00  0.00    -0.237 OA
ATOM     84  O   UNL A   1      37.613  32.275  40.185  1.00  0.00    -0.744 OA
ENDBRANCH  78  81
ENDBRANCH  50  74
BRANCH  62  85
ATOM     85  C   UNL A   1      44.859  27.415  34.456  1.00  0.00     0.023 A 
ATOM     86  C   UNL A   1      46.066  28.134  34.546  1.00  0.00     0.012 A 
ATOM     87  C   UNL A   1      44.680  26.263  35.250  1.00  0.00     0.148 A 
ATOM     88  C   UNL A   1      47.088  27.705  35.393  1.00  0.00     0.002 A 
ATOM     89  C   UNL A   1      45.685  25.867  36.126  1.00  0.00     0.091 A 
ATOM     90  F   UNL A   1      43.532  25.581  35.138  1.00  0.00    -0.205 F 
ATOM     91  C   UNL A   1      46.893  26.582  36.192  1.00  0.00     0.022 A 
BRANCH  89  92
ATOM     92  S   UNL A   1      45.484  24.489  37.261  1.00  0.00     0.127 S 
ATOM     93  O   UNL A   1      45.301  23.368  36.342  1.00  0.00    -0.237 OA
ATOM     94  O   UNL A   1      46.760  24.487  37.979  1.00  0.00    -0.237 OA
ATOM     95  O   UNL A   1      44.330  24.817  38.088  1.00  0.00    -0.744 OA
ENDBRANCH  89  92
ENDBRANCH  62  85
ENDBRANCH  36  37
ENDBRANCH  29  31
ENDBRANCH  28  29
ENDBRANCH  27  28
ENDBRANCH   1  27
TORSDOF 18
ENDMDL
MODEL 2
REMARK VINA RESULT:     -12.0      2.054      4.112
REMARK SMILES CC(C)c1ccc(NC(=O)C[C@H]2SC[C@@H](C(=O)OCCOC(=O)c3ccc(-c4c5nc(c(-c6cccc(S(=O)(=O)[O-])c6F)c6ccc([nH]6)c(-c6cccc(S(=O)(=O)[O-])c6F)c6nc(c(-c7cccc(S(=O)(=O)[O-])c7F)c7ccc4[nH]7)C=C6)C=C5)cc3)NC2=O)cc1
REMARK SMILES IDX 19 1 18 2 16 3 17 4 15 5 12 6 13 7 88 8 14 9 87 10 89 11
REMARK SMILES IDX 11 13 9 14 8 15 10 17 7 18 4 19 5 20 91 21 6 22 90 23 2 24
REMARK SMILES IDX 1 25 3 26 20 27 21 28 22 29 23 30 24 31 25 32 86 33 26 34
REMARK SMILES IDX 85 35 27 36 28 37 29 38 79 39 30 40 84 41 78 42 80 43 31 44
REMARK SMILES IDX 83 45 77 46 76 47 32 49 64 50 44 51 63 52 45 53 48 54 62 55
REMARK SMILES IDX 81 56 46 57 47 58 61 60 82 61 49 62 33 63 34 64 42 65 35 66
REMARK SMILES IDX 37 67 43 68 36 69 38 70 39 71 40 72 41 73 65 74 66 75 74 76
REMARK SMILES IDX 67 77 69 78 75 79 68 80 70 81 71 82 72 83 73 84 50 85 51 86
REMARK SMILES IDX 59 87 52 88 54 89 60 90 53 91 55 92 56 93 57 94 58 95
REMARK H PARENT 87 12 8 16 80 48 48 59
REMARK Flexibility Score: inf
ROOT
ATOM      1  C   UNL A   1      31.897  27.834  26.828  1.00  0.00     0.274 C 
ENDROOT
BRANCH   1   2
ATOM      2  O   UNL A   1      32.194  26.695  25.995  1.00  0.00    -0.461 OA
BRANCH   2   3
ATOM      3  C   UNL A   1      31.275  25.688  26.068  1.00  0.00     0.329 C 
ATOM      4  O   UNL A   1      30.073  25.852  26.076  1.00  0.00    -0.250 OA
BRANCH   3   5
ATOM      5  C   UNL A   1      31.953  24.334  26.284  1.00  0.00     0.202 C 
ATOM      6  C   UNL A   1      33.424  24.210  23.643  1.00  0.00     0.145 C 
ATOM      7  S   UNL A   1      34.571  24.247  25.092  1.00  0.00    -0.145 SA
ATOM      8  C   UNL A   1      32.074  23.553  23.918  1.00  0.00     0.234 C 
ATOM      9  C   UNL A   1      33.448  24.441  26.517  1.00  0.00     0.107 C 
ATOM     10  N   UNL A   1      31.570  23.480  25.179  1.00  0.00    -0.341 N 
ATOM     11  O   UNL A   1      31.396  23.023  23.037  1.00  0.00    -0.274 OA
ATOM     12  H   UNL A   1      30.890  22.789  25.355  1.00  0.00     0.164 HD
BRANCH   6  13
ATOM     13  C   UNL A   1      33.458  25.542  22.893  1.00  0.00     0.124 C 
BRANCH  13  14
ATOM     14  C   UNL A   1      32.814  25.660  21.520  1.00  0.00     0.226 C 
ATOM     15  N   UNL A   1      31.710  26.422  21.274  1.00  0.00    -0.326 N 
ATOM     16  H   UNL A   1      31.256  26.263  20.414  1.00  0.00     0.169 HD
ATOM     17  O   UNL A   1      33.279  25.020  20.570  1.00  0.00    -0.275 OA
BRANCH  15  18
ATOM     18  C   UNL A   1      31.144  27.401  22.093  1.00  0.00     0.041 A 
ATOM     19  C   UNL A   1      29.473  29.359  23.168  1.00  0.00    -0.045 A 
ATOM     20  C   UNL A   1      30.723  29.708  22.633  1.00  0.00     0.006 A 
ATOM     21  C   UNL A   1      29.155  28.001  23.305  1.00  0.00     0.006 A 
ATOM     22  C   UNL A   1      31.562  28.727  22.100  1.00  0.00     0.026 A 
ATOM     23  C   UNL A   1      30.006  27.022  22.803  1.00  0.00     0.026 A 
BRANCH  19  24
ATOM     24  C   UNL A   1      28.449  30.439  23.458  1.00  0.00     0.013 C 
ATOM     25  C   UNL A   1      29.147  31.661  24.073  1.00  0.00     0.012 C 
ATOM     26  C   UNL A   1      27.645  30.846  22.222  1.00  0.00     0.012 C 
ENDBRANCH  19  24
ENDBRANCH  15  18
ENDBRANCH  13  14
ENDBRANCH   6  13
ENDBRANCH   3   5
ENDBRANCH   2   3
ENDBRANCH   1   2
BRANCH   1  27
ATOM     27  C   UNL A   1      31.789  29.147  26.048  1.00  0.00     0.275 C 
BRANCH  27  28
ATOM     28  O   UNL A   1      33.058  29.813  25.904  1.00  0.00    -0.458 OA
BRANCH  28  29
ATOM     29  C   UNL A   1      33.242  30.882  26.714  1.00  0.00     0.338 C 
ATOM     30  O   UNL A   1      32.450  31.802  26.875  1.00  0.00    -0.246 OA
BRANCH  29  31
ATOM     31  C   UNL A   1      34.454  30.715  27.550  1.00  0.00     0.060 A 
ATOM     32  C   UNL A   1      34.646  29.450  28.110  1.00  0.00     0.016 A 
ATOM     33  C   UNL A   1      35.394  31.723  27.782  1.00  0.00     0.016 A 
ATOM     34  C   UNL A   1      35.799  29.158  28.829  1.00  0.00     0.010 A 
ATOM     35  C   UNL A   1      36.535  31.444  28.556  1.00  0.00     0.010 A 
ATOM     36  C   UNL A   1      36.751  30.153  29.065  1.00  0.00    -0.014 A 
BRANCH  36  37
ATOM     37  C   UNL A   1      37.925  29.800  29.900  1.00  0.00     0.031 A 
ATOM     38  C   UNL A   1      39.006  28.938  29.317  1.00  0.00     0.074 A 
ATOM     39  C   UNL A   1      38.094  30.355  31.115  1.00  0.00     0.049 A 
ATOM     40  N   UNL A   1      40.146  28.574  29.843  1.00  0.00    -0.248 NA
ATOM     41  C   UNL A   1      38.788  28.445  27.947  1.00  0.00     0.031 C 
ATOM     42  C   UNL A   1      37.170  31.290  31.751  1.00  0.00     0.029 A 
ATOM     43  N   UNL A   1      39.121  30.229  32.020  1.00  0.00    -0.354 N 
ATOM     44  C   UNL A   1      40.774  27.800  28.879  1.00  0.00     0.074 A 
ATOM     45  C   UNL A   1      39.906  27.772  27.721  1.00  0.00     0.031 C 
ATOM     46  C   UNL A   1      37.675  31.665  32.939  1.00  0.00     0.029 A 
ATOM     47  C   UNL A   1      38.935  30.961  33.170  1.00  0.00     0.049 A 
ATOM     48  H   UNL A   1      39.914  29.669  31.859  1.00  0.00     0.167 HD
ATOM     49  C   UNL A   1      41.959  27.150  28.953  1.00  0.00     0.034 A 
ATOM     50  C   UNL A   1      39.685  31.032  34.289  1.00  0.00     0.034 A 
ATOM     51  C   UNL A   1      42.803  27.127  30.114  1.00  0.00     0.049 A 
ATOM     52  C   UNL A   1      40.956  30.221  34.379  1.00  0.00     0.074 A 
ATOM     53  C   UNL A   1      43.970  26.410  30.314  1.00  0.00     0.029 A 
ATOM     54  N   UNL A   1      42.564  27.837  31.279  1.00  0.00    -0.354 N 
ATOM     55  N   UNL A   1      41.548  29.503  33.456  1.00  0.00    -0.248 NA
ATOM     56  C   UNL A   1      41.664  30.233  35.669  1.00  0.00     0.031 C 
ATOM     57  C   UNL A   1      44.425  26.672  31.611  1.00  0.00     0.029 A 
ATOM     58  C   UNL A   1      43.556  27.572  32.207  1.00  0.00     0.049 A 
ATOM     59  H   UNL A   1      41.801  28.441  31.426  1.00  0.00     0.167 HD
ATOM     60  C   UNL A   1      42.698  28.988  34.048  1.00  0.00     0.074 A 
ATOM     61  C   UNL A   1      42.742  29.509  35.398  1.00  0.00     0.031 C 
ATOM     62  C   UNL A   1      43.618  28.136  33.530  1.00  0.00     0.034 A 
BRANCH  49  63
ATOM     63  C   UNL A   1      42.379  26.369  27.741  1.00  0.00     0.023 A 
ATOM     64  C   UNL A   1      43.116  27.002  26.721  1.00  0.00     0.012 A 
ATOM     65  C   UNL A   1      42.040  25.008  27.616  1.00  0.00     0.148 A 
ATOM     66  C   UNL A   1      43.489  26.295  25.580  1.00  0.00     0.002 A 
ATOM     67  C   UNL A   1      42.442  24.303  26.490  1.00  0.00     0.091 A 
ATOM     68  F   UNL A   1      41.310  24.440  28.587  1.00  0.00    -0.205 F 
ATOM     69  C   UNL A   1      43.158  24.946  25.466  1.00  0.00     0.022 A 
BRANCH  67  70
ATOM     70  S   UNL A   1      42.101  22.553  26.278  1.00  0.00     0.127 S 
ATOM     71  O   UNL A   1      42.656  22.304  24.948  1.00  0.00    -0.237 OA
ATOM     72  O   UNL A   1      42.860  21.956  27.377  1.00  0.00    -0.237 OA
ATOM     73  O   UNL A   1      40.656  22.410  26.391  1.00  0.00    -0.744 OA
ENDBRANCH  67  70
ENDBRANCH  49  63
BRANCH  50  74
ATOM     74  C   UNL A   1      39.264  31.897  35.430  1.00  0.00     0.023 A 
ATOM     75  C   UNL A   1      38.356  31.397  36.384  1.00  0.00     0.012 A 
ATOM     76  C   UNL A   1      39.737  33.217  35.563  1.00  0.00     0.148 A 
ATOM     77  C   UNL A   1      37.906  32.202  37.431  1.00  0.00     0.002 A 
ATOM     78  C   UNL A   1      39.332  33.995  36.642  1.00  0.00     0.091 A 
ATOM     79  F   UNL A   1      40.571  33.691  34.628  1.00  0.00    -0.205 F 
ATOM     80  C   UNL A   1      38.402  33.497  37.567  1.00  0.00     0.022 A 
BRANCH  78  81
ATOM     81  S   UNL A   1      40.010  35.627  36.959  1.00  0.00     0.127 S 
ATOM     82  O   UNL A   1      39.356  35.985  38.215  1.00  0.00    -0.237 OA
ATOM     83  O   UNL A   1      41.441  35.344  37.071  1.00  0.00    -0.237 OA
ATOM     84  O   UNL A   1      39.647  36.436  35.804  1.00  0.00    -0.744 OA
ENDBRANCH  78  81
ENDBRANCH  50  74
BRANCH  62  85
ATOM     85  C   UNL A   1      44.763  27.709  34.413  1.00  0.00     0.023 A 
ATOM     86  C   UNL A   1      45.936  28.488  34.456  1.00  0.00     0.012 A 
ATOM     87  C   UNL A   1      44.637  26.601  35.276  1.00  0.00     0.148 A 
ATOM     88  C   UNL A   1      46.976  28.158  35.325  1.00  0.00     0.002 A 
ATOM     89  C   UNL A   1      45.659  26.305  36.172  1.00  0.00     0.091 A 
ATOM     90  F   UNL A   1      43.522  25.861  35.208  1.00  0.00    -0.205 F 
ATOM     91  C   UNL A   1      46.832  27.077  36.191  1.00  0.00     0.022 A 
BRANCH  89  92
ATOM     92  S   UNL A   1      45.521  24.991  37.389  1.00  0.00     0.127 S 
ATOM     93  O   UNL A   1      45.686  23.797  36.561  1.00  0.00    -0.237 OA
ATOM     94  O   UNL A   1      46.646  25.273  38.283  1.00  0.00    -0.237 OA
ATOM     95  O   UNL A   1      44.210  25.151  38.004  1.00  0.00    -0.744 OA
ENDBRANCH  89  92
ENDBRANCH  62  85
ENDBRANCH  36  37
ENDBRANCH  29  31
ENDBRANCH  28  29
ENDBRANCH  27  28
ENDBRANCH   1  27
TORSDOF 18
ENDMDL
MODEL 3
REMARK VINA RESULT:     -11.9      5.378      8.616
REMARK SMILES CC(C)c1ccc(NC(=O)C[C@H]2SC[C@@H](C(=O)OCCOC(=O)c3ccc(-c4c5nc(c(-c6cccc(S(=O)(=O)[O-])c6F)c6ccc([nH]6)c(-c6cccc(S(=O)(=O)[O-])c6F)c6nc(c(-c7cccc(S(=O)(=O)[O-])c7F)c7ccc4[nH]7)C=C6)C=C5)cc3)NC2=O)cc1
REMARK SMILES IDX 19 1 18 2 16 3 17 4 15 5 12 6 13 7 88 8 14 9 87 10 89 11
REMARK SMILES IDX 11 13 9 14 8 15 10 17 7 18 4 19 5 20 91 21 6 22 90 23 2 24
REMARK SMILES IDX 1 25 3 26 20 27 21 28 22 29 23 30 24 31 25 32 86 33 26 34
REMARK SMILES IDX 85 35 27 36 28 37 29 38 79 39 30 40 84 41 78 42 80 43 31 44
REMARK SMILES IDX 83 45 77 46 76 47 32 49 64 50 44 51 63 52 45 53 48 54 62 55
REMARK SMILES IDX 81 56 46 57 47 58 61 60 82 61 49 62 33 63 34 64 42 65 35 66
REMARK SMILES IDX 37 67 43 68 36 69 38 70 39 71 40 72 41 73 65 74 66 75 74 76
REMARK SMILES IDX 67 77 69 78 75 79 68 80 70 81 71 82 72 83 73 84 50 85 51 86
REMARK SMILES IDX 59 87 52 88 54 89 60 90 53 91 55 92 56 93 57 94 58 95
REMARK H PARENT 87 12 8 16 80 48 48 59
REMARK Flexibility Score: inf
ROOT
ATOM      1  C   UNL A   1      37.458  21.159  25.030  1.00  0.00     0.274 C 
ENDROOT
BRANCH   1   2
ATOM      2  O   UNL A   1      36.307  21.354  25.875  1.00  0.00    -0.461 OA
BRANCH   2   3
ATOM      3  C   UNL A   1      35.496  22.385  25.496  1.00  0.00     0.329 C 
ATOM      4  O   UNL A   1      35.158  23.299  26.221  1.00  0.00    -0.250 OA
BRANCH   3   5
ATOM      5  C   UNL A   1      34.948  22.169  24.085  1.00  0.00     0.202 C 
ATOM      6  C   UNL A   1      32.034  22.678  24.717  1.00  0.00     0.145 C 
ATOM      7  S   UNL A   1      32.725  23.907  23.524  1.00  0.00    -0.145 SA
ATOM      8  C   UNL A   1      32.681  21.297  24.654  1.00  0.00     0.234 C 
ATOM      9  C   UNL A   1      34.488  23.450  23.415  1.00  0.00     0.107 C 
ATOM     10  N   UNL A   1      33.941  21.132  24.168  1.00  0.00    -0.341 N 
ATOM     11  O   UNL A   1      32.096  20.267  24.992  1.00  0.00    -0.274 OA
ATOM     12  H   UNL A   1      34.188  20.233  23.848  1.00  0.00     0.164 HD
BRANCH   6  13
ATOM     13  C   UNL A   1      31.803  23.323  26.085  1.00  0.00     0.124 C 
BRANCH  13  14
ATOM     14  C   UNL A   1      30.390  23.480  26.625  1.00  0.00     0.226 C 
ATOM     15  N   UNL A   1      29.726  24.671  26.652  1.00  0.00    -0.326 N 
ATOM     16  H   UNL A   1      28.914  24.701  27.207  1.00  0.00     0.169 HD
ATOM     17  O   UNL A   1      29.803  22.497  27.094  1.00  0.00    -0.275 OA
BRANCH  15  18
ATOM     18  C   UNL A   1      30.060  25.853  25.989  1.00  0.00     0.041 A 
ATOM     19  C   UNL A   1      31.166  27.727  24.244  1.00  0.00    -0.045 A 
ATOM     20  C   UNL A   1      31.559  27.693  25.592  1.00  0.00     0.006 A 
ATOM     21  C   UNL A   1      30.094  26.923  23.835  1.00  0.00     0.006 A 
ATOM     22  C   UNL A   1      31.001  26.758  26.466  1.00  0.00     0.026 A 
ATOM     23  C   UNL A   1      29.516  26.015  24.716  1.00  0.00     0.026 A 
BRANCH  19  24
ATOM     24  C   UNL A   1      31.982  28.520  23.242  1.00  0.00     0.013 C 
ATOM     25  C   UNL A   1      32.970  27.588  22.526  1.00  0.00     0.012 C 
ATOM     26  C   UNL A   1      31.116  29.267  22.227  1.00  0.00     0.012 C 
ENDBRANCH  19  24
ENDBRANCH  15  18
ENDBRANCH  13  14
ENDBRANCH   6  13
ENDBRANCH   3   5
ENDBRANCH   2   3
ENDBRANCH   1   2
BRANCH   1  27
ATOM     27  C   UNL A   1      38.788  21.218  25.788  1.00  0.00     0.275 C 
BRANCH  27  28
ATOM     28  O   UNL A   1      39.395  19.922  25.944  1.00  0.00    -0.458 OA
BRANCH  28  29
ATOM     29  C   UNL A   1      40.730  19.935  26.165  1.00  0.00     0.338 C 
ATOM     30  O   UNL A   1      41.512  19.038  25.876  1.00  0.00    -0.246 OA
BRANCH  29  31
ATOM     31  C   UNL A   1      41.180  21.267  26.632  1.00  0.00     0.060 A 
ATOM     32  C   UNL A   1      41.522  22.186  25.637  1.00  0.00     0.016 A 
ATOM     33  C   UNL A   1      41.258  21.644  27.976  1.00  0.00     0.016 A 
ATOM     34  C   UNL A   1      41.862  23.493  25.962  1.00  0.00     0.010 A 
ATOM     35  C   UNL A   1      41.655  22.951  28.309  1.00  0.00     0.010 A 
ATOM     36  C   UNL A   1      41.939  23.888  27.301  1.00  0.00    -0.014 A 
BRANCH  36  37
ATOM     37  C   UNL A   1      42.377  25.275  27.588  1.00  0.00     0.031 A 
ATOM     38  C   UNL A   1      43.703  25.747  27.065  1.00  0.00     0.074 A 
ATOM     39  C   UNL A   1      41.544  26.148  28.185  1.00  0.00     0.049 A 
ATOM     40  N   UNL A   1      44.242  26.936  27.135  1.00  0.00    -0.248 NA
ATOM     41  C   UNL A   1      44.516  24.755  26.342  1.00  0.00     0.031 C 
ATOM     42  C   UNL A   1      40.192  25.844  28.644  1.00  0.00     0.029 A 
ATOM     43  N   UNL A   1      41.710  27.479  28.484  1.00  0.00    -0.354 N 
ATOM     44  C   UNL A   1      45.461  26.834  26.481  1.00  0.00     0.074 A 
ATOM     45  C   UNL A   1      45.570  25.477  25.990  1.00  0.00     0.031 C 
ATOM     46  C   UNL A   1      39.643  26.958  29.157  1.00  0.00     0.029 A 
ATOM     47  C   UNL A   1      40.620  28.044  29.106  1.00  0.00     0.049 A 
ATOM     48  H   UNL A   1      42.529  27.981  28.272  1.00  0.00     0.167 HD
ATOM     49  C   UNL A   1      46.417  27.777  26.317  1.00  0.00     0.034 A 
ATOM     50  C   UNL A   1      40.445  29.288  29.599  1.00  0.00     0.034 A 
ATOM     51  C   UNL A   1      46.343  29.110  26.845  1.00  0.00     0.049 A 
ATOM     52  C   UNL A   1      41.567  30.292  29.486  1.00  0.00     0.074 A 
ATOM     53  C   UNL A   1      47.310  30.100  26.818  1.00  0.00     0.029 A 
ATOM     54  N   UNL A   1      45.249  29.637  27.512  1.00  0.00    -0.354 N 
ATOM     55  N   UNL A   1      42.711  30.189  28.852  1.00  0.00    -0.248 NA
ATOM     56  C   UNL A   1      41.372  31.587  30.156  1.00  0.00     0.031 C 
ATOM     57  C   UNL A   1      46.806  31.220  27.489  1.00  0.00     0.029 A 
ATOM     58  C   UNL A   1      45.517  30.935  27.909  1.00  0.00     0.049 A 
ATOM     59  H   UNL A   1      44.406  29.157  27.680  1.00  0.00     0.167 HD
ATOM     60  C   UNL A   1      43.364  31.404  29.038  1.00  0.00     0.074 A 
ATOM     61  C   UNL A   1      42.472  32.244  29.810  1.00  0.00     0.031 C 
ATOM     62  C   UNL A   1      44.602  31.780  28.632  1.00  0.00     0.034 A 
BRANCH  49  63
ATOM     63  C   UNL A   1      47.652  27.366  25.568  1.00  0.00     0.023 A 
ATOM     64  C   UNL A   1      48.692  26.701  26.245  1.00  0.00     0.012 A 
ATOM     65  C   UNL A   1      47.778  27.643  24.193  1.00  0.00     0.148 A 
ATOM     66  C   UNL A   1      49.855  26.338  25.567  1.00  0.00     0.002 A 
ATOM     67  C   UNL A   1      48.926  27.250  23.518  1.00  0.00     0.091 A 
ATOM     68  F   UNL A   1      46.786  28.307  23.582  1.00  0.00    -0.205 F 
ATOM     69  C   UNL A   1      49.969  26.606  24.204  1.00  0.00     0.022 A 
BRANCH  67  70
ATOM     70  S   UNL A   1      49.143  27.513  21.756  1.00  0.00     0.127 S 
ATOM     71  O   UNL A   1      49.356  28.958  21.697  1.00  0.00    -0.237 OA
ATOM     72  O   UNL A   1      50.330  26.708  21.468  1.00  0.00    -0.237 OA
ATOM     73  O   UNL A   1      47.920  27.035  21.126  1.00  0.00    -0.744 OA
ENDBRANCH  67  70
ENDBRANCH  49  63
BRANCH  50  74
ATOM     74  C   UNL A   1      39.160  29.668  30.256  1.00  0.00     0.023 A 
ATOM     75  C   UNL A   1      38.922  29.289  31.591  1.00  0.00     0.012 A 
ATOM     76  C   UNL A   1      38.165  30.382  29.560  1.00  0.00     0.148 A 
ATOM     77  C   UNL A   1      37.709  29.588  32.212  1.00  0.00     0.002 A 
ATOM     78  C   UNL A   1      36.981  30.728  30.203  1.00  0.00     0.091 A 
ATOM     79  F   UNL A   1      38.389  30.703  28.279  1.00  0.00    -0.205 F 
ATOM     80  C   UNL A   1      36.743  30.316  31.522  1.00  0.00     0.022 A 
BRANCH  78  81
ATOM     81  S   UNL A   1      35.735  31.765  29.430  1.00  0.00     0.127 S 
ATOM     82  O   UNL A   1      34.845  32.051  30.552  1.00  0.00    -0.237 OA
ATOM     83  O   UNL A   1      36.532  32.904  28.971  1.00  0.00    -0.237 OA
ATOM     84  O   UNL A   1      35.164  30.962  28.358  1.00  0.00    -0.744 OA
ENDBRANCH  78  81
ENDBRANCH  50  74
BRANCH  62  85
ATOM     85  C   UNL A   1      45.080  33.161  29.003  1.00  0.00     0.023 A 
ATOM     86  C   UNL A   1      45.775  33.355  30.213  1.00  0.00     0.012 A 
ATOM     87  C   UNL A   1      44.934  34.242  28.110  1.00  0.00     0.148 A 
ATOM     88  C   UNL A   1      46.297  34.606  30.540  1.00  0.00     0.002 A 
ATOM     89  C   UNL A   1      45.497  35.474  28.421  1.00  0.00     0.091 A 
ATOM     90  F   UNL A   1      44.255  34.044  26.972  1.00  0.00    -0.205 F 
ATOM     91  C   UNL A   1      46.171  35.661  29.639  1.00  0.00     0.022 A 
BRANCH  89  92
ATOM     92  S   UNL A   1      45.466  36.863  27.280  1.00  0.00     0.127 S 
ATOM     93  O   UNL A   1      46.186  37.887  28.035  1.00  0.00    -0.237 OA
ATOM     94  O   UNL A   1      46.192  36.334  26.124  1.00  0.00    -0.237 OA
ATOM     95  O   UNL A   1      44.058  37.143  27.029  1.00  0.00    -0.744 OA
ENDBRANCH  89  92
ENDBRANCH  62  85
ENDBRANCH  36  37
ENDBRANCH  29  31
ENDBRANCH  28  29
ENDBRANCH  27  28
ENDBRANCH   1  27
TORSDOF 18
ENDMDL
