MODEL 1
REMARK VINA RESULT:     -12.5      0.000      0.000
REMARK SMILES O=C(OCCOC(=O)[C@H](c1cnn(Cc2ccccc2)c1)[NH+]1CCOCC1)c1ccc(-c2c3nc(c(-c4cccc(S(=O)(=O)[O-])c4F)c4ccc([nH]4)c(-c4cccc(S(=O)(=O)[O-])c4F)c4nc(c(-c5cccc(S(=O)(=O)[O-])c5F)c5ccc2[nH]5)C=C4)C=C3)cc1
REMARK SMILES IDX 4 1 3 2 2 3 1 4 28 5 29 6 90 7 30 8 89 9 31 10 32 11 33 12
REMARK SMILES IDX 83 13 34 14 88 15 82 16 84 17 35 18 87 19 81 20 80 21 36 23
REMARK SMILES IDX 68 24 48 25 67 26 49 27 52 28 66 29 85 30 50 31 51 32 65 34
REMARK SMILES IDX 86 35 53 36 37 37 38 38 46 39 39 40 41 41 47 42 40 43 42 44
REMARK SMILES IDX 43 45 44 46 45 47 69 48 70 49 78 50 71 51 73 52 79 53 72 54
REMARK SMILES IDX 74 55 75 56 76 57 77 58 54 59 55 60 63 61 56 62 58 63 64 64
REMARK SMILES IDX 57 65 59 66 60 67 61 68 62 69 5 70 6 71 7 72 8 73 9 74 22 75
REMARK SMILES IDX 23 76 27 77 24 79 26 80 25 81 10 82 11 83 21 84 12 85 13 86
REMARK SMILES IDX 14 87 15 88 16 89 20 90 17 91 19 92 18 93
REMARK H PARENT 84 22 52 33 22 78
REMARK Flexibility Score: inf
ROOT
ATOM      1  C   UNL A   1      32.625  30.747  27.035  1.00  0.00     0.275 C 
ENDROOT
BRANCH   1   2
ATOM      2  O   UNL A   1      34.059  30.606  27.042  1.00  0.00    -0.458 OA
BRANCH   2   3
ATOM      3  C   UNL A   1      34.780  31.462  27.796  1.00  0.00     0.338 C 
ATOM      4  O   UNL A   1      34.391  32.546  28.196  1.00  0.00    -0.246 OA
BRANCH   3   5
ATOM      5  C   UNL A   1      36.097  30.861  28.099  1.00  0.00     0.060 A 
ATOM      6  C   UNL A   1      37.136  31.634  28.641  1.00  0.00     0.016 A 
ATOM      7  C   UNL A   1      36.281  29.500  27.868  1.00  0.00     0.016 A 
ATOM      8  C   UNL A   1      38.372  31.060  28.900  1.00  0.00     0.010 A 
ATOM      9  C   UNL A   1      37.523  28.931  28.125  1.00  0.00     0.010 A 
ATOM     10  C   UNL A   1      38.579  29.710  28.617  1.00  0.00    -0.014 A 
BRANCH  10  11
ATOM     11  C   UNL A   1      39.908  29.148  28.874  1.00  0.00     0.031 A 
ATOM     12  C   UNL A   1      40.357  29.039  30.299  1.00  0.00     0.074 A 
ATOM     13  C   UNL A   1      40.660  28.594  27.902  1.00  0.00     0.049 A 
ATOM     14  N   UNL A   1      41.411  29.538  30.862  1.00  0.00    -0.248 NA
ATOM     15  C   UNL A   1      39.496  28.300  31.228  1.00  0.00     0.031 C 
ATOM     16  C   UNL A   1      40.281  28.348  26.506  1.00  0.00     0.029 A 
ATOM     17  N   UNL A   1      41.883  27.995  28.002  1.00  0.00    -0.354 N 
ATOM     18  C   UNL A   1      41.455  28.989  32.150  1.00  0.00     0.074 A 
ATOM     19  C   UNL A   1      40.189  28.346  32.363  1.00  0.00     0.031 C 
ATOM     20  C   UNL A   1      41.119  27.433  25.976  1.00  0.00     0.029 A 
ATOM     21  C   UNL A   1      42.175  27.159  26.933  1.00  0.00     0.049 A 
ATOM     22  H   UNL A   1      42.497  28.143  28.757  1.00  0.00     0.167 HD
ATOM     23  C   UNL A   1      42.605  28.910  32.874  1.00  0.00     0.034 A 
ATOM     24  C   UNL A   1      43.184  26.264  26.847  1.00  0.00     0.034 A 
ATOM     25  C   UNL A   1      43.613  29.811  32.389  1.00  0.00     0.049 A 
ATOM     26  C   UNL A   1      44.215  26.648  27.834  1.00  0.00     0.074 A 
ATOM     27  C   UNL A   1      43.689  31.168  32.158  1.00  0.00     0.029 A 
ATOM     28  N   UNL A   1      44.699  29.262  31.756  1.00  0.00    -0.354 N 
ATOM     29  N   UNL A   1      44.956  27.717  27.732  1.00  0.00    -0.248 NA
ATOM     30  C   UNL A   1      44.216  26.007  29.136  1.00  0.00     0.031 C 
ATOM     31  C   UNL A   1      44.518  31.295  31.005  1.00  0.00     0.029 A 
ATOM     32  C   UNL A   1      44.915  30.008  30.632  1.00  0.00     0.049 A 
ATOM     33  H   UNL A   1      45.223  28.484  32.055  1.00  0.00     0.167 HD
ATOM     34  C   UNL A   1      45.162  28.122  29.041  1.00  0.00     0.074 A 
ATOM     35  C   UNL A   1      44.822  26.956  29.851  1.00  0.00     0.031 C 
ATOM     36  C   UNL A   1      45.303  29.445  29.357  1.00  0.00     0.034 A 
BRANCH  23  37
ATOM     37  C   UNL A   1      42.957  27.779  33.819  1.00  0.00     0.023 A 
ATOM     38  C   UNL A   1      43.768  26.735  33.314  1.00  0.00     0.012 A 
ATOM     39  C   UNL A   1      42.305  27.541  35.051  1.00  0.00     0.148 A 
ATOM     40  C   UNL A   1      43.869  25.499  33.963  1.00  0.00     0.002 A 
ATOM     41  C   UNL A   1      42.477  26.341  35.734  1.00  0.00     0.091 A 
ATOM     42  F   UNL A   1      41.406  28.416  35.513  1.00  0.00    -0.205 F 
ATOM     43  C   UNL A   1      43.228  25.302  35.179  1.00  0.00     0.022 A 
BRANCH  41  44
ATOM     44  S   UNL A   1      41.721  26.070  37.341  1.00  0.00     0.127 S 
ATOM     45  O   UNL A   1      42.837  26.345  38.239  1.00  0.00    -0.237 OA
ATOM     46  O   UNL A   1      40.654  27.072  37.348  1.00  0.00    -0.237 OA
ATOM     47  O   UNL A   1      41.242  24.692  37.306  1.00  0.00    -0.744 OA
ENDBRANCH  41  44
ENDBRANCH  23  37
BRANCH  24  48
ATOM     48  C   UNL A   1      43.278  25.022  26.053  1.00  0.00     0.023 A 
ATOM     49  C   UNL A   1      44.270  24.903  25.062  1.00  0.00     0.012 A 
ATOM     50  C   UNL A   1      42.554  23.865  26.419  1.00  0.00     0.148 A 
ATOM     51  C   UNL A   1      44.552  23.669  24.471  1.00  0.00     0.002 A 
ATOM     52  C   UNL A   1      42.829  22.641  25.818  1.00  0.00     0.091 A 
ATOM     53  F   UNL A   1      41.664  23.948  27.416  1.00  0.00    -0.205 F 
ATOM     54  C   UNL A   1      43.836  22.537  24.849  1.00  0.00     0.022 A 
BRANCH  52  55
ATOM     55  S   UNL A   1      41.939  21.142  26.259  1.00  0.00     0.127 S 
ATOM     56  O   UNL A   1      42.581  20.141  25.404  1.00  0.00    -0.237 OA
ATOM     57  O   UNL A   1      42.243  21.016  27.681  1.00  0.00    -0.237 OA
ATOM     58  O   UNL A   1      40.546  21.404  25.920  1.00  0.00    -0.744 OA
ENDBRANCH  52  55
ENDBRANCH  24  48
BRANCH  36  59
ATOM     59  C   UNL A   1      45.537  30.438  28.245  1.00  0.00     0.023 A 
ATOM     60  C   UNL A   1      44.470  31.052  27.559  1.00  0.00     0.012 A 
ATOM     61  C   UNL A   1      46.844  30.913  28.028  1.00  0.00     0.148 A 
ATOM     62  C   UNL A   1      44.701  32.094  26.658  1.00  0.00     0.002 A 
ATOM     63  C   UNL A   1      47.063  31.987  27.173  1.00  0.00     0.091 A 
ATOM     64  F   UNL A   1      47.854  30.328  28.691  1.00  0.00    -0.205 F 
ATOM     65  C   UNL A   1      45.995  32.573  26.476  1.00  0.00     0.022 A 
BRANCH  63  66
ATOM     66  S   UNL A   1      48.686  32.743  27.031  1.00  0.00     0.127 S 
ATOM     67  O   UNL A   1      49.485  31.657  26.468  1.00  0.00    -0.237 OA
ATOM     68  O   UNL A   1      48.442  33.860  26.117  1.00  0.00    -0.237 OA
ATOM     69  O   UNL A   1      49.041  33.158  28.384  1.00  0.00    -0.744 OA
ENDBRANCH  63  66
ENDBRANCH  36  59
ENDBRANCH  10  11
ENDBRANCH   3   5
ENDBRANCH   2   3
ENDBRANCH   1   2
BRANCH   1  70
ATOM     70  C   UNL A   1      31.856  30.146  25.857  1.00  0.00     0.274 C 
BRANCH  70  71
ATOM     71  O   UNL A   1      32.089  28.726  25.766  1.00  0.00    -0.457 OA
BRANCH  71  72
ATOM     72  C   UNL A   1      32.543  28.289  24.544  1.00  0.00     0.370 C 
ATOM     73  O   UNL A   1      33.237  28.965  23.790  1.00  0.00    -0.245 OA
BRANCH  72  74
ATOM     74  C   UNL A   1      31.940  26.894  24.206  1.00  0.00     0.329 C 
BRANCH  74  75
ATOM     75  N   UNL A   1      32.200  25.949  25.340  1.00  0.00    -0.315 N 
ATOM     76  C   UNL A   1      33.642  25.878  25.686  1.00  0.00     0.292 C 
ATOM     77  C   UNL A   1      31.756  24.561  25.070  1.00  0.00     0.292 C 
ATOM     78  H   UNL A   1      31.656  26.338  26.110  1.00  0.00     0.349 HD
ATOM     79  C   UNL A   1      34.494  25.135  24.643  1.00  0.00     0.221 C 
ATOM     80  C   UNL A   1      32.627  23.814  24.043  1.00  0.00     0.221 C 
ATOM     81  O   UNL A   1      34.008  23.806  24.435  1.00  0.00    -0.370 OA
ENDBRANCH  74  75
BRANCH  74  82
ATOM     82  C   UNL A   1      30.463  27.015  23.923  1.00  0.00     0.059 A 
ATOM     83  C   UNL A   1      29.410  26.145  24.294  1.00  0.00     0.145 A 
ATOM     84  C   UNL A   1      29.805  28.042  23.265  1.00  0.00     0.119 A 
ATOM     85  N   UNL A   1      28.203  26.607  23.957  1.00  0.00    -0.181 NA
ATOM     86  N   UNL A   1      28.459  27.775  23.326  1.00  0.00    -0.268 N 
BRANCH  86  87
ATOM     87  C   UNL A   1      27.367  28.708  23.047  1.00  0.00     0.179 C 
BRANCH  87  88
ATOM     88  C   UNL A   1      27.805  30.078  22.615  1.00  0.00    -0.027 A 
ATOM     89  C   UNL A   1      27.914  31.127  23.541  1.00  0.00     0.005 A 
ATOM     90  C   UNL A   1      27.990  30.351  21.253  1.00  0.00     0.005 A 
ATOM     91  C   UNL A   1      28.182  32.427  23.106  1.00  0.00     0.000 A 
ATOM     92  C   UNL A   1      28.254  31.651  20.822  1.00  0.00     0.000 A 
ATOM     93  C   UNL A   1      28.345  32.689  21.747  1.00  0.00     0.000 A 
ENDBRANCH  87  88
ENDBRANCH  86  87
ENDBRANCH  74  82
ENDBRANCH  72  74
ENDBRANCH  71  72
ENDBRANCH  70  71
ENDBRANCH   1  70
TORSDOF 18
ENDMDL
MODEL 2
REMARK VINA RESULT:     -12.4      4.711      7.514
REMARK SMILES O=C(OCCOC(=O)[C@H](c1cnn(Cc2ccccc2)c1)[NH+]1CCOCC1)c1ccc(-c2c3nc(c(-c4cccc(S(=O)(=O)[O-])c4F)c4ccc([nH]4)c(-c4cccc(S(=O)(=O)[O-])c4F)c4nc(c(-c5cccc(S(=O)(=O)[O-])c5F)c5ccc2[nH]5)C=C4)C=C3)cc1
REMARK SMILES IDX 4 1 3 2 2 3 1 4 28 5 29 6 90 7 30 8 89 9 31 10 32 11 33 12
REMARK SMILES IDX 83 13 34 14 88 15 82 16 84 17 35 18 87 19 81 20 80 21 36 23
REMARK SMILES IDX 68 24 48 25 67 26 49 27 52 28 66 29 85 30 50 31 51 32 65 34
REMARK SMILES IDX 86 35 53 36 37 37 38 38 46 39 39 40 41 41 47 42 40 43 42 44
REMARK SMILES IDX 43 45 44 46 45 47 69 48 70 49 78 50 71 51 73 52 79 53 72 54
REMARK SMILES IDX 74 55 75 56 76 57 77 58 54 59 55 60 63 61 56 62 58 63 64 64
REMARK SMILES IDX 57 65 59 66 60 67 61 68 62 69 5 70 6 71 7 72 8 73 9 74 22 75
REMARK SMILES IDX 23 76 27 77 24 79 26 80 25 81 10 82 11 83 21 84 12 85 13 86
REMARK SMILES IDX 14 87 15 88 16 89 20 90 17 91 19 92 18 93
REMARK H PARENT 84 22 52 33 22 78
REMARK Flexibility Score: inf
ROOT
ATOM      1  C   UNL A   1      34.994  33.935  28.029  1.00  0.00     0.275 C 
ENDROOT
BRANCH   1   2
ATOM      2  O   UNL A   1      35.742  32.838  27.470  1.00  0.00    -0.458 OA
BRANCH   2   3
ATOM      3  C   UNL A   1      35.533  31.603  27.972  1.00  0.00     0.338 C 
ATOM      4  O   UNL A   1      34.446  31.063  28.081  1.00  0.00    -0.246 OA
BRANCH   3   5
ATOM      5  C   UNL A   1      36.832  30.989  28.326  1.00  0.00     0.060 A 
ATOM      6  C   UNL A   1      37.135  29.672  27.949  1.00  0.00     0.016 A 
ATOM      7  C   UNL A   1      37.769  31.756  29.014  1.00  0.00     0.016 A 
ATOM      8  C   UNL A   1      38.349  29.104  28.306  1.00  0.00     0.010 A 
ATOM      9  C   UNL A   1      38.982  31.181  29.375  1.00  0.00     0.010 A 
ATOM     10  C   UNL A   1      39.268  29.849  29.046  1.00  0.00    -0.014 A 
BRANCH  10  11
ATOM     11  C   UNL A   1      40.526  29.204  29.433  1.00  0.00     0.031 A 
ATOM     12  C   UNL A   1      40.786  29.005  30.895  1.00  0.00     0.074 A 
ATOM     13  C   UNL A   1      41.367  28.657  28.533  1.00  0.00     0.049 A 
ATOM     14  N   UNL A   1      41.785  29.419  31.609  1.00  0.00    -0.248 NA
ATOM     15  C   UNL A   1      39.782  28.272  31.670  1.00  0.00     0.031 C 
ATOM     16  C   UNL A   1      41.154  28.496  27.090  1.00  0.00     0.029 A 
ATOM     17  N   UNL A   1      42.537  27.989  28.751  1.00  0.00    -0.354 N 
ATOM     18  C   UNL A   1      41.640  28.810  32.861  1.00  0.00     0.074 A 
ATOM     19  C   UNL A   1      40.328  28.227  32.883  1.00  0.00     0.031 C 
ATOM     20  C   UNL A   1      42.007  27.563  26.619  1.00  0.00     0.029 A 
ATOM     21  C   UNL A   1      42.920  27.188  27.683  1.00  0.00     0.049 A 
ATOM     22  H   UNL A   1      43.058  28.067  29.582  1.00  0.00     0.167 HD
ATOM     23  C   UNL A   1      42.685  28.634  33.716  1.00  0.00     0.034 A 
ATOM     24  C   UNL A   1      43.888  26.245  27.674  1.00  0.00     0.034 A 
ATOM     25  C   UNL A   1      43.788  29.501  33.408  1.00  0.00     0.049 A 
ATOM     26  C   UNL A   1      44.804  26.526  28.799  1.00  0.00     0.074 A 
ATOM     27  C   UNL A   1      43.958  30.861  33.259  1.00  0.00     0.029 A 
ATOM     28  N   UNL A   1      44.918  28.925  32.884  1.00  0.00    -0.354 N 
ATOM     29  N   UNL A   1      45.602  27.557  28.846  1.00  0.00    -0.248 NA
ATOM     30  C   UNL A   1      44.612  25.825  30.056  1.00  0.00     0.031 C 
ATOM     31  C   UNL A   1      44.930  30.997  32.226  1.00  0.00     0.029 A 
ATOM     32  C   UNL A   1      45.308  29.709  31.836  1.00  0.00     0.049 A 
ATOM     33  H   UNL A   1      45.362  28.106  33.203  1.00  0.00     0.167 HD
ATOM     34  C   UNL A   1      45.662  27.889  30.190  1.00  0.00     0.074 A 
ATOM     35  C   UNL A   1      45.167  26.707  30.889  1.00  0.00     0.031 C 
ATOM     36  C   UNL A   1      45.825  29.186  30.591  1.00  0.00     0.034 A 
BRANCH  23  37
ATOM     37  C   UNL A   1      42.861  27.443  34.636  1.00  0.00     0.023 A 
ATOM     38  C   UNL A   1      42.846  27.687  36.030  1.00  0.00     0.012 A 
ATOM     39  C   UNL A   1      43.329  26.177  34.215  1.00  0.00     0.148 A 
ATOM     40  C   UNL A   1      43.335  26.750  36.948  1.00  0.00     0.002 A 
ATOM     41  C   UNL A   1      43.734  25.218  35.138  1.00  0.00     0.091 A 
ATOM     42  F   UNL A   1      43.516  25.930  32.914  1.00  0.00    -0.205 F 
ATOM     43  C   UNL A   1      43.773  25.510  36.503  1.00  0.00     0.022 A 
BRANCH  41  44
ATOM     44  S   UNL A   1      44.244  23.578  34.611  1.00  0.00     0.127 S 
ATOM     45  O   UNL A   1      44.495  22.925  35.890  1.00  0.00    -0.237 OA
ATOM     46  O   UNL A   1      43.059  23.107  33.893  1.00  0.00    -0.237 OA
ATOM     47  O   UNL A   1      45.407  23.800  33.757  1.00  0.00    -0.744 OA
ENDBRANCH  41  44
ENDBRANCH  23  37
BRANCH  24  48
ATOM     48  C   UNL A   1      44.021  25.038  26.833  1.00  0.00     0.023 A 
ATOM     49  C   UNL A   1      45.213  24.817  26.117  1.00  0.00     0.012 A 
ATOM     50  C   UNL A   1      43.081  23.986  26.912  1.00  0.00     0.148 A 
ATOM     51  C   UNL A   1      45.473  23.581  25.519  1.00  0.00     0.002 A 
ATOM     52  C   UNL A   1      43.340  22.762  26.303  1.00  0.00     0.091 A 
ATOM     53  F   UNL A   1      41.981  24.157  27.656  1.00  0.00    -0.205 F 
ATOM     54  C   UNL A   1      44.541  22.552  25.614  1.00  0.00     0.022 A 
BRANCH  52  55
ATOM     55  S   UNL A   1      42.176  21.393  26.385  1.00  0.00     0.127 S 
ATOM     56  O   UNL A   1      42.794  20.411  25.492  1.00  0.00    -0.237 OA
ATOM     57  O   UNL A   1      42.219  21.043  27.801  1.00  0.00    -0.237 OA
ATOM     58  O   UNL A   1      40.913  21.928  25.894  1.00  0.00    -0.744 OA
ENDBRANCH  52  55
ENDBRANCH  24  48
BRANCH  36  59
ATOM     59  C   UNL A   1      46.245  30.215  29.570  1.00  0.00     0.023 A 
ATOM     60  C   UNL A   1      47.601  30.468  29.282  1.00  0.00     0.012 A 
ATOM     61  C   UNL A   1      45.260  30.786  28.743  1.00  0.00     0.148 A 
ATOM     62  C   UNL A   1      47.967  31.292  28.215  1.00  0.00     0.002 A 
ATOM     63  C   UNL A   1      45.630  31.560  27.649  1.00  0.00     0.091 A 
ATOM     64  F   UNL A   1      43.970  30.536  29.019  1.00  0.00    -0.205 F 
ATOM     65  C   UNL A   1      46.983  31.826  27.389  1.00  0.00     0.022 A 
BRANCH  63  66
ATOM     66  S   UNL A   1      44.409  32.134  26.463  1.00  0.00     0.127 S 
ATOM     67  O   UNL A   1      43.521  30.979  26.352  1.00  0.00    -0.237 OA
ATOM     68  O   UNL A   1      43.824  33.293  27.139  1.00  0.00    -0.237 OA
ATOM     69  O   UNL A   1      45.164  32.473  25.262  1.00  0.00    -0.744 OA
ENDBRANCH  63  66
ENDBRANCH  36  59
ENDBRANCH  10  11
ENDBRANCH   3   5
ENDBRANCH   2   3
ENDBRANCH   1   2
BRANCH   1  70
ATOM     70  C   UNL A   1      35.166  34.229  29.521  1.00  0.00     0.274 C 
BRANCH  70  71
ATOM     71  O   UNL A   1      34.047  33.720  30.273  1.00  0.00    -0.457 OA
BRANCH  71  72
ATOM     72  C   UNL A   1      34.312  33.445  31.595  1.00  0.00     0.370 C 
ATOM     73  O   UNL A   1      34.073  32.367  32.130  1.00  0.00    -0.245 OA
BRANCH  72  74
ATOM     74  C   UNL A   1      34.817  34.723  32.326  1.00  0.00     0.329 C 
BRANCH  74  75
ATOM     75  N   UNL A   1      33.677  35.367  33.053  1.00  0.00    -0.315 N 
ATOM     76  C   UNL A   1      32.457  35.454  32.212  1.00  0.00     0.292 C 
ATOM     77  C   UNL A   1      33.971  36.742  33.523  1.00  0.00     0.292 C 
ATOM     78  H   UNL A   1      33.526  34.757  33.857  1.00  0.00     0.349 HD
ATOM     79  C   UNL A   1      32.554  36.497  31.086  1.00  0.00     0.221 C 
ATOM     80  C   UNL A   1      34.044  37.786  32.393  1.00  0.00     0.221 C 
ATOM     81  O   UNL A   1      32.839  37.796  31.612  1.00  0.00    -0.370 OA
ENDBRANCH  74  75
BRANCH  74  82
ATOM     82  C   UNL A   1      35.943  34.377  33.269  1.00  0.00     0.059 A 
ATOM     83  C   UNL A   1      35.916  34.246  34.678  1.00  0.00     0.145 A 
ATOM     84  C   UNL A   1      37.255  34.068  32.950  1.00  0.00     0.119 A 
ATOM     85  N   UNL A   1      37.079  33.836  35.190  1.00  0.00    -0.181 NA
ATOM     86  N   UNL A   1      37.895  33.729  34.117  1.00  0.00    -0.268 N 
BRANCH  86  87
ATOM     87  C   UNL A   1      39.182  33.046  34.244  1.00  0.00     0.179 C 
BRANCH  87  88
ATOM     88  C   UNL A   1      40.230  33.491  33.266  1.00  0.00    -0.027 A 
ATOM     89  C   UNL A   1      40.600  32.680  32.182  1.00  0.00     0.005 A 
ATOM     90  C   UNL A   1      40.941  34.677  33.502  1.00  0.00     0.005 A 
ATOM     91  C   UNL A   1      41.674  33.040  31.364  1.00  0.00     0.000 A 
ATOM     92  C   UNL A   1      42.015  35.031  32.686  1.00  0.00     0.000 A 
ATOM     93  C   UNL A   1      42.384  34.212  31.622  1.00  0.00     0.000 A 
ENDBRANCH  87  88
ENDBRANCH  86  87
ENDBRANCH  74  82
ENDBRANCH  72  74
ENDBRANCH  71  72
ENDBRANCH  70  71
ENDBRANCH   1  70
TORSDOF 18
ENDMDL
MODEL 3
REMARK VINA RESULT:     -12.3      1.568      2.157
REMARK SMILES O=C(OCCOC(=O)[C@H](c1cnn(Cc2ccccc2)c1)[NH+]1CCOCC1)c1ccc(-c2c3nc(c(-c4cccc(S(=O)(=O)[O-])c4F)c4ccc([nH]4)c(-c4cccc(S(=O)(=O)[O-])c4F)c4nc(c(-c5cccc(S(=O)(=O)[O-])c5F)c5ccc2[nH]5)C=C4)C=C3)cc1
REMARK SMILES IDX 4 1 3 2 2 3 1 4 28 5 29 6 90 7 30 8 89 9 31 10 32 11 33 12
REMARK SMILES IDX 83 13 34 14 88 15 82 16 84 17 35 18 87 19 81 20 80 21 36 23
REMARK SMILES IDX 68 24 48 25 67 26 49 27 52 28 66 29 85 30 50 31 51 32 65 34
REMARK SMILES IDX 86 35 53 36 37 37 38 38 46 39 39 40 41 41 47 42 40 43 42 44
REMARK SMILES IDX 43 45 44 46 45 47 69 48 70 49 78 50 71 51 73 52 79 53 72 54
REMARK SMILES IDX 74 55 75 56 76 57 77 58 54 59 55 60 63 61 56 62 58 63 64 64
REMARK SMILES IDX 57 65 59 66 60 67 61 68 62 69 5 70 6 71 7 72 8 73 9 74 22 75
REMARK SMILES IDX 23 76 27 77 24 79 26 80 25 81 10 82 11 83 21 84 12 85 13 86
REMARK SMILES IDX 14 87 15 88 16 89 20 90 17 91 19 92 18 93
REMARK H PARENT 84 22 52 33 22 78
REMARK Flexibility Score: inf
ROOT
ATOM      1  C   UNL A   1      33.025  29.898  26.154  1.00  0.00     0.275 C 
ENDROOT
BRANCH   1   2
ATOM      2  O   UNL A   1      33.451  30.154  27.506  1.00  0.00    -0.458 OA
BRANCH   2   3
ATOM      3  C   UNL A   1      34.233  31.230  27.736  1.00  0.00     0.338 C 
ATOM      4  O   UNL A   1      33.866  32.391  27.673  1.00  0.00    -0.246 OA
BRANCH   3   5
ATOM      5  C   UNL A   1      35.588  30.781  28.119  1.00  0.00     0.060 A 
ATOM      6  C   UNL A   1      35.911  29.415  28.167  1.00  0.00     0.016 A 
ATOM      7  C   UNL A   1      36.556  31.741  28.403  1.00  0.00     0.016 A 
ATOM      8  C   UNL A   1      37.181  29.010  28.549  1.00  0.00     0.010 A 
ATOM      9  C   UNL A   1      37.826  31.329  28.790  1.00  0.00     0.010 A 
ATOM     10  C   UNL A   1      38.138  29.966  28.889  1.00  0.00    -0.014 A 
BRANCH  10  11
ATOM     11  C   UNL A   1      39.459  29.498  29.319  1.00  0.00     0.031 A 
ATOM     12  C   UNL A   1      39.859  29.751  30.740  1.00  0.00     0.074 A 
ATOM     13  C   UNL A   1      40.244  28.729  28.539  1.00  0.00     0.049 A 
ATOM     14  N   UNL A   1      40.893  30.384  31.196  1.00  0.00    -0.248 NA
ATOM     15  C   UNL A   1      38.968  29.256  31.795  1.00  0.00     0.031 C 
ATOM     16  C   UNL A   1      39.912  28.141  27.237  1.00  0.00     0.029 A 
ATOM     17  N   UNL A   1      41.463  28.186  28.824  1.00  0.00    -0.354 N 
ATOM     18  C   UNL A   1      40.894  30.172  32.580  1.00  0.00     0.074 A 
ATOM     19  C   UNL A   1      39.622  29.589  32.905  1.00  0.00     0.031 C 
ATOM     20  C   UNL A   1      40.769  27.131  26.978  1.00  0.00     0.029 A 
ATOM     21  C   UNL A   1      41.793  27.114  28.006  1.00  0.00     0.049 A 
ATOM     22  H   UNL A   1      42.052  28.522  29.539  1.00  0.00     0.167 HD
ATOM     23  C   UNL A   1      42.019  30.286  33.339  1.00  0.00     0.034 A 
ATOM     24  C   UNL A   1      42.806  26.235  28.177  1.00  0.00     0.034 A 
ATOM     25  C   UNL A   1      43.041  31.048  32.679  1.00  0.00     0.049 A 
ATOM     26  C   UNL A   1      43.802  26.863  29.070  1.00  0.00     0.074 A 
ATOM     27  C   UNL A   1      43.123  32.307  32.120  1.00  0.00     0.029 A 
ATOM     28  N   UNL A   1      44.149  30.371  32.236  1.00  0.00    -0.354 N 
ATOM     29  N   UNL A   1      44.544  27.880  28.731  1.00  0.00    -0.248 NA
ATOM     30  C   UNL A   1      43.761  26.563  30.491  1.00  0.00     0.031 C 
ATOM     31  C   UNL A   1      43.990  32.152  31.000  1.00  0.00     0.029 A 
ATOM     32  C   UNL A   1      44.401  30.818  30.970  1.00  0.00     0.049 A 
ATOM     33  H   UNL A   1      44.664  29.696  32.735  1.00  0.00     0.167 HD
ATOM     34  C   UNL A   1      44.705  28.599  29.905  1.00  0.00     0.074 A 
ATOM     35  C   UNL A   1      44.340  27.667  30.967  1.00  0.00     0.031 C 
ATOM     36  C   UNL A   1      44.833  29.961  29.888  1.00  0.00     0.034 A 
BRANCH  23  37
ATOM     37  C   UNL A   1      42.341  29.427  34.545  1.00  0.00     0.023 A 
ATOM     38  C   UNL A   1      42.903  30.071  35.673  1.00  0.00     0.012 A 
ATOM     39  C   UNL A   1      42.399  28.015  34.522  1.00  0.00     0.148 A 
ATOM     40  C   UNL A   1      43.549  29.354  36.686  1.00  0.00     0.002 A 
ATOM     41  C   UNL A   1      42.968  27.303  35.574  1.00  0.00     0.091 A 
ATOM     42  F   UNL A   1      42.029  27.347  33.425  1.00  0.00    -0.205 F 
ATOM     43  C   UNL A   1      43.577  27.967  36.641  1.00  0.00     0.022 A 
BRANCH  41  44
ATOM     44  S   UNL A   1      42.964  25.506  35.589  1.00  0.00     0.127 S 
ATOM     45  O   UNL A   1      41.536  25.217  35.523  1.00  0.00    -0.237 OA
ATOM     46  O   UNL A   1      43.721  25.190  34.377  1.00  0.00    -0.237 OA
ATOM     47  O   UNL A   1      43.643  25.138  36.827  1.00  0.00    -0.744 OA
ENDBRANCH  41  44
ENDBRANCH  23  37
BRANCH  24  48
ATOM     48  C   UNL A   1      42.928  24.837  27.719  1.00  0.00     0.023 A 
ATOM     49  C   UNL A   1      41.923  23.907  28.044  1.00  0.00     0.012 A 
ATOM     50  C   UNL A   1      43.904  24.464  26.768  1.00  0.00     0.148 A 
ATOM     51  C   UNL A   1      41.874  22.655  27.425  1.00  0.00     0.002 A 
ATOM     52  C   UNL A   1      43.859  23.211  26.165  1.00  0.00     0.091 A 
ATOM     53  F   UNL A   1      44.818  25.367  26.391  1.00  0.00    -0.205 F 
ATOM     54  C   UNL A   1      42.838  22.306  26.484  1.00  0.00     0.022 A 
BRANCH  52  55
ATOM     55  S   UNL A   1      45.075  22.697  24.944  1.00  0.00     0.127 S 
ATOM     56  O   UNL A   1      46.163  22.195  25.785  1.00  0.00    -0.237 OA
ATOM     57  O   UNL A   1      44.349  21.667  24.207  1.00  0.00    -0.237 OA
ATOM     58  O   UNL A   1      45.410  23.904  24.199  1.00  0.00    -0.744 OA
ENDBRANCH  52  55
ENDBRANCH  24  48
BRANCH  36  59
ATOM     59  C   UNL A   1      45.103  30.649  28.573  1.00  0.00     0.023 A 
ATOM     60  C   UNL A   1      44.062  31.017  27.697  1.00  0.00     0.012 A 
ATOM     61  C   UNL A   1      46.404  31.116  28.310  1.00  0.00     0.148 A 
ATOM     62  C   UNL A   1      44.313  31.807  26.573  1.00  0.00     0.002 A 
ATOM     63  C   UNL A   1      46.640  31.948  27.221  1.00  0.00     0.091 A 
ATOM     64  F   UNL A   1      47.390  30.768  29.151  1.00  0.00    -0.205 F 
ATOM     65  C   UNL A   1      45.599  32.285  26.342  1.00  0.00     0.022 A 
BRANCH  63  66
ATOM     66  S   UNL A   1      48.243  32.721  26.975  1.00  0.00     0.127 S 
ATOM     67  O   UNL A   1      47.974  33.646  25.877  1.00  0.00    -0.237 OA
ATOM     68  O   UNL A   1      48.493  33.362  28.267  1.00  0.00    -0.237 OA
ATOM     69  O   UNL A   1      49.159  31.627  26.674  1.00  0.00    -0.744 OA
ENDBRANCH  63  66
ENDBRANCH  36  59
ENDBRANCH  10  11
ENDBRANCH   3   5
ENDBRANCH   2   3
ENDBRANCH   1   2
BRANCH   1  70
ATOM     70  C   UNL A   1      33.564  28.644  25.462  1.00  0.00     0.274 C 
BRANCH  70  71
ATOM     71  O   UNL A   1      33.425  27.491  26.316  1.00  0.00    -0.457 OA
BRANCH  71  72
ATOM     72  C   UNL A   1      32.184  26.899  26.295  1.00  0.00     0.370 C 
ATOM     73  O   UNL A   1      31.404  26.910  27.243  1.00  0.00    -0.245 OA
BRANCH  72  74
ATOM     74  C   UNL A   1      31.979  26.110  24.969  1.00  0.00     0.329 C 
BRANCH  74  75
ATOM     75  N   UNL A   1      31.334  24.791  25.266  1.00  0.00    -0.315 N 
ATOM     76  C   UNL A   1      32.172  23.948  26.156  1.00  0.00     0.292 C 
ATOM     77  C   UNL A   1      31.049  23.982  24.056  1.00  0.00     0.292 C 
ATOM     78  H   UNL A   1      30.457  25.046  25.720  1.00  0.00     0.349 HD
ATOM     79  C   UNL A   1      33.425  23.377  25.469  1.00  0.00     0.221 C 
ATOM     80  C   UNL A   1      32.305  23.394  23.387  1.00  0.00     0.221 C 
ATOM     81  O   UNL A   1      33.074  22.611  24.314  1.00  0.00    -0.370 OA
ENDBRANCH  74  75
BRANCH  74  82
ATOM     82  C   UNL A   1      31.151  26.918  24.000  1.00  0.00     0.059 A 
ATOM     83  C   UNL A   1      31.366  27.150  22.621  1.00  0.00     0.145 A 
ATOM     84  C   UNL A   1      29.961  27.582  24.248  1.00  0.00     0.119 A 
ATOM     85  N   UNL A   1      30.380  27.839  22.043  1.00  0.00    -0.181 NA
ATOM     86  N   UNL A   1      29.520  28.099  23.053  1.00  0.00    -0.268 N 
BRANCH  86  87
ATOM     87  C   UNL A   1      28.180  28.607  22.760  1.00  0.00     0.179 C 
BRANCH  87  88
ATOM     88  C   UNL A   1      28.119  30.072  22.440  1.00  0.00    -0.027 A 
ATOM     89  C   UNL A   1      28.033  30.519  21.112  1.00  0.00     0.005 A 
ATOM     90  C   UNL A   1      28.271  31.014  23.466  1.00  0.00     0.005 A 
ATOM     91  C   UNL A   1      28.121  31.883  20.820  1.00  0.00     0.000 A 
ATOM     92  C   UNL A   1      28.363  32.374  23.171  1.00  0.00     0.000 A 
ATOM     93  C   UNL A   1      28.293  32.807  21.848  1.00  0.00     0.000 A 
ENDBRANCH  87  88
ENDBRANCH  86  87
ENDBRANCH  74  82
ENDBRANCH  72  74
ENDBRANCH  71  72
ENDBRANCH  70  71
ENDBRANCH   1  70
TORSDOF 18
ENDMDL
