MODEL 1
REMARK VINA RESULT:     -12.2      0.000      0.000
REMARK SMILES O=C(OCCOC(=O)[C@@H]1C=C[C@H](NC(=O)[C@@H]2Cc3ccccc3O2)C1)c1ccc(-c2c3nc(c(-c4cccc(S(=O)(=O)[O-])c4F)c4ccc([nH]4)c(-c4cccc(S(=O)(=O)[O-])c4F)c4nc(c(-c5cccc(S(=O)(=O)[O-])c5F)c5ccc2[nH]5)C=C4)C=C3)cc1
REMARK SMILES IDX 4 1 3 2 2 3 1 4 26 5 27 6 88 7 28 8 87 9 29 10 30 11 31 12
REMARK SMILES IDX 81 13 32 14 86 15 80 16 82 17 33 18 85 19 79 20 78 21 34 23
REMARK SMILES IDX 66 24 46 25 65 26 47 27 50 28 64 29 83 30 48 31 49 32 63 34
REMARK SMILES IDX 84 35 51 36 35 37 36 38 44 39 37 40 39 41 45 42 38 43 40 44
REMARK SMILES IDX 41 45 42 46 43 47 67 48 68 49 76 50 69 51 71 52 77 53 70 54
REMARK SMILES IDX 72 55 73 56 74 57 75 58 52 59 53 60 61 61 54 62 56 63 62 64
REMARK SMILES IDX 55 65 57 66 58 67 59 68 60 69 5 70 6 71 7 72 8 73 9 74 10 75
REMARK SMILES IDX 25 76 11 77 12 78 13 79 14 80 15 82 16 83 17 84 24 85 18 86
REMARK SMILES IDX 23 87 19 88 22 89 20 90 21 91
REMARK H PARENT 82 22 50 33 13 81
REMARK Flexibility Score: inf
ROOT
ATOM      1  C   UNL A   1      39.010  19.659  25.888  1.00  0.00     0.275 C 
ENDROOT
BRANCH   1   2
ATOM      2  O   UNL A   1      40.295  19.159  25.482  1.00  0.00    -0.458 OA
BRANCH   2   3
ATOM      3  C   UNL A   1      41.430  19.444  26.151  1.00  0.00     0.338 C 
ATOM      4  O   UNL A   1      42.313  18.597  26.267  1.00  0.00    -0.246 OA
BRANCH   3   5
ATOM      5  C   UNL A   1      41.632  20.839  26.650  1.00  0.00     0.060 A 
ATOM      6  C   UNL A   1      41.663  21.261  27.987  1.00  0.00     0.016 A 
ATOM      7  C   UNL A   1      41.837  21.796  25.667  1.00  0.00     0.016 A 
ATOM      8  C   UNL A   1      42.027  22.581  28.329  1.00  0.00     0.010 A 
ATOM      9  C   UNL A   1      42.200  23.090  26.015  1.00  0.00     0.010 A 
ATOM     10  C   UNL A   1      42.342  23.509  27.338  1.00  0.00    -0.014 A 
BRANCH  10  11
ATOM     11  C   UNL A   1      42.840  24.899  27.574  1.00  0.00     0.031 A 
ATOM     12  C   UNL A   1      41.881  25.967  28.066  1.00  0.00     0.074 A 
ATOM     13  C   UNL A   1      44.045  25.280  27.094  1.00  0.00     0.049 A 
ATOM     14  N   UNL A   1      42.058  27.260  28.158  1.00  0.00    -0.248 NA
ATOM     15  C   UNL A   1      40.516  25.533  28.419  1.00  0.00     0.031 C 
ATOM     16  C   UNL A   1      45.013  24.414  26.416  1.00  0.00     0.029 A 
ATOM     17  N   UNL A   1      44.627  26.525  27.024  1.00  0.00    -0.354 N 
ATOM     18  C   UNL A   1      40.822  27.782  28.532  1.00  0.00     0.074 A 
ATOM     19  C   UNL A   1      39.880  26.690  28.503  1.00  0.00     0.031 C 
ATOM     20  C   UNL A   1      46.022  25.161  25.933  1.00  0.00     0.029 A 
ATOM     21  C   UNL A   1      45.806  26.552  26.311  1.00  0.00     0.049 A 
ATOM     22  H   UNL A   1      44.237  27.324  27.446  1.00  0.00     0.167 HD
ATOM     23  C   UNL A   1      40.515  29.028  28.972  1.00  0.00     0.034 A 
ATOM     24  C   UNL A   1      46.638  27.574  26.024  1.00  0.00     0.034 A 
ATOM     25  C   UNL A   1      41.499  30.061  29.126  1.00  0.00     0.049 A 
ATOM     26  C   UNL A   1      46.367  28.913  26.658  1.00  0.00     0.074 A 
ATOM     27  C   UNL A   1      41.396  31.268  29.795  1.00  0.00     0.029 A 
ATOM     28  N   UNL A   1      42.784  29.993  28.616  1.00  0.00    -0.354 N 
ATOM     29  N   UNL A   1      45.301  29.313  27.307  1.00  0.00    -0.248 NA
ATOM     30  C   UNL A   1      47.458  29.898  26.627  1.00  0.00     0.031 C 
ATOM     31  C   UNL A   1      42.631  31.922  29.702  1.00  0.00     0.029 A 
ATOM     32  C   UNL A   1      43.498  31.120  28.976  1.00  0.00     0.049 A 
ATOM     33  H   UNL A   1      43.138  29.250  28.075  1.00  0.00     0.167 HD
ATOM     34  C   UNL A   1      45.626  30.554  27.842  1.00  0.00     0.074 A 
ATOM     35  C   UNL A   1      46.979  30.851  27.417  1.00  0.00     0.031 C 
ATOM     36  C   UNL A   1      44.873  31.364  28.626  1.00  0.00     0.034 A 
BRANCH  23  37
ATOM     37  C   UNL A   1      39.114  29.266  29.489  1.00  0.00     0.023 A 
ATOM     38  C   UNL A   1      38.802  28.881  30.813  1.00  0.00     0.012 A 
ATOM     39  C   UNL A   1      38.122  29.901  28.715  1.00  0.00     0.148 A 
ATOM     40  C   UNL A   1      37.519  29.042  31.330  1.00  0.00     0.002 A 
ATOM     41  C   UNL A   1      36.859  30.117  29.261  1.00  0.00     0.091 A 
ATOM     42  F   UNL A   1      38.423  30.272  27.462  1.00  0.00    -0.205 F 
ATOM     43  C   UNL A   1      36.550  29.667  30.556  1.00  0.00     0.022 A 
BRANCH  41  44
ATOM     44  S   UNL A   1      35.562  31.023  28.406  1.00  0.00     0.127 S 
ATOM     45  O   UNL A   1      34.949  29.973  27.594  1.00  0.00    -0.237 OA
ATOM     46  O   UNL A   1      34.734  31.492  29.517  1.00  0.00    -0.237 OA
ATOM     47  O   UNL A   1      36.233  32.078  27.661  1.00  0.00    -0.744 OA
ENDBRANCH  41  44
ENDBRANCH  23  37
BRANCH  24  48
ATOM     48  C   UNL A   1      47.908  27.323  25.286  1.00  0.00     0.023 A 
ATOM     49  C   UNL A   1      49.005  26.790  25.997  1.00  0.00     0.012 A 
ATOM     50  C   UNL A   1      48.042  27.580  23.908  1.00  0.00     0.148 A 
ATOM     51  C   UNL A   1      50.222  26.553  25.359  1.00  0.00     0.002 A 
ATOM     52  C   UNL A   1      49.253  27.312  23.272  1.00  0.00     0.091 A 
ATOM     53  F   UNL A   1      46.987  28.079  23.250  1.00  0.00    -0.205 F 
ATOM     54  C   UNL A   1      50.346  26.810  23.998  1.00  0.00     0.022 A 
BRANCH  52  55
ATOM     55  S   UNL A   1      49.500  27.528  21.504  1.00  0.00     0.127 S 
ATOM     56  O   UNL A   1      50.864  27.033  21.330  1.00  0.00    -0.237 OA
ATOM     57  O   UNL A   1      48.457  26.666  20.948  1.00  0.00    -0.237 OA
ATOM     58  O   UNL A   1      49.308  28.949  21.250  1.00  0.00    -0.744 OA
ENDBRANCH  52  55
ENDBRANCH  24  48
BRANCH  36  59
ATOM     59  C   UNL A   1      45.508  32.612  29.172  1.00  0.00     0.023 A 
ATOM     60  C   UNL A   1      46.237  32.565  30.375  1.00  0.00     0.012 A 
ATOM     61  C   UNL A   1      45.464  33.810  28.430  1.00  0.00     0.148 A 
ATOM     62  C   UNL A   1      46.894  33.700  30.844  1.00  0.00     0.002 A 
ATOM     63  C   UNL A   1      46.162  34.923  28.881  1.00  0.00     0.091 A 
ATOM     64  F   UNL A   1      44.744  33.836  27.299  1.00  0.00    -0.205 F 
ATOM     65  C   UNL A   1      46.869  34.873  30.090  1.00  0.00     0.022 A 
BRANCH  63  66
ATOM     66  S   UNL A   1      46.264  36.439  27.921  1.00  0.00     0.127 S 
ATOM     67  O   UNL A   1      47.117  37.272  28.774  1.00  0.00    -0.237 OA
ATOM     68  O   UNL A   1      46.907  35.981  26.686  1.00  0.00    -0.237 OA
ATOM     69  O   UNL A   1      44.901  36.906  27.754  1.00  0.00    -0.744 OA
ENDBRANCH  63  66
ENDBRANCH  36  59
ENDBRANCH  10  11
ENDBRANCH   3   5
ENDBRANCH   2   3
ENDBRANCH   1   2
BRANCH   1  70
ATOM     70  C   UNL A   1      38.318  20.694  24.994  1.00  0.00     0.274 C 
BRANCH  70  71
ATOM     71  O   UNL A   1      37.273  21.465  25.624  1.00  0.00    -0.462 OA
BRANCH  71  72
ATOM     72  C   UNL A   1      37.570  22.786  25.785  1.00  0.00     0.312 C 
ATOM     73  O   UNL A   1      38.605  23.191  26.312  1.00  0.00    -0.252 OA
BRANCH  72  74
ATOM     74  C   UNL A   1      36.525  23.779  25.274  1.00  0.00     0.124 C 
ATOM     75  C   UNL A   1      35.222  24.028  25.937  1.00  0.00    -0.014 C 
ATOM     76  C   UNL A   1      36.088  23.390  23.858  1.00  0.00     0.048 C 
ATOM     77  C   UNL A   1      34.241  24.182  25.034  1.00  0.00    -0.006 C 
ATOM     78  C   UNL A   1      34.665  23.895  23.612  1.00  0.00     0.106 C 
BRANCH  78  79
ATOM     79  N   UNL A   1      33.684  22.946  23.092  1.00  0.00    -0.347 N 
ATOM     80  C   UNL A   1      33.015  21.827  23.453  1.00  0.00     0.261 C 
ATOM     81  H   UNL A   1      33.425  23.207  22.179  1.00  0.00     0.164 HD
ATOM     82  O   UNL A   1      32.163  21.445  22.632  1.00  0.00    -0.271 OA
BRANCH  80  83
ATOM     83  C   UNL A   1      33.199  20.997  24.724  1.00  0.00     0.266 C 
ATOM     84  C   UNL A   1      34.564  20.367  24.999  1.00  0.00     0.095 C 
ATOM     85  O   UNL A   1      32.168  19.992  24.762  1.00  0.00    -0.480 OA
ATOM     86  C   UNL A   1      34.229  18.956  24.697  1.00  0.00    -0.002 A 
ATOM     87  C   UNL A   1      32.855  18.833  24.554  1.00  0.00     0.123 A 
ATOM     88  C   UNL A   1      35.060  17.873  24.478  1.00  0.00     0.008 A 
ATOM     89  C   UNL A   1      32.252  17.665  24.149  1.00  0.00     0.047 A 
ATOM     90  C   UNL A   1      34.473  16.684  24.029  1.00  0.00     0.001 A 
ATOM     91  C   UNL A   1      33.080  16.584  23.857  1.00  0.00     0.004 A 
ENDBRANCH  80  83
ENDBRANCH  78  79
ENDBRANCH  72  74
ENDBRANCH  71  72
ENDBRANCH  70  71
ENDBRANCH   1  70
TORSDOF 16
ENDMDL
MODEL 2
REMARK VINA RESULT:     -12.2      6.205     11.651
REMARK SMILES O=C(OCCOC(=O)[C@@H]1C=C[C@H](NC(=O)[C@@H]2Cc3ccccc3O2)C1)c1ccc(-c2c3nc(c(-c4cccc(S(=O)(=O)[O-])c4F)c4ccc([nH]4)c(-c4cccc(S(=O)(=O)[O-])c4F)c4nc(c(-c5cccc(S(=O)(=O)[O-])c5F)c5ccc2[nH]5)C=C4)C=C3)cc1
REMARK SMILES IDX 4 1 3 2 2 3 1 4 26 5 27 6 88 7 28 8 87 9 29 10 30 11 31 12
REMARK SMILES IDX 81 13 32 14 86 15 80 16 82 17 33 18 85 19 79 20 78 21 34 23
REMARK SMILES IDX 66 24 46 25 65 26 47 27 50 28 64 29 83 30 48 31 49 32 63 34
REMARK SMILES IDX 84 35 51 36 35 37 36 38 44 39 37 40 39 41 45 42 38 43 40 44
REMARK SMILES IDX 41 45 42 46 43 47 67 48 68 49 76 50 69 51 71 52 77 53 70 54
REMARK SMILES IDX 72 55 73 56 74 57 75 58 52 59 53 60 61 61 54 62 56 63 62 64
REMARK SMILES IDX 55 65 57 66 58 67 59 68 60 69 5 70 6 71 7 72 8 73 9 74 10 75
REMARK SMILES IDX 25 76 11 77 12 78 13 79 14 80 15 82 16 83 17 84 24 85 18 86
REMARK SMILES IDX 23 87 19 88 22 89 20 90 21 91
REMARK H PARENT 82 22 50 33 13 81
REMARK Flexibility Score: inf
ROOT
ATOM      1  C   UNL A   1      34.812  33.806  28.691  1.00  0.00     0.275 C 
ENDROOT
BRANCH   1   2
ATOM      2  O   UNL A   1      34.632  32.469  29.190  1.00  0.00    -0.458 OA
BRANCH   2   3
ATOM      3  C   UNL A   1      34.820  31.376  28.425  1.00  0.00     0.338 C 
ATOM      4  O   UNL A   1      34.015  31.088  27.542  1.00  0.00    -0.246 OA
BRANCH   3   5
ATOM      5  C   UNL A   1      36.078  30.588  28.604  1.00  0.00     0.060 A 
ATOM      6  C   UNL A   1      37.235  30.653  27.814  1.00  0.00     0.016 A 
ATOM      7  C   UNL A   1      36.087  29.727  29.691  1.00  0.00     0.016 A 
ATOM      8  C   UNL A   1      38.415  29.976  28.188  1.00  0.00     0.010 A 
ATOM      9  C   UNL A   1      37.255  29.069  30.054  1.00  0.00     0.010 A 
ATOM     10  C   UNL A   1      38.450  29.201  29.347  1.00  0.00    -0.014 A 
BRANCH  10  11
ATOM     11  C   UNL A   1      39.661  28.523  29.904  1.00  0.00     0.031 A 
ATOM     12  C   UNL A   1      40.470  29.208  30.991  1.00  0.00     0.074 A 
ATOM     13  C   UNL A   1      40.199  27.458  29.269  1.00  0.00     0.049 A 
ATOM     14  N   UNL A   1      41.643  28.887  31.477  1.00  0.00    -0.248 NA
ATOM     15  C   UNL A   1      39.930  30.465  31.540  1.00  0.00     0.031 C 
ATOM     16  C   UNL A   1      39.646  26.795  28.085  1.00  0.00     0.029 A 
ATOM     17  N   UNL A   1      41.386  26.797  29.478  1.00  0.00    -0.354 N 
ATOM     18  C   UNL A   1      41.985  29.921  32.344  1.00  0.00     0.074 A 
ATOM     19  C   UNL A   1      40.973  30.939  32.202  1.00  0.00     0.031 C 
ATOM     20  C   UNL A   1      40.523  25.883  27.631  1.00  0.00     0.029 A 
ATOM     21  C   UNL A   1      41.679  25.854  28.517  1.00  0.00     0.049 A 
ATOM     22  H   UNL A   1      41.975  26.980  30.247  1.00  0.00     0.167 HD
ATOM     23  C   UNL A   1      42.982  29.976  33.262  1.00  0.00     0.034 A 
ATOM     24  C   UNL A   1      42.741  25.032  28.385  1.00  0.00     0.034 A 
ATOM     25  C   UNL A   1      43.894  28.890  33.484  1.00  0.00     0.049 A 
ATOM     26  C   UNL A   1      43.753  24.991  29.498  1.00  0.00     0.074 A 
ATOM     27  C   UNL A   1      44.773  28.692  34.534  1.00  0.00     0.029 A 
ATOM     28  N   UNL A   1      44.024  27.800  32.640  1.00  0.00    -0.354 N 
ATOM     29  N   UNL A   1      43.884  25.801  30.519  1.00  0.00    -0.248 NA
ATOM     30  C   UNL A   1      44.689  23.857  29.507  1.00  0.00     0.031 C 
ATOM     31  C   UNL A   1      45.423  27.468  34.329  1.00  0.00     0.029 A 
ATOM     32  C   UNL A   1      44.946  26.909  33.154  1.00  0.00     0.049 A 
ATOM     33  H   UNL A   1      43.532  27.678  31.796  1.00  0.00     0.167 HD
ATOM     34  C   UNL A   1      44.846  25.226  31.341  1.00  0.00     0.074 A 
ATOM     35  C   UNL A   1      45.285  24.012  30.683  1.00  0.00     0.031 C 
ATOM     36  C   UNL A   1      45.309  25.659  32.538  1.00  0.00     0.034 A 
BRANCH  23  37
ATOM     37  C   UNL A   1      43.007  31.159  34.204  1.00  0.00     0.023 A 
ATOM     38  C   UNL A   1      43.797  32.282  33.866  1.00  0.00     0.012 A 
ATOM     39  C   UNL A   1      42.236  31.201  35.383  1.00  0.00     0.148 A 
ATOM     40  C   UNL A   1      43.887  33.384  34.712  1.00  0.00     0.002 A 
ATOM     41  C   UNL A   1      42.282  32.333  36.193  1.00  0.00     0.091 A 
ATOM     42  F   UNL A   1      41.483  30.137  35.698  1.00  0.00    -0.205 F 
ATOM     43  C   UNL A   1      43.124  33.411  35.873  1.00  0.00     0.022 A 
BRANCH  41  44
ATOM     44  S   UNL A   1      41.249  32.539  37.650  1.00  0.00     0.127 S 
ATOM     45  O   UNL A   1      41.269  33.990  37.829  1.00  0.00    -0.237 OA
ATOM     46  O   UNL A   1      39.967  32.001  37.194  1.00  0.00    -0.237 OA
ATOM     47  O   UNL A   1      41.888  31.769  38.708  1.00  0.00    -0.744 OA
ENDBRANCH  41  44
ENDBRANCH  23  37
BRANCH  24  48
ATOM     48  C   UNL A   1      42.783  24.034  27.277  1.00  0.00     0.023 A 
ATOM     49  C   UNL A   1      43.460  24.377  26.089  1.00  0.00     0.012 A 
ATOM     50  C   UNL A   1      42.187  22.763  27.387  1.00  0.00     0.148 A 
ATOM     51  C   UNL A   1      43.514  23.489  25.015  1.00  0.00     0.002 A 
ATOM     52  C   UNL A   1      42.271  21.869  26.321  1.00  0.00     0.091 A 
ATOM     53  F   UNL A   1      41.554  22.454  28.527  1.00  0.00    -0.205 F 
ATOM     54  C   UNL A   1      42.923  22.235  25.132  1.00  0.00     0.022 A 
BRANCH  52  55
ATOM     55  S   UNL A   1      41.617  20.196  26.390  1.00  0.00     0.127 S 
ATOM     56  O   UNL A   1      40.184  20.429  26.230  1.00  0.00    -0.237 OA
ATOM     57  O   UNL A   1      42.271  19.570  25.240  1.00  0.00    -0.237 OA
ATOM     58  O   UNL A   1      42.030  19.664  27.681  1.00  0.00    -0.744 OA
ENDBRANCH  52  55
ENDBRANCH  24  48
BRANCH  36  59
ATOM     59  C   UNL A   1      46.275  24.783  33.284  1.00  0.00     0.023 A 
ATOM     60  C   UNL A   1      47.657  25.044  33.223  1.00  0.00     0.012 A 
ATOM     61  C   UNL A   1      45.796  23.759  34.127  1.00  0.00     0.148 A 
ATOM     62  C   UNL A   1      48.550  24.284  33.976  1.00  0.00     0.002 A 
ATOM     63  C   UNL A   1      46.689  23.039  34.909  1.00  0.00     0.091 A 
ATOM     64  F   UNL A   1      44.478  23.513  34.149  1.00  0.00    -0.205 F 
ATOM     65  C   UNL A   1      48.066  23.294  34.828  1.00  0.00     0.022 A 
BRANCH  63  66
ATOM     66  S   UNL A   1      46.140  21.816  36.107  1.00  0.00     0.127 S 
ATOM     67  O   UNL A   1      47.413  21.375  36.683  1.00  0.00    -0.237 OA
ATOM     68  O   UNL A   1      45.312  22.620  37.011  1.00  0.00    -0.237 OA
ATOM     69  O   UNL A   1      45.412  20.812  35.355  1.00  0.00    -0.744 OA
ENDBRANCH  63  66
ENDBRANCH  36  59
ENDBRANCH  10  11
ENDBRANCH   3   5
ENDBRANCH   2   3
ENDBRANCH   1   2
BRANCH   1  70
ATOM     70  C   UNL A   1      33.685  34.821  28.910  1.00  0.00     0.274 C 
BRANCH  70  71
ATOM     71  O   UNL A   1      32.956  34.686  30.148  1.00  0.00    -0.462 OA
BRANCH  71  72
ATOM     72  C   UNL A   1      33.193  35.680  31.050  1.00  0.00     0.312 C 
ATOM     73  O   UNL A   1      33.259  36.871  30.749  1.00  0.00    -0.252 OA
BRANCH  72  74
ATOM     74  C   UNL A   1      33.391  35.240  32.502  1.00  0.00     0.124 C 
ATOM     75  C   UNL A   1      34.335  35.887  33.445  1.00  0.00    -0.014 C 
ATOM     76  C   UNL A   1      33.856  33.780  32.543  1.00  0.00     0.048 C 
ATOM     77  C   UNL A   1      34.951  34.976  34.214  1.00  0.00    -0.006 C 
ATOM     78  C   UNL A   1      34.668  33.545  33.818  1.00  0.00     0.106 C 
BRANCH  78  79
ATOM     79  N   UNL A   1      35.975  32.907  33.686  1.00  0.00    -0.347 N 
ATOM     80  C   UNL A   1      37.212  33.142  33.190  1.00  0.00     0.261 C 
ATOM     81  H   UNL A   1      35.947  32.011  34.092  1.00  0.00     0.164 HD
ATOM     82  O   UNL A   1      38.049  32.259  33.443  1.00  0.00    -0.271 OA
BRANCH  80  83
ATOM     83  C   UNL A   1      37.673  34.343  32.362  1.00  0.00     0.266 C 
ATOM     84  C   UNL A   1      37.874  34.165  30.858  1.00  0.00     0.095 C 
ATOM     85  O   UNL A   1      38.867  34.876  32.966  1.00  0.00    -0.480 OA
ATOM     86  C   UNL A   1      39.355  34.174  30.822  1.00  0.00    -0.002 A 
ATOM     87  C   UNL A   1      39.839  34.566  32.061  1.00  0.00     0.123 A 
ATOM     88  C   UNL A   1      40.222  33.791  29.816  1.00  0.00     0.008 A 
ATOM     89  C   UNL A   1      41.178  34.553  32.374  1.00  0.00     0.047 A 
ATOM     90  C   UNL A   1      41.588  33.734  30.122  1.00  0.00     0.001 A 
ATOM     91  C   UNL A   1      42.060  34.104  31.394  1.00  0.00     0.004 A 
ENDBRANCH  80  83
ENDBRANCH  78  79
ENDBRANCH  72  74
ENDBRANCH  71  72
ENDBRANCH  70  71
ENDBRANCH   1  70
TORSDOF 16
ENDMDL
MODEL 3
REMARK VINA RESULT:     -12.1      6.557     11.827
REMARK SMILES O=C(OCCOC(=O)[C@@H]1C=C[C@H](NC(=O)[C@@H]2Cc3ccccc3O2)C1)c1ccc(-c2c3nc(c(-c4cccc(S(=O)(=O)[O-])c4F)c4ccc([nH]4)c(-c4cccc(S(=O)(=O)[O-])c4F)c4nc(c(-c5cccc(S(=O)(=O)[O-])c5F)c5ccc2[nH]5)C=C4)C=C3)cc1
REMARK SMILES IDX 4 1 3 2 2 3 1 4 26 5 27 6 88 7 28 8 87 9 29 10 30 11 31 12
REMARK SMILES IDX 81 13 32 14 86 15 80 16 82 17 33 18 85 19 79 20 78 21 34 23
REMARK SMILES IDX 66 24 46 25 65 26 47 27 50 28 64 29 83 30 48 31 49 32 63 34
REMARK SMILES IDX 84 35 51 36 35 37 36 38 44 39 37 40 39 41 45 42 38 43 40 44
REMARK SMILES IDX 41 45 42 46 43 47 67 48 68 49 76 50 69 51 71 52 77 53 70 54
REMARK SMILES IDX 72 55 73 56 74 57 75 58 52 59 53 60 61 61 54 62 56 63 62 64
REMARK SMILES IDX 55 65 57 66 58 67 59 68 60 69 5 70 6 71 7 72 8 73 9 74 10 75
REMARK SMILES IDX 25 76 11 77 12 78 13 79 14 80 15 82 16 83 17 84 24 85 18 86
REMARK SMILES IDX 23 87 19 88 22 89 20 90 21 91
REMARK H PARENT 82 22 50 33 13 81
REMARK Flexibility Score: inf
ROOT
ATOM      1  C   UNL A   1      32.767  32.458  26.853  1.00  0.00     0.275 C 
ENDROOT
BRANCH   1   2
ATOM      2  O   UNL A   1      32.268  33.534  27.666  1.00  0.00    -0.458 OA
BRANCH   2   3
ATOM      3  C   UNL A   1      33.064  34.269  28.467  1.00  0.00     0.338 C 
ATOM      4  O   UNL A   1      32.670  35.342  28.920  1.00  0.00    -0.246 OA
BRANCH   3   5
ATOM      5  C   UNL A   1      34.386  33.702  28.874  1.00  0.00     0.060 A 
ATOM      6  C   UNL A   1      35.655  34.191  28.533  1.00  0.00     0.016 A 
ATOM      7  C   UNL A   1      34.324  32.590  29.699  1.00  0.00     0.016 A 
ATOM      8  C   UNL A   1      36.824  33.661  29.119  1.00  0.00     0.010 A 
ATOM      9  C   UNL A   1      35.480  32.078  30.274  1.00  0.00     0.010 A 
ATOM     10  C   UNL A   1      36.745  32.614  30.036  1.00  0.00    -0.014 A 
BRANCH  10  11
ATOM     11  C   UNL A   1      37.895  32.038  30.800  1.00  0.00     0.031 A 
ATOM     12  C   UNL A   1      38.634  30.833  30.247  1.00  0.00     0.074 A 
ATOM     13  C   UNL A   1      38.102  32.392  32.088  1.00  0.00     0.049 A 
ATOM     14  N   UNL A   1      39.528  30.072  30.828  1.00  0.00    -0.248 NA
ATOM     15  C   UNL A   1      38.257  30.373  28.898  1.00  0.00     0.031 C 
ATOM     16  C   UNL A   1      37.346  33.402  32.834  1.00  0.00     0.029 A 
ATOM     17  N   UNL A   1      38.958  31.874  33.032  1.00  0.00    -0.354 N 
ATOM     18  C   UNL A   1      39.774  29.034  29.933  1.00  0.00     0.074 A 
ATOM     19  C   UNL A   1      38.834  29.184  28.849  1.00  0.00     0.031 C 
ATOM     20  C   UNL A   1      37.714  33.374  34.126  1.00  0.00     0.029 A 
ATOM     21  C   UNL A   1      38.769  32.383  34.298  1.00  0.00     0.049 A 
ATOM     22  H   UNL A   1      39.644  31.199  32.822  1.00  0.00     0.167 HD
ATOM     23  C   UNL A   1      40.765  28.107  29.946  1.00  0.00     0.034 A 
ATOM     24  C   UNL A   1      39.400  32.112  35.460  1.00  0.00     0.034 A 
ATOM     25  C   UNL A   1      41.775  28.065  30.965  1.00  0.00     0.049 A 
ATOM     26  C   UNL A   1      40.601  31.205  35.423  1.00  0.00     0.074 A 
ATOM     27  C   UNL A   1      42.970  27.369  30.976  1.00  0.00     0.029 A 
ATOM     28  N   UNL A   1      41.712  28.775  32.152  1.00  0.00    -0.354 N 
ATOM     29  N   UNL A   1      41.029  30.448  34.442  1.00  0.00    -0.248 NA
ATOM     30  C   UNL A   1      41.475  31.206  36.606  1.00  0.00     0.031 C 
ATOM     31  C   UNL A   1      43.638  27.675  32.169  1.00  0.00     0.029 A 
ATOM     32  C   UNL A   1      42.857  28.561  32.894  1.00  0.00     0.049 A 
ATOM     33  H   UNL A   1      40.960  29.349  32.427  1.00  0.00     0.167 HD
ATOM     34  C   UNL A   1      42.264  29.959  34.850  1.00  0.00     0.074 A 
ATOM     35  C   UNL A   1      42.503  30.485  36.179  1.00  0.00     0.031 C 
ATOM     36  C   UNL A   1      43.127  29.161  34.175  1.00  0.00     0.034 A 
BRANCH  23  37
ATOM     37  C   UNL A   1      40.902  27.206  28.739  1.00  0.00     0.023 A 
ATOM     38  C   UNL A   1      39.996  26.132  28.586  1.00  0.00     0.012 A 
ATOM     39  C   UNL A   1      41.869  27.428  27.739  1.00  0.00     0.148 A 
ATOM     40  C   UNL A   1      40.098  25.248  27.514  1.00  0.00     0.002 A 
ATOM     41  C   UNL A   1      41.923  26.578  26.636  1.00  0.00     0.091 A 
ATOM     42  F   UNL A   1      42.722  28.453  27.884  1.00  0.00    -0.205 F 
ATOM     43  C   UNL A   1      41.057  25.476  26.536  1.00  0.00     0.022 A 
BRANCH  41  44
ATOM     44  S   UNL A   1      43.035  26.842  25.248  1.00  0.00     0.127 S 
ATOM     45  O   UNL A   1      42.976  25.549  24.567  1.00  0.00    -0.237 OA
ATOM     46  O   UNL A   1      42.376  27.936  24.533  1.00  0.00    -0.237 OA
ATOM     47  O   UNL A   1      44.326  27.186  25.827  1.00  0.00    -0.744 OA
ENDBRANCH  41  44
ENDBRANCH  23  37
BRANCH  24  48
ATOM     48  C   UNL A   1      39.052  32.868  36.696  1.00  0.00     0.023 A 
ATOM     49  C   UNL A   1      39.580  34.166  36.862  1.00  0.00     0.012 A 
ATOM     50  C   UNL A   1      38.205  32.339  37.689  1.00  0.00     0.148 A 
ATOM     51  C   UNL A   1      39.301  34.910  38.008  1.00  0.00     0.002 A 
ATOM     52  C   UNL A   1      37.907  33.100  38.818  1.00  0.00     0.091 A 
ATOM     53  F   UNL A   1      37.709  31.107  37.509  1.00  0.00    -0.205 F 
ATOM     54  C   UNL A   1      38.464  34.379  38.984  1.00  0.00     0.022 A 
BRANCH  52  55
ATOM     55  S   UNL A   1      36.774  32.550  40.101  1.00  0.00     0.127 S 
ATOM     56  O   UNL A   1      35.532  32.383  39.351  1.00  0.00    -0.237 OA
ATOM     57  O   UNL A   1      37.401  31.301  40.538  1.00  0.00    -0.237 OA
ATOM     58  O   UNL A   1      36.769  33.606  41.103  1.00  0.00    -0.744 OA
ENDBRANCH  52  55
ENDBRANCH  24  48
BRANCH  36  59
ATOM     59  C   UNL A   1      44.461  28.870  34.801  1.00  0.00     0.023 A 
ATOM     60  C   UNL A   1      45.553  29.725  34.564  1.00  0.00     0.012 A 
ATOM     61  C   UNL A   1      44.598  27.799  35.708  1.00  0.00     0.148 A 
ATOM     62  C   UNL A   1      46.771  29.506  35.205  1.00  0.00     0.002 A 
ATOM     63  C   UNL A   1      45.801  27.616  36.378  1.00  0.00     0.091 A 
ATOM     64  F   UNL A   1      43.550  26.984  35.898  1.00  0.00    -0.205 F 
ATOM     65  C   UNL A   1      46.890  28.462  36.122  1.00  0.00     0.022 A 
BRANCH  63  66
ATOM     66  S   UNL A   1      46.006  26.360  37.648  1.00  0.00     0.127 S 
ATOM     67  O   UNL A   1      45.905  25.127  36.862  1.00  0.00    -0.237 OA
ATOM     68  O   UNL A   1      47.352  26.648  38.153  1.00  0.00    -0.237 OA
ATOM     69  O   UNL A   1      44.942  26.579  38.609  1.00  0.00    -0.744 OA
ENDBRANCH  63  66
ENDBRANCH  36  59
ENDBRANCH  10  11
ENDBRANCH   3   5
ENDBRANCH   2   3
ENDBRANCH   1   2
BRANCH   1  70
ATOM     70  C   UNL A   1      32.282  31.035  27.155  1.00  0.00     0.274 C 
BRANCH  70  71
ATOM     71  O   UNL A   1      32.804  30.002  26.293  1.00  0.00    -0.462 OA
BRANCH  71  72
ATOM     72  C   UNL A   1      33.673  29.147  26.904  1.00  0.00     0.312 C 
ATOM     73  O   UNL A   1      34.629  29.519  27.583  1.00  0.00    -0.252 OA
BRANCH  72  74
ATOM     74  C   UNL A   1      33.408  27.655  26.697  1.00  0.00     0.124 C 
ATOM     75  C   UNL A   1      33.682  26.930  25.432  1.00  0.00    -0.014 C 
ATOM     76  C   UNL A   1      31.921  27.356  26.914  1.00  0.00     0.048 C 
ATOM     77  C   UNL A   1      32.713  26.041  25.165  1.00  0.00    -0.006 C 
ATOM     78  C   UNL A   1      31.530  26.122  26.100  1.00  0.00     0.106 C 
BRANCH  78  79
ATOM     79  N   UNL A   1      30.354  26.217  25.240  1.00  0.00    -0.347 N 
ATOM     80  C   UNL A   1      29.891  26.899  24.167  1.00  0.00     0.261 C 
ATOM     81  H   UNL A   1      29.673  25.571  25.539  1.00  0.00     0.164 HD
ATOM     82  O   UNL A   1      28.796  26.504  23.733  1.00  0.00    -0.271 OA
BRANCH  80  83
ATOM     83  C   UNL A   1      30.550  28.084  23.459  1.00  0.00     0.266 C 
ATOM     84  C   UNL A   1      30.714  29.398  24.222  1.00  0.00     0.095 C 
ATOM     85  O   UNL A   1      29.858  28.311  22.217  1.00  0.00    -0.480 OA
ATOM     86  C   UNL A   1      29.662  30.189  23.543  1.00  0.00    -0.002 A 
ATOM     87  C   UNL A   1      29.213  29.493  22.431  1.00  0.00     0.123 A 
ATOM     88  C   UNL A   1      29.076  31.387  23.909  1.00  0.00     0.008 A 
ATOM     89  C   UNL A   1      28.151  29.918  21.667  1.00  0.00     0.047 A 
ATOM     90  C   UNL A   1      27.969  31.821  23.169  1.00  0.00     0.001 A 
ATOM     91  C   UNL A   1      27.505  31.087  22.062  1.00  0.00     0.004 A 
ENDBRANCH  80  83
ENDBRANCH  78  79
ENDBRANCH  72  74
ENDBRANCH  71  72
ENDBRANCH  70  71
ENDBRANCH   1  70
TORSDOF 16
ENDMDL
