MODEL 1
REMARK VINA RESULT:     -11.6      0.000      0.000
REMARK SMILES CC(C)([NH2+]C[C@@H]1COc2ccccc21)C(=O)OCCOC(=O)c1ccc(-c2c3nc(c(-c4cccc(S(=O)(=O)[O-])c4F)c4ccc([nH]4)c(-c4cccc(S(=O)(=O)[O-])c4F)c4nc(c(-c5cccc(S(=O)(=O)[O-])c5F)c5ccc2[nH]5)C=C4)C=C3)cc1
REMARK SMILES IDX 18 1 17 2 15 3 16 4 2 5 1 6 3 7 4 8 5 11 6 12 7 13 14 14
REMARK SMILES IDX 8 15 9 16 13 17 10 18 12 19 11 20 19 21 20 22 21 23 22 24
REMARK SMILES IDX 23 25 24 26 85 27 25 28 84 29 26 30 27 31 28 32 78 33 29 34
REMARK SMILES IDX 83 35 77 36 79 37 30 38 82 39 76 40 75 41 31 43 63 44 43 45
REMARK SMILES IDX 62 46 44 47 47 48 61 49 80 50 45 51 46 52 60 54 81 55 48 56
REMARK SMILES IDX 32 57 33 58 41 59 34 60 36 61 42 62 35 63 37 64 38 65 39 66
REMARK SMILES IDX 40 67 64 68 65 69 73 70 66 71 68 72 74 73 67 74 69 75 70 76
REMARK SMILES IDX 71 77 72 78 49 79 50 80 58 81 51 82 53 83 59 84 52 85 54 86
REMARK SMILES IDX 55 87 56 88 57 89
REMARK H PARENT 4 9 4 10 79 42 47 53
REMARK Flexibility Score: inf
ROOT
ATOM      1  C   UNL A   1      31.291  29.326  24.348  1.00  0.00     0.274 C 
ENDROOT
BRANCH   1   2
ATOM      2  O   UNL A   1      32.027  28.337  23.592  1.00  0.00    -0.457 OA
BRANCH   2   3
ATOM      3  C   UNL A   1      31.301  27.403  22.915  1.00  0.00     0.367 C 
ATOM      4  O   UNL A   1      30.534  27.669  21.997  1.00  0.00    -0.245 OA
BRANCH   3   5
ATOM      5  C   UNL A   1      31.532  25.960  23.437  1.00  0.00     0.188 C 
ATOM      6  C   UNL A   1      30.283  25.540  24.235  1.00  0.00     0.092 C 
ATOM      7  C   UNL A   1      32.706  25.912  24.436  1.00  0.00     0.092 C 
BRANCH   5   8
ATOM      8  N   UNL A   1      31.696  24.944  22.368  1.00  0.00    -0.332 N 
ATOM      9  H   UNL A   1      31.384  25.382  21.502  1.00  0.00     0.347 HD
ATOM     10  H   UNL A   1      31.164  24.152  22.730  1.00  0.00     0.347 HD
BRANCH   8  11
ATOM     11  C   UNL A   1      33.007  24.347  22.084  1.00  0.00     0.273 C 
BRANCH  11  12
ATOM     12  C   UNL A   1      33.244  22.895  22.506  1.00  0.00     0.116 C 
ATOM     13  C   UNL A   1      32.155  22.288  23.407  1.00  0.00     0.244 C 
ATOM     14  C   UNL A   1      34.399  22.615  23.413  1.00  0.00     0.006 A 
ATOM     15  O   UNL A   1      32.736  21.175  24.124  1.00  0.00    -0.492 OA
ATOM     16  C   UNL A   1      34.048  21.552  24.240  1.00  0.00     0.123 A 
ATOM     17  C   UNL A   1      35.684  23.125  23.442  1.00  0.00     0.008 A 
ATOM     18  C   UNL A   1      34.951  20.926  25.068  1.00  0.00     0.047 A 
ATOM     19  C   UNL A   1      36.610  22.525  24.302  1.00  0.00     0.001 A 
ATOM     20  C   UNL A   1      36.252  21.422  25.096  1.00  0.00     0.004 A 
ENDBRANCH  11  12
ENDBRANCH   8  11
ENDBRANCH   5   8
ENDBRANCH   3   5
ENDBRANCH   2   3
ENDBRANCH   1   2
BRANCH   1  21
ATOM     21  C   UNL A   1      31.778  29.343  25.791  1.00  0.00     0.275 C 
BRANCH  21  22
ATOM     22  O   UNL A   1      33.027  30.045  25.815  1.00  0.00    -0.458 OA
BRANCH  22  23
ATOM     23  C   UNL A   1      33.141  31.039  26.720  1.00  0.00     0.338 C 
ATOM     24  O   UNL A   1      32.328  31.911  26.987  1.00  0.00    -0.246 OA
BRANCH  23  25
ATOM     25  C   UNL A   1      34.419  30.857  27.421  1.00  0.00     0.060 A 
ATOM     26  C   UNL A   1      34.768  29.579  27.860  1.00  0.00     0.016 A 
ATOM     27  C   UNL A   1      35.240  31.945  27.696  1.00  0.00     0.016 A 
ATOM     28  C   UNL A   1      35.900  29.388  28.639  1.00  0.00     0.010 A 
ATOM     29  C   UNL A   1      36.440  31.731  28.379  1.00  0.00     0.010 A 
ATOM     30  C   UNL A   1      36.774  30.453  28.869  1.00  0.00    -0.014 A 
BRANCH  30  31
ATOM     31  C   UNL A   1      38.052  30.234  29.594  1.00  0.00     0.031 A 
ATOM     32  C   UNL A   1      39.108  29.349  28.995  1.00  0.00     0.074 A 
ATOM     33  C   UNL A   1      38.239  30.788  30.809  1.00  0.00     0.049 A 
ATOM     34  N   UNL A   1      40.158  28.820  29.563  1.00  0.00    -0.248 NA
ATOM     35  C   UNL A   1      38.950  28.997  27.574  1.00  0.00     0.031 C 
ATOM     36  C   UNL A   1      37.302  31.691  31.483  1.00  0.00     0.029 A 
ATOM     37  N   UNL A   1      39.267  30.652  31.708  1.00  0.00    -0.354 N 
ATOM     38  C   UNL A   1      40.737  28.004  28.599  1.00  0.00     0.074 A 
ATOM     39  C   UNL A   1      39.938  28.130  27.399  1.00  0.00     0.031 C 
ATOM     40  C   UNL A   1      37.797  32.032  32.680  1.00  0.00     0.029 A 
ATOM     41  C   UNL A   1      39.034  31.295  32.903  1.00  0.00     0.049 A 
ATOM     42  H   UNL A   1      40.090  30.146  31.518  1.00  0.00     0.167 HD
ATOM     43  C   UNL A   1      41.834  27.220  28.712  1.00  0.00     0.034 A 
ATOM     44  C   UNL A   1      39.699  31.246  34.073  1.00  0.00     0.034 A 
ATOM     45  C   UNL A   1      42.659  27.166  29.889  1.00  0.00     0.049 A 
ATOM     46  C   UNL A   1      40.909  30.363  34.174  1.00  0.00     0.074 A 
ATOM     47  C   UNL A   1      43.826  26.451  30.091  1.00  0.00     0.029 A 
ATOM     48  N   UNL A   1      42.406  27.861  31.063  1.00  0.00    -0.354 N 
ATOM     49  N   UNL A   1      41.469  29.627  33.246  1.00  0.00    -0.248 NA
ATOM     50  C   UNL A   1      41.576  30.300  35.482  1.00  0.00     0.031 C 
ATOM     51  C   UNL A   1      44.273  26.705  31.393  1.00  0.00     0.029 A 
ATOM     52  C   UNL A   1      43.388  27.584  31.998  1.00  0.00     0.049 A 
ATOM     53  H   UNL A   1      41.640  28.462  31.209  1.00  0.00     0.167 HD
ATOM     54  C   UNL A   1      42.556  29.011  33.854  1.00  0.00     0.074 A 
ATOM     55  C   UNL A   1      42.596  29.492  35.221  1.00  0.00     0.031 C 
ATOM     56  C   UNL A   1      43.425  28.108  33.340  1.00  0.00     0.034 A 
BRANCH  43  57
ATOM     57  C   UNL A   1      42.216  26.371  27.532  1.00  0.00     0.023 A 
ATOM     58  C   UNL A   1      42.954  26.933  26.472  1.00  0.00     0.012 A 
ATOM     59  C   UNL A   1      41.887  25.001  27.496  1.00  0.00     0.148 A 
ATOM     60  C   UNL A   1      43.339  26.151  25.382  1.00  0.00     0.002 A 
ATOM     61  C   UNL A   1      42.304  24.220  26.425  1.00  0.00     0.091 A 
ATOM     62  F   UNL A   1      41.161  24.491  28.501  1.00  0.00    -0.205 F 
ATOM     63  C   UNL A   1      43.023  24.794  25.364  1.00  0.00     0.022 A 
BRANCH  61  64
ATOM     64  S   UNL A   1      42.000  22.450  26.342  1.00  0.00     0.127 S 
ATOM     65  O   UNL A   1      42.603  21.988  27.591  1.00  0.00    -0.237 OA
ATOM     66  O   UNL A   1      40.539  22.388  26.312  1.00  0.00    -0.237 OA
ATOM     67  O   UNL A   1      42.650  21.991  25.123  1.00  0.00    -0.744 OA
ENDBRANCH  61  64
ENDBRANCH  43  57
BRANCH  44  68
ATOM     68  C   UNL A   1      39.213  32.044  35.235  1.00  0.00     0.023 A 
ATOM     69  C   UNL A   1      38.352  31.446  36.172  1.00  0.00     0.012 A 
ATOM     70  C   UNL A   1      39.654  33.365  35.455  1.00  0.00     0.148 A 
ATOM     71  C   UNL A   1      37.931  32.150  37.302  1.00  0.00     0.002 A 
ATOM     72  C   UNL A   1      39.283  34.038  36.613  1.00  0.00     0.091 A 
ATOM     73  F   UNL A   1      40.451  33.933  34.537  1.00  0.00    -0.205 F 
ATOM     74  C   UNL A   1      38.410  33.437  37.531  1.00  0.00     0.022 A 
BRANCH  72  75
ATOM     75  S   UNL A   1      39.988  35.632  37.051  1.00  0.00     0.127 S 
ATOM     76  O   UNL A   1      41.405  35.305  37.187  1.00  0.00    -0.237 OA
ATOM     77  O   UNL A   1      39.654  36.450  35.884  1.00  0.00    -0.237 OA
ATOM     78  O   UNL A   1      39.303  36.032  38.273  1.00  0.00    -0.744 OA
ENDBRANCH  72  75
ENDBRANCH  44  68
BRANCH  56  79
ATOM     79  C   UNL A   1      44.489  27.578  34.259  1.00  0.00     0.023 A 
ATOM     80  C   UNL A   1      45.674  28.318  34.437  1.00  0.00     0.012 A 
ATOM     81  C   UNL A   1      44.287  26.398  34.999  1.00  0.00     0.148 A 
ATOM     82  C   UNL A   1      46.655  27.878  35.324  1.00  0.00     0.002 A 
ATOM     83  C   UNL A   1      45.251  25.987  35.911  1.00  0.00     0.091 A 
ATOM     84  F   UNL A   1      43.159  25.701  34.796  1.00  0.00    -0.205 F 
ATOM     85  C   UNL A   1      46.438  26.721  36.069  1.00  0.00     0.022 A 
BRANCH  83  86
ATOM     86  S   UNL A   1      45.020  24.557  36.973  1.00  0.00     0.127 S 
ATOM     87  O   UNL A   1      46.320  24.465  37.635  1.00  0.00    -0.237 OA
ATOM     88  O   UNL A   1      43.921  24.985  37.839  1.00  0.00    -0.237 OA
ATOM     89  O   UNL A   1      44.690  23.450  36.086  1.00  0.00    -0.744 OA
ENDBRANCH  83  86
ENDBRANCH  56  79
ENDBRANCH  30  31
ENDBRANCH  23  25
ENDBRANCH  22  23
ENDBRANCH  21  22
ENDBRANCH   1  21
TORSDOF 17
ENDMDL
MODEL 2
REMARK VINA RESULT:     -11.5      4.850      9.985
REMARK SMILES CC(C)([NH2+]C[C@@H]1COc2ccccc21)C(=O)OCCOC(=O)c1ccc(-c2c3nc(c(-c4cccc(S(=O)(=O)[O-])c4F)c4ccc([nH]4)c(-c4cccc(S(=O)(=O)[O-])c4F)c4nc(c(-c5cccc(S(=O)(=O)[O-])c5F)c5ccc2[nH]5)C=C4)C=C3)cc1
REMARK SMILES IDX 18 1 17 2 15 3 16 4 2 5 1 6 3 7 4 8 5 11 6 12 7 13 14 14
REMARK SMILES IDX 8 15 9 16 13 17 10 18 12 19 11 20 19 21 20 22 21 23 22 24
REMARK SMILES IDX 23 25 24 26 85 27 25 28 84 29 26 30 27 31 28 32 78 33 29 34
REMARK SMILES IDX 83 35 77 36 79 37 30 38 82 39 76 40 75 41 31 43 63 44 43 45
REMARK SMILES IDX 62 46 44 47 47 48 61 49 80 50 45 51 46 52 60 54 81 55 48 56
REMARK SMILES IDX 32 57 33 58 41 59 34 60 36 61 42 62 35 63 37 64 38 65 39 66
REMARK SMILES IDX 40 67 64 68 65 69 73 70 66 71 68 72 74 73 67 74 69 75 70 76
REMARK SMILES IDX 71 77 72 78 49 79 50 80 58 81 51 82 53 83 59 84 52 85 54 86
REMARK SMILES IDX 55 87 56 88 57 89
REMARK H PARENT 4 9 4 10 79 42 47 53
REMARK Flexibility Score: inf
ROOT
ATOM      1  C   UNL A   1      35.018  20.400  24.990  1.00  0.00     0.274 C 
ENDROOT
BRANCH   1   2
ATOM      2  O   UNL A   1      34.044  21.006  25.868  1.00  0.00    -0.457 OA
BRANCH   2   3
ATOM      3  C   UNL A   1      32.753  21.050  25.432  1.00  0.00     0.367 C 
ATOM      4  O   UNL A   1      32.075  20.054  25.206  1.00  0.00    -0.245 OA
BRANCH   3   5
ATOM      5  C   UNL A   1      32.228  22.497  25.234  1.00  0.00     0.188 C 
ATOM      6  C   UNL A   1      33.155  23.448  26.013  1.00  0.00     0.092 C 
ATOM      7  C   UNL A   1      30.827  22.669  25.858  1.00  0.00     0.092 C 
BRANCH   5   8
ATOM      8  N   UNL A   1      32.248  22.964  23.826  1.00  0.00    -0.332 N 
ATOM      9  H   UNL A   1      32.180  22.131  23.243  1.00  0.00     0.347 HD
ATOM     10  H   UNL A   1      33.106  23.514  23.787  1.00  0.00     0.347 HD
BRANCH   8  11
ATOM     11  C   UNL A   1      31.240  23.907  23.324  1.00  0.00     0.273 C 
BRANCH  11  12
ATOM     12  C   UNL A   1      31.727  25.169  22.609  1.00  0.00     0.116 C 
ATOM     13  C   UNL A   1      32.939  24.972  21.683  1.00  0.00     0.244 C 
ATOM     14  C   UNL A   1      32.319  26.257  23.444  1.00  0.00     0.006 A 
ATOM     15  O   UNL A   1      33.584  26.255  21.509  1.00  0.00    -0.492 OA
ATOM     16  C   UNL A   1      33.310  26.884  22.695  1.00  0.00     0.123 A 
ATOM     17  C   UNL A   1      31.955  26.763  24.679  1.00  0.00     0.008 A 
ATOM     18  C   UNL A   1      33.927  28.045  23.102  1.00  0.00     0.047 A 
ATOM     19  C   UNL A   1      32.595  27.924  25.129  1.00  0.00     0.001 A 
ATOM     20  C   UNL A   1      33.561  28.570  24.339  1.00  0.00     0.004 A 
ENDBRANCH  11  12
ENDBRANCH   8  11
ENDBRANCH   5   8
ENDBRANCH   3   5
ENDBRANCH   2   3
ENDBRANCH   1   2
BRANCH   1  21
ATOM     21  C   UNL A   1      36.068  21.429  24.591  1.00  0.00     0.275 C 
BRANCH  21  22
ATOM     22  O   UNL A   1      36.803  21.773  25.771  1.00  0.00    -0.458 OA
BRANCH  22  23
ATOM     23  C   UNL A   1      38.090  21.367  25.818  1.00  0.00     0.338 C 
ATOM     24  O   UNL A   1      38.557  20.304  25.436  1.00  0.00    -0.246 OA
BRANCH  23  25
ATOM     25  C   UNL A   1      38.887  22.478  26.353  1.00  0.00     0.060 A 
ATOM     26  C   UNL A   1      38.490  23.786  26.071  1.00  0.00     0.016 A 
ATOM     27  C   UNL A   1      40.050  22.236  27.074  1.00  0.00     0.016 A 
ATOM     28  C   UNL A   1      39.286  24.859  26.444  1.00  0.00     0.010 A 
ATOM     29  C   UNL A   1      40.788  23.321  27.552  1.00  0.00     0.010 A 
ATOM     30  C   UNL A   1      40.421  24.642  27.229  1.00  0.00    -0.014 A 
BRANCH  30  31
ATOM     31  C   UNL A   1      41.212  25.791  27.741  1.00  0.00     0.031 A 
ATOM     32  C   UNL A   1      40.545  26.839  28.585  1.00  0.00     0.074 A 
ATOM     33  C   UNL A   1      42.512  25.916  27.404  1.00  0.00     0.049 A 
ATOM     34  N   UNL A   1      40.970  28.032  28.904  1.00  0.00    -0.248 NA
ATOM     35  C   UNL A   1      39.215  26.509  29.125  1.00  0.00     0.031 C 
ATOM     36  C   UNL A   1      43.280  24.949  26.615  1.00  0.00     0.029 A 
ATOM     37  N   UNL A   1      43.411  26.922  27.656  1.00  0.00    -0.354 N 
ATOM     38  C   UNL A   1      39.929  28.627  29.606  1.00  0.00     0.074 A 
ATOM     39  C   UNL A   1      38.862  27.654  29.691  1.00  0.00     0.031 C 
ATOM     40  C   UNL A   1      44.531  25.402  26.453  1.00  0.00     0.029 A 
ATOM     41  C   UNL A   1      44.626  26.733  27.036  1.00  0.00     0.049 A 
ATOM     42  H   UNL A   1      43.208  27.700  28.223  1.00  0.00     0.167 HD
ATOM     43  C   UNL A   1      39.873  29.876  30.126  1.00  0.00     0.034 A 
ATOM     44  C   UNL A   1      45.677  27.563  26.891  1.00  0.00     0.034 A 
ATOM     45  C   UNL A   1      40.972  30.803  30.097  1.00  0.00     0.049 A 
ATOM     46  C   UNL A   1      45.588  28.944  27.471  1.00  0.00     0.074 A 
ATOM     47  C   UNL A   1      41.044  32.071  30.645  1.00  0.00     0.029 A 
ATOM     48  N   UNL A   1      42.197  30.557  29.492  1.00  0.00    -0.354 N 
ATOM     49  N   UNL A   1      44.614  29.483  28.164  1.00  0.00    -0.248 NA
ATOM     50  C   UNL A   1      46.735  29.833  27.246  1.00  0.00     0.031 C 
ATOM     51  C   UNL A   1      42.310  32.597  30.360  1.00  0.00     0.029 A 
ATOM     52  C   UNL A   1      43.027  31.653  29.641  1.00  0.00     0.049 A 
ATOM     53  H   UNL A   1      42.438  29.725  29.023  1.00  0.00     0.167 HD
ATOM     54  C   UNL A   1      45.030  30.774  28.461  1.00  0.00     0.074 A 
ATOM     55  C   UNL A   1      46.359  30.923  27.904  1.00  0.00     0.031 C 
ATOM     56  C   UNL A   1      44.362  31.760  29.110  1.00  0.00     0.034 A 
BRANCH  43  57
ATOM     57  C   UNL A   1      38.592  30.307  30.783  1.00  0.00     0.023 A 
ATOM     58  C   UNL A   1      38.378  30.038  32.149  1.00  0.00     0.012 A 
ATOM     59  C   UNL A   1      37.619  31.025  30.058  1.00  0.00     0.148 A 
ATOM     60  C   UNL A   1      37.204  30.455  32.779  1.00  0.00     0.002 A 
ATOM     61  C   UNL A   1      36.469  31.469  30.701  1.00  0.00     0.091 A 
ATOM     62  F   UNL A   1      37.829  31.247  28.753  1.00  0.00    -0.205 F 
ATOM     63  C   UNL A   1      36.256  31.178  32.058  1.00  0.00     0.022 A 
BRANCH  61  64
ATOM     64  S   UNL A   1      35.221  32.462  29.872  1.00  0.00     0.127 S 
ATOM     65  O   UNL A   1      34.270  32.704  30.955  1.00  0.00    -0.237 OA
ATOM     66  O   UNL A   1      35.986  33.638  29.458  1.00  0.00    -0.237 OA
ATOM     67  O   UNL A   1      34.727  31.644  28.773  1.00  0.00    -0.744 OA
ENDBRANCH  61  64
ENDBRANCH  43  57
BRANCH  44  68
ATOM     68  C   UNL A   1      46.885  27.103  26.147  1.00  0.00     0.023 A 
ATOM     69  C   UNL A   1      47.014  27.412  24.781  1.00  0.00     0.012 A 
ATOM     70  C   UNL A   1      47.935  26.426  26.799  1.00  0.00     0.148 A 
ATOM     71  C   UNL A   1      48.162  27.048  24.075  1.00  0.00     0.002 A 
ATOM     72  C   UNL A   1      49.102  26.122  26.106  1.00  0.00     0.091 A 
ATOM     73  F   UNL A   1      47.786  26.111  28.094  1.00  0.00    -0.205 F 
ATOM     74  C   UNL A   1      49.212  26.421  24.741  1.00  0.00     0.022 A 
BRANCH  72  75
ATOM     75  S   UNL A   1      50.553  25.462  26.937  1.00  0.00     0.127 S 
ATOM     76  O   UNL A   1      51.459  25.226  25.816  1.00  0.00    -0.237 OA
ATOM     77  O   UNL A   1      50.937  26.567  27.816  1.00  0.00    -0.237 OA
ATOM     78  O   UNL A   1      50.084  24.277  27.643  1.00  0.00    -0.744 OA
ENDBRANCH  72  75
ENDBRANCH  44  68
BRANCH  56  79
ATOM     79  C   UNL A   1      45.058  33.085  29.248  1.00  0.00     0.023 A 
ATOM     80  C   UNL A   1      45.863  33.324  30.378  1.00  0.00     0.012 A 
ATOM     81  C   UNL A   1      44.976  34.056  28.232  1.00  0.00     0.148 A 
ATOM     82  C   UNL A   1      46.562  34.523  30.506  1.00  0.00     0.002 A 
ATOM     83  C   UNL A   1      45.707  35.231  28.347  1.00  0.00     0.091 A 
ATOM     84  F   UNL A   1      44.186  33.812  27.176  1.00  0.00    -0.205 F 
ATOM     85  C   UNL A   1      46.494  35.469  29.486  1.00  0.00     0.022 A 
BRANCH  83  86
ATOM     86  S   UNL A   1      45.747  36.469  27.046  1.00  0.00     0.127 S 
ATOM     87  O   UNL A   1      44.354  36.911  27.014  1.00  0.00    -0.237 OA
ATOM     88  O   UNL A   1      46.689  37.453  27.581  1.00  0.00    -0.237 OA
ATOM     89  O   UNL A   1      46.213  35.778  25.852  1.00  0.00    -0.744 OA
ENDBRANCH  83  86
ENDBRANCH  56  79
ENDBRANCH  30  31
ENDBRANCH  23  25
ENDBRANCH  22  23
ENDBRANCH  21  22
ENDBRANCH   1  21
TORSDOF 17
ENDMDL
MODEL 3
REMARK VINA RESULT:     -11.3      1.677      2.180
REMARK SMILES CC(C)([NH2+]C[C@@H]1COc2ccccc21)C(=O)OCCOC(=O)c1ccc(-c2c3nc(c(-c4cccc(S(=O)(=O)[O-])c4F)c4ccc([nH]4)c(-c4cccc(S(=O)(=O)[O-])c4F)c4nc(c(-c5cccc(S(=O)(=O)[O-])c5F)c5ccc2[nH]5)C=C4)C=C3)cc1
REMARK SMILES IDX 18 1 17 2 15 3 16 4 2 5 1 6 3 7 4 8 5 11 6 12 7 13 14 14
REMARK SMILES IDX 8 15 9 16 13 17 10 18 12 19 11 20 19 21 20 22 21 23 22 24
REMARK SMILES IDX 23 25 24 26 85 27 25 28 84 29 26 30 27 31 28 32 78 33 29 34
REMARK SMILES IDX 83 35 77 36 79 37 30 38 82 39 76 40 75 41 31 43 63 44 43 45
REMARK SMILES IDX 62 46 44 47 47 48 61 49 80 50 45 51 46 52 60 54 81 55 48 56
REMARK SMILES IDX 32 57 33 58 41 59 34 60 36 61 42 62 35 63 37 64 38 65 39 66
REMARK SMILES IDX 40 67 64 68 65 69 73 70 66 71 68 72 74 73 67 74 69 75 70 76
REMARK SMILES IDX 71 77 72 78 49 79 50 80 58 81 51 82 53 83 59 84 52 85 54 86
REMARK SMILES IDX 55 87 56 88 57 89
REMARK H PARENT 4 9 4 10 79 42 47 53
REMARK Flexibility Score: inf
ROOT
ATOM      1  C   UNL A   1      31.519  29.645  24.487  1.00  0.00     0.274 C 
ENDROOT
BRANCH   1   2
ATOM      2  O   UNL A   1      31.001  28.332  24.176  1.00  0.00    -0.457 OA
BRANCH   2   3
ATOM      3  C   UNL A   1      31.103  27.911  22.883  1.00  0.00     0.367 C 
ATOM      4  O   UNL A   1      30.311  28.219  22.001  1.00  0.00    -0.245 OA
BRANCH   3   5
ATOM      5  C   UNL A   1      32.323  26.982  22.642  1.00  0.00     0.188 C 
ATOM      6  C   UNL A   1      33.492  27.855  22.151  1.00  0.00     0.092 C 
ATOM      7  C   UNL A   1      32.040  25.978  21.505  1.00  0.00     0.092 C 
BRANCH   5   8
ATOM      8  N   UNL A   1      32.811  26.288  23.860  1.00  0.00    -0.332 N 
ATOM      9  H   UNL A   1      32.022  25.755  24.224  1.00  0.00     0.347 HD
ATOM     10  H   UNL A   1      33.177  27.057  24.422  1.00  0.00     0.347 HD
BRANCH   8  11
ATOM     11  C   UNL A   1      33.948  25.363  23.802  1.00  0.00     0.273 C 
BRANCH  11  12
ATOM     12  C   UNL A   1      34.575  24.907  25.121  1.00  0.00     0.116 C 
ATOM     13  C   UNL A   1      35.832  24.031  24.982  1.00  0.00     0.244 C 
ATOM     14  C   UNL A   1      33.793  23.960  25.972  1.00  0.00     0.006 A 
ATOM     15  O   UNL A   1      35.989  23.276  26.206  1.00  0.00    -0.492 OA
ATOM     16  C   UNL A   1      34.694  23.126  26.627  1.00  0.00     0.123 A 
ATOM     17  C   UNL A   1      32.444  23.900  26.272  1.00  0.00     0.008 A 
ATOM     18  C   UNL A   1      34.313  22.259  27.626  1.00  0.00     0.047 A 
ATOM     19  C   UNL A   1      32.030  23.000  27.261  1.00  0.00     0.001 A 
ATOM     20  C   UNL A   1      32.959  22.198  27.945  1.00  0.00     0.004 A 
ENDBRANCH  11  12
ENDBRANCH   8  11
ENDBRANCH   5   8
ENDBRANCH   3   5
ENDBRANCH   2   3
ENDBRANCH   1   2
BRANCH   1  21
ATOM     21  C   UNL A   1      31.751  29.769  25.987  1.00  0.00     0.275 C 
BRANCH  21  22
ATOM     22  O   UNL A   1      33.120  30.145  26.180  1.00  0.00    -0.458 OA
BRANCH  22  23
ATOM     23  C   UNL A   1      33.349  31.170  27.028  1.00  0.00     0.338 C 
ATOM     24  O   UNL A   1      32.633  32.135  27.251  1.00  0.00    -0.246 OA
BRANCH  23  25
ATOM     25  C   UNL A   1      34.610  30.895  27.728  1.00  0.00     0.060 A 
ATOM     26  C   UNL A   1      35.485  31.954  27.977  1.00  0.00     0.016 A 
ATOM     27  C   UNL A   1      34.957  29.597  28.083  1.00  0.00     0.016 A 
ATOM     28  C   UNL A   1      36.741  31.717  28.515  1.00  0.00     0.010 A 
ATOM     29  C   UNL A   1      36.173  29.376  28.734  1.00  0.00     0.010 A 
ATOM     30  C   UNL A   1      37.083  30.431  28.943  1.00  0.00    -0.014 A 
BRANCH  30  31
ATOM     31  C   UNL A   1      38.374  30.188  29.636  1.00  0.00     0.031 A 
ATOM     32  C   UNL A   1      39.385  29.261  29.026  1.00  0.00     0.074 A 
ATOM     33  C   UNL A   1      38.612  30.761  30.834  1.00  0.00     0.049 A 
ATOM     34  N   UNL A   1      40.435  28.712  29.575  1.00  0.00    -0.248 NA
ATOM     35  C   UNL A   1      39.177  28.885  27.617  1.00  0.00     0.031 C 
ATOM     36  C   UNL A   1      37.722  31.704  31.515  1.00  0.00     0.029 A 
ATOM     37  N   UNL A   1      39.661  30.612  31.706  1.00  0.00    -0.354 N 
ATOM     38  C   UNL A   1      40.962  27.860  28.612  1.00  0.00     0.074 A 
ATOM     39  C   UNL A   1      40.133  27.986  27.433  1.00  0.00     0.031 C 
ATOM     40  C   UNL A   1      38.261  32.054  32.691  1.00  0.00     0.029 A 
ATOM     41  C   UNL A   1      39.481  31.285  32.893  1.00  0.00     0.049 A 
ATOM     42  H   UNL A   1      40.463  30.077  31.503  1.00  0.00     0.167 HD
ATOM     43  C   UNL A   1      42.039  27.046  28.710  1.00  0.00     0.034 A 
ATOM     44  C   UNL A   1      40.179  31.239  34.045  1.00  0.00     0.034 A 
ATOM     45  C   UNL A   1      42.895  26.990  29.864  1.00  0.00     0.049 A 
ATOM     46  C   UNL A   1      41.365  30.323  34.130  1.00  0.00     0.074 A 
ATOM     47  C   UNL A   1      44.046  26.245  30.048  1.00  0.00     0.029 A 
ATOM     48  N   UNL A   1      42.697  27.716  31.030  1.00  0.00    -0.354 N 
ATOM     49  N   UNL A   1      41.876  29.552  33.202  1.00  0.00    -0.248 NA
ATOM     50  C   UNL A   1      42.066  30.265  35.419  1.00  0.00     0.031 C 
ATOM     51  C   UNL A   1      44.538  26.511  31.331  1.00  0.00     0.029 A 
ATOM     52  C   UNL A   1      43.696  27.429  31.943  1.00  0.00     0.049 A 
ATOM     53  H   UNL A   1      41.954  28.343  31.186  1.00  0.00     0.167 HD
ATOM     54  C   UNL A   1      42.961  28.916  33.792  1.00  0.00     0.074 A 
ATOM     55  C   UNL A   1      43.055  29.423  35.146  1.00  0.00     0.031 C 
ATOM     56  C   UNL A   1      43.788  27.977  33.272  1.00  0.00     0.034 A 
BRANCH  43  57
ATOM     57  C   UNL A   1      42.362  26.163  27.537  1.00  0.00     0.023 A 
ATOM     58  C   UNL A   1      43.158  26.656  26.485  1.00  0.00     0.012 A 
ATOM     59  C   UNL A   1      41.918  24.826  27.502  1.00  0.00     0.148 A 
ATOM     60  C   UNL A   1      43.487  25.839  25.403  1.00  0.00     0.002 A 
ATOM     61  C   UNL A   1      42.279  24.007  26.438  1.00  0.00     0.091 A 
ATOM     62  F   UNL A   1      41.138  24.384  28.499  1.00  0.00    -0.205 F 
ATOM     63  C   UNL A   1      43.057  24.514  25.384  1.00  0.00     0.022 A 
BRANCH  61  64
ATOM     64  S   UNL A   1      41.827  22.270  26.357  1.00  0.00     0.127 S 
ATOM     65  O   UNL A   1      42.576  21.823  25.185  1.00  0.00    -0.237 OA
ATOM     66  O   UNL A   1      42.329  21.759  27.633  1.00  0.00    -0.237 OA
ATOM     67  O   UNL A   1      40.376  22.242  26.224  1.00  0.00    -0.744 OA
ENDBRANCH  61  64
ENDBRANCH  43  57
BRANCH  44  68
ATOM     68  C   UNL A   1      39.750  32.074  35.203  1.00  0.00     0.023 A 
ATOM     69  C   UNL A   1      40.047  33.449  35.212  1.00  0.00     0.012 A 
ATOM     70  C   UNL A   1      38.991  31.530  36.260  1.00  0.00     0.148 A 
ATOM     71  C   UNL A   1      39.604  34.266  36.254  1.00  0.00     0.002 A 
ATOM     72  C   UNL A   1      38.500  32.360  37.262  1.00  0.00     0.091 A 
ATOM     73  F   UNL A   1      38.742  30.212  36.254  1.00  0.00    -0.205 F 
ATOM     74  C   UNL A   1      38.816  33.725  37.268  1.00  0.00     0.022 A 
BRANCH  72  75
ATOM     75  S   UNL A   1      37.349  31.763  38.506  1.00  0.00     0.127 S 
ATOM     76  O   UNL A   1      38.132  31.903  39.731  1.00  0.00    -0.237 OA
ATOM     77  O   UNL A   1      36.236  32.705  38.376  1.00  0.00    -0.237 OA
ATOM     78  O   UNL A   1      37.023  30.400  38.106  1.00  0.00    -0.744 OA
ENDBRANCH  72  75
ENDBRANCH  44  68
BRANCH  56  79
ATOM     79  C   UNL A   1      44.862  27.434  34.172  1.00  0.00     0.023 A 
ATOM     80  C   UNL A   1      46.087  28.121  34.271  1.00  0.00     0.012 A 
ATOM     81  C   UNL A   1      44.634  26.298  34.969  1.00  0.00     0.148 A 
ATOM     82  C   UNL A   1      47.082  27.670  35.137  1.00  0.00     0.002 A 
ATOM     83  C   UNL A   1      45.613  25.878  35.861  1.00  0.00     0.091 A 
ATOM     84  F   UNL A   1      43.467  25.650  34.841  1.00  0.00    -0.205 F 
ATOM     85  C   UNL A   1      46.840  26.558  35.940  1.00  0.00     0.022 A 
BRANCH  83  86
ATOM     86  S   UNL A   1      45.358  24.507  36.992  1.00  0.00     0.127 S 
ATOM     87  O   UNL A   1      46.658  24.422  37.655  1.00  0.00    -0.237 OA
ATOM     88  O   UNL A   1      44.270  24.999  37.839  1.00  0.00    -0.237 OA
ATOM     89  O   UNL A   1      45.003  23.364  36.162  1.00  0.00    -0.744 OA
ENDBRANCH  83  86
ENDBRANCH  56  79
ENDBRANCH  30  31
ENDBRANCH  23  25
ENDBRANCH  22  23
ENDBRANCH  21  22
ENDBRANCH   1  21
TORSDOF 17
ENDMDL
