MODEL 1
REMARK VINA RESULT:     -12.0      0.000      0.000
REMARK SMILES CS(=O)(=O)c1ccc(N2N=C(C(=O)OCCOC(=O)c3ccc(-c4c5nc(c(-c6cccc(S(=O)(=O)[O-])c6F)c6ccc([nH]6)c(-c6cccc(S(=O)(=O)[O-])c6F)c6nc(c(-c7cccc(S(=O)(=O)[O-])c7F)c7ccc4[nH]7)C=C6)C=C5)cc3)C[C@H]2c2ccco2)cc1
REMARK SMILES IDX 16 1 15 2 14 3 12 4 13 5 11 6 9 7 10 8 84 9 83 10 8 11 5 12
REMARK SMILES IDX 6 13 91 14 7 15 90 16 2 17 1 18 3 19 4 20 85 21 86 22 89 23
REMARK SMILES IDX 87 24 88 25 17 26 18 27 19 28 20 29 21 30 82 31 22 32 81 33
REMARK SMILES IDX 23 34 24 35 25 36 75 37 26 38 80 39 74 40 76 41 27 42 79 43
REMARK SMILES IDX 73 44 72 45 28 47 60 48 40 49 59 50 41 51 44 52 58 53 77 54
REMARK SMILES IDX 42 55 43 56 57 58 78 59 45 60 29 61 30 62 38 63 31 64 33 65
REMARK SMILES IDX 39 66 32 67 34 68 35 69 36 70 37 71 61 72 62 73 70 74 63 75
REMARK SMILES IDX 65 76 71 77 64 78 66 79 67 80 68 81 69 82 46 83 47 84 55 85
REMARK SMILES IDX 48 86 50 87 56 88 49 89 51 90 52 91 53 92 54 93
REMARK H PARENT 76 46 44 57
REMARK Flexibility Score: inf
ROOT
ATOM      1  C   UNL A   1      36.433  21.452  24.623  1.00  0.00     0.275 C 
ENDROOT
BRANCH   1   2
ATOM      2  C   UNL A   1      36.400  22.756  23.821  1.00  0.00     0.275 C 
BRANCH   2   3
ATOM      3  O   UNL A   1      35.204  23.465  24.166  1.00  0.00    -0.458 OA
BRANCH   3   4
ATOM      4  C   UNL A   1      34.370  23.750  23.148  1.00  0.00     0.354 C 
ATOM      5  O   UNL A   1      34.388  23.325  22.014  1.00  0.00    -0.245 OA
BRANCH   4   6
ATOM      6  C   UNL A   1      33.343  24.705  23.683  1.00  0.00     0.148 C 
ATOM      7  N   UNL A   1      31.788  26.122  23.763  1.00  0.00    -0.254 N 
ATOM      8  N   UNL A   1      32.719  25.568  22.937  1.00  0.00    -0.169 NA
ATOM      9  C   UNL A   1      32.050  25.861  25.183  1.00  0.00     0.180 C 
ATOM     10  C   UNL A   1      32.879  24.576  25.099  1.00  0.00     0.101 C 
BRANCH   7  11
ATOM     11  C   UNL A   1      30.934  27.130  23.340  1.00  0.00     0.060 A 
ATOM     12  C   UNL A   1      29.195  29.210  22.613  1.00  0.00     0.067 A 
ATOM     13  C   UNL A   1      28.684  28.038  23.174  1.00  0.00     0.022 A 
ATOM     14  C   UNL A   1      30.562  29.340  22.376  1.00  0.00     0.022 A 
ATOM     15  C   UNL A   1      29.554  27.015  23.549  1.00  0.00     0.029 A 
ATOM     16  C   UNL A   1      31.420  28.289  22.723  1.00  0.00     0.029 A 
BRANCH  12  17
ATOM     17  S   UNL A   1      28.038  30.510  22.257  1.00  0.00     0.175 S 
ATOM     18  C   UNL A   1      28.779  32.038  22.769  1.00  0.00     0.163 C 
ATOM     19  O   UNL A   1      26.895  30.256  23.116  1.00  0.00    -0.224 OA
ATOM     20  O   UNL A   1      27.893  30.539  20.816  1.00  0.00    -0.224 OA
ENDBRANCH  12  17
ENDBRANCH   7  11
BRANCH   9  21
ATOM     21  C   UNL A   1      32.778  26.977  25.888  1.00  0.00     0.128 A 
ATOM     22  C   UNL A   1      34.058  27.482  25.763  1.00  0.00     0.048 A 
ATOM     23  O   UNL A   1      32.128  27.624  26.903  1.00  0.00    -0.467 OA
ATOM     24  C   UNL A   1      34.198  28.478  26.760  1.00  0.00     0.042 A 
ATOM     25  C   UNL A   1      32.999  28.523  27.428  1.00  0.00     0.195 A 
ENDBRANCH   9  21
ENDBRANCH   4   6
ENDBRANCH   3   4
ENDBRANCH   2   3
ENDBRANCH   1   2
BRANCH   1  26
ATOM     26  O   UNL A   1      37.020  21.685  25.918  1.00  0.00    -0.458 OA
BRANCH  26  27
ATOM     27  C   UNL A   1      38.367  21.515  25.989  1.00  0.00     0.338 C 
ATOM     28  O   UNL A   1      38.997  20.535  25.633  1.00  0.00    -0.246 OA
BRANCH  27  29
ATOM     29  C   UNL A   1      38.998  22.773  26.450  1.00  0.00     0.060 A 
ATOM     30  C   UNL A   1      40.156  22.676  27.227  1.00  0.00     0.016 A 
ATOM     31  C   UNL A   1      38.472  24.028  26.124  1.00  0.00     0.016 A 
ATOM     32  C   UNL A   1      40.797  23.833  27.670  1.00  0.00     0.010 A 
ATOM     33  C   UNL A   1      39.110  25.187  26.577  1.00  0.00     0.010 A 
ATOM     34  C   UNL A   1      40.274  25.094  27.353  1.00  0.00    -0.014 A 
BRANCH  34  35
ATOM     35  C   UNL A   1      40.968  26.308  27.837  1.00  0.00     0.031 A 
ATOM     36  C   UNL A   1      42.394  26.564  27.456  1.00  0.00     0.074 A 
ATOM     37  C   UNL A   1      40.296  27.203  28.585  1.00  0.00     0.049 A 
ATOM     38  N   UNL A   1      43.114  27.638  27.643  1.00  0.00    -0.248 NA
ATOM     39  C   UNL A   1      43.099  25.471  26.768  1.00  0.00     0.031 C 
ATOM     40  C   UNL A   1      38.914  27.056  29.038  1.00  0.00     0.029 A 
ATOM     41  N   UNL A   1      40.690  28.417  29.087  1.00  0.00    -0.354 N 
ATOM     42  C   UNL A   1      44.349  27.368  27.070  1.00  0.00     0.074 A 
ATOM     43  C   UNL A   1      44.292  26.014  26.560  1.00  0.00     0.031 C 
ATOM     44  C   UNL A   1      38.570  28.144  29.747  1.00  0.00     0.029 A 
ATOM     45  C   UNL A   1      39.701  29.070  29.780  1.00  0.00     0.049 A 
ATOM     46  H   UNL A   1      41.594  28.786  28.961  1.00  0.00     0.167 HD
ATOM     47  C   UNL A   1      45.418  28.189  26.946  1.00  0.00     0.034 A 
ATOM     48  C   UNL A   1      39.695  30.290  30.348  1.00  0.00     0.034 A 
ATOM     49  C   UNL A   1      45.473  29.537  27.441  1.00  0.00     0.049 A 
ATOM     50  C   UNL A   1      40.905  31.171  30.222  1.00  0.00     0.074 A 
ATOM     51  C   UNL A   1      46.507  30.452  27.341  1.00  0.00     0.029 A 
ATOM     52  N   UNL A   1      44.450  30.163  28.133  1.00  0.00    -0.354 N 
ATOM     53  N   UNL A   1      42.012  30.957  29.554  1.00  0.00    -0.248 NA
ATOM     54  C   UNL A   1      40.852  32.476  30.899  1.00  0.00     0.031 C 
ATOM     55  C   UNL A   1      46.103  31.638  27.967  1.00  0.00     0.029 A 
ATOM     56  C   UNL A   1      44.829  31.450  28.478  1.00  0.00     0.049 A 
ATOM     57  H   UNL A   1      43.581  29.753  28.350  1.00  0.00     0.167 HD
ATOM     58  C   UNL A   1      42.780  32.103  29.712  1.00  0.00     0.074 A 
ATOM     59  C   UNL A   1      42.007  33.017  30.529  1.00  0.00     0.031 C 
ATOM     60  C   UNL A   1      44.024  32.365  29.244  1.00  0.00     0.034 A 
BRANCH  47  61
ATOM     61  C   UNL A   1      46.582  27.673  26.152  1.00  0.00     0.023 A 
ATOM     62  C   UNL A   1      46.576  27.869  24.757  1.00  0.00     0.012 A 
ATOM     63  C   UNL A   1      47.670  27.021  26.754  1.00  0.00     0.148 A 
ATOM     64  C   UNL A   1      47.637  27.419  23.973  1.00  0.00     0.002 A 
ATOM     65  C   UNL A   1      48.727  26.575  25.964  1.00  0.00     0.091 A 
ATOM     66  F   UNL A   1      47.656  26.817  28.079  1.00  0.00    -0.205 F 
ATOM     67  C   UNL A   1      48.715  26.774  24.576  1.00  0.00     0.022 A 
BRANCH  65  68
ATOM     68  S   UNL A   1      50.111  25.726  26.731  1.00  0.00     0.127 S 
ATOM     69  O   UNL A   1      51.047  25.580  25.619  1.00  0.00    -0.237 OA
ATOM     70  O   UNL A   1      50.552  26.664  27.765  1.00  0.00    -0.237 OA
ATOM     71  O   UNL A   1      49.518  24.499  27.250  1.00  0.00    -0.744 OA
ENDBRANCH  65  68
ENDBRANCH  47  61
BRANCH  48  72
ATOM     72  C   UNL A   1      38.451  30.791  30.987  1.00  0.00     0.023 A 
ATOM     73  C   UNL A   1      38.297  30.659  32.379  1.00  0.00     0.012 A 
ATOM     74  C   UNL A   1      37.451  31.443  30.243  1.00  0.00     0.148 A 
ATOM     75  C   UNL A   1      37.166  31.165  33.019  1.00  0.00     0.002 A 
ATOM     76  C   UNL A   1      36.339  31.969  30.892  1.00  0.00     0.091 A 
ATOM     77  F   UNL A   1      37.604  31.557  28.916  1.00  0.00    -0.205 F 
ATOM     78  C   UNL A   1      36.189  31.828  32.278  1.00  0.00     0.022 A 
BRANCH  76  79
ATOM     79  S   UNL A   1      35.122  32.893  29.951  1.00  0.00     0.127 S 
ATOM     80  O   UNL A   1      35.914  33.984  29.394  1.00  0.00    -0.237 OA
ATOM     81  O   UNL A   1      34.651  31.918  28.965  1.00  0.00    -0.237 OA
ATOM     82  O   UNL A   1      34.128  33.252  30.956  1.00  0.00    -0.744 OA
ENDBRANCH  76  79
ENDBRANCH  48  72
BRANCH  60  83
ATOM     83  C   UNL A   1      44.636  33.684  29.616  1.00  0.00     0.023 A 
ATOM     84  C   UNL A   1      45.404  33.764  30.793  1.00  0.00     0.012 A 
ATOM     85  C   UNL A   1      44.516  34.815  28.791  1.00  0.00     0.148 A 
ATOM     86  C   UNL A   1      46.035  34.956  31.149  1.00  0.00     0.002 A 
ATOM     87  C   UNL A   1      45.161  35.998  29.144  1.00  0.00     0.091 A 
ATOM     88  F   UNL A   1      43.778  34.732  27.673  1.00  0.00    -0.205 F 
ATOM     89  C   UNL A   1      45.919  36.073  30.322  1.00  0.00     0.022 A 
BRANCH  87  90
ATOM     90  S   UNL A   1      45.034  37.432  28.071  1.00  0.00     0.127 S 
ATOM     91  O   UNL A   1      45.767  38.455  28.811  1.00  0.00    -0.237 OA
ATOM     92  O   UNL A   1      45.695  36.992  26.840  1.00  0.00    -0.237 OA
ATOM     93  O   UNL A   1      43.595  37.630  27.937  1.00  0.00    -0.744 OA
ENDBRANCH  87  90
ENDBRANCH  60  83
ENDBRANCH  34  35
ENDBRANCH  27  29
ENDBRANCH  26  27
ENDBRANCH   1  26
TORSDOF 17
ENDMDL
MODEL 2
REMARK VINA RESULT:     -11.9      4.900     10.023
REMARK SMILES CS(=O)(=O)c1ccc(N2N=C(C(=O)OCCOC(=O)c3ccc(-c4c5nc(c(-c6cccc(S(=O)(=O)[O-])c6F)c6ccc([nH]6)c(-c6cccc(S(=O)(=O)[O-])c6F)c6nc(c(-c7cccc(S(=O)(=O)[O-])c7F)c7ccc4[nH]7)C=C6)C=C5)cc3)C[C@H]2c2ccco2)cc1
REMARK SMILES IDX 16 1 15 2 14 3 12 4 13 5 11 6 9 7 10 8 84 9 83 10 8 11 5 12
REMARK SMILES IDX 6 13 91 14 7 15 90 16 2 17 1 18 3 19 4 20 85 21 86 22 89 23
REMARK SMILES IDX 87 24 88 25 17 26 18 27 19 28 20 29 21 30 82 31 22 32 81 33
REMARK SMILES IDX 23 34 24 35 25 36 75 37 26 38 80 39 74 40 76 41 27 42 79 43
REMARK SMILES IDX 73 44 72 45 28 47 60 48 40 49 59 50 41 51 44 52 58 53 77 54
REMARK SMILES IDX 42 55 43 56 57 58 78 59 45 60 29 61 30 62 38 63 31 64 33 65
REMARK SMILES IDX 39 66 32 67 34 68 35 69 36 70 37 71 61 72 62 73 70 74 63 75
REMARK SMILES IDX 65 76 71 77 64 78 66 79 67 80 68 81 69 82 46 83 47 84 55 85
REMARK SMILES IDX 48 86 50 87 56 88 49 89 51 90 52 91 53 92 54 93
REMARK H PARENT 76 46 44 57
REMARK Flexibility Score: inf
ROOT
ATOM      1  C   UNL A   1      31.908  29.833  25.097  1.00  0.00     0.275 C 
ENDROOT
BRANCH   1   2
ATOM      2  C   UNL A   1      32.002  28.918  23.872  1.00  0.00     0.275 C 
BRANCH   2   3
ATOM      3  O   UNL A   1      33.282  28.275  23.889  1.00  0.00    -0.458 OA
BRANCH   3   4
ATOM      4  C   UNL A   1      33.448  27.263  23.017  1.00  0.00     0.354 C 
ATOM      5  O   UNL A   1      33.663  27.318  21.827  1.00  0.00    -0.245 OA
BRANCH   4   6
ATOM      6  C   UNL A   1      33.347  25.990  23.807  1.00  0.00     0.148 C 
ATOM      7  N   UNL A   1      33.331  23.942  24.295  1.00  0.00    -0.254 N 
ATOM      8  N   UNL A   1      33.248  24.817  23.255  1.00  0.00    -0.169 NA
ATOM      9  C   UNL A   1      33.124  24.578  25.600  1.00  0.00     0.180 C 
ATOM     10  C   UNL A   1      33.526  26.023  25.292  1.00  0.00     0.101 C 
BRANCH   7  11
ATOM     11  C   UNL A   1      33.228  22.570  24.114  1.00  0.00     0.060 A 
ATOM     12  C   UNL A   1      32.949  19.789  23.864  1.00  0.00     0.067 A 
ATOM     13  C   UNL A   1      33.906  20.318  24.733  1.00  0.00     0.022 A 
ATOM     14  C   UNL A   1      32.155  20.633  23.090  1.00  0.00     0.022 A 
ATOM     15  C   UNL A   1      34.028  21.701  24.866  1.00  0.00     0.029 A 
ATOM     16  C   UNL A   1      32.315  22.019  23.206  1.00  0.00     0.029 A 
BRANCH  12  17
ATOM     17  S   UNL A   1      32.779  18.021  23.826  1.00  0.00     0.175 S 
ATOM     18  C   UNL A   1      34.352  17.325  24.257  1.00  0.00     0.163 C 
ATOM     19  O   UNL A   1      32.507  17.688  22.438  1.00  0.00    -0.224 OA
ATOM     20  O   UNL A   1      31.834  17.682  24.870  1.00  0.00    -0.224 OA
ENDBRANCH  12  17
ENDBRANCH   7  11
BRANCH   9  21
ATOM     21  C   UNL A   1      31.714  24.466  26.121  1.00  0.00     0.128 A 
ATOM     22  C   UNL A   1      31.005  23.421  26.682  1.00  0.00     0.048 A 
ATOM     23  O   UNL A   1      30.897  25.556  25.994  1.00  0.00    -0.467 OA
ATOM     24  C   UNL A   1      29.688  23.895  26.896  1.00  0.00     0.042 A 
ATOM     25  C   UNL A   1      29.673  25.196  26.457  1.00  0.00     0.195 A 
ENDBRANCH   9  21
ENDBRANCH   4   6
ENDBRANCH   3   4
ENDBRANCH   2   3
ENDBRANCH   1   2
BRANCH   1  26
ATOM     26  O   UNL A   1      33.128  29.761  25.861  1.00  0.00    -0.458 OA
BRANCH  26  27
ATOM     27  C   UNL A   1      33.282  30.723  26.809  1.00  0.00     0.338 C 
ATOM     28  O   UNL A   1      32.462  31.562  27.135  1.00  0.00    -0.246 OA
BRANCH  27  29
ATOM     29  C   UNL A   1      34.573  30.522  27.506  1.00  0.00     0.060 A 
ATOM     30  C   UNL A   1      34.924  29.218  27.869  1.00  0.00     0.016 A 
ATOM     31  C   UNL A   1      35.432  31.589  27.796  1.00  0.00     0.016 A 
ATOM     32  C   UNL A   1      36.138  28.976  28.512  1.00  0.00     0.010 A 
ATOM     33  C   UNL A   1      36.644  31.346  28.449  1.00  0.00     0.010 A 
ATOM     34  C   UNL A   1      37.002  30.039  28.811  1.00  0.00    -0.014 A 
BRANCH  34  35
ATOM     35  C   UNL A   1      38.282  29.760  29.497  1.00  0.00     0.031 A 
ATOM     36  C   UNL A   1      38.539  30.307  30.868  1.00  0.00     0.074 A 
ATOM     37  C   UNL A   1      39.197  28.974  28.900  1.00  0.00     0.049 A 
ATOM     38  N   UNL A   1      39.520  30.040  31.689  1.00  0.00    -0.248 NA
ATOM     39  C   UNL A   1      37.560  31.276  31.386  1.00  0.00     0.031 C 
ATOM     40  C   UNL A   1      39.072  28.400  27.562  1.00  0.00     0.029 A 
ATOM     41  N   UNL A   1      40.409  28.519  29.352  1.00  0.00    -0.354 N 
ATOM     42  C   UNL A   1      39.265  30.781  32.834  1.00  0.00     0.074 A 
ATOM     43  C   UNL A   1      38.054  31.537  32.589  1.00  0.00     0.031 C 
ATOM     44  C   UNL A   1      40.163  27.661  27.301  1.00  0.00     0.029 A 
ATOM     45  C   UNL A   1      41.052  27.694  28.461  1.00  0.00     0.049 A 
ATOM     46  H   UNL A   1      40.783  28.758  30.231  1.00  0.00     0.167 HD
ATOM     47  C   UNL A   1      39.955  30.797  33.999  1.00  0.00     0.034 A 
ATOM     48  C   UNL A   1      42.208  27.016  28.580  1.00  0.00     0.034 A 
ATOM     49  C   UNL A   1      41.150  30.039  34.249  1.00  0.00     0.049 A 
ATOM     50  C   UNL A   1      42.971  27.074  29.872  1.00  0.00     0.074 A 
ATOM     51  C   UNL A   1      41.906  29.976  35.408  1.00  0.00     0.029 A 
ATOM     52  N   UNL A   1      41.766  29.213  33.324  1.00  0.00    -0.354 N 
ATOM     53  N   UNL A   1      42.644  27.665  30.995  1.00  0.00    -0.248 NA
ATOM     54  C   UNL A   1      44.248  26.345  29.924  1.00  0.00     0.031 C 
ATOM     55  C   UNL A   1      42.976  29.100  35.183  1.00  0.00     0.029 A 
ATOM     56  C   UNL A   1      42.899  28.641  33.878  1.00  0.00     0.049 A 
ATOM     57  H   UNL A   1      41.446  29.056  32.405  1.00  0.00     0.167 HD
ATOM     58  C   UNL A   1      43.659  27.365  31.894  1.00  0.00     0.074 A 
ATOM     59  C   UNL A   1      44.609  26.527  31.189  1.00  0.00     0.031 C 
ATOM     60  C   UNL A   1      43.803  27.767  33.179  1.00  0.00     0.034 A 
BRANCH  47  61
ATOM     61  C   UNL A   1      39.367  31.594  35.126  1.00  0.00     0.023 A 
ATOM     62  C   UNL A   1      38.395  30.980  35.940  1.00  0.00     0.012 A 
ATOM     63  C   UNL A   1      39.764  32.913  35.398  1.00  0.00     0.148 A 
ATOM     64  C   UNL A   1      37.824  31.671  37.006  1.00  0.00     0.002 A 
ATOM     65  C   UNL A   1      39.189  33.597  36.466  1.00  0.00     0.091 A 
ATOM     66  F   UNL A   1      40.672  33.498  34.603  1.00  0.00    -0.205 F 
ATOM     67  C   UNL A   1      38.222  32.980  37.273  1.00  0.00     0.022 A 
BRANCH  65  68
ATOM     68  S   UNL A   1      39.683  35.290  36.805  1.00  0.00     0.127 S 
ATOM     69  O   UNL A   1      38.945  35.596  38.028  1.00  0.00    -0.237 OA
ATOM     70  O   UNL A   1      41.132  35.189  36.990  1.00  0.00    -0.237 OA
ATOM     71  O   UNL A   1      39.283  36.013  35.604  1.00  0.00    -0.744 OA
ENDBRANCH  65  68
ENDBRANCH  47  61
BRANCH  48  72
ATOM     72  C   UNL A   1      42.648  26.127  27.473  1.00  0.00     0.023 A 
ATOM     73  C   UNL A   1      43.573  26.615  26.532  1.00  0.00     0.012 A 
ATOM     74  C   UNL A   1      42.207  24.795  27.378  1.00  0.00     0.148 A 
ATOM     75  C   UNL A   1      44.048  25.791  25.512  1.00  0.00     0.002 A 
ATOM     76  C   UNL A   1      42.707  23.972  26.374  1.00  0.00     0.091 A 
ATOM     77  F   UNL A   1      41.320  24.342  28.276  1.00  0.00    -0.205 F 
ATOM     78  C   UNL A   1      43.622  24.467  25.436  1.00  0.00     0.022 A 
BRANCH  76  79
ATOM     79  S   UNL A   1      42.221  22.245  26.325  1.00  0.00     0.127 S 
ATOM     80  O   UNL A   1      40.779  22.326  26.121  1.00  0.00    -0.237 OA
ATOM     81  O   UNL A   1      42.969  21.719  25.182  1.00  0.00    -0.237 OA
ATOM     82  O   UNL A   1      42.673  21.737  27.617  1.00  0.00    -0.744 OA
ENDBRANCH  76  79
ENDBRANCH  48  72
BRANCH  60  83
ATOM     83  C   UNL A   1      45.040  27.324  33.904  1.00  0.00     0.023 A 
ATOM     84  C   UNL A   1      46.156  28.182  33.925  1.00  0.00     0.012 A 
ATOM     85  C   UNL A   1      45.089  26.111  34.612  1.00  0.00     0.148 A 
ATOM     86  C   UNL A   1      47.306  27.834  34.632  1.00  0.00     0.002 A 
ATOM     87  C   UNL A   1      46.236  25.775  35.327  1.00  0.00     0.091 A 
ATOM     88  F   UNL A   1      44.024  25.295  34.583  1.00  0.00    -0.205 F 
ATOM     89  C   UNL A   1      47.346  26.632  35.338  1.00  0.00     0.022 A 
BRANCH  87  90
ATOM     90  S   UNL A   1      46.284  24.241  36.258  1.00  0.00     0.127 S 
ATOM     91  O   UNL A   1      46.518  23.240  35.221  1.00  0.00    -0.237 OA
ATOM     92  O   UNL A   1      47.413  24.433  37.171  1.00  0.00    -0.237 OA
ATOM     93  O   UNL A   1      44.983  24.203  36.918  1.00  0.00    -0.744 OA
ENDBRANCH  87  90
ENDBRANCH  60  83
ENDBRANCH  34  35
ENDBRANCH  27  29
ENDBRANCH  26  27
ENDBRANCH   1  26
TORSDOF 17
ENDMDL
MODEL 3
REMARK VINA RESULT:     -11.5      4.802      9.921
REMARK SMILES CS(=O)(=O)c1ccc(N2N=C(C(=O)OCCOC(=O)c3ccc(-c4c5nc(c(-c6cccc(S(=O)(=O)[O-])c6F)c6ccc([nH]6)c(-c6cccc(S(=O)(=O)[O-])c6F)c6nc(c(-c7cccc(S(=O)(=O)[O-])c7F)c7ccc4[nH]7)C=C6)C=C5)cc3)C[C@H]2c2ccco2)cc1
REMARK SMILES IDX 16 1 15 2 14 3 12 4 13 5 11 6 9 7 10 8 84 9 83 10 8 11 5 12
REMARK SMILES IDX 6 13 91 14 7 15 90 16 2 17 1 18 3 19 4 20 85 21 86 22 89 23
REMARK SMILES IDX 87 24 88 25 17 26 18 27 19 28 20 29 21 30 82 31 22 32 81 33
REMARK SMILES IDX 23 34 24 35 25 36 75 37 26 38 80 39 74 40 76 41 27 42 79 43
REMARK SMILES IDX 73 44 72 45 28 47 60 48 40 49 59 50 41 51 44 52 58 53 77 54
REMARK SMILES IDX 42 55 43 56 57 58 78 59 45 60 29 61 30 62 38 63 31 64 33 65
REMARK SMILES IDX 39 66 32 67 34 68 35 69 36 70 37 71 61 72 62 73 70 74 63 75
REMARK SMILES IDX 65 76 71 77 64 78 66 79 67 80 68 81 69 82 46 83 47 84 55 85
REMARK SMILES IDX 48 86 50 87 56 88 49 89 51 90 52 91 53 92 54 93
REMARK H PARENT 76 46 44 57
REMARK Flexibility Score: inf
ROOT
ATOM      1  C   UNL A   1      33.017  29.834  26.052  1.00  0.00     0.275 C 
ENDROOT
BRANCH   1   2
ATOM      2  C   UNL A   1      31.854  28.840  25.997  1.00  0.00     0.275 C 
BRANCH   2   3
ATOM      3  O   UNL A   1      32.339  27.611  25.444  1.00  0.00    -0.458 OA
BRANCH   3   4
ATOM      4  C   UNL A   1      31.859  26.482  26.000  1.00  0.00     0.354 C 
ATOM      5  O   UNL A   1      31.064  26.364  26.906  1.00  0.00    -0.245 OA
BRANCH   4   6
ATOM      6  C   UNL A   1      32.478  25.335  25.254  1.00  0.00     0.148 C 
ATOM      7  N   UNL A   1      32.838  23.394  24.525  1.00  0.00    -0.254 N 
ATOM      8  N   UNL A   1      32.190  24.092  25.499  1.00  0.00    -0.169 NA
ATOM      9  C   UNL A   1      33.863  24.184  23.835  1.00  0.00     0.180 C 
ATOM     10  C   UNL A   1      33.344  25.606  24.065  1.00  0.00     0.101 C 
BRANCH   7  11
ATOM     11  C   UNL A   1      32.806  22.008  24.465  1.00  0.00     0.060 A 
ATOM     12  C   UNL A   1      32.857  19.209  24.273  1.00  0.00     0.067 A 
ATOM     13  C   UNL A   1      32.415  19.973  23.191  1.00  0.00     0.022 A 
ATOM     14  C   UNL A   1      33.237  19.824  25.464  1.00  0.00     0.022 A 
ATOM     15  C   UNL A   1      32.409  21.365  23.286  1.00  0.00     0.029 A 
ATOM     16  C   UNL A   1      33.189  21.221  25.558  1.00  0.00     0.029 A 
BRANCH  12  17
ATOM     17  S   UNL A   1      32.936  17.449  24.042  1.00  0.00     0.175 S 
ATOM     18  C   UNL A   1      34.583  16.932  24.448  1.00  0.00     0.163 C 
ATOM     19  O   UNL A   1      32.737  17.236  22.619  1.00  0.00    -0.224 OA
ATOM     20  O   UNL A   1      32.029  16.872  25.013  1.00  0.00    -0.224 OA
ENDBRANCH  12  17
ENDBRANCH   7  11
BRANCH   9  21
ATOM     21  C   UNL A   1      35.258  23.982  24.370  1.00  0.00     0.128 A 
ATOM     22  C   UNL A   1      36.374  23.351  23.855  1.00  0.00     0.048 A 
ATOM     23  O   UNL A   1      35.530  24.432  25.634  1.00  0.00    -0.467 OA
ATOM     24  C   UNL A   1      37.371  23.411  24.858  1.00  0.00     0.042 A 
ATOM     25  C   UNL A   1      36.807  24.073  25.921  1.00  0.00     0.195 A 
ENDBRANCH   9  21
ENDBRANCH   4   6
ENDBRANCH   3   4
ENDBRANCH   2   3
ENDBRANCH   1   2
BRANCH   1  26
ATOM     26  O   UNL A   1      33.572  29.870  27.381  1.00  0.00    -0.458 OA
BRANCH  26  27
ATOM     27  C   UNL A   1      34.415  30.906  27.636  1.00  0.00     0.338 C 
ATOM     28  O   UNL A   1      34.151  32.093  27.568  1.00  0.00    -0.246 OA
BRANCH  27  29
ATOM     29  C   UNL A   1      35.699  30.379  28.151  1.00  0.00     0.060 A 
ATOM     30  C   UNL A   1      36.843  30.564  27.368  1.00  0.00     0.016 A 
ATOM     31  C   UNL A   1      35.789  29.721  29.383  1.00  0.00     0.016 A 
ATOM     32  C   UNL A   1      38.079  30.101  27.818  1.00  0.00     0.010 A 
ATOM     33  C   UNL A   1      37.028  29.250  29.829  1.00  0.00     0.010 A 
ATOM     34  C   UNL A   1      38.177  29.436  29.049  1.00  0.00    -0.014 A 
BRANCH  34  35
ATOM     35  C   UNL A   1      39.498  28.950  29.505  1.00  0.00     0.031 A 
ATOM     36  C   UNL A   1      40.146  29.551  30.715  1.00  0.00     0.074 A 
ATOM     37  C   UNL A   1      40.093  27.934  28.853  1.00  0.00     0.049 A 
ATOM     38  N   UNL A   1      41.211  29.154  31.359  1.00  0.00    -0.248 NA
ATOM     39  C   UNL A   1      39.507  30.752  31.278  1.00  0.00     0.031 C 
ATOM     40  C   UNL A   1      39.572  27.281  27.653  1.00  0.00     0.029 A 
ATOM     41  N   UNL A   1      41.263  27.270  29.119  1.00  0.00    -0.354 N 
ATOM     42  C   UNL A   1      41.358  30.034  32.422  1.00  0.00     0.074 A 
ATOM     43  C   UNL A   1      40.292  31.008  32.316  1.00  0.00     0.031 C 
ATOM     44  C   UNL A   1      40.419  26.303  27.288  1.00  0.00     0.029 A 
ATOM     45  C   UNL A   1      41.527  26.249  28.239  1.00  0.00     0.049 A 
ATOM     46  H   UNL A   1      41.858  27.503  29.869  1.00  0.00     0.167 HD
ATOM     47  C   UNL A   1      42.274  30.007  33.418  1.00  0.00     0.034 A 
ATOM     48  C   UNL A   1      42.528  25.351  28.223  1.00  0.00     0.034 A 
ATOM     49  C   UNL A   1      43.326  29.035  33.533  1.00  0.00     0.049 A 
ATOM     50  C   UNL A   1      43.550  25.360  29.323  1.00  0.00     0.074 A 
ATOM     51  C   UNL A   1      44.288  28.915  34.521  1.00  0.00     0.029 A 
ATOM     52  N   UNL A   1      43.556  28.014  32.624  1.00  0.00    -0.354 N 
ATOM     53  N   UNL A   1      43.594  26.108  30.399  1.00  0.00    -0.248 NA
ATOM     54  C   UNL A   1      44.644  24.381  29.225  1.00  0.00     0.031 C 
ATOM     55  C   UNL A   1      45.096  27.812  34.213  1.00  0.00     0.029 A 
ATOM     56  C   UNL A   1      44.651  27.265  33.021  1.00  0.00     0.049 A 
ATOM     57  H   UNL A   1      43.021  27.847  31.815  1.00  0.00     0.167 HD
ATOM     58  C   UNL A   1      44.703  25.678  31.116  1.00  0.00     0.074 A 
ATOM     59  C   UNL A   1      45.299  24.595  30.360  1.00  0.00     0.031 C 
ATOM     60  C   UNL A   1      45.197  26.156  32.284  1.00  0.00     0.034 A 
BRANCH  47  61
ATOM     61  C   UNL A   1      42.109  31.011  34.521  1.00  0.00     0.023 A 
ATOM     62  C   UNL A   1      41.294  30.668  35.618  1.00  0.00     0.012 A 
ATOM     63  C   UNL A   1      42.746  32.262  34.498  1.00  0.00     0.148 A 
ATOM     64  C   UNL A   1      41.115  31.560  36.674  1.00  0.00     0.002 A 
ATOM     65  C   UNL A   1      42.563  33.147  35.557  1.00  0.00     0.091 A 
ATOM     66  F   UNL A   1      43.501  32.589  33.438  1.00  0.00    -0.205 F 
ATOM     67  C   UNL A   1      41.751  32.799  36.646  1.00  0.00     0.022 A 
BRANCH  65  68
ATOM     68  S   UNL A   1      43.364  34.754  35.520  1.00  0.00     0.127 S 
ATOM     69  O   UNL A   1      43.063  35.288  36.846  1.00  0.00    -0.237 OA
ATOM     70  O   UNL A   1      44.776  34.423  35.314  1.00  0.00    -0.237 OA
ATOM     71  O   UNL A   1      42.737  35.425  34.388  1.00  0.00    -0.744 OA
ENDBRANCH  65  68
ENDBRANCH  47  61
BRANCH  48  72
ATOM     72  C   UNL A   1      42.539  24.291  27.181  1.00  0.00     0.023 A 
ATOM     73  C   UNL A   1      43.431  24.405  26.100  1.00  0.00     0.012 A 
ATOM     74  C   UNL A   1      41.721  23.152  27.281  1.00  0.00     0.148 A 
ATOM     75  C   UNL A   1      43.506  23.403  25.133  1.00  0.00     0.002 A 
ATOM     76  C   UNL A   1      41.820  22.144  26.327  1.00  0.00     0.091 A 
ATOM     77  F   UNL A   1      40.868  23.056  28.311  1.00  0.00    -0.205 F 
ATOM     78  C   UNL A   1      42.706  22.267  25.249  1.00  0.00     0.022 A 
BRANCH  76  79
ATOM     79  S   UNL A   1      40.851  20.646  26.521  1.00  0.00     0.127 S 
ATOM     80  O   UNL A   1      39.550  21.039  25.991  1.00  0.00    -0.237 OA
ATOM     81  O   UNL A   1      41.573  19.672  25.701  1.00  0.00    -0.237 OA
ATOM     82  O   UNL A   1      40.923  20.388  27.955  1.00  0.00    -0.744 OA
ENDBRANCH  76  79
ENDBRANCH  48  72
BRANCH  60  83
ATOM     83  C   UNL A   1      46.453  25.524  32.809  1.00  0.00     0.023 A 
ATOM     84  C   UNL A   1      47.694  26.058  32.415  1.00  0.00     0.012 A 
ATOM     85  C   UNL A   1      46.419  24.460  33.728  1.00  0.00     0.148 A 
ATOM     86  C   UNL A   1      48.884  25.537  32.922  1.00  0.00     0.002 A 
ATOM     87  C   UNL A   1      47.611  23.953  34.240  1.00  0.00     0.091 A 
ATOM     88  F   UNL A   1      45.232  23.952  34.094  1.00  0.00    -0.205 F 
ATOM     89  C   UNL A   1      48.844  24.486  33.839  1.00  0.00     0.022 A 
BRANCH  87  90
ATOM     90  S   UNL A   1      47.563  22.618  35.439  1.00  0.00     0.127 S 
ATOM     91  O   UNL A   1      48.941  22.563  35.917  1.00  0.00    -0.237 OA
ATOM     92  O   UNL A   1      46.601  23.092  36.436  1.00  0.00    -0.237 OA
ATOM     93  O   UNL A   1      47.099  21.476  34.658  1.00  0.00    -0.744 OA
ENDBRANCH  87  90
ENDBRANCH  60  83
ENDBRANCH  34  35
ENDBRANCH  27  29
ENDBRANCH  26  27
ENDBRANCH   1  26
TORSDOF 17
ENDMDL
