MODEL 1
REMARK VINA RESULT:     -11.8      0.000      0.000
REMARK SMILES O=C(Cn1nc(-c2ccco2)ccc1=O)N[C@@H](C(=O)OCCOC(=O)c1ccc(-c2c3nc(c(-c4cccc(S(=O)(=O)[O-])c4F)c4ccc([nH]4)c(-c4cccc(S(=O)(=O)[O-])c4F)c4nc(c(-c5cccc(S(=O)(=O)[O-])c5F)c5ccc2[nH]5)C=C4)C=C3)cc1)c1ccccc1
REMARK SMILES IDX 21 1 20 2 18 3 19 4 17 5 16 6 1 7 2 8 3 10 4 11 5 12 14 13
REMARK SMILES IDX 6 14 13 15 15 16 12 17 7 18 8 19 11 20 9 21 10 22 89 23
REMARK SMILES IDX 90 24 94 25 91 26 93 27 92 28 22 29 23 30 24 31 25 32 26 33
REMARK SMILES IDX 27 34 88 35 28 36 87 37 29 38 30 39 31 40 81 41 32 42 86 43
REMARK SMILES IDX 80 44 82 45 33 46 85 47 79 48 78 49 34 51 66 52 46 53 65 54
REMARK SMILES IDX 47 55 50 56 64 57 83 58 48 59 49 60 63 62 84 63 51 64 35 65
REMARK SMILES IDX 36 66 44 67 37 68 39 69 45 70 38 71 40 72 41 73 42 74 43 75
REMARK SMILES IDX 67 76 68 77 76 78 69 79 71 80 77 81 70 82 72 83 73 84 74 85
REMARK SMILES IDX 75 86 52 87 53 88 61 89 54 90 56 91 62 92 55 93 57 94 58 95
REMARK SMILES IDX 59 96 60 97
REMARK H PARENT 16 9 82 50 50 61
REMARK Flexibility Score: inf
ROOT
ATOM      1  C   UNL A   1      32.784  28.523  27.578  1.00  0.00     0.274 C 
ENDROOT
BRANCH   1   2
ATOM      2  O   UNL A   1      31.776  27.709  26.940  1.00  0.00    -0.460 OA
BRANCH   2   3
ATOM      3  C   UNL A   1      32.228  26.735  26.092  1.00  0.00     0.333 C 
ATOM      4  O   UNL A   1      33.394  26.350  26.064  1.00  0.00    -0.249 OA
BRANCH   3   5
ATOM      5  C   UNL A   1      31.125  26.212  25.137  1.00  0.00     0.223 C 
BRANCH   5   6
ATOM      6  N   UNL A   1      31.577  25.136  24.248  1.00  0.00    -0.337 N 
ATOM      7  O   UNL A   1      30.903  23.459  25.632  1.00  0.00    -0.273 OA
ATOM      8  C   UNL A   1      31.306  23.819  24.526  1.00  0.00     0.242 C 
ATOM      9  H   UNL A   1      32.086  25.363  23.436  1.00  0.00     0.164 HD
BRANCH   8  10
ATOM     10  C   UNL A   1      31.690  22.802  23.457  1.00  0.00     0.248 C 
BRANCH  10  11
ATOM     11  N   UNL A   1      32.846  21.966  23.781  1.00  0.00    -0.220 N 
ATOM     12  N   UNL A   1      32.603  20.609  23.928  1.00  0.00    -0.166 NA
ATOM     13  C   UNL A   1      34.071  22.565  24.044  1.00  0.00     0.267 A 
ATOM     14  C   UNL A   1      33.556  19.870  24.417  1.00  0.00     0.126 A 
ATOM     15  C   UNL A   1      35.126  21.680  24.576  1.00  0.00     0.076 A 
ATOM     16  O   UNL A   1      34.306  23.760  23.899  1.00  0.00    -0.268 OA
ATOM     17  C   UNL A   1      34.887  20.386  24.796  1.00  0.00     0.040 A 
BRANCH  14  18
ATOM     18  C   UNL A   1      33.321  18.458  24.607  1.00  0.00     0.154 A 
ATOM     19  C   UNL A   1      33.782  17.347  23.928  1.00  0.00     0.052 A 
ATOM     20  O   UNL A   1      32.489  18.059  25.619  1.00  0.00    -0.463 OA
ATOM     21  C   UNL A   1      33.218  16.216  24.564  1.00  0.00     0.043 A 
ATOM     22  C   UNL A   1      32.416  16.703  25.569  1.00  0.00     0.196 A 
ENDBRANCH  14  18
ENDBRANCH  10  11
ENDBRANCH   8  10
ENDBRANCH   5   6
BRANCH   5  23
ATOM     23  C   UNL A   1      30.375  27.258  24.309  1.00  0.00    -0.014 A 
ATOM     24  C   UNL A   1      29.061  26.961  23.883  1.00  0.00     0.006 A 
ATOM     25  C   UNL A   1      30.887  28.523  23.989  1.00  0.00     0.006 A 
ATOM     26  C   UNL A   1      28.317  27.866  23.124  1.00  0.00     0.000 A 
ATOM     27  C   UNL A   1      30.140  29.430  23.227  1.00  0.00     0.000 A 
ATOM     28  C   UNL A   1      28.863  29.098  22.787  1.00  0.00     0.000 A 
ENDBRANCH   5  23
ENDBRANCH   3   5
ENDBRANCH   2   3
ENDBRANCH   1   2
BRANCH   1  29
ATOM     29  C   UNL A   1      32.753  29.939  27.013  1.00  0.00     0.275 C 
BRANCH  29  30
ATOM     30  O   UNL A   1      34.104  30.424  26.935  1.00  0.00    -0.458 OA
BRANCH  30  31
ATOM     31  C   UNL A   1      34.453  31.351  27.852  1.00  0.00     0.338 C 
ATOM     32  O   UNL A   1      33.829  32.343  28.193  1.00  0.00    -0.246 OA
BRANCH  31  33
ATOM     33  C   UNL A   1      35.709  30.920  28.473  1.00  0.00     0.060 A 
ATOM     34  C   UNL A   1      35.793  29.702  29.144  1.00  0.00     0.016 A 
ATOM     35  C   UNL A   1      36.838  31.722  28.306  1.00  0.00     0.016 A 
ATOM     36  C   UNL A   1      37.025  29.301  29.673  1.00  0.00     0.010 A 
ATOM     37  C   UNL A   1      38.072  31.297  28.795  1.00  0.00     0.010 A 
ATOM     38  C   UNL A   1      38.183  30.087  29.491  1.00  0.00    -0.014 A 
BRANCH  38  39
ATOM     39  C   UNL A   1      39.513  29.591  29.940  1.00  0.00     0.031 A 
ATOM     40  C   UNL A   1      40.225  30.173  31.133  1.00  0.00     0.074 A 
ATOM     41  C   UNL A   1      40.132  28.642  29.209  1.00  0.00     0.049 A 
ATOM     42  N   UNL A   1      41.341  29.777  31.692  1.00  0.00    -0.248 NA
ATOM     43  C   UNL A   1      39.644  31.373  31.756  1.00  0.00     0.031 C 
ATOM     44  C   UNL A   1      39.643  28.109  27.935  1.00  0.00     0.029 A 
ATOM     45  N   UNL A   1      41.300  27.955  29.429  1.00  0.00    -0.354 N 
ATOM     46  C   UNL A   1      41.618  30.696  32.697  1.00  0.00     0.074 A 
ATOM     47  C   UNL A   1      40.568  31.690  32.656  1.00  0.00     0.031 C 
ATOM     48  C   UNL A   1      40.473  27.141  27.516  1.00  0.00     0.029 A 
ATOM     49  C   UNL A   1      41.547  26.979  28.492  1.00  0.00     0.049 A 
ATOM     50  H   UNL A   1      41.903  28.143  30.184  1.00  0.00     0.167 HD
ATOM     51  C   UNL A   1      42.631  30.688  33.598  1.00  0.00     0.034 A 
ATOM     52  C   UNL A   1      42.497  26.024  28.445  1.00  0.00     0.034 A 
ATOM     53  C   UNL A   1      43.607  29.638  33.708  1.00  0.00     0.049 A 
ATOM     54  C   UNL A   1      43.484  25.908  29.571  1.00  0.00     0.074 A 
ATOM     55  C   UNL A   1      44.567  29.457  34.688  1.00  0.00     0.029 A 
ATOM     56  N   UNL A   1      43.736  28.583  32.821  1.00  0.00    -0.354 N 
ATOM     57  N   UNL A   1      43.609  26.666  30.632  1.00  0.00    -0.248 NA
ATOM     58  C   UNL A   1      44.432  24.783  29.521  1.00  0.00     0.031 C 
ATOM     59  C   UNL A   1      45.265  28.279  34.405  1.00  0.00     0.029 A 
ATOM     60  C   UNL A   1      44.745  27.736  33.240  1.00  0.00     0.049 A 
ATOM     61  H   UNL A   1      43.191  28.454  32.011  1.00  0.00     0.167 HD
ATOM     62  C   UNL A   1      44.630  26.102  31.386  1.00  0.00     0.074 A 
ATOM     63  C   UNL A   1      45.083  24.927  30.670  1.00  0.00     0.031 C 
ATOM     64  C   UNL A   1      45.152  26.535  32.558  1.00  0.00     0.034 A 
BRANCH  51  65
ATOM     65  C   UNL A   1      42.674  31.782  34.634  1.00  0.00     0.023 A 
ATOM     66  C   UNL A   1      43.381  32.965  34.340  1.00  0.00     0.012 A 
ATOM     67  C   UNL A   1      41.927  31.699  35.826  1.00  0.00     0.148 A 
ATOM     68  C   UNL A   1      43.366  34.041  35.225  1.00  0.00     0.002 A 
ATOM     69  C   UNL A   1      41.889  32.790  36.688  1.00  0.00     0.091 A 
ATOM     70  F   UNL A   1      41.262  30.564  36.086  1.00  0.00    -0.205 F 
ATOM     71  C   UNL A   1      42.614  33.957  36.392  1.00  0.00     0.022 A 
BRANCH  69  72
ATOM     72  S   UNL A   1      40.897  32.820  38.187  1.00  0.00     0.127 S 
ATOM     73  O   UNL A   1      39.633  32.256  37.715  1.00  0.00    -0.237 OA
ATOM     74  O   UNL A   1      41.659  31.945  39.078  1.00  0.00    -0.237 OA
ATOM     75  O   UNL A   1      40.836  34.214  38.603  1.00  0.00    -0.744 OA
ENDBRANCH  69  72
ENDBRANCH  51  65
BRANCH  52  76
ATOM     76  C   UNL A   1      42.424  24.998  27.372  1.00  0.00     0.023 A 
ATOM     77  C   UNL A   1      43.306  25.105  26.280  1.00  0.00     0.012 A 
ATOM     78  C   UNL A   1      41.579  23.877  27.472  1.00  0.00     0.148 A 
ATOM     79  C   UNL A   1      43.347  24.114  25.300  1.00  0.00     0.002 A 
ATOM     80  C   UNL A   1      41.648  22.876  26.510  1.00  0.00     0.091 A 
ATOM     81  F   UNL A   1      40.749  23.802  28.522  1.00  0.00    -0.205 F 
ATOM     82  C   UNL A   1      42.527  22.997  25.420  1.00  0.00     0.022 A 
BRANCH  80  83
ATOM     83  S   UNL A   1      40.714  21.347  26.631  1.00  0.00     0.127 S 
ATOM     84  O   UNL A   1      39.400  21.761  26.145  1.00  0.00    -0.237 OA
ATOM     85  O   UNL A   1      41.456  20.467  25.729  1.00  0.00    -0.237 OA
ATOM     86  O   UNL A   1      40.771  20.959  28.035  1.00  0.00    -0.744 OA
ENDBRANCH  80  83
ENDBRANCH  52  76
BRANCH  64  87
ATOM     87  C   UNL A   1      46.279  25.755  33.172  1.00  0.00     0.023 A 
ATOM     88  C   UNL A   1      45.979  24.734  34.092  1.00  0.00     0.012 A 
ATOM     89  C   UNL A   1      47.603  25.922  32.722  1.00  0.00     0.148 A 
ATOM     90  C   UNL A   1      46.982  23.884  34.556  1.00  0.00     0.002 A 
ATOM     91  C   UNL A   1      48.593  25.053  33.168  1.00  0.00     0.091 A 
ATOM     92  F   UNL A   1      47.860  26.904  31.846  1.00  0.00    -0.205 F 
ATOM     93  C   UNL A   1      48.284  24.036  34.086  1.00  0.00     0.022 A 
BRANCH  91  94
ATOM     94  S   UNL A   1      50.287  25.119  32.572  1.00  0.00     0.127 S 
ATOM     95  O   UNL A   1      50.880  23.953  33.228  1.00  0.00    -0.237 OA
ATOM     96  O   UNL A   1      50.109  24.982  31.127  1.00  0.00    -0.237 OA
ATOM     97  O   UNL A   1      50.820  26.404  33.004  1.00  0.00    -0.744 OA
ENDBRANCH  91  94
ENDBRANCH  64  87
ENDBRANCH  38  39
ENDBRANCH  31  33
ENDBRANCH  30  31
ENDBRANCH  29  30
ENDBRANCH   1  29
TORSDOF 19
ENDMDL
MODEL 2
REMARK VINA RESULT:     -11.7      2.103      3.009
REMARK SMILES O=C(Cn1nc(-c2ccco2)ccc1=O)N[C@@H](C(=O)OCCOC(=O)c1ccc(-c2c3nc(c(-c4cccc(S(=O)(=O)[O-])c4F)c4ccc([nH]4)c(-c4cccc(S(=O)(=O)[O-])c4F)c4nc(c(-c5cccc(S(=O)(=O)[O-])c5F)c5ccc2[nH]5)C=C4)C=C3)cc1)c1ccccc1
REMARK SMILES IDX 21 1 20 2 18 3 19 4 17 5 16 6 1 7 2 8 3 10 4 11 5 12 14 13
REMARK SMILES IDX 6 14 13 15 15 16 12 17 7 18 8 19 11 20 9 21 10 22 89 23
REMARK SMILES IDX 90 24 94 25 91 26 93 27 92 28 22 29 23 30 24 31 25 32 26 33
REMARK SMILES IDX 27 34 88 35 28 36 87 37 29 38 30 39 31 40 81 41 32 42 86 43
REMARK SMILES IDX 80 44 82 45 33 46 85 47 79 48 78 49 34 51 66 52 46 53 65 54
REMARK SMILES IDX 47 55 50 56 64 57 83 58 48 59 49 60 63 62 84 63 51 64 35 65
REMARK SMILES IDX 36 66 44 67 37 68 39 69 45 70 38 71 40 72 41 73 42 74 43 75
REMARK SMILES IDX 67 76 68 77 76 78 69 79 71 80 77 81 70 82 72 83 73 84 74 85
REMARK SMILES IDX 75 86 52 87 53 88 61 89 54 90 56 91 62 92 55 93 57 94 58 95
REMARK SMILES IDX 59 96 60 97
REMARK H PARENT 16 9 82 50 50 61
REMARK Flexibility Score: inf
ROOT
ATOM      1  C   UNL A   1      34.045  28.666  26.798  1.00  0.00     0.274 C 
ENDROOT
BRANCH   1   2
ATOM      2  O   UNL A   1      33.045  27.632  26.919  1.00  0.00    -0.460 OA
BRANCH   2   3
ATOM      3  C   UNL A   1      33.076  26.641  25.976  1.00  0.00     0.333 C 
ATOM      4  O   UNL A   1      34.086  26.338  25.347  1.00  0.00    -0.249 OA
BRANCH   3   5
ATOM      5  C   UNL A   1      31.691  25.983  25.751  1.00  0.00     0.223 C 
BRANCH   5   6
ATOM      6  N   UNL A   1      31.767  24.586  25.310  1.00  0.00    -0.337 N 
ATOM      7  O   UNL A   1      31.470  23.719  27.395  1.00  0.00    -0.273 OA
ATOM      8  C   UNL A   1      31.518  23.549  26.176  1.00  0.00     0.242 C 
ATOM      9  H   UNL A   1      32.002  24.387  24.375  1.00  0.00     0.164 HD
BRANCH   8  10
ATOM     10  C   UNL A   1      31.477  22.150  25.572  1.00  0.00     0.248 C 
BRANCH  10  11
ATOM     11  N   UNL A   1      32.765  21.460  25.511  1.00  0.00    -0.220 N 
ATOM     12  N   UNL A   1      33.890  22.233  25.757  1.00  0.00    -0.166 NA
ATOM     13  C   UNL A   1      32.813  20.135  25.098  1.00  0.00     0.267 A 
ATOM     14  C   UNL A   1      35.054  21.708  25.508  1.00  0.00     0.126 A 
ATOM     15  C   UNL A   1      34.158  19.579  24.850  1.00  0.00     0.076 A 
ATOM     16  O   UNL A   1      31.827  19.433  24.897  1.00  0.00    -0.268 OA
ATOM     17  C   UNL A   1      35.249  20.331  25.008  1.00  0.00     0.040 A 
BRANCH  14  18
ATOM     18  C   UNL A   1      36.242  22.499  25.727  1.00  0.00     0.154 A 
ATOM     19  C   UNL A   1      36.434  23.862  25.842  1.00  0.00     0.052 A 
ATOM     20  O   UNL A   1      37.449  21.860  25.840  1.00  0.00    -0.463 OA
ATOM     21  C   UNL A   1      37.819  24.064  26.051  1.00  0.00     0.043 A 
ATOM     22  C   UNL A   1      38.397  22.817  26.013  1.00  0.00     0.196 A 
ENDBRANCH  14  18
ENDBRANCH  10  11
ENDBRANCH   8  10
ENDBRANCH   5   6
BRANCH   5  23
ATOM     23  C   UNL A   1      30.707  26.735  24.853  1.00  0.00    -0.014 A 
ATOM     24  C   UNL A   1      29.459  26.134  24.574  1.00  0.00     0.006 A 
ATOM     25  C   UNL A   1      30.940  28.013  24.327  1.00  0.00     0.006 A 
ATOM     26  C   UNL A   1      28.513  26.760  23.761  1.00  0.00     0.000 A 
ATOM     27  C   UNL A   1      29.990  28.641  23.512  1.00  0.00     0.000 A 
ATOM     28  C   UNL A   1      28.784  28.010  23.220  1.00  0.00     0.000 A 
ENDBRANCH   5  23
ENDBRANCH   3   5
ENDBRANCH   2   3
ENDBRANCH   1   2
BRANCH   1  29
ATOM     29  C   UNL A   1      33.489  29.997  27.289  1.00  0.00     0.275 C 
BRANCH  29  30
ATOM     30  O   UNL A   1      34.545  30.973  27.243  1.00  0.00    -0.458 OA
BRANCH  30  31
ATOM     31  C   UNL A   1      34.916  31.497  28.430  1.00  0.00     0.338 C 
ATOM     32  O   UNL A   1      34.297  32.278  29.134  1.00  0.00    -0.246 OA
BRANCH  31  33
ATOM     33  C   UNL A   1      36.195  30.889  28.809  1.00  0.00     0.060 A 
ATOM     34  C   UNL A   1      37.401  31.423  28.361  1.00  0.00     0.016 A 
ATOM     35  C   UNL A   1      36.178  29.811  29.694  1.00  0.00     0.016 A 
ATOM     36  C   UNL A   1      38.602  30.847  28.792  1.00  0.00     0.010 A 
ATOM     37  C   UNL A   1      37.376  29.270  30.157  1.00  0.00     0.010 A 
ATOM     38  C   UNL A   1      38.604  29.773  29.707  1.00  0.00    -0.014 A 
BRANCH  38  39
ATOM     39  C   UNL A   1      39.884  29.254  30.263  1.00  0.00     0.031 A 
ATOM     40  C   UNL A   1      40.551  29.881  31.460  1.00  0.00     0.074 A 
ATOM     41  C   UNL A   1      40.502  28.238  29.628  1.00  0.00     0.049 A 
ATOM     42  N   UNL A   1      41.615  29.476  32.107  1.00  0.00    -0.248 NA
ATOM     43  C   UNL A   1      39.987  31.139  31.975  1.00  0.00     0.031 C 
ATOM     44  C   UNL A   1      40.064  27.647  28.361  1.00  0.00     0.029 A 
ATOM     45  N   UNL A   1      41.625  27.521  29.957  1.00  0.00    -0.354 N 
ATOM     46  C   UNL A   1      41.874  30.444  33.070  1.00  0.00     0.074 A 
ATOM     47  C   UNL A   1      40.871  31.473  32.907  1.00  0.00     0.031 C 
ATOM     48  C   UNL A   1      40.874  26.623  28.050  1.00  0.00     0.029 A 
ATOM     49  C   UNL A   1      41.883  26.480  29.096  1.00  0.00     0.049 A 
ATOM     50  H   UNL A   1      42.191  27.731  30.735  1.00  0.00     0.167 HD
ATOM     51  C   UNL A   1      42.832  30.452  34.029  1.00  0.00     0.034 A 
ATOM     52  C   UNL A   1      42.792  25.487  29.163  1.00  0.00     0.034 A 
ATOM     53  C   UNL A   1      43.754  29.373  34.258  1.00  0.00     0.049 A 
ATOM     54  C   UNL A   1      43.708  25.402  30.350  1.00  0.00     0.074 A 
ATOM     55  C   UNL A   1      44.648  29.215  35.303  1.00  0.00     0.029 A 
ATOM     56  N   UNL A   1      43.888  28.261  33.445  1.00  0.00    -0.354 N 
ATOM     57  N   UNL A   1      43.804  26.218  31.370  1.00  0.00    -0.248 NA
ATOM     58  C   UNL A   1      44.608  24.240  30.424  1.00  0.00     0.031 C 
ATOM     59  C   UNL A   1      45.310  27.995  35.133  1.00  0.00     0.029 A 
ATOM     60  C   UNL A   1      44.835  27.401  33.974  1.00  0.00     0.049 A 
ATOM     61  H   UNL A   1      43.385  28.103  32.613  1.00  0.00     0.167 HD
ATOM     62  C   UNL A   1      44.755  25.662  32.216  1.00  0.00     0.074 A 
ATOM     63  C   UNL A   1      45.197  24.429  31.599  1.00  0.00     0.031 C 
ATOM     64  C   UNL A   1      45.228  26.146  33.389  1.00  0.00     0.034 A 
BRANCH  51  65
ATOM     65  C   UNL A   1      42.862  31.605  34.998  1.00  0.00     0.023 A 
ATOM     66  C   UNL A   1      43.591  32.760  34.653  1.00  0.00     0.012 A 
ATOM     67  C   UNL A   1      42.085  31.601  36.174  1.00  0.00     0.148 A 
ATOM     68  C   UNL A   1      43.567  33.887  35.472  1.00  0.00     0.002 A 
ATOM     69  C   UNL A   1      42.040  32.741  36.969  1.00  0.00     0.091 A 
ATOM     70  F   UNL A   1      41.401  30.491  36.484  1.00  0.00    -0.205 F 
ATOM     71  C   UNL A   1      42.786  33.881  36.622  1.00  0.00     0.022 A 
BRANCH  69  72
ATOM     72  S   UNL A   1      41.012  32.872  38.437  1.00  0.00     0.127 S 
ATOM     73  O   UNL A   1      41.115  34.298  38.745  1.00  0.00    -0.237 OA
ATOM     74  O   UNL A   1      39.704  32.451  37.936  1.00  0.00    -0.237 OA
ATOM     75  O   UNL A   1      41.604  31.981  39.426  1.00  0.00    -0.744 OA
ENDBRANCH  69  72
ENDBRANCH  51  65
BRANCH  52  76
ATOM     76  C   UNL A   1      42.736  24.400  28.151  1.00  0.00     0.023 A 
ATOM     77  C   UNL A   1      41.651  23.503  28.189  1.00  0.00     0.012 A 
ATOM     78  C   UNL A   1      43.670  24.312  27.102  1.00  0.00     0.148 A 
ATOM     79  C   UNL A   1      41.498  22.531  27.202  1.00  0.00     0.002 A 
ATOM     80  C   UNL A   1      43.494  23.362  26.102  1.00  0.00     0.091 A 
ATOM     81  F   UNL A   1      44.693  25.179  27.091  1.00  0.00    -0.205 F 
ATOM     82  C   UNL A   1      42.413  22.467  26.154  1.00  0.00     0.022 A 
BRANCH  80  83
ATOM     83  S   UNL A   1      44.553  23.270  24.654  1.00  0.00     0.127 S 
ATOM     84  O   UNL A   1      43.685  22.595  23.692  1.00  0.00    -0.237 OA
ATOM     85  O   UNL A   1      44.803  24.683  24.372  1.00  0.00    -0.237 OA
ATOM     86  O   UNL A   1      45.730  22.521  25.073  1.00  0.00    -0.744 OA
ENDBRANCH  80  83
ENDBRANCH  52  76
BRANCH  64  87
ATOM     87  C   UNL A   1      46.284  25.362  34.115  1.00  0.00     0.023 A 
ATOM     88  C   UNL A   1      47.633  25.725  33.953  1.00  0.00     0.012 A 
ATOM     89  C   UNL A   1      45.933  24.387  35.069  1.00  0.00     0.148 A 
ATOM     90  C   UNL A   1      48.623  25.130  34.733  1.00  0.00     0.002 A 
ATOM     91  C   UNL A   1      46.922  23.817  35.862  1.00  0.00     0.091 A 
ATOM     92  F   UNL A   1      44.639  24.061  35.200  1.00  0.00    -0.205 F 
ATOM     93  C   UNL A   1      48.268  24.187  35.693  1.00  0.00     0.022 A 
BRANCH  91  94
ATOM     94  S   UNL A   1      46.563  22.644  37.174  1.00  0.00     0.127 S 
ATOM     95  O   UNL A   1      47.887  22.437  37.761  1.00  0.00    -0.237 OA
ATOM     96  O   UNL A   1      45.634  23.400  38.015  1.00  0.00    -0.237 OA
ATOM     97  O   UNL A   1      45.987  21.474  36.527  1.00  0.00    -0.744 OA
ENDBRANCH  91  94
ENDBRANCH  64  87
ENDBRANCH  38  39
ENDBRANCH  31  33
ENDBRANCH  30  31
ENDBRANCH  29  30
ENDBRANCH   1  29
TORSDOF 19
ENDMDL
MODEL 3
REMARK VINA RESULT:     -11.2      1.943      2.423
REMARK SMILES O=C(Cn1nc(-c2ccco2)ccc1=O)N[C@@H](C(=O)OCCOC(=O)c1ccc(-c2c3nc(c(-c4cccc(S(=O)(=O)[O-])c4F)c4ccc([nH]4)c(-c4cccc(S(=O)(=O)[O-])c4F)c4nc(c(-c5cccc(S(=O)(=O)[O-])c5F)c5ccc2[nH]5)C=C4)C=C3)cc1)c1ccccc1
REMARK SMILES IDX 21 1 20 2 18 3 19 4 17 5 16 6 1 7 2 8 3 10 4 11 5 12 14 13
REMARK SMILES IDX 6 14 13 15 15 16 12 17 7 18 8 19 11 20 9 21 10 22 89 23
REMARK SMILES IDX 90 24 94 25 91 26 93 27 92 28 22 29 23 30 24 31 25 32 26 33
REMARK SMILES IDX 27 34 88 35 28 36 87 37 29 38 30 39 31 40 81 41 32 42 86 43
REMARK SMILES IDX 80 44 82 45 33 46 85 47 79 48 78 49 34 51 66 52 46 53 65 54
REMARK SMILES IDX 47 55 50 56 64 57 83 58 48 59 49 60 63 62 84 63 51 64 35 65
REMARK SMILES IDX 36 66 44 67 37 68 39 69 45 70 38 71 40 72 41 73 42 74 43 75
REMARK SMILES IDX 67 76 68 77 76 78 69 79 71 80 77 81 70 82 72 83 73 84 74 85
REMARK SMILES IDX 75 86 52 87 53 88 61 89 54 90 56 91 62 92 55 93 57 94 58 95
REMARK SMILES IDX 59 96 60 97
REMARK H PARENT 16 9 82 50 50 61
REMARK Flexibility Score: inf
ROOT
ATOM      1  C   UNL A   1      33.673  27.896  26.052  1.00  0.00     0.274 C 
ENDROOT
BRANCH   1   2
ATOM      2  O   UNL A   1      32.685  27.026  26.644  1.00  0.00    -0.460 OA
BRANCH   2   3
ATOM      3  C   UNL A   1      31.559  26.792  25.903  1.00  0.00     0.333 C 
ATOM      4  O   UNL A   1      30.638  27.597  25.801  1.00  0.00    -0.249 OA
BRANCH   3   5
ATOM      5  C   UNL A   1      31.548  25.384  25.256  1.00  0.00     0.223 C 
BRANCH   5   6
ATOM      6  N   UNL A   1      32.308  24.382  26.011  1.00  0.00    -0.337 N 
ATOM      7  O   UNL A   1      30.465  23.253  26.726  1.00  0.00    -0.273 OA
ATOM      8  C   UNL A   1      31.688  23.304  26.592  1.00  0.00     0.242 C 
ATOM      9  H   UNL A   1      33.284  24.485  26.104  1.00  0.00     0.164 HD
BRANCH   8  10
ATOM     10  C   UNL A   1      32.594  22.250  27.219  1.00  0.00     0.248 C 
BRANCH  10  11
ATOM     11  N   UNL A   1      33.639  21.724  26.340  1.00  0.00    -0.220 N 
ATOM     12  N   UNL A   1      33.345  20.544  25.673  1.00  0.00    -0.166 NA
ATOM     13  C   UNL A   1      34.883  22.338  26.313  1.00  0.00     0.267 A 
ATOM     14  C   UNL A   1      34.315  19.940  25.052  1.00  0.00     0.126 A 
ATOM     15  C   UNL A   1      35.945  21.624  25.576  1.00  0.00     0.076 A 
ATOM     16  O   UNL A   1      35.151  23.392  26.881  1.00  0.00    -0.268 OA
ATOM     17  C   UNL A   1      35.701  20.450  24.992  1.00  0.00     0.040 A 
BRANCH  14  18
ATOM     18  C   UNL A   1      34.046  18.695  24.372  1.00  0.00     0.154 A 
ATOM     19  C   UNL A   1      34.779  17.531  24.256  1.00  0.00     0.052 A 
ATOM     20  O   UNL A   1      32.873  18.565  23.675  1.00  0.00    -0.463 OA
ATOM     21  C   UNL A   1      34.012  16.641  23.466  1.00  0.00     0.043 A 
ATOM     22  C   UNL A   1      32.874  17.328  23.113  1.00  0.00     0.196 A 
ENDBRANCH  14  18
ENDBRANCH  10  11
ENDBRANCH   8  10
ENDBRANCH   5   6
BRANCH   5  23
ATOM     23  C   UNL A   1      31.944  25.299  23.780  1.00  0.00    -0.014 A 
ATOM     24  C   UNL A   1      31.475  26.302  22.901  1.00  0.00     0.006 A 
ATOM     25  C   UNL A   1      32.790  24.317  23.247  1.00  0.00     0.006 A 
ATOM     26  C   UNL A   1      31.794  26.289  21.542  1.00  0.00     0.000 A 
ATOM     27  C   UNL A   1      33.109  24.305  21.883  1.00  0.00     0.000 A 
ATOM     28  C   UNL A   1      32.603  25.282  21.032  1.00  0.00     0.000 A 
ENDBRANCH   5  23
ENDBRANCH   3   5
ENDBRANCH   2   3
ENDBRANCH   1   2
BRANCH   1  29
ATOM     29  C   UNL A   1      34.371  28.714  27.133  1.00  0.00     0.275 C 
BRANCH  29  30
ATOM     30  O   UNL A   1      33.954  30.084  27.003  1.00  0.00    -0.458 OA
BRANCH  30  31
ATOM     31  C   UNL A   1      34.694  30.992  27.674  1.00  0.00     0.338 C 
ATOM     32  O   UNL A   1      34.391  32.136  27.973  1.00  0.00    -0.246 OA
BRANCH  31  33
ATOM     33  C   UNL A   1      35.941  30.340  28.087  1.00  0.00     0.060 A 
ATOM     34  C   UNL A   1      37.068  30.371  27.270  1.00  0.00     0.016 A 
ATOM     35  C   UNL A   1      35.992  29.757  29.353  1.00  0.00     0.016 A 
ATOM     36  C   UNL A   1      38.254  29.785  27.727  1.00  0.00     0.010 A 
ATOM     37  C   UNL A   1      37.189  29.215  29.822  1.00  0.00     0.010 A 
ATOM     38  C   UNL A   1      38.333  29.214  29.014  1.00  0.00    -0.014 A 
BRANCH  38  39
ATOM     39  C   UNL A   1      39.632  28.713  29.543  1.00  0.00     0.031 A 
ATOM     40  C   UNL A   1      40.297  29.326  30.747  1.00  0.00     0.074 A 
ATOM     41  C   UNL A   1      40.268  27.729  28.875  1.00  0.00     0.049 A 
ATOM     42  N   UNL A   1      41.378  28.932  31.372  1.00  0.00    -0.248 NA
ATOM     43  C   UNL A   1      39.709  30.556  31.300  1.00  0.00     0.031 C 
ATOM     44  C   UNL A   1      39.829  27.159  27.598  1.00  0.00     0.029 A 
ATOM     45  N   UNL A   1      41.411  27.032  29.174  1.00  0.00    -0.354 N 
ATOM     46  C   UNL A   1      41.624  29.882  32.357  1.00  0.00     0.074 A 
ATOM     47  C   UNL A   1      40.594  30.890  32.231  1.00  0.00     0.031 C 
ATOM     48  C   UNL A   1      40.661  26.163  27.254  1.00  0.00     0.029 A 
ATOM     49  C   UNL A   1      41.685  26.019  28.285  1.00  0.00     0.049 A 
ATOM     50  H   UNL A   1      41.981  27.237  29.950  1.00  0.00     0.167 HD
ATOM     51  C   UNL A   1      42.592  29.890  33.305  1.00  0.00     0.034 A 
ATOM     52  C   UNL A   1      42.619  25.048  28.317  1.00  0.00     0.034 A 
ATOM     53  C   UNL A   1      43.544  28.829  33.497  1.00  0.00     0.049 A 
ATOM     54  C   UNL A   1      43.550  24.956  29.491  1.00  0.00     0.074 A 
ATOM     55  C   UNL A   1      44.453  28.668  34.527  1.00  0.00     0.029 A 
ATOM     56  N   UNL A   1      43.696  27.741  32.655  1.00  0.00    -0.354 N 
ATOM     57  N   UNL A   1      43.638  25.749  30.530  1.00  0.00    -0.248 NA
ATOM     58  C   UNL A   1      44.479  23.815  29.526  1.00  0.00     0.031 C 
ATOM     59  C   UNL A   1      45.143  27.469  34.319  1.00  0.00     0.029 A 
ATOM     60  C   UNL A   1      44.669  26.893  33.151  1.00  0.00     0.049 A 
ATOM     61  H   UNL A   1      43.187  27.592  31.825  1.00  0.00     0.167 HD
ATOM     62  C   UNL A   1      44.612  25.196  31.352  1.00  0.00     0.074 A 
ATOM     63  C   UNL A   1      45.077  23.990  30.699  1.00  0.00     0.031 C 
ATOM     64  C   UNL A   1      45.086  25.662  32.531  1.00  0.00     0.034 A 
BRANCH  51  65
ATOM     65  C   UNL A   1      42.606  31.019  34.302  1.00  0.00     0.023 A 
ATOM     66  C   UNL A   1      43.566  32.040  34.156  1.00  0.00     0.012 A 
ATOM     67  C   UNL A   1      41.611  31.139  35.293  1.00  0.00     0.148 A 
ATOM     68  C   UNL A   1      43.554  33.153  34.995  1.00  0.00     0.002 A 
ATOM     69  C   UNL A   1      41.585  32.269  36.104  1.00  0.00     0.091 A 
ATOM     70  F   UNL A   1      40.708  30.156  35.415  1.00  0.00    -0.205 F 
ATOM     71  C   UNL A   1      42.560  33.272  35.960  1.00  0.00     0.022 A 
BRANCH  69  72
ATOM     72  S   UNL A   1      40.310  32.562  37.336  1.00  0.00     0.127 S 
ATOM     73  O   UNL A   1      41.029  32.282  38.578  1.00  0.00    -0.237 OA
ATOM     74  O   UNL A   1      39.993  33.974  37.121  1.00  0.00    -0.237 OA
ATOM     75  O   UNL A   1      39.228  31.638  37.025  1.00  0.00    -0.744 OA
ENDBRANCH  69  72
ENDBRANCH  51  65
BRANCH  52  76
ATOM     76  C   UNL A   1      42.578  23.985  27.278  1.00  0.00     0.023 A 
ATOM     77  C   UNL A   1      43.533  24.021  26.244  1.00  0.00     0.012 A 
ATOM     78  C   UNL A   1      41.688  22.899  27.361  1.00  0.00     0.148 A 
ATOM     79  C   UNL A   1      43.602  22.994  25.304  1.00  0.00     0.002 A 
ATOM     80  C   UNL A   1      41.783  21.861  26.441  1.00  0.00     0.091 A 
ATOM     81  F   UNL A   1      40.789  22.891  28.356  1.00  0.00    -0.205 F 
ATOM     82  C   UNL A   1      42.735  21.910  25.409  1.00  0.00     0.022 A 
BRANCH  80  83
ATOM     83  S   UNL A   1      40.787  20.370  26.554  1.00  0.00     0.127 S 
ATOM     84  O   UNL A   1      40.855  20.073  27.983  1.00  0.00    -0.237 OA
ATOM     85  O   UNL A   1      39.485  20.841  26.083  1.00  0.00    -0.237 OA
ATOM     86  O   UNL A   1      41.430  19.398  25.678  1.00  0.00    -0.744 OA
ENDBRANCH  80  83
ENDBRANCH  52  76
BRANCH  64  87
ATOM     87  C   UNL A   1      46.169  24.887  33.225  1.00  0.00     0.023 A 
ATOM     88  C   UNL A   1      47.505  25.306  33.081  1.00  0.00     0.012 A 
ATOM     89  C   UNL A   1      45.854  23.861  34.137  1.00  0.00     0.148 A 
ATOM     90  C   UNL A   1      48.516  24.714  33.838  1.00  0.00     0.002 A 
ATOM     91  C   UNL A   1      46.863  23.295  34.907  1.00  0.00     0.091 A 
ATOM     92  F   UNL A   1      44.573  23.483  34.252  1.00  0.00    -0.205 F 
ATOM     93  C   UNL A   1      48.194  23.719  34.757  1.00  0.00     0.022 A 
BRANCH  91  94
ATOM     94  S   UNL A   1      46.545  22.055  36.169  1.00  0.00     0.127 S 
ATOM     95  O   UNL A   1      46.230  20.879  35.358  1.00  0.00    -0.237 OA
ATOM     96  O   UNL A   1      47.830  21.989  36.865  1.00  0.00    -0.237 OA
ATOM     97  O   UNL A   1      45.441  22.564  36.970  1.00  0.00    -0.744 OA
ENDBRANCH  91  94
ENDBRANCH  64  87
ENDBRANCH  38  39
ENDBRANCH  31  33
ENDBRANCH  30  31
ENDBRANCH  29  30
ENDBRANCH   1  29
TORSDOF 19
ENDMDL
