MODEL 1
REMARK VINA RESULT:     -11.6      0.000      0.000
REMARK SMILES Cc1nn(-c2ccncn2)c(C)c1[C@@H](C)C(=O)OCCOC(=O)c1ccc(-c2c3nc(c(-c4cccc(S(=O)(=O)[O-])c4F)c4ccc([nH]4)c(-c4cccc(S(=O)(=O)[O-])c4F)c4nc(c(-c5cccc(S(=O)(=O)[O-])c5F)c5ccc2[nH]5)C=C4)C=C3)cc1
REMARK SMILES IDX 20 1 19 2 18 3 16 4 17 5 14 6 15 7 13 8 1 9 2 10 3 11 4 12
REMARK SMILES IDX 11 13 12 14 5 15 6 16 10 17 7 18 9 19 8 20 21 21 22 22 23 23
REMARK SMILES IDX 24 24 25 25 86 26 26 27 85 28 27 29 28 30 29 31 79 32 30 33
REMARK SMILES IDX 84 34 78 35 80 36 31 37 83 38 77 39 76 40 32 42 64 43 44 44
REMARK SMILES IDX 63 45 45 46 48 47 62 48 81 49 46 50 47 51 61 53 82 54 49 55
REMARK SMILES IDX 33 56 34 57 42 58 35 59 37 60 43 61 36 62 38 63 39 64 40 65
REMARK SMILES IDX 41 66 65 67 66 68 74 69 67 70 69 71 75 72 68 73 70 74 71 75
REMARK SMILES IDX 72 76 73 77 50 78 51 79 59 80 52 81 54 82 60 83 53 84 55 85
REMARK SMILES IDX 56 86 57 87 58 88
REMARK H PARENT 80 41 48 52
REMARK Flexibility Score: inf
ROOT
ATOM      1  C   UNL A   1      33.542  30.371  27.223  1.00  0.00     0.275 C 
ENDROOT
BRANCH   1   2
ATOM      2  C   UNL A   1      32.918  30.122  25.855  1.00  0.00     0.274 C 
BRANCH   2   3
ATOM      3  O   UNL A   1      33.116  28.761  25.424  1.00  0.00    -0.462 OA
BRANCH   3   4
ATOM      4  C   UNL A   1      33.137  28.506  24.090  1.00  0.00     0.313 C 
ATOM      5  O   UNL A   1      33.725  29.214  23.276  1.00  0.00    -0.252 OA
BRANCH   4   6
ATOM      6  C   UNL A   1      32.292  27.303  23.654  1.00  0.00     0.130 C 
ATOM      7  C   UNL A   1      31.093  27.176  24.584  1.00  0.00     0.025 C 
BRANCH   6   8
ATOM      8  C   UNL A   1      32.996  25.975  23.442  1.00  0.00     0.010 A 
ATOM      9  C   UNL A   1      32.649  25.630  20.840  1.00  0.00     0.069 C 
ATOM     10  C   UNL A   1      33.167  25.292  22.195  1.00  0.00     0.064 A 
ATOM     11  N   UNL A   1      33.908  24.190  22.321  1.00  0.00    -0.171 NA
ATOM     12  N   UNL A   1      34.232  24.127  23.629  1.00  0.00    -0.219 N 
ATOM     13  C   UNL A   1      33.629  25.144  24.364  1.00  0.00     0.047 A 
ATOM     14  C   UNL A   1      33.873  25.332  25.821  1.00  0.00     0.067 C 
BRANCH  12  15
ATOM     15  C   UNL A   1      35.059  23.067  24.112  1.00  0.00     0.156 A 
ATOM     16  C   UNL A   1      36.427  23.164  23.946  1.00  0.00     0.069 A 
ATOM     17  N   UNL A   1      34.471  21.991  24.685  1.00  0.00    -0.217 NA
ATOM     18  C   UNL A   1      37.160  22.065  24.326  1.00  0.00     0.117 A 
ATOM     19  C   UNL A   1      35.281  20.975  25.000  1.00  0.00     0.224 A 
ATOM     20  N   UNL A   1      36.615  20.948  24.835  1.00  0.00    -0.245 NA
ENDBRANCH  12  15
ENDBRANCH   6   8
ENDBRANCH   4   6
ENDBRANCH   3   4
ENDBRANCH   2   3
ENDBRANCH   1   2
BRANCH   1  21
ATOM     21  O   UNL A   1      34.956  30.200  27.166  1.00  0.00    -0.458 OA
BRANCH  21  22
ATOM     22  C   UNL A   1      35.631  31.196  27.779  1.00  0.00     0.338 C 
ATOM     23  O   UNL A   1      35.519  32.390  27.585  1.00  0.00    -0.246 OA
BRANCH  22  24
ATOM     24  C   UNL A   1      36.691  30.658  28.616  1.00  0.00     0.060 A 
ATOM     25  C   UNL A   1      37.668  31.558  29.058  1.00  0.00     0.016 A 
ATOM     26  C   UNL A   1      36.875  29.275  28.619  1.00  0.00     0.016 A 
ATOM     27  C   UNL A   1      38.918  31.077  29.361  1.00  0.00     0.010 A 
ATOM     28  C   UNL A   1      38.129  28.800  28.884  1.00  0.00     0.010 A 
ATOM     29  C   UNL A   1      39.144  29.714  29.191  1.00  0.00    -0.014 A 
BRANCH  29  30
ATOM     30  C   UNL A   1      40.472  29.195  29.425  1.00  0.00     0.031 A 
ATOM     31  C   UNL A   1      40.775  29.038  30.865  1.00  0.00     0.074 A 
ATOM     32  C   UNL A   1      41.194  28.718  28.394  1.00  0.00     0.049 A 
ATOM     33  N   UNL A   1      41.734  29.573  31.546  1.00  0.00    -0.248 NA
ATOM     34  C   UNL A   1      39.775  28.333  31.689  1.00  0.00     0.031 C 
ATOM     35  C   UNL A   1      40.739  28.595  27.001  1.00  0.00     0.029 A 
ATOM     36  N   UNL A   1      42.389  28.066  28.393  1.00  0.00    -0.354 N 
ATOM     37  C   UNL A   1      41.587  29.041  32.827  1.00  0.00     0.074 A 
ATOM     38  C   UNL A   1      40.250  28.534  32.915  1.00  0.00     0.031 C 
ATOM     39  C   UNL A   1      41.508  27.685  26.369  1.00  0.00     0.029 A 
ATOM     40  C   UNL A   1      42.564  27.262  27.271  1.00  0.00     0.049 A 
ATOM     41  H   UNL A   1      43.057  28.153  29.112  1.00  0.00     0.167 HD
ATOM     42  C   UNL A   1      42.675  28.718  33.573  1.00  0.00     0.034 A 
ATOM     43  C   UNL A   1      43.452  26.251  27.132  1.00  0.00     0.034 A 
ATOM     44  C   UNL A   1      43.863  29.346  33.060  1.00  0.00     0.049 A 
ATOM     45  C   UNL A   1      44.484  26.403  28.180  1.00  0.00     0.074 A 
ATOM     46  C   UNL A   1      44.368  30.624  32.993  1.00  0.00     0.029 A 
ATOM     47  N   UNL A   1      44.566  28.572  32.174  1.00  0.00    -0.354 N 
ATOM     48  N   UNL A   1      45.344  27.380  28.210  1.00  0.00    -0.248 NA
ATOM     49  C   UNL A   1      44.376  25.630  29.413  1.00  0.00     0.031 C 
ATOM     50  C   UNL A   1      45.275  30.630  31.894  1.00  0.00     0.029 A 
ATOM     51  C   UNL A   1      45.298  29.355  31.325  1.00  0.00     0.049 A 
ATOM     52  H   UNL A   1      44.546  27.589  32.151  1.00  0.00     0.167 HD
ATOM     53  C   UNL A   1      45.542  27.617  29.559  1.00  0.00     0.074 A 
ATOM     54  C   UNL A   1      45.094  26.405  30.230  1.00  0.00     0.031 C 
ATOM     55  C   UNL A   1      45.726  28.885  30.023  1.00  0.00     0.034 A 
BRANCH  42  56
ATOM     56  C   UNL A   1      42.784  27.482  34.449  1.00  0.00     0.023 A 
ATOM     57  C   UNL A   1      42.620  27.682  35.839  1.00  0.00     0.012 A 
ATOM     58  C   UNL A   1      43.323  26.235  34.049  1.00  0.00     0.148 A 
ATOM     59  C   UNL A   1      43.029  26.727  36.775  1.00  0.00     0.002 A 
ATOM     60  C   UNL A   1      43.658  25.258  34.980  1.00  0.00     0.091 A 
ATOM     61  F   UNL A   1      43.660  26.016  32.776  1.00  0.00    -0.205 F 
ATOM     62  C   UNL A   1      43.543  25.511  36.346  1.00  0.00     0.022 A 
BRANCH  60  63
ATOM     63  S   UNL A   1      44.295  23.657  34.466  1.00  0.00     0.127 S 
ATOM     64  O   UNL A   1      45.273  24.043  33.454  1.00  0.00    -0.237 OA
ATOM     65  O   UNL A   1      44.861  23.143  35.714  1.00  0.00    -0.237 OA
ATOM     66  O   UNL A   1      43.137  22.911  33.989  1.00  0.00    -0.744 OA
ENDBRANCH  60  63
ENDBRANCH  42  56
BRANCH  43  67
ATOM     67  C   UNL A   1      43.393  25.050  26.271  1.00  0.00     0.023 A 
ATOM     68  C   UNL A   1      44.319  24.914  25.219  1.00  0.00     0.012 A 
ATOM     69  C   UNL A   1      42.603  23.932  26.618  1.00  0.00     0.148 A 
ATOM     70  C   UNL A   1      44.481  23.693  24.557  1.00  0.00     0.002 A 
ATOM     71  C   UNL A   1      42.760  22.722  25.950  1.00  0.00     0.091 A 
ATOM     72  F   UNL A   1      41.766  24.030  27.660  1.00  0.00    -0.205 F 
ATOM     73  C   UNL A   1      43.709  22.597  24.926  1.00  0.00     0.022 A 
BRANCH  71  74
ATOM     74  S   UNL A   1      41.812  21.255  26.377  1.00  0.00     0.127 S 
ATOM     75  O   UNL A   1      40.443  21.681  26.085  1.00  0.00    -0.237 OA
ATOM     76  O   UNL A   1      42.356  20.265  25.451  1.00  0.00    -0.237 OA
ATOM     77  O   UNL A   1      42.074  21.010  27.790  1.00  0.00    -0.744 OA
ENDBRANCH  71  74
ENDBRANCH  43  67
BRANCH  55  78
ATOM     78  C   UNL A   1      46.184  29.922  29.038  1.00  0.00     0.023 A 
ATOM     79  C   UNL A   1      47.543  30.106  28.713  1.00  0.00     0.012 A 
ATOM     80  C   UNL A   1      45.209  30.645  28.334  1.00  0.00     0.148 A 
ATOM     81  C   UNL A   1      47.921  31.013  27.722  1.00  0.00     0.002 A 
ATOM     82  C   UNL A   1      45.585  31.510  27.314  1.00  0.00     0.091 A 
ATOM     83  F   UNL A   1      43.920  30.460  28.660  1.00  0.00    -0.205 F 
ATOM     84  C   UNL A   1      46.942  31.705  27.013  1.00  0.00     0.022 A 
BRANCH  82  85
ATOM     85  S   UNL A   1      44.360  32.319  26.286  1.00  0.00     0.127 S 
ATOM     86  O   UNL A   1      45.164  32.790  25.160  1.00  0.00    -0.237 OA
ATOM     87  O   UNL A   1      43.439  31.226  25.966  1.00  0.00    -0.237 OA
ATOM     88  O   UNL A   1      43.770  33.360  27.121  1.00  0.00    -0.744 OA
ENDBRANCH  82  85
ENDBRANCH  55  78
ENDBRANCH  29  30
ENDBRANCH  22  24
ENDBRANCH  21  22
ENDBRANCH   1  21
TORSDOF 16
ENDMDL
MODEL 2
REMARK VINA RESULT:     -11.5      3.408      7.387
REMARK SMILES Cc1nn(-c2ccncn2)c(C)c1[C@@H](C)C(=O)OCCOC(=O)c1ccc(-c2c3nc(c(-c4cccc(S(=O)(=O)[O-])c4F)c4ccc([nH]4)c(-c4cccc(S(=O)(=O)[O-])c4F)c4nc(c(-c5cccc(S(=O)(=O)[O-])c5F)c5ccc2[nH]5)C=C4)C=C3)cc1
REMARK SMILES IDX 20 1 19 2 18 3 16 4 17 5 14 6 15 7 13 8 1 9 2 10 3 11 4 12
REMARK SMILES IDX 11 13 12 14 5 15 6 16 10 17 7 18 9 19 8 20 21 21 22 22 23 23
REMARK SMILES IDX 24 24 25 25 86 26 26 27 85 28 27 29 28 30 29 31 79 32 30 33
REMARK SMILES IDX 84 34 78 35 80 36 31 37 83 38 77 39 76 40 32 42 64 43 44 44
REMARK SMILES IDX 63 45 45 46 48 47 62 48 81 49 46 50 47 51 61 53 82 54 49 55
REMARK SMILES IDX 33 56 34 57 42 58 35 59 37 60 43 61 36 62 38 63 39 64 40 65
REMARK SMILES IDX 41 66 65 67 66 68 74 69 67 70 69 71 75 72 68 73 70 74 71 75
REMARK SMILES IDX 72 76 73 77 50 78 51 79 59 80 52 81 54 82 60 83 53 84 55 85
REMARK SMILES IDX 56 86 57 87 58 88
REMARK H PARENT 80 41 48 52
REMARK Flexibility Score: inf
ROOT
ATOM      1  C   UNL A   1      37.531  20.263  24.951  1.00  0.00     0.275 C 
ENDROOT
BRANCH   1   2
ATOM      2  C   UNL A   1      36.305  21.162  24.854  1.00  0.00     0.274 C 
BRANCH   2   3
ATOM      3  O   UNL A   1      35.109  20.473  25.270  1.00  0.00    -0.462 OA
BRANCH   3   4
ATOM      4  C   UNL A   1      34.210  21.149  26.032  1.00  0.00     0.313 C 
ATOM      5  O   UNL A   1      34.422  21.475  27.198  1.00  0.00    -0.252 OA
BRANCH   4   6
ATOM      6  C   UNL A   1      32.859  21.403  25.354  1.00  0.00     0.130 C 
ATOM      7  C   UNL A   1      32.779  20.573  24.079  1.00  0.00     0.025 C 
BRANCH   6   8
ATOM      8  C   UNL A   1      32.433  22.842  25.128  1.00  0.00     0.010 A 
ATOM      9  C   UNL A   1      30.265  22.971  26.642  1.00  0.00     0.069 C 
ATOM     10  C   UNL A   1      31.318  23.506  25.735  1.00  0.00     0.064 A 
ATOM     11  N   UNL A   1      31.259  24.797  25.404  1.00  0.00    -0.171 NA
ATOM     12  N   UNL A   1      32.313  25.004  24.587  1.00  0.00    -0.219 N 
ATOM     13  C   UNL A   1      33.005  23.826  24.322  1.00  0.00     0.047 A 
ATOM     14  C   UNL A   1      34.243  23.792  23.495  1.00  0.00     0.067 C 
BRANCH  12  15
ATOM     15  C   UNL A   1      32.568  26.308  24.064  1.00  0.00     0.156 A 
ATOM     16  C   UNL A   1      33.648  27.019  24.550  1.00  0.00     0.069 A 
ATOM     17  N   UNL A   1      31.723  26.815  23.136  1.00  0.00    -0.217 NA
ATOM     18  C   UNL A   1      33.776  28.309  24.093  1.00  0.00     0.117 A 
ATOM     19  C   UNL A   1      31.935  28.086  22.777  1.00  0.00     0.224 A 
ATOM     20  N   UNL A   1      32.925  28.878  23.225  1.00  0.00    -0.245 NA
ENDBRANCH  12  15
ENDBRANCH   6   8
ENDBRANCH   4   6
ENDBRANCH   3   4
ENDBRANCH   2   3
ENDBRANCH   1   2
BRANCH   1  21
ATOM     21  O   UNL A   1      38.683  21.023  25.305  1.00  0.00    -0.458 OA
BRANCH  21  22
ATOM     22  C   UNL A   1      39.737  20.252  25.650  1.00  0.00     0.338 C 
ATOM     23  O   UNL A   1      39.830  19.045  25.550  1.00  0.00    -0.246 OA
BRANCH  22  24
ATOM     24  C   UNL A   1      40.737  21.037  26.354  1.00  0.00     0.060 A 
ATOM     25  C   UNL A   1      40.673  21.037  27.753  1.00  0.00     0.016 A 
ATOM     26  C   UNL A   1      41.438  21.998  25.625  1.00  0.00     0.016 A 
ATOM     27  C   UNL A   1      41.184  22.114  28.435  1.00  0.00     0.010 A 
ATOM     28  C   UNL A   1      41.913  23.087  26.301  1.00  0.00     0.010 A 
ATOM     29  C   UNL A   1      41.725  23.155  27.687  1.00  0.00    -0.014 A 
BRANCH  29  30
ATOM     30  C   UNL A   1      42.196  24.335  28.376  1.00  0.00     0.031 A 
ATOM     31  C   UNL A   1      41.294  25.494  28.197  1.00  0.00     0.074 A 
ATOM     32  C   UNL A   1      43.218  24.237  29.247  1.00  0.00     0.049 A 
ATOM     33  N   UNL A   1      41.569  26.655  27.701  1.00  0.00    -0.248 NA
ATOM     34  C   UNL A   1      39.856  25.272  28.441  1.00  0.00     0.031 C 
ATOM     35  C   UNL A   1      43.898  22.996  29.647  1.00  0.00     0.029 A 
ATOM     36  N   UNL A   1      43.730  25.166  30.099  1.00  0.00    -0.354 N 
ATOM     37  C   UNL A   1      40.382  27.376  27.829  1.00  0.00     0.074 A 
ATOM     38  C   UNL A   1      39.332  26.418  28.017  1.00  0.00     0.031 C 
ATOM     39  C   UNL A   1      44.518  23.200  30.828  1.00  0.00     0.029 A 
ATOM     40  C   UNL A   1      44.374  24.597  31.193  1.00  0.00     0.049 A 
ATOM     41  H   UNL A   1      43.651  26.138  29.957  1.00  0.00     0.167 HD
ATOM     42  C   UNL A   1      40.402  28.696  28.148  1.00  0.00     0.034 A 
ATOM     43  C   UNL A   1      44.679  25.210  32.360  1.00  0.00     0.034 A 
ATOM     44  C   UNL A   1      41.706  29.264  27.930  1.00  0.00     0.049 A 
ATOM     45  C   UNL A   1      44.607  26.671  32.140  1.00  0.00     0.074 A 
ATOM     46  C   UNL A   1      42.489  29.581  26.845  1.00  0.00     0.029 A 
ATOM     47  N   UNL A   1      42.513  29.251  29.038  1.00  0.00    -0.354 N 
ATOM     48  N   UNL A   1      45.437  27.328  31.382  1.00  0.00    -0.248 NA
ATOM     49  C   UNL A   1      43.398  27.395  32.515  1.00  0.00     0.031 C 
ATOM     50  C   UNL A   1      43.834  29.570  27.315  1.00  0.00     0.029 A 
ATOM     51  C   UNL A   1      43.831  29.250  28.674  1.00  0.00     0.049 A 
ATOM     52  H   UNL A   1      42.189  29.242  29.967  1.00  0.00     0.167 HD
ATOM     53  C   UNL A   1      44.668  28.341  30.836  1.00  0.00     0.074 A 
ATOM     54  C   UNL A   1      43.508  28.454  31.708  1.00  0.00     0.031 C 
ATOM     55  C   UNL A   1      44.870  28.752  29.552  1.00  0.00     0.034 A 
BRANCH  42  56
ATOM     56  C   UNL A   1      39.427  29.368  29.099  1.00  0.00     0.023 A 
ATOM     57  C   UNL A   1      38.876  30.596  28.667  1.00  0.00     0.012 A 
ATOM     58  C   UNL A   1      39.258  29.046  30.468  1.00  0.00     0.148 A 
ATOM     59  C   UNL A   1      38.254  31.478  29.555  1.00  0.00     0.002 A 
ATOM     60  C   UNL A   1      38.572  29.891  31.332  1.00  0.00     0.091 A 
ATOM     61  F   UNL A   1      39.878  27.990  31.000  1.00  0.00    -0.205 F 
ATOM     62  C   UNL A   1      38.096  31.124  30.888  1.00  0.00     0.022 A 
BRANCH  60  63
ATOM     63  S   UNL A   1      38.315  29.456  33.058  1.00  0.00     0.127 S 
ATOM     64  O   UNL A   1      37.679  30.665  33.572  1.00  0.00    -0.237 OA
ATOM     65  O   UNL A   1      37.438  28.290  32.947  1.00  0.00    -0.237 OA
ATOM     66  O   UNL A   1      39.641  29.153  33.585  1.00  0.00    -0.744 OA
ENDBRANCH  60  63
ENDBRANCH  42  56
BRANCH  43  67
ATOM     67  C   UNL A   1      44.860  24.638  33.712  1.00  0.00     0.023 A 
ATOM     68  C   UNL A   1      43.741  24.133  34.399  1.00  0.00     0.012 A 
ATOM     69  C   UNL A   1      46.146  24.364  34.229  1.00  0.00     0.148 A 
ATOM     70  C   UNL A   1      43.894  23.347  35.545  1.00  0.00     0.002 A 
ATOM     71  C   UNL A   1      46.294  23.590  35.376  1.00  0.00     0.091 A 
ATOM     72  F   UNL A   1      47.221  24.783  33.548  1.00  0.00    -0.205 F 
ATOM     73  C   UNL A   1      45.169  23.070  36.029  1.00  0.00     0.022 A 
BRANCH  71  74
ATOM     74  S   UNL A   1      47.906  23.174  36.056  1.00  0.00     0.127 S 
ATOM     75  O   UNL A   1      48.466  24.495  36.341  1.00  0.00    -0.237 OA
ATOM     76  O   UNL A   1      47.542  22.396  37.238  1.00  0.00    -0.237 OA
ATOM     77  O   UNL A   1      48.603  22.442  35.006  1.00  0.00    -0.744 OA
ENDBRANCH  71  74
ENDBRANCH  43  67
BRANCH  55  78
ATOM     78  C   UNL A   1      46.204  28.449  28.932  1.00  0.00     0.023 A 
ATOM     79  C   UNL A   1      47.362  29.196  29.227  1.00  0.00     0.012 A 
ATOM     80  C   UNL A   1      46.315  27.307  28.123  1.00  0.00     0.148 A 
ATOM     81  C   UNL A   1      48.601  28.824  28.704  1.00  0.00     0.002 A 
ATOM     82  C   UNL A   1      47.558  26.911  27.646  1.00  0.00     0.091 A 
ATOM     83  F   UNL A   1      45.201  26.610  27.848  1.00  0.00    -0.205 F 
ATOM     84  C   UNL A   1      48.702  27.673  27.925  1.00  0.00     0.022 A 
BRANCH  82  85
ATOM     85  S   UNL A   1      47.759  25.369  26.754  1.00  0.00     0.127 S 
ATOM     86  O   UNL A   1      49.195  25.354  26.484  1.00  0.00    -0.237 OA
ATOM     87  O   UNL A   1      47.309  24.374  27.729  1.00  0.00    -0.237 OA
ATOM     88  O   UNL A   1      46.897  25.476  25.582  1.00  0.00    -0.744 OA
ENDBRANCH  82  85
ENDBRANCH  55  78
ENDBRANCH  29  30
ENDBRANCH  22  24
ENDBRANCH  21  22
ENDBRANCH   1  21
TORSDOF 16
ENDMDL
MODEL 3
REMARK VINA RESULT:     -11.4      3.140      8.675
REMARK SMILES Cc1nn(-c2ccncn2)c(C)c1[C@@H](C)C(=O)OCCOC(=O)c1ccc(-c2c3nc(c(-c4cccc(S(=O)(=O)[O-])c4F)c4ccc([nH]4)c(-c4cccc(S(=O)(=O)[O-])c4F)c4nc(c(-c5cccc(S(=O)(=O)[O-])c5F)c5ccc2[nH]5)C=C4)C=C3)cc1
REMARK SMILES IDX 20 1 19 2 18 3 16 4 17 5 14 6 15 7 13 8 1 9 2 10 3 11 4 12
REMARK SMILES IDX 11 13 12 14 5 15 6 16 10 17 7 18 9 19 8 20 21 21 22 22 23 23
REMARK SMILES IDX 24 24 25 25 86 26 26 27 85 28 27 29 28 30 29 31 79 32 30 33
REMARK SMILES IDX 84 34 78 35 80 36 31 37 83 38 77 39 76 40 32 42 64 43 44 44
REMARK SMILES IDX 63 45 45 46 48 47 62 48 81 49 46 50 47 51 61 53 82 54 49 55
REMARK SMILES IDX 33 56 34 57 42 58 35 59 37 60 43 61 36 62 38 63 39 64 40 65
REMARK SMILES IDX 41 66 65 67 66 68 74 69 67 70 69 71 75 72 68 73 70 74 71 75
REMARK SMILES IDX 72 76 73 77 50 78 51 79 59 80 52 81 54 82 60 83 53 84 55 85
REMARK SMILES IDX 56 86 57 87 58 88
REMARK H PARENT 80 41 48 52
REMARK Flexibility Score: inf
ROOT
ATOM      1  C   UNL A   1      38.412  22.824  26.170  1.00  0.00     0.275 C 
ENDROOT
BRANCH   1   2
ATOM      2  C   UNL A   1      37.409  23.876  25.712  1.00  0.00     0.274 C 
BRANCH   2   3
ATOM      3  O   UNL A   1      36.085  23.595  26.209  1.00  0.00    -0.462 OA
BRANCH   3   4
ATOM      4  C   UNL A   1      35.021  24.034  25.487  1.00  0.00     0.313 C 
ATOM      5  O   UNL A   1      34.267  24.926  25.869  1.00  0.00    -0.252 OA
BRANCH   4   6
ATOM      6  C   UNL A   1      34.771  23.268  24.183  1.00  0.00     0.130 C 
ATOM      7  C   UNL A   1      34.179  24.221  23.153  1.00  0.00     0.025 C 
BRANCH   6   8
ATOM      8  C   UNL A   1      34.006  21.959  24.258  1.00  0.00     0.010 A 
ATOM      9  C   UNL A   1      31.599  22.738  23.477  1.00  0.00     0.069 C 
ATOM     10  C   UNL A   1      32.632  21.755  23.906  1.00  0.00     0.064 A 
ATOM     11  N   UNL A   1      32.274  20.474  23.995  1.00  0.00    -0.171 NA
ATOM     12  N   UNL A   1      33.383  19.821  24.401  1.00  0.00    -0.219 N 
ATOM     13  C   UNL A   1      34.436  20.695  24.656  1.00  0.00     0.047 A 
ATOM     14  C   UNL A   1      35.790  20.222  25.060  1.00  0.00     0.067 C 
BRANCH  12  15
ATOM     15  C   UNL A   1      33.358  18.403  24.572  1.00  0.00     0.156 A 
ATOM     16  C   UNL A   1      34.051  17.614  23.674  1.00  0.00     0.069 A 
ATOM     17  N   UNL A   1      32.630  17.882  25.586  1.00  0.00    -0.217 NA
ATOM     18  C   UNL A   1      33.897  16.256  23.821  1.00  0.00     0.117 A 
ATOM     19  C   UNL A   1      32.537  16.548  25.621  1.00  0.00     0.224 A 
ATOM     20  N   UNL A   1      33.130  15.693  24.769  1.00  0.00    -0.245 NA
ENDBRANCH  12  15
ENDBRANCH   6   8
ENDBRANCH   4   6
ENDBRANCH   3   4
ENDBRANCH   2   3
ENDBRANCH   1   2
BRANCH   1  21
ATOM     21  O   UNL A   1      39.291  23.365  27.153  1.00  0.00    -0.458 OA
BRANCH  21  22
ATOM     22  C   UNL A   1      40.571  23.441  26.730  1.00  0.00     0.338 C 
ATOM     23  O   UNL A   1      41.260  22.536  26.302  1.00  0.00    -0.246 OA
BRANCH  22  24
ATOM     24  C   UNL A   1      41.129  24.752  27.019  1.00  0.00     0.060 A 
ATOM     25  C   UNL A   1      42.085  24.822  28.040  1.00  0.00     0.016 A 
ATOM     26  C   UNL A   1      40.442  25.868  26.543  1.00  0.00     0.016 A 
ATOM     27  C   UNL A   1      42.241  26.008  28.714  1.00  0.00     0.010 A 
ATOM     28  C   UNL A   1      40.571  27.038  27.238  1.00  0.00     0.010 A 
ATOM     29  C   UNL A   1      41.422  27.072  28.348  1.00  0.00    -0.014 A 
BRANCH  29  30
ATOM     30  C   UNL A   1      41.511  28.306  29.095  1.00  0.00     0.031 A 
ATOM     31  C   UNL A   1      42.596  29.187  28.610  1.00  0.00     0.074 A 
ATOM     32  C   UNL A   1      40.533  28.635  29.960  1.00  0.00     0.049 A 
ATOM     33  N   UNL A   1      43.606  29.653  29.267  1.00  0.00    -0.248 NA
ATOM     34  C   UNL A   1      42.660  29.437  27.157  1.00  0.00     0.031 C 
ATOM     35  C   UNL A   1      39.292  27.881  30.192  1.00  0.00     0.029 A 
ATOM     36  N   UNL A   1      40.337  29.788  30.656  1.00  0.00    -0.354 N 
ATOM     37  C   UNL A   1      44.270  30.468  28.351  1.00  0.00     0.074 A 
ATOM     38  C   UNL A   1      43.819  30.079  27.047  1.00  0.00     0.031 C 
ATOM     39  C   UNL A   1      38.377  28.706  30.741  1.00  0.00     0.029 A 
ATOM     40  C   UNL A   1      39.003  29.990  30.999  1.00  0.00     0.049 A 
ATOM     41  H   UNL A   1      41.061  30.414  30.890  1.00  0.00     0.167 HD
ATOM     42  C   UNL A   1      44.839  31.636  28.746  1.00  0.00     0.034 A 
ATOM     43  C   UNL A   1      38.433  31.157  31.376  1.00  0.00     0.034 A 
ATOM     44  C   UNL A   1      45.004  31.678  30.174  1.00  0.00     0.049 A 
ATOM     45  C   UNL A   1      39.514  32.085  31.772  1.00  0.00     0.074 A 
ATOM     46  C   UNL A   1      45.797  31.050  31.107  1.00  0.00     0.029 A 
ATOM     47  N   UNL A   1      43.960  32.264  30.841  1.00  0.00    -0.354 N 
ATOM     48  N   UNL A   1      40.261  31.916  32.826  1.00  0.00    -0.248 NA
ATOM     49  C   UNL A   1      40.002  33.072  30.815  1.00  0.00     0.031 C 
ATOM     50  C   UNL A   1      45.085  31.121  32.338  1.00  0.00     0.029 A 
ATOM     51  C   UNL A   1      43.880  31.792  32.121  1.00  0.00     0.049 A 
ATOM     52  H   UNL A   1      43.350  32.931  30.450  1.00  0.00     0.167 HD
ATOM     53  C   UNL A   1      41.494  32.422  32.452  1.00  0.00     0.074 A 
ATOM     54  C   UNL A   1      41.224  33.286  31.311  1.00  0.00     0.031 C 
ATOM     55  C   UNL A   1      42.646  31.834  32.880  1.00  0.00     0.034 A 
BRANCH  42  56
ATOM     56  C   UNL A   1      44.805  32.926  27.944  1.00  0.00     0.023 A 
ATOM     57  C   UNL A   1      46.002  33.285  27.283  1.00  0.00     0.012 A 
ATOM     58  C   UNL A   1      43.812  33.931  28.045  1.00  0.00     0.148 A 
ATOM     59  C   UNL A   1      46.223  34.582  26.810  1.00  0.00     0.002 A 
ATOM     60  C   UNL A   1      44.006  35.198  27.505  1.00  0.00     0.091 A 
ATOM     61  F   UNL A   1      42.720  33.736  28.786  1.00  0.00    -0.205 F 
ATOM     62  C   UNL A   1      45.223  35.539  26.916  1.00  0.00     0.022 A 
BRANCH  60  63
ATOM     63  S   UNL A   1      42.724  36.456  27.590  1.00  0.00     0.127 S 
ATOM     64  O   UNL A   1      43.339  37.549  26.843  1.00  0.00    -0.237 OA
ATOM     65  O   UNL A   1      41.607  35.793  26.916  1.00  0.00    -0.237 OA
ATOM     66  O   UNL A   1      42.503  36.693  29.012  1.00  0.00    -0.744 OA
ENDBRANCH  60  63
ENDBRANCH  42  56
BRANCH  43  67
ATOM     67  C   UNL A   1      37.030  31.608  31.257  1.00  0.00     0.023 A 
ATOM     68  C   UNL A   1      36.331  31.989  32.418  1.00  0.00     0.012 A 
ATOM     69  C   UNL A   1      36.452  31.899  30.001  1.00  0.00     0.148 A 
ATOM     70  C   UNL A   1      35.113  32.670  32.335  1.00  0.00     0.002 A 
ATOM     71  C   UNL A   1      35.235  32.568  29.922  1.00  0.00     0.091 A 
ATOM     72  F   UNL A   1      37.139  31.601  28.890  1.00  0.00    -0.205 F 
ATOM     73  C   UNL A   1      34.569  32.966  31.089  1.00  0.00     0.022 A 
BRANCH  71  74
ATOM     74  S   UNL A   1      34.474  33.001  28.352  1.00  0.00     0.127 S 
ATOM     75  O   UNL A   1      33.995  31.703  27.877  1.00  0.00    -0.237 OA
ATOM     76  O   UNL A   1      33.423  33.925  28.771  1.00  0.00    -0.237 OA
ATOM     77  O   UNL A   1      35.538  33.579  27.540  1.00  0.00    -0.744 OA
ENDBRANCH  71  74
ENDBRANCH  43  67
BRANCH  55  78
ATOM     78  C   UNL A   1      42.567  30.969  34.105  1.00  0.00     0.023 A 
ATOM     79  C   UNL A   1      42.598  31.502  35.409  1.00  0.00     0.012 A 
ATOM     80  C   UNL A   1      42.334  29.595  33.934  1.00  0.00     0.148 A 
ATOM     81  C   UNL A   1      42.425  30.676  36.520  1.00  0.00     0.002 A 
ATOM     82  C   UNL A   1      42.112  28.784  35.039  1.00  0.00     0.091 A 
ATOM     83  F   UNL A   1      42.312  29.104  32.685  1.00  0.00    -0.205 F 
ATOM     84  C   UNL A   1      42.168  29.319  36.336  1.00  0.00     0.022 A 
BRANCH  82  85
ATOM     85  S   UNL A   1      41.647  27.064  34.848  1.00  0.00     0.127 S 
ATOM     86  O   UNL A   1      41.327  26.676  36.220  1.00  0.00    -0.237 OA
ATOM     87  O   UNL A   1      40.493  27.143  33.950  1.00  0.00    -0.237 OA
ATOM     88  O   UNL A   1      42.807  26.404  34.259  1.00  0.00    -0.744 OA
ENDBRANCH  82  85
ENDBRANCH  55  78
ENDBRANCH  29  30
ENDBRANCH  22  24
ENDBRANCH  21  22
ENDBRANCH   1  21
TORSDOF 16
ENDMDL
