MODEL 1
REMARK VINA RESULT:     -12.0      0.000      0.000
REMARK SMILES O=C(CC1(CC(=O)OCCOC(=O)c2ccc(-c3c4nc(c(-c5cccc(S(=O)(=O)[O-])c5F)c5ccc([nH]5)c(-c5cccc(S(=O)(=O)[O-])c5F)c5nc(c(-c6cccc(S(=O)(=O)[O-])c6F)c6ccc3[nH]6)C=C5)C=C4)cc2)CCCCC1)Nc1ccc2ccccc2n1
REMARK SMILES IDX 9 1 8 2 6 3 7 4 5 5 4 6 77 7 81 8 78 9 80 10 79 11 3 12 2 13
REMARK SMILES IDX 1 14 82 15 83 17 84 18 92 19 85 20 91 21 86 22 90 23 87 24
REMARK SMILES IDX 89 25 88 26 10 27 11 28 12 29 13 30 14 31 15 32 76 33 16 34
REMARK SMILES IDX 75 35 17 36 18 37 19 38 69 39 20 40 74 41 68 42 70 43 21 44
REMARK SMILES IDX 73 45 67 46 66 47 22 49 54 50 34 51 53 52 35 53 38 54 52 55
REMARK SMILES IDX 71 56 36 57 37 58 51 60 72 61 39 62 23 63 24 64 32 65 25 66
REMARK SMILES IDX 27 67 33 68 26 69 28 70 29 71 30 72 31 73 55 74 56 75 64 76
REMARK SMILES IDX 57 77 59 78 65 79 58 80 60 81 61 82 62 83 63 84 40 85 41 86
REMARK SMILES IDX 49 87 42 88 44 89 50 90 43 91 45 92 46 93 47 94 48 95
REMARK H PARENT 82 16 70 48 38 59
REMARK Flexibility Score: inf
ROOT
ATOM      1  C   UNL A   1      32.438  27.766  27.267  1.00  0.00     0.274 C 
ENDROOT
BRANCH   1   2
ATOM      2  O   UNL A   1      31.043  27.347  27.293  1.00  0.00    -0.462 OA
BRANCH   2   3
ATOM      3  C   UNL A   1      30.666  26.448  26.355  1.00  0.00     0.306 C 
ATOM      4  O   UNL A   1      29.835  25.567  26.571  1.00  0.00    -0.252 OA
BRANCH   3   5
ATOM      5  C   UNL A   1      31.379  26.495  24.996  1.00  0.00     0.130 C 
BRANCH   5   6
ATOM      6  C   UNL A   1      30.753  26.313  23.582  1.00  0.00    -0.010 C 
ATOM      7  C   UNL A   1      31.789  26.751  22.506  1.00  0.00     0.008 C 
ATOM      8  C   UNL A   1      29.495  27.204  23.401  1.00  0.00     0.008 C 
ATOM      9  C   UNL A   1      32.098  28.243  22.489  1.00  0.00     0.001 C 
ATOM     10  C   UNL A   1      29.822  28.689  23.527  1.00  0.00     0.001 C 
ATOM     11  C   UNL A   1      30.838  29.102  22.469  1.00  0.00     0.000 C 
BRANCH   6  12
ATOM     12  C   UNL A   1      30.381  24.862  23.203  1.00  0.00     0.108 C 
BRANCH  12  13
ATOM     13  C   UNL A   1      31.123  23.652  23.749  1.00  0.00     0.226 C 
ATOM     14  O   UNL A   1      32.097  23.314  23.074  1.00  0.00    -0.275 OA
ATOM     15  N   UNL A   1      30.810  23.062  24.974  1.00  0.00    -0.311 N 
ATOM     16  H   UNL A   1      29.888  23.098  25.317  1.00  0.00     0.171 HD
BRANCH  15  17
ATOM     17  C   UNL A   1      31.839  22.396  25.739  1.00  0.00     0.133 A 
ATOM     18  C   UNL A   1      32.282  23.153  26.796  1.00  0.00     0.048 A 
ATOM     19  N   UNL A   1      32.606  21.378  25.243  1.00  0.00    -0.231 NA
ATOM     20  C   UNL A   1      33.413  23.878  26.504  1.00  0.00     0.014 A 
ATOM     21  C   UNL A   1      33.982  21.550  25.328  1.00  0.00     0.073 A 
ATOM     22  C   UNL A   1      34.395  23.226  25.774  1.00  0.00     0.000 A 
ATOM     23  C   UNL A   1      35.394  20.435  24.977  1.00  0.00     0.029 A 
ATOM     24  C   UNL A   1      36.105  23.863  25.669  1.00  0.00     0.010 A 
ATOM     25  C   UNL A   1      37.174  21.064  25.008  1.00  0.00     0.002 A 
ATOM     26  C   UNL A   1      37.485  22.797  25.314  1.00  0.00     0.001 A 
ENDBRANCH  15  17
ENDBRANCH  12  13
ENDBRANCH   6  12
ENDBRANCH   5   6
ENDBRANCH   3   5
ENDBRANCH   2   3
ENDBRANCH   1   2
BRANCH   1  27
ATOM     27  C   UNL A   1      32.595  29.294  27.293  1.00  0.00     0.275 C 
BRANCH  27  28
ATOM     28  O   UNL A   1      33.942  29.670  26.954  1.00  0.00    -0.458 OA
BRANCH  28  29
ATOM     29  C   UNL A   1      34.320  30.800  27.591  1.00  0.00     0.338 C 
ATOM     30  O   UNL A   1      33.666  31.831  27.621  1.00  0.00    -0.246 OA
BRANCH  29  31
ATOM     31  C   UNL A   1      35.574  30.617  28.338  1.00  0.00     0.060 A 
ATOM     32  C   UNL A   1      36.775  30.935  27.707  1.00  0.00     0.016 A 
ATOM     33  C   UNL A   1      35.583  29.876  29.508  1.00  0.00     0.016 A 
ATOM     34  C   UNL A   1      37.939  30.257  28.042  1.00  0.00     0.010 A 
ATOM     35  C   UNL A   1      36.792  29.330  29.947  1.00  0.00     0.010 A 
ATOM     36  C   UNL A   1      37.938  29.344  29.110  1.00  0.00    -0.014 A 
BRANCH  36  37
ATOM     37  C   UNL A   1      39.300  28.436  29.387  1.00  0.00     0.031 A 
ATOM     38  C   UNL A   1      40.052  26.689  28.347  1.00  0.00     0.074 A 
ATOM     39  C   UNL A   1      39.804  29.247  30.549  1.00  0.00     0.049 A 
ATOM     40  N   UNL A   1      41.309  26.057  28.456  1.00  0.00    -0.248 NA
ATOM     41  C   UNL A   1      39.412  25.563  27.276  1.00  0.00     0.031 C 
ATOM     42  C   UNL A   1      39.286  30.485  31.218  1.00  0.00     0.029 A 
ATOM     43  N   UNL A   1      40.960  29.081  31.350  1.00  0.00    -0.354 N 
ATOM     44  C   UNL A   1      41.418  24.814  27.945  1.00  0.00     0.074 A 
ATOM     45  C   UNL A   1      40.295  24.597  27.106  1.00  0.00     0.031 C 
ATOM     46  C   UNL A   1      40.087  30.865  32.242  1.00  0.00     0.029 A 
ATOM     47  C   UNL A   1      41.145  29.893  32.410  1.00  0.00     0.049 A 
ATOM     48  H   UNL A   1      41.620  28.382  31.135  1.00  0.00     0.167 HD
ATOM     49  C   UNL A   1      42.358  23.902  28.276  1.00  0.00     0.034 A 
ATOM     50  C   UNL A   1      42.094  29.732  33.354  1.00  0.00     0.034 A 
ATOM     51  C   UNL A   1      43.288  24.003  29.382  1.00  0.00     0.049 A 
ATOM     52  C   UNL A   1      43.027  28.499  33.340  1.00  0.00     0.074 A 
ATOM     53  C   UNL A   1      44.204  23.045  29.771  1.00  0.00     0.029 A 
ATOM     54  N   UNL A   1      43.373  25.033  30.331  1.00  0.00    -0.354 N 
ATOM     55  N   UNL A   1      43.144  27.504  32.476  1.00  0.00    -0.248 NA
ATOM     56  C   UNL A   1      43.959  28.395  34.472  1.00  0.00     0.031 C 
ATOM     57  C   UNL A   1      44.759  23.440  30.991  1.00  0.00     0.029 A 
ATOM     58  C   UNL A   1      44.281  24.701  31.335  1.00  0.00     0.049 A 
ATOM     59  H   UNL A   1      42.862  25.874  30.293  1.00  0.00     0.167 HD
ATOM     60  C   UNL A   1      44.176  26.673  32.950  1.00  0.00     0.074 A 
ATOM     61  C   UNL A   1      44.661  27.315  34.162  1.00  0.00     0.031 C 
ATOM     62  C   UNL A   1      44.696  25.494  32.490  1.00  0.00     0.034 A 
BRANCH  49  63
ATOM     63  C   UNL A   1      42.284  22.670  27.433  1.00  0.00     0.023 A 
ATOM     64  C   UNL A   1      41.322  21.695  27.780  1.00  0.00     0.012 A 
ATOM     65  C   UNL A   1      43.259  22.388  26.465  1.00  0.00     0.148 A 
ATOM     66  C   UNL A   1      41.402  20.413  27.251  1.00  0.00     0.002 A 
ATOM     67  C   UNL A   1      43.293  21.124  25.897  1.00  0.00     0.091 A 
ATOM     68  F   UNL A   1      44.178  23.322  26.181  1.00  0.00    -0.205 F 
ATOM     69  C   UNL A   1      42.388  20.128  26.312  1.00  0.00     0.022 A 
BRANCH  67  70
ATOM     70  S   UNL A   1      44.485  20.661  24.642  1.00  0.00     0.127 S 
ATOM     71  O   UNL A   1      44.308  21.730  23.659  1.00  0.00    -0.237 OA
ATOM     72  O   UNL A   1      45.740  20.717  25.389  1.00  0.00    -0.237 OA
ATOM     73  O   UNL A   1      44.101  19.333  24.187  1.00  0.00    -0.744 OA
ENDBRANCH  67  70
ENDBRANCH  49  63
BRANCH  50  74
ATOM     74  C   UNL A   1      42.197  30.744  34.432  1.00  0.00     0.023 A 
ATOM     75  C   UNL A   1      41.468  30.573  35.625  1.00  0.00     0.012 A 
ATOM     76  C   UNL A   1      43.027  31.868  34.284  1.00  0.00     0.148 A 
ATOM     77  C   UNL A   1      41.552  31.518  36.646  1.00  0.00     0.002 A 
ATOM     78  C   UNL A   1      43.159  32.769  35.329  1.00  0.00     0.091 A 
ATOM     79  F   UNL A   1      43.678  32.025  33.122  1.00  0.00    -0.205 F 
ATOM     80  C   UNL A   1      42.409  32.607  36.504  1.00  0.00     0.022 A 
BRANCH  78  81
ATOM     81  S   UNL A   1      44.333  34.123  35.279  1.00  0.00     0.127 S 
ATOM     82  O   UNL A   1      45.594  33.416  35.067  1.00  0.00    -0.237 OA
ATOM     83  O   UNL A   1      43.852  34.887  34.128  1.00  0.00    -0.237 OA
ATOM     84  O   UNL A   1      44.208  34.807  36.559  1.00  0.00    -0.744 OA
ENDBRANCH  78  81
ENDBRANCH  50  74
BRANCH  62  85
ATOM     85  C   UNL A   1      45.877  24.900  33.279  1.00  0.00     0.023 A 
ATOM     86  C   UNL A   1      47.203  25.328  33.047  1.00  0.00     0.012 A 
ATOM     87  C   UNL A   1      45.636  23.999  34.344  1.00  0.00     0.148 A 
ATOM     88  C   UNL A   1      48.261  24.844  33.825  1.00  0.00     0.002 A 
ATOM     89  C   UNL A   1      46.686  23.573  35.155  1.00  0.00     0.091 A 
ATOM     90  F   UNL A   1      44.377  23.594  34.560  1.00  0.00    -0.205 F 
ATOM     91  C   UNL A   1      48.002  23.981  34.886  1.00  0.00     0.022 A 
BRANCH  89  92
ATOM     92  S   UNL A   1      46.435  22.560  36.620  1.00  0.00     0.127 S 
ATOM     93  O   UNL A   1      47.794  22.453  37.147  1.00  0.00    -0.237 OA
ATOM     94  O   UNL A   1      45.536  23.392  37.422  1.00  0.00    -0.237 OA
ATOM     95  O   UNL A   1      45.849  21.312  36.153  1.00  0.00    -0.744 OA
ENDBRANCH  89  92
ENDBRANCH  62  85
ENDBRANCH  36  37
ENDBRANCH  29  31
ENDBRANCH  28  29
ENDBRANCH  27  28
ENDBRANCH   1  27
TORSDOF 18
ENDMDL
MODEL 2
REMARK VINA RESULT:     -11.6      3.188      8.681
REMARK SMILES O=C(CC1(CC(=O)OCCOC(=O)c2ccc(-c3c4nc(c(-c5cccc(S(=O)(=O)[O-])c5F)c5ccc([nH]5)c(-c5cccc(S(=O)(=O)[O-])c5F)c5nc(c(-c6cccc(S(=O)(=O)[O-])c6F)c6ccc3[nH]6)C=C5)C=C4)cc2)CCCCC1)Nc1ccc2ccccc2n1
REMARK SMILES IDX 9 1 8 2 6 3 7 4 5 5 4 6 77 7 81 8 78 9 80 10 79 11 3 12 2 13
REMARK SMILES IDX 1 14 82 15 83 17 84 18 92 19 85 20 91 21 86 22 90 23 87 24
REMARK SMILES IDX 89 25 88 26 10 27 11 28 12 29 13 30 14 31 15 32 76 33 16 34
REMARK SMILES IDX 75 35 17 36 18 37 19 38 69 39 20 40 74 41 68 42 70 43 21 44
REMARK SMILES IDX 73 45 67 46 66 47 22 49 54 50 34 51 53 52 35 53 38 54 52 55
REMARK SMILES IDX 71 56 36 57 37 58 51 60 72 61 39 62 23 63 24 64 32 65 25 66
REMARK SMILES IDX 27 67 33 68 26 69 28 70 29 71 30 72 31 73 55 74 56 75 64 76
REMARK SMILES IDX 57 77 59 78 65 79 58 80 60 81 61 82 62 83 63 84 40 85 41 86
REMARK SMILES IDX 49 87 42 88 44 89 50 90 43 91 45 92 46 93 47 94 48 95
REMARK H PARENT 82 16 70 48 38 59
REMARK Flexibility Score: inf
ROOT
ATOM      1  C   UNL A   1      31.061  30.287  24.627  1.00  0.00     0.274 C 
ENDROOT
BRANCH   1   2
ATOM      2  O   UNL A   1      29.897  29.850  23.867  1.00  0.00    -0.462 OA
BRANCH   2   3
ATOM      3  C   UNL A   1      30.035  28.707  23.158  1.00  0.00     0.306 C 
ATOM      4  O   UNL A   1      29.173  28.295  22.382  1.00  0.00    -0.252 OA
BRANCH   3   5
ATOM      5  C   UNL A   1      31.291  27.860  23.407  1.00  0.00     0.130 C 
BRANCH   5   6
ATOM      6  C   UNL A   1      31.400  26.522  24.197  1.00  0.00    -0.010 C 
ATOM      7  C   UNL A   1      30.709  26.691  25.582  1.00  0.00     0.008 C 
ATOM      8  C   UNL A   1      32.881  26.141  24.463  1.00  0.00     0.008 C 
ATOM      9  C   UNL A   1      31.420  27.642  26.537  1.00  0.00     0.001 C 
ATOM     10  C   UNL A   1      33.598  27.188  25.310  1.00  0.00     0.001 C 
ATOM     11  C   UNL A   1      32.909  27.342  26.661  1.00  0.00     0.000 C 
BRANCH   6  12
ATOM     12  C   UNL A   1      30.694  25.310  23.549  1.00  0.00     0.108 C 
BRANCH  12  13
ATOM     13  C   UNL A   1      30.931  23.879  24.007  1.00  0.00     0.226 C 
ATOM     14  O   UNL A   1      31.592  23.203  23.218  1.00  0.00    -0.275 OA
ATOM     15  N   UNL A   1      30.548  23.414  25.265  1.00  0.00    -0.311 N 
ATOM     16  H   UNL A   1      29.769  23.809  25.721  1.00  0.00     0.171 HD
BRANCH  15  17
ATOM     17  C   UNL A   1      31.293  22.351  25.900  1.00  0.00     0.133 A 
ATOM     18  C   UNL A   1      32.053  22.798  26.953  1.00  0.00     0.048 A 
ATOM     19  N   UNL A   1      31.585  21.165  25.285  1.00  0.00    -0.231 NA
ATOM     20  C   UNL A   1      33.354  23.070  26.603  1.00  0.00     0.014 A 
ATOM     21  C   UNL A   1      32.927  20.804  25.259  1.00  0.00     0.073 A 
ATOM     22  C   UNL A   1      33.970  22.162  25.756  1.00  0.00     0.000 A 
ATOM     23  C   UNL A   1      33.787  19.276  24.725  1.00  0.00     0.029 A 
ATOM     24  C   UNL A   1      35.783  22.121  25.535  1.00  0.00     0.010 A 
ATOM     25  C   UNL A   1      35.672  19.190  24.634  1.00  0.00     0.002 A 
ATOM     26  C   UNL A   1      36.633  20.650  25.005  1.00  0.00     0.001 A 
ENDBRANCH  15  17
ENDBRANCH  12  13
ENDBRANCH   6  12
ENDBRANCH   5   6
ENDBRANCH   3   5
ENDBRANCH   2   3
ENDBRANCH   1   2
BRANCH   1  27
ATOM     27  C   UNL A   1      30.741  31.449  25.578  1.00  0.00     0.275 C 
BRANCH  27  28
ATOM     28  O   UNL A   1      31.500  31.330  26.795  1.00  0.00    -0.458 OA
BRANCH  28  29
ATOM     29  C   UNL A   1      32.221  32.446  27.045  1.00  0.00     0.338 C 
ATOM     30  O   UNL A   1      31.769  33.580  27.035  1.00  0.00    -0.246 OA
BRANCH  29  31
ATOM     31  C   UNL A   1      33.605  32.131  27.434  1.00  0.00     0.060 A 
ATOM     32  C   UNL A   1      33.964  30.793  27.583  1.00  0.00     0.016 A 
ATOM     33  C   UNL A   1      34.431  33.128  27.926  1.00  0.00     0.016 A 
ATOM     34  C   UNL A   1      34.954  30.434  28.487  1.00  0.00     0.010 A 
ATOM     35  C   UNL A   1      35.535  32.762  28.701  1.00  0.00     0.010 A 
ATOM     36  C   UNL A   1      35.688  31.427  29.157  1.00  0.00    -0.014 A 
BRANCH  36  37
ATOM     37  C   UNL A   1      36.754  30.970  30.344  1.00  0.00     0.031 A 
ATOM     38  C   UNL A   1      36.835  31.521  32.440  1.00  0.00     0.074 A 
ATOM     39  C   UNL A   1      37.583  30.061  29.479  1.00  0.00     0.049 A 
ATOM     40  N   UNL A   1      37.611  30.965  33.480  1.00  0.00    -0.248 NA
ATOM     41  C   UNL A   1      36.166  32.736  33.387  1.00  0.00     0.031 C 
ATOM     42  C   UNL A   1      37.472  29.659  28.039  1.00  0.00     0.029 A 
ATOM     43  N   UNL A   1      38.723  29.283  29.796  1.00  0.00    -0.354 N 
ATOM     44  C   UNL A   1      37.719  31.683  34.616  1.00  0.00     0.074 A 
ATOM     45  C   UNL A   1      36.713  32.683  34.586  1.00  0.00     0.031 C 
ATOM     46  C   UNL A   1      38.460  28.800  27.689  1.00  0.00     0.029 A 
ATOM     47  C   UNL A   1      39.356  28.617  28.810  1.00  0.00     0.049 A 
ATOM     48  H   UNL A   1      39.048  29.228  30.724  1.00  0.00     0.167 HD
ATOM     49  C   UNL A   1      38.689  31.551  35.547  1.00  0.00     0.034 A 
ATOM     50  C   UNL A   1      40.546  27.993  28.934  1.00  0.00     0.034 A 
ATOM     51  C   UNL A   1      39.903  30.773  35.405  1.00  0.00     0.049 A 
ATOM     52  C   UNL A   1      41.350  28.073  30.251  1.00  0.00     0.074 A 
ATOM     53  C   UNL A   1      40.932  30.689  36.322  1.00  0.00     0.029 A 
ATOM     54  N   UNL A   1      40.319  30.044  34.281  1.00  0.00    -0.354 N 
ATOM     55  N   UNL A   1      41.060  28.626  31.418  1.00  0.00    -0.248 NA
ATOM     56  C   UNL A   1      42.670  27.425  30.229  1.00  0.00     0.031 C 
ATOM     57  C   UNL A   1      41.996  30.008  35.724  1.00  0.00     0.029 A 
ATOM     58  C   UNL A   1      41.614  29.562  34.462  1.00  0.00     0.049 A 
ATOM     59  H   UNL A   1      39.772  29.893  33.476  1.00  0.00     0.167 HD
ATOM     60  C   UNL A   1      42.150  28.371  32.271  1.00  0.00     0.074 A 
ATOM     61  C   UNL A   1      43.083  27.584  31.478  1.00  0.00     0.031 C 
ATOM     62  C   UNL A   1      42.414  28.732  33.563  1.00  0.00     0.034 A 
BRANCH  49  63
ATOM     63  C   UNL A   1      38.448  32.402  36.751  1.00  0.00     0.023 A 
ATOM     64  C   UNL A   1      39.066  33.672  36.792  1.00  0.00     0.012 A 
ATOM     65  C   UNL A   1      37.808  31.890  37.891  1.00  0.00     0.148 A 
ATOM     66  C   UNL A   1      39.145  34.374  37.988  1.00  0.00     0.002 A 
ATOM     67  C   UNL A   1      37.839  32.628  39.064  1.00  0.00     0.091 A 
ATOM     68  F   UNL A   1      37.259  30.668  37.830  1.00  0.00    -0.205 F 
ATOM     69  C   UNL A   1      38.534  33.851  39.123  1.00  0.00     0.022 A 
BRANCH  67  70
ATOM     70  S   UNL A   1      37.044  32.077  40.572  1.00  0.00     0.127 S 
ATOM     71  O   UNL A   1      35.664  31.886  40.124  1.00  0.00    -0.237 OA
ATOM     72  O   UNL A   1      37.770  30.841  40.858  1.00  0.00    -0.237 OA
ATOM     73  O   UNL A   1      37.236  33.141  41.545  1.00  0.00    -0.744 OA
ENDBRANCH  67  70
ENDBRANCH  49  63
BRANCH  50  74
ATOM     74  C   UNL A   1      41.085  27.261  27.763  1.00  0.00     0.023 A 
ATOM     75  C   UNL A   1      41.678  27.975  26.704  1.00  0.00     0.012 A 
ATOM     76  C   UNL A   1      41.025  25.859  27.703  1.00  0.00     0.148 A 
ATOM     77  C   UNL A   1      42.187  27.301  25.595  1.00  0.00     0.002 A 
ATOM     78  C   UNL A   1      41.592  25.191  26.630  1.00  0.00     0.091 A 
ATOM     79  F   UNL A   1      40.419  25.208  28.707  1.00  0.00    -0.205 F 
ATOM     80  C   UNL A   1      42.158  25.909  25.565  1.00  0.00     0.022 A 
BRANCH  78  81
ATOM     81  S   UNL A   1      41.712  23.402  26.575  1.00  0.00     0.127 S 
ATOM     82  O   UNL A   1      42.407  23.111  27.826  1.00  0.00    -0.237 OA
ATOM     83  O   UNL A   1      40.302  23.014  26.547  1.00  0.00    -0.237 OA
ATOM     84  O   UNL A   1      42.453  23.089  25.361  1.00  0.00    -0.744 OA
ENDBRANCH  78  81
ENDBRANCH  50  74
BRANCH  62  85
ATOM     85  C   UNL A   1      43.726  28.210  34.177  1.00  0.00     0.023 A 
ATOM     86  C   UNL A   1      44.889  29.012  34.211  1.00  0.00     0.012 A 
ATOM     87  C   UNL A   1      43.752  26.958  34.834  1.00  0.00     0.148 A 
ATOM     88  C   UNL A   1      46.053  28.563  34.845  1.00  0.00     0.002 A 
ATOM     89  C   UNL A   1      44.894  26.547  35.519  1.00  0.00     0.091 A 
ATOM     90  F   UNL A   1      42.647  26.199  34.799  1.00  0.00    -0.205 F 
ATOM     91  C   UNL A   1      46.051  27.341  35.511  1.00  0.00     0.022 A 
BRANCH  89  92
ATOM     92  S   UNL A   1      44.947  25.046  36.509  1.00  0.00     0.127 S 
ATOM     93  O   UNL A   1      43.751  25.191  37.336  1.00  0.00    -0.237 OA
ATOM     94  O   UNL A   1      44.859  23.999  35.491  1.00  0.00    -0.237 OA
ATOM     95  O   UNL A   1      46.211  25.083  37.232  1.00  0.00    -0.744 OA
ENDBRANCH  89  92
ENDBRANCH  62  85
ENDBRANCH  36  37
ENDBRANCH  29  31
ENDBRANCH  28  29
ENDBRANCH  27  28
ENDBRANCH   1  27
TORSDOF 18
ENDMDL
MODEL 3
REMARK VINA RESULT:     -11.5      2.961      3.762
REMARK SMILES O=C(CC1(CC(=O)OCCOC(=O)c2ccc(-c3c4nc(c(-c5cccc(S(=O)(=O)[O-])c5F)c5ccc([nH]5)c(-c5cccc(S(=O)(=O)[O-])c5F)c5nc(c(-c6cccc(S(=O)(=O)[O-])c6F)c6ccc3[nH]6)C=C5)C=C4)cc2)CCCCC1)Nc1ccc2ccccc2n1
REMARK SMILES IDX 9 1 8 2 6 3 7 4 5 5 4 6 77 7 81 8 78 9 80 10 79 11 3 12 2 13
REMARK SMILES IDX 1 14 82 15 83 17 84 18 92 19 85 20 91 21 86 22 90 23 87 24
REMARK SMILES IDX 89 25 88 26 10 27 11 28 12 29 13 30 14 31 15 32 76 33 16 34
REMARK SMILES IDX 75 35 17 36 18 37 19 38 69 39 20 40 74 41 68 42 70 43 21 44
REMARK SMILES IDX 73 45 67 46 66 47 22 49 54 50 34 51 53 52 35 53 38 54 52 55
REMARK SMILES IDX 71 56 36 57 37 58 51 60 72 61 39 62 23 63 24 64 32 65 25 66
REMARK SMILES IDX 27 67 33 68 26 69 28 70 29 71 30 72 31 73 55 74 56 75 64 76
REMARK SMILES IDX 57 77 59 78 65 79 58 80 60 81 61 82 62 83 63 84 40 85 41 86
REMARK SMILES IDX 49 87 42 88 44 89 50 90 43 91 45 92 46 93 47 94 48 95
REMARK H PARENT 82 16 70 48 38 59
REMARK Flexibility Score: inf
ROOT
ATOM      1  C   UNL A   1      33.395  29.912  26.691  1.00  0.00     0.274 C 
ENDROOT
BRANCH   1   2
ATOM      2  O   UNL A   1      32.941  29.670  25.327  1.00  0.00    -0.462 OA
BRANCH   2   3
ATOM      3  C   UNL A   1      31.904  28.814  25.180  1.00  0.00     0.306 C 
ATOM      4  O   UNL A   1      31.898  27.684  25.667  1.00  0.00    -0.252 OA
BRANCH   3   5
ATOM      5  C   UNL A   1      30.731  29.260  24.296  1.00  0.00     0.130 C 
BRANCH   5   6
ATOM      6  C   UNL A   1      30.352  28.740  22.878  1.00  0.00    -0.010 C 
ATOM      7  C   UNL A   1      29.938  29.948  21.987  1.00  0.00     0.008 C 
ATOM      8  C   UNL A   1      29.140  27.771  22.935  1.00  0.00     0.008 C 
ATOM      9  C   UNL A   1      28.636  30.625  22.397  1.00  0.00     0.001 C 
ATOM     10  C   UNL A   1      27.889  28.452  23.481  1.00  0.00     0.001 C 
ATOM     11  C   UNL A   1      27.497  29.633  22.599  1.00  0.00     0.000 C 
BRANCH   6  12
ATOM     12  C   UNL A   1      31.492  28.048  22.098  1.00  0.00     0.108 C 
BRANCH  12  13
ATOM     13  C   UNL A   1      31.606  26.536  21.975  1.00  0.00     0.226 C 
ATOM     14  O   UNL A   1      31.314  26.101  20.861  1.00  0.00    -0.275 OA
ATOM     15  N   UNL A   1      32.123  25.732  22.991  1.00  0.00    -0.311 N 
ATOM     16  H   UNL A   1      32.031  26.006  23.932  1.00  0.00     0.171 HD
BRANCH  15  17
ATOM     17  C   UNL A   1      32.792  24.494  22.662  1.00  0.00     0.133 A 
ATOM     18  C   UNL A   1      32.075  23.389  23.051  1.00  0.00     0.048 A 
ATOM     19  N   UNL A   1      34.136  24.404  22.428  1.00  0.00    -0.231 NA
ATOM     20  C   UNL A   1      32.459  22.901  24.278  1.00  0.00     0.014 A 
ATOM     21  C   UNL A   1      34.830  23.472  23.191  1.00  0.00     0.073 A 
ATOM     22  C   UNL A   1      33.821  22.855  24.527  1.00  0.00     0.000 A 
ATOM     23  C   UNL A   1      36.558  22.865  23.135  1.00  0.00     0.029 A 
ATOM     24  C   UNL A   1      34.523  21.859  25.889  1.00  0.00     0.010 A 
ATOM     25  C   UNL A   1      37.241  21.717  24.471  1.00  0.00     0.002 A 
ATOM     26  C   UNL A   1      36.203  21.273  25.857  1.00  0.00     0.001 A 
ENDBRANCH  15  17
ENDBRANCH  12  13
ENDBRANCH   6  12
ENDBRANCH   5   6
ENDBRANCH   3   5
ENDBRANCH   2   3
ENDBRANCH   1   2
BRANCH   1  27
ATOM     27  C   UNL A   1      32.803  31.196  27.290  1.00  0.00     0.275 C 
BRANCH  27  28
ATOM     28  O   UNL A   1      33.637  32.328  26.982  1.00  0.00    -0.458 OA
BRANCH  28  29
ATOM     29  C   UNL A   1      33.635  33.235  27.984  1.00  0.00     0.338 C 
ATOM     30  O   UNL A   1      32.738  34.037  28.192  1.00  0.00    -0.246 OA
BRANCH  29  31
ATOM     31  C   UNL A   1      34.802  33.081  28.867  1.00  0.00     0.060 A 
ATOM     32  C   UNL A   1      36.027  33.593  28.444  1.00  0.00     0.016 A 
ATOM     33  C   UNL A   1      34.752  32.201  29.936  1.00  0.00     0.016 A 
ATOM     34  C   UNL A   1      37.210  32.995  28.854  1.00  0.00     0.010 A 
ATOM     35  C   UNL A   1      35.953  31.724  30.468  1.00  0.00     0.010 A 
ATOM     36  C   UNL A   1      37.183  31.957  29.801  1.00  0.00    -0.014 A 
BRANCH  36  37
ATOM     37  C   UNL A   1      38.595  31.158  30.153  1.00  0.00     0.031 A 
ATOM     38  C   UNL A   1      39.779  29.808  28.939  1.00  0.00     0.074 A 
ATOM     39  C   UNL A   1      38.752  31.709  31.544  1.00  0.00     0.049 A 
ATOM     40  N   UNL A   1      41.077  29.306  29.170  1.00  0.00    -0.248 NA
ATOM     41  C   UNL A   1      39.522  28.917  27.538  1.00  0.00     0.031 C 
ATOM     42  C   UNL A   1      37.939  32.684  32.342  1.00  0.00     0.029 A 
ATOM     43  N   UNL A   1      39.756  31.475  32.514  1.00  0.00    -0.354 N 
ATOM     44  C   UNL A   1      41.465  28.243  28.435  1.00  0.00     0.074 A 
ATOM     45  C   UNL A   1      40.557  28.121  27.351  1.00  0.00     0.031 C 
ATOM     46  C   UNL A   1      38.476  32.884  33.570  1.00  0.00     0.029 A 
ATOM     47  C   UNL A   1      39.622  32.018  33.741  1.00  0.00     0.049 A 
ATOM     48  H   UNL A   1      40.543  30.924  32.296  1.00  0.00     0.167 HD
ATOM     49  C   UNL A   1      42.458  27.383  28.749  1.00  0.00     0.034 A 
ATOM     50  C   UNL A   1      40.398  31.733  34.806  1.00  0.00     0.034 A 
ATOM     51  C   UNL A   1      43.147  27.308  30.021  1.00  0.00     0.049 A 
ATOM     52  C   UNL A   1      41.495  30.647  34.719  1.00  0.00     0.074 A 
ATOM     53  C   UNL A   1      44.112  26.386  30.375  1.00  0.00     0.029 A 
ATOM     54  N   UNL A   1      42.902  28.078  31.168  1.00  0.00    -0.354 N 
ATOM     55  N   UNL A   1      41.916  29.911  33.703  1.00  0.00    -0.248 NA
ATOM     56  C   UNL A   1      42.213  30.369  35.972  1.00  0.00     0.031 C 
ATOM     57  C   UNL A   1      44.372  26.528  31.741  1.00  0.00     0.029 A 
ATOM     58  C   UNL A   1      43.653  27.609  32.244  1.00  0.00     0.049 A 
ATOM     59  H   UNL A   1      42.284  28.844  31.207  1.00  0.00     0.167 HD
ATOM     60  C   UNL A   1      42.960  29.104  34.191  1.00  0.00     0.074 A 
ATOM     61  C   UNL A   1      43.116  29.477  35.589  1.00  0.00     0.031 C 
ATOM     62  C   UNL A   1      43.728  28.135  33.605  1.00  0.00     0.034 A 
BRANCH  49  63
ATOM     63  C   UNL A   1      42.725  26.394  27.661  1.00  0.00     0.023 A 
ATOM     64  C   UNL A   1      43.371  26.861  26.494  1.00  0.00     0.012 A 
ATOM     65  C   UNL A   1      42.177  25.103  27.697  1.00  0.00     0.148 A 
ATOM     66  C   UNL A   1      43.370  26.091  25.338  1.00  0.00     0.002 A 
ATOM     67  C   UNL A   1      42.236  24.318  26.556  1.00  0.00     0.091 A 
ATOM     68  F   UNL A   1      41.541  24.701  28.807  1.00  0.00    -0.205 F 
ATOM     69  C   UNL A   1      42.800  24.822  25.369  1.00  0.00     0.022 A 
BRANCH  67  70
ATOM     70  S   UNL A   1      41.581  22.651  26.495  1.00  0.00     0.127 S 
ATOM     71  O   UNL A   1      42.168  22.150  25.253  1.00  0.00    -0.237 OA
ATOM     72  O   UNL A   1      42.140  22.068  27.714  1.00  0.00    -0.237 OA
ATOM     73  O   UNL A   1      40.132  22.784  26.487  1.00  0.00    -0.744 OA
ENDBRANCH  67  70
ENDBRANCH  49  63
BRANCH  50  74
ATOM     74  C   UNL A   1      40.150  32.456  36.076  1.00  0.00     0.023 A 
ATOM     75  C   UNL A   1      40.976  33.538  36.438  1.00  0.00     0.012 A 
ATOM     76  C   UNL A   1      39.089  32.084  36.918  1.00  0.00     0.148 A 
ATOM     77  C   UNL A   1      40.757  34.226  37.630  1.00  0.00     0.002 A 
ATOM     78  C   UNL A   1      38.835  32.813  38.068  1.00  0.00     0.091 A 
ATOM     79  F   UNL A   1      38.345  31.024  36.568  1.00  0.00    -0.205 F 
ATOM     80  C   UNL A   1      39.677  33.873  38.437  1.00  0.00     0.022 A 
BRANCH  78  81
ATOM     81  S   UNL A   1      37.396  32.508  39.093  1.00  0.00     0.127 S 
ATOM     82  O   UNL A   1      37.581  33.483  40.166  1.00  0.00    -0.237 OA
ATOM     83  O   UNL A   1      36.305  32.809  38.166  1.00  0.00    -0.237 OA
ATOM     84  O   UNL A   1      37.482  31.112  39.498  1.00  0.00    -0.744 OA
ENDBRANCH  78  81
ENDBRANCH  50  74
BRANCH  62  85
ATOM     85  C   UNL A   1      44.824  27.494  34.476  1.00  0.00     0.023 A 
ATOM     86  C   UNL A   1      46.091  28.101  34.622  1.00  0.00     0.012 A 
ATOM     87  C   UNL A   1      44.534  26.344  35.247  1.00  0.00     0.148 A 
ATOM     88  C   UNL A   1      47.053  27.557  35.481  1.00  0.00     0.002 A 
ATOM     89  C   UNL A   1      45.474  25.847  36.148  1.00  0.00     0.091 A 
ATOM     90  F   UNL A   1      43.331  25.770  35.104  1.00  0.00    -0.205 F 
ATOM     91  C   UNL A   1      46.740  26.442  36.254  1.00  0.00     0.022 A 
BRANCH  89  92
ATOM     92  S   UNL A   1      45.118  24.491  37.276  1.00  0.00     0.127 S 
ATOM     93  O   UNL A   1      43.994  25.026  38.041  1.00  0.00    -0.237 OA
ATOM     94  O   UNL A   1      44.767  23.407  36.356  1.00  0.00    -0.237 OA
ATOM     95  O   UNL A   1      46.339  24.267  38.037  1.00  0.00    -0.744 OA
ENDBRANCH  89  92
ENDBRANCH  62  85
ENDBRANCH  36  37
ENDBRANCH  29  31
ENDBRANCH  28  29
ENDBRANCH  27  28
ENDBRANCH   1  27
TORSDOF 18
ENDMDL
