MODEL 1
REMARK VINA RESULT:     -11.5      0.000      0.000
REMARK SMILES CCC[C@@H]1C[N@@H+](Cc2cc(OC)c3c(c2)OCO3)C[C@H]1C(=O)OCCOC(=O)c1ccc(-c2c3nc(c(-c4cccc(S(=O)(=O)[O-])c4F)c4ccc([nH]4)c(-c4cccc(S(=O)(=O)[O-])c4F)c4nc(c(-c5cccc(S(=O)(=O)[O-])c5F)c5ccc2[nH]5)C=C4)C=C3)cc1
REMARK SMILES IDX 24 1 23 2 21 3 22 4 20 5 4 6 5 7 6 8 19 9 3 11 2 12 1 13
REMARK SMILES IDX 7 14 8 15 9 16 15 17 10 18 14 19 13 20 16 21 18 22 17 23
REMARK SMILES IDX 11 24 12 25 25 26 26 27 27 28 28 29 29 30 30 31 91 32 31 33
REMARK SMILES IDX 90 34 32 35 33 36 34 37 84 38 35 39 89 40 83 41 85 42 36 43
REMARK SMILES IDX 88 44 82 45 81 46 37 48 69 49 49 50 68 51 50 52 53 53 67 54
REMARK SMILES IDX 86 55 51 56 52 57 66 59 87 60 54 61 38 62 39 63 47 64 40 65
REMARK SMILES IDX 42 66 48 67 41 68 43 69 44 70 45 71 46 72 70 73 71 74 79 75
REMARK SMILES IDX 72 76 74 77 80 78 73 79 75 80 76 81 77 82 78 83 55 84 56 85
REMARK SMILES IDX 64 86 57 87 59 88 65 89 58 90 60 91 61 92 62 93 63 94
REMARK H PARENT 6 10 85 47 53 58
REMARK Flexibility Score: inf
ROOT
ATOM      1  C   UNL A   1      35.067  21.038  24.947  1.00  0.00     0.274 C 
ENDROOT
BRANCH   1   2
ATOM      2  O   UNL A   1      34.979  22.477  24.822  1.00  0.00    -0.462 OA
BRANCH   2   3
ATOM      3  C   UNL A   1      34.699  22.959  23.590  1.00  0.00     0.315 C 
ATOM      4  O   UNL A   1      35.546  23.308  22.774  1.00  0.00    -0.252 OA
BRANCH   3   5
ATOM      5  C   UNL A   1      33.223  23.153  23.314  1.00  0.00     0.163 C 
ATOM      6  C   UNL A   1      32.353  24.058  24.198  1.00  0.00     0.064 C 
ATOM      7  C   UNL A   1      31.291  24.508  23.195  1.00  0.00     0.267 C 
ATOM      8  N   UNL A   1      31.992  24.701  21.927  1.00  0.00    -0.330 N 
ATOM      9  C   UNL A   1      33.097  23.736  21.904  1.00  0.00     0.278 C 
ATOM     10  H   UNL A   1      31.352  24.515  21.156  1.00  0.00     0.348 HD
BRANCH   6  11
ATOM     11  C   UNL A   1      31.752  23.367  25.435  1.00  0.00     0.010 C 
BRANCH  11  12
ATOM     12  C   UNL A   1      30.873  24.240  26.342  1.00  0.00    -0.003 C 
ATOM     13  C   UNL A   1      31.389  25.664  26.509  1.00  0.00     0.004 C 
ENDBRANCH  11  12
ENDBRANCH   6  11
BRANCH   8  14
ATOM     14  C   UNL A   1      32.369  26.084  21.613  1.00  0.00     0.299 C 
BRANCH  14  15
ATOM     15  C   UNL A   1      32.032  27.156  22.629  1.00  0.00     0.014 A 
ATOM     16  C   UNL A   1      30.787  27.824  22.604  1.00  0.00     0.060 A 
ATOM     17  C   UNL A   1      32.976  27.522  23.600  1.00  0.00     0.060 A 
ATOM     18  C   UNL A   1      30.490  28.872  23.493  1.00  0.00     0.165 A 
ATOM     19  C   UNL A   1      32.661  28.545  24.469  1.00  0.00     0.170 A 
ATOM     20  C   UNL A   1      31.455  29.210  24.424  1.00  0.00     0.207 A 
ATOM     21  O   UNL A   1      33.486  29.009  25.448  1.00  0.00    -0.453 OA
ATOM     22  O   UNL A   1      31.382  30.169  25.390  1.00  0.00    -0.450 OA
ATOM     23  C   UNL A   1      32.690  30.081  25.982  1.00  0.00     0.468 C 
BRANCH  18  24
ATOM     24  O   UNL A   1      29.258  29.439  23.323  1.00  0.00    -0.493 OA
ATOM     25  C   UNL A   1      28.936  29.891  22.014  1.00  0.00     0.278 C 
ENDBRANCH  18  24
ENDBRANCH  14  15
ENDBRANCH   8  14
ENDBRANCH   3   5
ENDBRANCH   2   3
ENDBRANCH   1   2
BRANCH   1  26
ATOM     26  C   UNL A   1      36.524  20.587  25.040  1.00  0.00     0.275 C 
BRANCH  26  27
ATOM     27  O   UNL A   1      37.284  21.568  25.757  1.00  0.00    -0.458 OA
BRANCH  27  28
ATOM     28  C   UNL A   1      38.573  21.223  25.990  1.00  0.00     0.338 C 
ATOM     29  O   UNL A   1      39.110  20.156  25.789  1.00  0.00    -0.246 OA
BRANCH  28  30
ATOM     30  C   UNL A   1      39.279  22.456  26.355  1.00  0.00     0.060 A 
ATOM     31  C   UNL A   1      40.381  22.356  27.206  1.00  0.00     0.016 A 
ATOM     32  C   UNL A   1      38.875  23.687  25.846  1.00  0.00     0.016 A 
ATOM     33  C   UNL A   1      41.083  23.487  27.582  1.00  0.00     0.010 A 
ATOM     34  C   UNL A   1      39.596  24.824  26.199  1.00  0.00     0.010 A 
ATOM     35  C   UNL A   1      40.695  24.726  27.073  1.00  0.00    -0.014 A 
BRANCH  35  36
ATOM     36  C   UNL A   1      41.421  25.937  27.490  1.00  0.00     0.031 A 
ATOM     37  C   UNL A   1      40.700  26.969  28.293  1.00  0.00     0.074 A 
ATOM     38  C   UNL A   1      42.703  26.093  27.119  1.00  0.00     0.049 A 
ATOM     39  N   UNL A   1      41.103  28.153  28.664  1.00  0.00    -0.248 NA
ATOM     40  C   UNL A   1      39.335  26.628  28.728  1.00  0.00     0.031 C 
ATOM     41  C   UNL A   1      43.488  25.116  26.361  1.00  0.00     0.029 A 
ATOM     42  N   UNL A   1      43.561  27.141  27.309  1.00  0.00    -0.354 N 
ATOM     43  C   UNL A   1      40.026  28.721  29.331  1.00  0.00     0.074 A 
ATOM     44  C   UNL A   1      38.952  27.753  29.312  1.00  0.00     0.031 C 
ATOM     45  C   UNL A   1      44.712  25.620  26.135  1.00  0.00     0.029 A 
ATOM     46  C   UNL A   1      44.777  26.968  26.692  1.00  0.00     0.049 A 
ATOM     47  H   UNL A   1      43.331  27.940  27.836  1.00  0.00     0.167 HD
ATOM     48  C   UNL A   1      39.950  29.943  29.907  1.00  0.00     0.034 A 
ATOM     49  C   UNL A   1      45.812  27.819  26.570  1.00  0.00     0.034 A 
ATOM     50  C   UNL A   1      41.042  30.877  29.927  1.00  0.00     0.049 A 
ATOM     51  C   UNL A   1      45.695  29.178  27.203  1.00  0.00     0.074 A 
ATOM     52  C   UNL A   1      41.097  32.130  30.507  1.00  0.00     0.029 A 
ATOM     53  N   UNL A   1      42.276  30.657  29.327  1.00  0.00    -0.354 N 
ATOM     54  N   UNL A   1      44.701  29.681  27.898  1.00  0.00    -0.248 NA
ATOM     55  C   UNL A   1      46.845  30.079  27.057  1.00  0.00     0.031 C 
ATOM     56  C   UNL A   1      42.356  32.677  30.237  1.00  0.00     0.029 A 
ATOM     57  C   UNL A   1      43.097  31.755  29.512  1.00  0.00     0.049 A 
ATOM     58  H   UNL A   1      42.529  29.840  28.840  1.00  0.00     0.167 HD
ATOM     59  C   UNL A   1      45.116  30.943  28.301  1.00  0.00     0.074 A 
ATOM     60  C   UNL A   1      46.461  31.120  27.784  1.00  0.00     0.031 C 
ATOM     61  C   UNL A   1      44.447  31.880  29.021  1.00  0.00     0.034 A 
BRANCH  48  62
ATOM     62  C   UNL A   1      38.644  30.316  30.554  1.00  0.00     0.023 A 
ATOM     63  C   UNL A   1      38.364  29.893  31.870  1.00  0.00     0.012 A 
ATOM     64  C   UNL A   1      37.683  31.074  29.856  1.00  0.00     0.148 A 
ATOM     65  C   UNL A   1      37.134  30.178  32.464  1.00  0.00     0.002 A 
ATOM     66  C   UNL A   1      36.478  31.392  30.471  1.00  0.00     0.091 A 
ATOM     67  F   UNL A   1      37.950  31.442  28.595  1.00  0.00    -0.205 F 
ATOM     68  C   UNL A   1      36.195  30.933  31.767  1.00  0.00     0.022 A 
BRANCH  66  69
ATOM     69  S   UNL A   1      35.235  32.417  29.675  1.00  0.00     0.127 S 
ATOM     70  O   UNL A   1      36.022  33.585  29.282  1.00  0.00    -0.237 OA
ATOM     71  O   UNL A   1      34.803  31.572  28.561  1.00  0.00    -0.237 OA
ATOM     72  O   UNL A   1      34.212  32.657  30.683  1.00  0.00    -0.744 OA
ENDBRANCH  66  69
ENDBRANCH  48  62
BRANCH  49  73
ATOM     73  C   UNL A   1      47.051  27.384  25.867  1.00  0.00     0.023 A 
ATOM     74  C   UNL A   1      47.975  26.569  26.548  1.00  0.00     0.012 A 
ATOM     75  C   UNL A   1      47.289  27.715  24.517  1.00  0.00     0.148 A 
ATOM     76  C   UNL A   1      49.123  26.106  25.905  1.00  0.00     0.002 A 
ATOM     77  C   UNL A   1      48.409  27.208  23.868  1.00  0.00     0.091 A 
ATOM     78  F   UNL A   1      46.402  28.499  23.890  1.00  0.00    -0.205 F 
ATOM     79  C   UNL A   1      49.335  26.416  24.564  1.00  0.00     0.022 A 
BRANCH  77  80
ATOM     80  S   UNL A   1      48.706  27.452  22.112  1.00  0.00     0.127 S 
ATOM     81  O   UNL A   1      47.748  28.506  21.791  1.00  0.00    -0.237 OA
ATOM     82  O   UNL A   1      50.108  27.870  22.101  1.00  0.00    -0.237 OA
ATOM     83  O   UNL A   1      48.457  26.162  21.485  1.00  0.00    -0.744 OA
ENDBRANCH  77  80
ENDBRANCH  49  73
BRANCH  61  84
ATOM     84  C   UNL A   1      45.171  33.164  29.319  1.00  0.00     0.023 A 
ATOM     85  C   UNL A   1      45.974  33.264  30.471  1.00  0.00     0.012 A 
ATOM     86  C   UNL A   1      45.118  34.243  28.414  1.00  0.00     0.148 A 
ATOM     87  C   UNL A   1      46.690  34.431  30.734  1.00  0.00     0.002 A 
ATOM     88  C   UNL A   1      45.875  35.381  28.656  1.00  0.00     0.091 A 
ATOM     89  F   UNL A   1      44.330  34.133  27.333  1.00  0.00    -0.205 F 
ATOM     90  C   UNL A   1      46.651  35.482  29.822  1.00  0.00     0.022 A 
BRANCH  88  91
ATOM     91  S   UNL A   1      45.962  36.741  27.485  1.00  0.00     0.127 S 
ATOM     92  O   UNL A   1      47.006  37.576  28.075  1.00  0.00    -0.237 OA
ATOM     93  O   UNL A   1      46.351  36.061  26.248  1.00  0.00    -0.237 OA
ATOM     94  O   UNL A   1      44.631  37.329  27.456  1.00  0.00    -0.744 OA
ENDBRANCH  88  91
ENDBRANCH  61  84
ENDBRANCH  35  36
ENDBRANCH  28  30
ENDBRANCH  27  28
ENDBRANCH  26  27
ENDBRANCH   1  26
TORSDOF 19
ENDMDL
MODEL 2
REMARK VINA RESULT:     -11.3      4.699      9.785
REMARK SMILES CCC[C@@H]1C[N@@H+](Cc2cc(OC)c3c(c2)OCO3)C[C@H]1C(=O)OCCOC(=O)c1ccc(-c2c3nc(c(-c4cccc(S(=O)(=O)[O-])c4F)c4ccc([nH]4)c(-c4cccc(S(=O)(=O)[O-])c4F)c4nc(c(-c5cccc(S(=O)(=O)[O-])c5F)c5ccc2[nH]5)C=C4)C=C3)cc1
REMARK SMILES IDX 24 1 23 2 21 3 22 4 20 5 4 6 5 7 6 8 19 9 3 11 2 12 1 13
REMARK SMILES IDX 7 14 8 15 9 16 15 17 10 18 14 19 13 20 16 21 18 22 17 23
REMARK SMILES IDX 11 24 12 25 25 26 26 27 27 28 28 29 29 30 30 31 91 32 31 33
REMARK SMILES IDX 90 34 32 35 33 36 34 37 84 38 35 39 89 40 83 41 85 42 36 43
REMARK SMILES IDX 88 44 82 45 81 46 37 48 69 49 49 50 68 51 50 52 53 53 67 54
REMARK SMILES IDX 86 55 51 56 52 57 66 59 87 60 54 61 38 62 39 63 47 64 40 65
REMARK SMILES IDX 42 66 48 67 41 68 43 69 44 70 45 71 46 72 70 73 71 74 79 75
REMARK SMILES IDX 72 76 74 77 80 78 73 79 75 80 76 81 77 82 78 83 55 84 56 85
REMARK SMILES IDX 64 86 57 87 59 88 65 89 58 90 60 91 61 92 62 93 63 94
REMARK H PARENT 6 10 85 47 53 58
REMARK Flexibility Score: inf
ROOT
ATOM      1  C   UNL A   1      31.690  28.257  26.797  1.00  0.00     0.274 C 
ENDROOT
BRANCH   1   2
ATOM      2  O   UNL A   1      31.948  27.068  26.014  1.00  0.00    -0.462 OA
BRANCH   2   3
ATOM      3  C   UNL A   1      30.873  26.312  25.693  1.00  0.00     0.315 C 
ATOM      4  O   UNL A   1      30.108  25.813  26.511  1.00  0.00    -0.252 OA
BRANCH   3   5
ATOM      5  C   UNL A   1      30.734  26.018  24.214  1.00  0.00     0.163 C 
ATOM      6  C   UNL A   1      31.697  26.621  23.181  1.00  0.00     0.064 C 
ATOM      7  C   UNL A   1      31.661  25.551  22.091  1.00  0.00     0.267 C 
ATOM      8  N   UNL A   1      31.597  24.268  22.791  1.00  0.00    -0.330 N 
ATOM      9  C   UNL A   1      30.862  24.503  24.038  1.00  0.00     0.278 C 
ATOM     10  H   UNL A   1      31.097  23.594  22.213  1.00  0.00     0.348 HD
BRANCH   6  11
ATOM     11  C   UNL A   1      31.299  28.015  22.663  1.00  0.00     0.010 C 
BRANCH  11  12
ATOM     12  C   UNL A   1      29.808  28.372  22.750  1.00  0.00    -0.003 C 
ATOM     13  C   UNL A   1      29.495  29.802  22.326  1.00  0.00     0.004 C 
ENDBRANCH  11  12
ENDBRANCH   6  11
BRANCH   8  14
ATOM     14  C   UNL A   1      32.876  23.565  22.946  1.00  0.00     0.299 C 
BRANCH  14  15
ATOM     15  C   UNL A   1      32.884  22.286  23.760  1.00  0.00     0.014 A 
ATOM     16  C   UNL A   1      33.352  22.269  25.093  1.00  0.00     0.060 A 
ATOM     17  C   UNL A   1      32.448  21.085  23.180  1.00  0.00     0.060 A 
ATOM     18  C   UNL A   1      33.435  21.076  25.833  1.00  0.00     0.165 A 
ATOM     19  C   UNL A   1      32.529  19.929  23.927  1.00  0.00     0.170 A 
ATOM     20  C   UNL A   1      33.009  19.914  25.218  1.00  0.00     0.207 A 
ATOM     21  O   UNL A   1      32.154  18.696  23.486  1.00  0.00    -0.453 OA
ATOM     22  O   UNL A   1      32.977  18.656  25.743  1.00  0.00    -0.450 OA
ATOM     23  C   UNL A   1      32.504  17.888  24.623  1.00  0.00     0.468 C 
BRANCH  18  24
ATOM     24  O   UNL A   1      33.937  21.218  27.096  1.00  0.00    -0.493 OA
ATOM     25  C   UNL A   1      33.972  22.537  27.627  1.00  0.00     0.278 C 
ENDBRANCH  18  24
ENDBRANCH  14  15
ENDBRANCH   8  14
ENDBRANCH   3   5
ENDBRANCH   2   3
ENDBRANCH   1   2
BRANCH   1  26
ATOM     26  C   UNL A   1      31.781  29.511  25.930  1.00  0.00     0.275 C 
BRANCH  26  27
ATOM     27  O   UNL A   1      33.112  30.039  25.989  1.00  0.00    -0.458 OA
BRANCH  27  28
ATOM     28  C   UNL A   1      33.272  31.069  26.853  1.00  0.00     0.338 C 
ATOM     29  O   UNL A   1      32.499  31.968  27.097  1.00  0.00    -0.246 OA
BRANCH  28  30
ATOM     30  C   UNL A   1      34.496  30.793  27.613  1.00  0.00     0.060 A 
ATOM     31  C   UNL A   1      35.375  31.852  27.851  1.00  0.00     0.016 A 
ATOM     32  C   UNL A   1      34.760  29.518  28.103  1.00  0.00     0.016 A 
ATOM     33  C   UNL A   1      36.544  31.648  28.562  1.00  0.00     0.010 A 
ATOM     34  C   UNL A   1      35.922  29.314  28.843  1.00  0.00     0.010 A 
ATOM     35  C   UNL A   1      36.817  30.377  29.066  1.00  0.00    -0.014 A 
BRANCH  35  36
ATOM     36  C   UNL A   1      38.072  30.146  29.800  1.00  0.00     0.031 A 
ATOM     37  C   UNL A   1      39.109  29.257  29.195  1.00  0.00     0.074 A 
ATOM     38  C   UNL A   1      38.244  30.721  31.003  1.00  0.00     0.049 A 
ATOM     39  N   UNL A   1      40.226  28.825  29.712  1.00  0.00    -0.248 NA
ATOM     40  C   UNL A   1      38.848  28.781  27.827  1.00  0.00     0.031 C 
ATOM     41  C   UNL A   1      37.292  31.628  31.648  1.00  0.00     0.029 A 
ATOM     42  N   UNL A   1      39.267  30.608  31.904  1.00  0.00    -0.354 N 
ATOM     43  C   UNL A   1      40.778  27.984  28.756  1.00  0.00     0.074 A 
ATOM     44  C   UNL A   1      39.873  27.966  27.628  1.00  0.00     0.031 C 
ATOM     45  C   UNL A   1      37.770  31.976  32.854  1.00  0.00     0.029 A 
ATOM     46  C   UNL A   1      39.034  31.282  33.079  1.00  0.00     0.049 A 
ATOM     47  H   UNL A   1      40.088  30.094  31.729  1.00  0.00     0.167 HD
ATOM     48  C   UNL A   1      41.940  27.294  28.820  1.00  0.00     0.034 A 
ATOM     49  C   UNL A   1      39.753  31.308  34.216  1.00  0.00     0.034 A 
ATOM     50  C   UNL A   1      42.830  27.347  29.947  1.00  0.00     0.049 A 
ATOM     51  C   UNL A   1      41.030  30.516  34.269  1.00  0.00     0.074 A 
ATOM     52  C   UNL A   1      44.049  26.720  30.116  1.00  0.00     0.029 A 
ATOM     53  N   UNL A   1      42.586  28.071  31.108  1.00  0.00    -0.354 N 
ATOM     54  N   UNL A   1      41.585  29.782  33.332  1.00  0.00    -0.248 NA
ATOM     55  C   UNL A   1      41.793  30.572  35.522  1.00  0.00     0.031 C 
ATOM     56  C   UNL A   1      44.531  27.045  31.388  1.00  0.00     0.029 A 
ATOM     57  C   UNL A   1      43.626  27.898  32.004  1.00  0.00     0.049 A 
ATOM     58  H   UNL A   1      41.789  28.625  31.270  1.00  0.00     0.167 HD
ATOM     59  C   UNL A   1      42.777  29.314  33.868  1.00  0.00     0.074 A 
ATOM     60  C   UNL A   1      42.871  29.864  35.209  1.00  0.00     0.031 C 
ATOM     61  C   UNL A   1      43.707  28.496  33.314  1.00  0.00     0.034 A 
BRANCH  48  62
ATOM     62  C   UNL A   1      42.294  26.434  27.636  1.00  0.00     0.023 A 
ATOM     63  C   UNL A   1      42.996  26.992  26.548  1.00  0.00     0.012 A 
ATOM     64  C   UNL A   1      41.920  25.077  27.592  1.00  0.00     0.148 A 
ATOM     65  C   UNL A   1      43.280  26.227  25.416  1.00  0.00     0.002 A 
ATOM     66  C   UNL A   1      42.245  24.309  26.480  1.00  0.00     0.091 A 
ATOM     67  F   UNL A   1      41.226  24.570  28.621  1.00  0.00    -0.205 F 
ATOM     68  C   UNL A   1      42.911  24.884  25.386  1.00  0.00     0.022 A 
BRANCH  66  69
ATOM     69  S   UNL A   1      41.871  22.555  26.382  1.00  0.00     0.127 S 
ATOM     70  O   UNL A   1      42.456  22.199  25.090  1.00  0.00    -0.237 OA
ATOM     71  O   UNL A   1      42.586  22.020  27.541  1.00  0.00    -0.237 OA
ATOM     72  O   UNL A   1      40.421  22.452  26.467  1.00  0.00    -0.744 OA
ENDBRANCH  66  69
ENDBRANCH  48  62
BRANCH  49  73
ATOM     73  C   UNL A   1      39.301  32.147  35.360  1.00  0.00     0.023 A 
ATOM     74  C   UNL A   1      38.452  31.582  36.331  1.00  0.00     0.012 A 
ATOM     75  C   UNL A   1      39.752  33.472  35.529  1.00  0.00     0.148 A 
ATOM     76  C   UNL A   1      38.046  32.325  37.440  1.00  0.00     0.002 A 
ATOM     77  C   UNL A   1      39.385  34.189  36.662  1.00  0.00     0.091 A 
ATOM     78  F   UNL A   1      40.553  33.994  34.589  1.00  0.00    -0.205 F 
ATOM     79  C   UNL A   1      38.520  33.623  37.611  1.00  0.00     0.022 A 
BRANCH  77  80
ATOM     80  S   UNL A   1      40.040  35.822  37.031  1.00  0.00     0.127 S 
ATOM     81  O   UNL A   1      39.387  36.124  38.302  1.00  0.00    -0.237 OA
ATOM     82  O   UNL A   1      41.476  35.554  37.126  1.00  0.00    -0.237 OA
ATOM     83  O   UNL A   1      39.657  36.666  35.909  1.00  0.00    -0.744 OA
ENDBRANCH  77  80
ENDBRANCH  49  73
BRANCH  61  84
ATOM     84  C   UNL A   1      44.920  28.171  34.142  1.00  0.00     0.023 A 
ATOM     85  C   UNL A   1      44.928  27.017  34.950  1.00  0.00     0.012 A 
ATOM     86  C   UNL A   1      46.080  28.966  34.056  1.00  0.00     0.148 A 
ATOM     87  C   UNL A   1      46.063  26.676  35.683  1.00  0.00     0.002 A 
ATOM     88  C   UNL A   1      47.223  28.591  34.749  1.00  0.00     0.091 A 
ATOM     89  F   UNL A   1      46.043  30.071  33.296  1.00  0.00    -0.205 F 
ATOM     90  C   UNL A   1      47.212  27.454  35.573  1.00  0.00     0.022 A 
BRANCH  88  91
ATOM     91  S   UNL A   1      48.777  29.478  34.585  1.00  0.00     0.127 S 
ATOM     92  O   UNL A   1      48.791  29.795  33.159  1.00  0.00    -0.237 OA
ATOM     93  O   UNL A   1      48.572  30.629  35.466  1.00  0.00    -0.237 OA
ATOM     94  O   UNL A   1      49.812  28.556  35.032  1.00  0.00    -0.744 OA
ENDBRANCH  88  91
ENDBRANCH  61  84
ENDBRANCH  35  36
ENDBRANCH  28  30
ENDBRANCH  27  28
ENDBRANCH  26  27
ENDBRANCH   1  26
TORSDOF 19
ENDMDL
MODEL 3
REMARK VINA RESULT:     -11.2      5.133     10.149
REMARK SMILES CCC[C@@H]1C[N@@H+](Cc2cc(OC)c3c(c2)OCO3)C[C@H]1C(=O)OCCOC(=O)c1ccc(-c2c3nc(c(-c4cccc(S(=O)(=O)[O-])c4F)c4ccc([nH]4)c(-c4cccc(S(=O)(=O)[O-])c4F)c4nc(c(-c5cccc(S(=O)(=O)[O-])c5F)c5ccc2[nH]5)C=C4)C=C3)cc1
REMARK SMILES IDX 24 1 23 2 21 3 22 4 20 5 4 6 5 7 6 8 19 9 3 11 2 12 1 13
REMARK SMILES IDX 7 14 8 15 9 16 15 17 10 18 14 19 13 20 16 21 18 22 17 23
REMARK SMILES IDX 11 24 12 25 25 26 26 27 27 28 28 29 29 30 30 31 91 32 31 33
REMARK SMILES IDX 90 34 32 35 33 36 34 37 84 38 35 39 89 40 83 41 85 42 36 43
REMARK SMILES IDX 88 44 82 45 81 46 37 48 69 49 49 50 68 51 50 52 53 53 67 54
REMARK SMILES IDX 86 55 51 56 52 57 66 59 87 60 54 61 38 62 39 63 47 64 40 65
REMARK SMILES IDX 42 66 48 67 41 68 43 69 44 70 45 71 46 72 70 73 71 74 79 75
REMARK SMILES IDX 72 76 74 77 80 78 73 79 75 80 76 81 77 82 78 83 55 84 56 85
REMARK SMILES IDX 64 86 57 87 59 88 65 89 58 90 60 91 61 92 62 93 63 94
REMARK H PARENT 6 10 85 47 53 58
REMARK Flexibility Score: inf
ROOT
ATOM      1  C   UNL A   1      31.873  28.587  26.558  1.00  0.00     0.274 C 
ENDROOT
BRANCH   1   2
ATOM      2  O   UNL A   1      31.953  27.383  25.759  1.00  0.00    -0.462 OA
BRANCH   2   3
ATOM      3  C   UNL A   1      31.385  26.274  26.283  1.00  0.00     0.315 C 
ATOM      4  O   UNL A   1      31.604  25.851  27.413  1.00  0.00    -0.252 OA
BRANCH   3   5
ATOM      5  C   UNL A   1      30.518  25.498  25.314  1.00  0.00     0.163 C 
ATOM      6  C   UNL A   1      30.224  26.023  23.901  1.00  0.00     0.064 C 
ATOM      7  C   UNL A   1      30.017  24.713  23.142  1.00  0.00     0.267 C 
ATOM      8  N   UNL A   1      30.992  23.772  23.692  1.00  0.00    -0.330 N 
ATOM      9  C   UNL A   1      31.182  24.135  25.100  1.00  0.00     0.278 C 
ATOM     10  H   UNL A   1      30.622  22.825  23.624  1.00  0.00     0.348 HD
BRANCH   6  11
ATOM     11  C   UNL A   1      29.014  26.969  23.803  1.00  0.00     0.010 C 
BRANCH  11  12
ATOM     12  C   UNL A   1      29.096  28.070  22.737  1.00  0.00    -0.003 C 
ATOM     13  C   UNL A   1      29.936  29.270  23.159  1.00  0.00     0.004 C 
ENDBRANCH  11  12
ENDBRANCH   6  11
BRANCH   8  14
ATOM     14  C   UNL A   1      32.229  23.615  22.919  1.00  0.00     0.299 C 
BRANCH  14  15
ATOM     15  C   UNL A   1      33.308  22.715  23.488  1.00  0.00     0.014 A 
ATOM     16  C   UNL A   1      32.995  21.447  24.027  1.00  0.00     0.060 A 
ATOM     17  C   UNL A   1      34.642  23.151  23.514  1.00  0.00     0.060 A 
ATOM     18  C   UNL A   1      33.974  20.635  24.626  1.00  0.00     0.165 A 
ATOM     19  C   UNL A   1      35.587  22.335  24.096  1.00  0.00     0.170 A 
ATOM     20  C   UNL A   1      35.273  21.110  24.642  1.00  0.00     0.207 A 
ATOM     21  O   UNL A   1      36.911  22.638  24.201  1.00  0.00    -0.453 OA
ATOM     22  O   UNL A   1      36.380  20.493  25.145  1.00  0.00    -0.450 OA
ATOM     23  C   UNL A   1      37.391  21.492  24.925  1.00  0.00     0.468 C 
BRANCH  18  24
ATOM     24  O   UNL A   1      33.511  19.451  25.128  1.00  0.00    -0.493 OA
ATOM     25  C   UNL A   1      33.614  18.313  24.281  1.00  0.00     0.278 C 
ENDBRANCH  18  24
ENDBRANCH  14  15
ENDBRANCH   8  14
ENDBRANCH   3   5
ENDBRANCH   2   3
ENDBRANCH   1   2
BRANCH   1  26
ATOM     26  C   UNL A   1      31.950  29.833  25.676  1.00  0.00     0.275 C 
BRANCH  26  27
ATOM     27  O   UNL A   1      33.218  30.474  25.862  1.00  0.00    -0.458 OA
BRANCH  27  28
ATOM     28  C   UNL A   1      33.255  31.365  26.881  1.00  0.00     0.338 C 
ATOM     29  O   UNL A   1      32.387  32.130  27.238  1.00  0.00    -0.246 OA
BRANCH  28  30
ATOM     30  C   UNL A   1      34.492  31.100  27.626  1.00  0.00     0.060 A 
ATOM     31  C   UNL A   1      34.744  29.790  28.038  1.00  0.00     0.016 A 
ATOM     32  C   UNL A   1      35.397  32.122  27.891  1.00  0.00     0.016 A 
ATOM     33  C   UNL A   1      35.894  29.485  28.743  1.00  0.00     0.010 A 
ATOM     34  C   UNL A   1      36.569  31.814  28.576  1.00  0.00     0.010 A 
ATOM     35  C   UNL A   1      36.814  30.498  29.009  1.00  0.00    -0.014 A 
BRANCH  35  36
ATOM     36  C   UNL A   1      38.027  30.186  29.782  1.00  0.00     0.031 A 
ATOM     37  C   UNL A   1      39.049  29.274  29.184  1.00  0.00     0.074 A 
ATOM     38  C   UNL A   1      38.175  30.709  31.011  1.00  0.00     0.049 A 
ATOM     39  N   UNL A   1      40.125  28.775  29.727  1.00  0.00    -0.248 NA
ATOM     40  C   UNL A   1      38.823  28.859  27.790  1.00  0.00     0.031 C 
ATOM     41  C   UNL A   1      37.238  31.634  31.653  1.00  0.00     0.029 A 
ATOM     42  N   UNL A   1      39.155  30.518  31.946  1.00  0.00    -0.354 N 
ATOM     43  C   UNL A   1      40.678  27.945  28.762  1.00  0.00     0.074 A 
ATOM     44  C   UNL A   1      39.819  28.007  27.601  1.00  0.00     0.031 C 
ATOM     45  C   UNL A   1      37.681  31.917  32.888  1.00  0.00     0.029 A 
ATOM     46  C   UNL A   1      38.904  31.159  33.136  1.00  0.00     0.049 A 
ATOM     47  H   UNL A   1      39.960  29.976  31.783  1.00  0.00     0.167 HD
ATOM     48  C   UNL A   1      41.806  27.202  28.845  1.00  0.00     0.034 A 
ATOM     49  C   UNL A   1      39.577  31.112  34.300  1.00  0.00     0.034 A 
ATOM     50  C   UNL A   1      42.652  27.176  30.007  1.00  0.00     0.049 A 
ATOM     51  C   UNL A   1      40.817  30.264  34.372  1.00  0.00     0.074 A 
ATOM     52  C   UNL A   1      43.835  26.490  30.199  1.00  0.00     0.029 A 
ATOM     53  N   UNL A   1      42.392  27.868  31.184  1.00  0.00    -0.354 N 
ATOM     54  N   UNL A   1      41.377  29.540  33.431  1.00  0.00    -0.248 NA
ATOM     55  C   UNL A   1      41.530  30.241  35.655  1.00  0.00     0.031 C 
ATOM     56  C   UNL A   1      44.279  26.748  31.501  1.00  0.00     0.029 A 
ATOM     57  C   UNL A   1      43.387  27.617  32.112  1.00  0.00     0.049 A 
ATOM     58  H   UNL A   1      41.613  28.450  31.336  1.00  0.00     0.167 HD
ATOM     59  C   UNL A   1      42.525  29.001  33.995  1.00  0.00     0.074 A 
ATOM     60  C   UNL A   1      42.588  29.497  35.357  1.00  0.00     0.031 C 
ATOM     61  C   UNL A   1      43.441  28.163  33.446  1.00  0.00     0.034 A 
BRANCH  48  62
ATOM     62  C   UNL A   1      42.171  26.371  27.645  1.00  0.00     0.023 A 
ATOM     63  C   UNL A   1      42.794  26.976  26.534  1.00  0.00     0.012 A 
ATOM     64  C   UNL A   1      41.884  24.992  27.607  1.00  0.00     0.148 A 
ATOM     65  C   UNL A   1      43.083  26.234  25.388  1.00  0.00     0.002 A 
ATOM     66  C   UNL A   1      42.216  24.251  26.480  1.00  0.00     0.091 A 
ATOM     67  F   UNL A   1      41.263  24.439  28.658  1.00  0.00    -0.205 F 
ATOM     68  C   UNL A   1      42.801  24.871  25.365  1.00  0.00     0.022 A 
BRANCH  66  69
ATOM     69  S   UNL A   1      41.953  22.476  26.386  1.00  0.00     0.127 S 
ATOM     70  O   UNL A   1      42.552  22.155  25.092  1.00  0.00    -0.237 OA
ATOM     71  O   UNL A   1      42.706  21.989  27.543  1.00  0.00    -0.237 OA
ATOM     72  O   UNL A   1      40.513  22.282  26.479  1.00  0.00    -0.744 OA
ENDBRANCH  66  69
ENDBRANCH  48  62
BRANCH  49  73
ATOM     73  C   UNL A   1      39.116  31.929  35.456  1.00  0.00     0.023 A 
ATOM     74  C   UNL A   1      38.242  31.352  36.397  1.00  0.00     0.012 A 
ATOM     75  C   UNL A   1      39.582  33.243  35.667  1.00  0.00     0.148 A 
ATOM     76  C   UNL A   1      37.826  32.073  37.517  1.00  0.00     0.002 A 
ATOM     77  C   UNL A   1      39.204  33.937  36.811  1.00  0.00     0.091 A 
ATOM     78  F   UNL A   1      40.407  33.777  34.755  1.00  0.00    -0.205 F 
ATOM     79  C   UNL A   1      38.315  33.360  37.730  1.00  0.00     0.022 A 
BRANCH  77  80
ATOM     80  S   UNL A   1      39.875  35.550  37.233  1.00  0.00     0.127 S 
ATOM     81  O   UNL A   1      39.109  35.887  38.430  1.00  0.00    -0.237 OA
ATOM     82  O   UNL A   1      41.284  35.235  37.472  1.00  0.00    -0.237 OA
ATOM     83  O   UNL A   1      39.634  36.396  36.073  1.00  0.00    -0.744 OA
ENDBRANCH  77  80
ENDBRANCH  49  73
BRANCH  61  84
ATOM     84  C   UNL A   1      44.604  27.756  34.308  1.00  0.00     0.023 A 
ATOM     85  C   UNL A   1      45.769  28.547  34.332  1.00  0.00     0.012 A 
ATOM     86  C   UNL A   1      44.510  26.634  35.155  1.00  0.00     0.148 A 
ATOM     87  C   UNL A   1      46.835  28.210  35.164  1.00  0.00     0.002 A 
ATOM     88  C   UNL A   1      45.555  26.334  36.019  1.00  0.00     0.091 A 
ATOM     89  F   UNL A   1      43.399  25.883  35.101  1.00  0.00    -0.205 F 
ATOM     90  C   UNL A   1      46.723  27.113  36.015  1.00  0.00     0.022 A 
BRANCH  88  91
ATOM     91  S   UNL A   1      45.455  25.002  37.219  1.00  0.00     0.127 S 
ATOM     92  O   UNL A   1      46.639  25.250  38.039  1.00  0.00    -0.237 OA
ATOM     93  O   UNL A   1      44.181  25.280  37.886  1.00  0.00    -0.237 OA
ATOM     94  O   UNL A   1      45.473  23.767  36.448  1.00  0.00    -0.744 OA
ENDBRANCH  88  91
ENDBRANCH  61  84
ENDBRANCH  35  36
ENDBRANCH  28  30
ENDBRANCH  27  28
ENDBRANCH  26  27
ENDBRANCH   1  26
TORSDOF 19
ENDMDL
