MODEL 1
REMARK VINA RESULT:     -13.6      0.000      0.000
REMARK SMILES C[C@@H](C(=O)OCCOC(=O)c1ccc(-c2c3nc(c(-c4cccc(S(=O)(=O)[O-])c4F)c4ccc([nH]4)c(-c4cccc(S(=O)(=O)[O-])c4F)c4nc(c(-c5cccc(S(=O)(=O)[O-])c5F)c5ccc2[nH]5)C=C4)C=C3)cc1)c1ccc2c3cc(Cl)ccc3n(C(=O)c3ccc(Cl)cc3)c2c1
REMARK SMILES IDX 6 1 5 2 3 3 4 4 2 5 1 6 74 7 75 8 96 9 76 10 95 11 77 12
REMARK SMILES IDX 85 13 78 14 84 15 79 16 83 17 80 18 82 19 81 20 86 21 87 22
REMARK SMILES IDX 88 23 89 24 94 25 90 26 93 27 91 28 92 29 7 30 8 31 9 32
REMARK SMILES IDX 10 33 11 34 12 35 73 36 13 37 72 38 14 39 15 40 16 41 66 42
REMARK SMILES IDX 17 43 71 44 65 45 67 46 18 47 70 48 64 49 63 50 19 52 51 53
REMARK SMILES IDX 31 54 50 55 32 56 35 57 49 58 68 59 33 60 34 61 48 63 69 64
REMARK SMILES IDX 36 65 20 66 21 67 29 68 22 69 24 70 30 71 23 72 25 73 26 74
REMARK SMILES IDX 27 75 28 76 52 77 53 78 61 79 54 80 56 81 62 82 55 83 57 84
REMARK SMILES IDX 58 85 59 86 60 87 37 88 38 89 46 90 39 91 41 92 47 93 40 94
REMARK SMILES IDX 42 95 43 96 44 97 45 98
REMARK H PARENT 67 51 35 62
REMARK Flexibility Score: inf
ROOT
ATOM      1  C   UNL A   1      34.945  20.079  25.005  1.00  0.00     0.274 C 
ENDROOT
BRANCH   1   2
ATOM      2  O   UNL A   1      34.032  20.659  24.048  1.00  0.00    -0.462 OA
BRANCH   2   3
ATOM      3  C   UNL A   1      32.773  20.954  24.479  1.00  0.00     0.313 C 
ATOM      4  O   UNL A   1      32.215  20.391  25.413  1.00  0.00    -0.252 OA
BRANCH   3   5
ATOM      5  C   UNL A   1      32.120  22.058  23.639  1.00  0.00     0.126 C 
ATOM      6  C   UNL A   1      32.403  21.942  22.137  1.00  0.00     0.025 C 
BRANCH   5   7
ATOM      7  C   UNL A   1      32.477  23.450  24.139  1.00  0.00    -0.032 A 
ATOM      8  C   UNL A   1      33.783  23.751  24.526  1.00  0.00     0.005 A 
ATOM      9  C   UNL A   1      31.498  24.461  24.184  1.00  0.00     0.032 A 
ATOM     10  C   UNL A   1      34.125  25.028  24.971  1.00  0.00     0.011 A 
ATOM     11  C   UNL A   1      31.843  25.749  24.657  1.00  0.00     0.057 A 
ATOM     12  C   UNL A   1      33.145  26.034  25.064  1.00  0.00     0.008 A 
ATOM     13  N   UNL A   1      31.105  26.942  24.744  1.00  0.00    -0.276 N 
ATOM     14  C   UNL A   1      33.174  27.370  25.544  1.00  0.00     0.009 A 
ATOM     15  C   UNL A   1      31.884  27.895  25.417  1.00  0.00     0.057 A 
ATOM     16  C   UNL A   1      34.198  28.157  26.113  1.00  0.00     0.031 A 
ATOM     17  C   UNL A   1      31.575  29.164  25.951  1.00  0.00     0.029 A 
ATOM     18  C   UNL A   1      33.903  29.437  26.574  1.00  0.00     0.041 A 
ATOM     19  C   UNL A   1      32.606  29.929  26.511  1.00  0.00     0.023 A 
ATOM     20  Cl  UNL A   1      35.158  30.412  27.225  1.00  0.00    -0.084 Cl
BRANCH  13  21
ATOM     21  C   UNL A   1      29.801  27.113  24.206  1.00  0.00     0.262 C 
ATOM     22  O   UNL A   1      28.962  26.256  24.493  1.00  0.00    -0.268 OA
BRANCH  21  23
ATOM     23  C   UNL A   1      29.345  28.174  23.258  1.00  0.00     0.040 A 
ATOM     24  C   UNL A   1      30.329  28.848  22.510  1.00  0.00     0.015 A 
ATOM     25  C   UNL A   1      28.021  28.623  23.185  1.00  0.00     0.015 A 
ATOM     26  C   UNL A   1      29.994  29.928  21.689  1.00  0.00     0.021 A 
ATOM     27  C   UNL A   1      27.681  29.687  22.337  1.00  0.00     0.021 A 
ATOM     28  C   UNL A   1      28.668  30.338  21.600  1.00  0.00     0.041 A 
ATOM     29  Cl  UNL A   1      28.256  31.677  20.602  1.00  0.00    -0.084 Cl
ENDBRANCH  21  23
ENDBRANCH  13  21
ENDBRANCH   5   7
ENDBRANCH   3   5
ENDBRANCH   2   3
ENDBRANCH   1   2
BRANCH   1  30
ATOM     30  C   UNL A   1      35.639  21.209  25.760  1.00  0.00     0.275 C 
BRANCH  30  31
ATOM     31  O   UNL A   1      36.798  21.583  24.998  1.00  0.00    -0.458 OA
BRANCH  31  32
ATOM     32  C   UNL A   1      38.004  21.217  25.491  1.00  0.00     0.338 C 
ATOM     33  O   UNL A   1      38.532  20.126  25.373  1.00  0.00    -0.246 OA
BRANCH  32  34
ATOM     34  C   UNL A   1      38.632  22.388  26.160  1.00  0.00     0.060 A 
ATOM     35  C   UNL A   1      38.088  23.663  26.019  1.00  0.00     0.016 A 
ATOM     36  C   UNL A   1      39.835  22.235  26.856  1.00  0.00     0.016 A 
ATOM     37  C   UNL A   1      38.799  24.779  26.464  1.00  0.00     0.010 A 
ATOM     38  C   UNL A   1      40.492  23.359  27.388  1.00  0.00     0.010 A 
ATOM     39  C   UNL A   1      40.018  24.662  27.154  1.00  0.00    -0.014 A 
BRANCH  39  40
ATOM     40  C   UNL A   1      40.812  25.886  27.529  1.00  0.00     0.031 A 
ATOM     41  C   UNL A   1      40.258  26.907  28.502  1.00  0.00     0.074 A 
ATOM     42  C   UNL A   1      42.075  26.078  27.083  1.00  0.00     0.049 A 
ATOM     43  N   UNL A   1      40.705  28.106  28.786  1.00  0.00    -0.248 NA
ATOM     44  C   UNL A   1      39.047  26.540  29.255  1.00  0.00     0.031 C 
ATOM     45  C   UNL A   1      42.807  25.185  26.189  1.00  0.00     0.029 A 
ATOM     46  N   UNL A   1      42.984  27.079  27.355  1.00  0.00    -0.354 N 
ATOM     47  C   UNL A   1      39.781  28.670  29.659  1.00  0.00     0.074 A 
ATOM     48  C   UNL A   1      38.762  27.669  29.889  1.00  0.00     0.031 C 
ATOM     49  C   UNL A   1      44.074  25.608  26.076  1.00  0.00     0.029 A 
ATOM     50  C   UNL A   1      44.212  26.889  26.760  1.00  0.00     0.049 A 
ATOM     51  H   UNL A   1      42.776  27.856  27.922  1.00  0.00     0.167 HD
ATOM     52  C   UNL A   1      39.778  29.902  30.224  1.00  0.00     0.034 A 
ATOM     53  C   UNL A   1      45.312  27.669  26.707  1.00  0.00     0.034 A 
ATOM     54  C   UNL A   1      40.841  30.865  30.105  1.00  0.00     0.049 A 
ATOM     55  C   UNL A   1      45.286  29.033  27.334  1.00  0.00     0.074 A 
ATOM     56  C   UNL A   1      40.897  32.153  30.615  1.00  0.00     0.029 A 
ATOM     57  N   UNL A   1      42.055  30.634  29.480  1.00  0.00    -0.354 N 
ATOM     58  N   UNL A   1      44.352  29.591  28.063  1.00  0.00    -0.248 NA
ATOM     59  C   UNL A   1      46.459  29.891  27.105  1.00  0.00     0.031 C 
ATOM     60  C   UNL A   1      42.147  32.698  30.301  1.00  0.00     0.029 A 
ATOM     61  C   UNL A   1      42.868  31.750  29.598  1.00  0.00     0.049 A 
ATOM     62  H   UNL A   1      42.303  29.800  29.020  1.00  0.00     0.167 HD
ATOM     63  C   UNL A   1      44.824  30.858  28.381  1.00  0.00     0.074 A 
ATOM     64  C   UNL A   1      46.143  30.976  27.799  1.00  0.00     0.031 C 
ATOM     65  C   UNL A   1      44.199  31.851  29.060  1.00  0.00     0.034 A 
BRANCH  52  66
ATOM     66  C   UNL A   1      38.580  30.295  31.047  1.00  0.00     0.023 A 
ATOM     67  C   UNL A   1      38.510  29.928  32.405  1.00  0.00     0.012 A 
ATOM     68  C   UNL A   1      37.563  31.098  30.492  1.00  0.00     0.148 A 
ATOM     69  C   UNL A   1      37.435  30.339  33.192  1.00  0.00     0.002 A 
ATOM     70  C   UNL A   1      36.515  31.536  31.293  1.00  0.00     0.091 A 
ATOM     71  F   UNL A   1      37.638  31.418  29.192  1.00  0.00    -0.205 F 
ATOM     72  C   UNL A   1      36.445  31.152  32.642  1.00  0.00     0.022 A 
BRANCH  70  73
ATOM     73  S   UNL A   1      35.241  32.647  30.684  1.00  0.00     0.127 S 
ATOM     74  O   UNL A   1      34.326  32.702  31.821  1.00  0.00    -0.237 OA
ATOM     75  O   UNL A   1      35.990  33.882  30.445  1.00  0.00    -0.237 OA
ATOM     76  O   UNL A   1      34.713  32.022  29.479  1.00  0.00    -0.744 OA
ENDBRANCH  70  73
ENDBRANCH  52  66
BRANCH  53  77
ATOM     77  C   UNL A   1      46.533  27.188  25.996  1.00  0.00     0.023 A 
ATOM     78  C   UNL A   1      46.686  27.447  24.620  1.00  0.00     0.012 A 
ATOM     79  C   UNL A   1      47.559  26.507  26.678  1.00  0.00     0.148 A 
ATOM     80  C   UNL A   1      47.833  27.031  23.940  1.00  0.00     0.002 A 
ATOM     81  C   UNL A   1      48.734  26.174  26.016  1.00  0.00     0.091 A 
ATOM     82  F   UNL A   1      47.381  26.213  27.975  1.00  0.00    -0.205 F 
ATOM     83  C   UNL A   1      48.867  26.415  24.642  1.00  0.00     0.022 A 
BRANCH  81  84
ATOM     84  S   UNL A   1      50.164  25.567  26.918  1.00  0.00     0.127 S 
ATOM     85  O   UNL A   1      50.421  26.660  27.849  1.00  0.00    -0.237 OA
ATOM     86  O   UNL A   1      49.652  24.340  27.530  1.00  0.00    -0.237 OA
ATOM     87  O   UNL A   1      51.179  25.337  25.896  1.00  0.00    -0.744 OA
ENDBRANCH  81  84
ENDBRANCH  53  77
BRANCH  65  88
ATOM     88  C   UNL A   1      44.926  33.160  29.207  1.00  0.00     0.023 A 
ATOM     89  C   UNL A   1      45.763  33.359  30.323  1.00  0.00     0.012 A 
ATOM     90  C   UNL A   1      44.832  34.164  28.224  1.00  0.00     0.148 A 
ATOM     91  C   UNL A   1      46.476  34.548  30.474  1.00  0.00     0.002 A 
ATOM     92  C   UNL A   1      45.574  35.333  28.363  1.00  0.00     0.091 A 
ATOM     93  F   UNL A   1      44.014  33.966  27.181  1.00  0.00    -0.205 F 
ATOM     94  C   UNL A   1      46.389  35.530  29.490  1.00  0.00     0.022 A 
BRANCH  92  95
ATOM     95  S   UNL A   1      45.581  36.623  27.111  1.00  0.00     0.127 S 
ATOM     96  O   UNL A   1      46.234  35.947  25.991  1.00  0.00    -0.237 OA
ATOM     97  O   UNL A   1      44.153  36.881  26.920  1.00  0.00    -0.237 OA
ATOM     98  O   UNL A   1      46.321  37.736  27.690  1.00  0.00    -0.744 OA
ENDBRANCH  92  95
ENDBRANCH  65  88
ENDBRANCH  39  40
ENDBRANCH  32  34
ENDBRANCH  31  32
ENDBRANCH  30  31
ENDBRANCH   1  30
TORSDOF 17
ENDMDL
MODEL 2
REMARK VINA RESULT:     -12.8      2.013      7.293
REMARK SMILES C[C@@H](C(=O)OCCOC(=O)c1ccc(-c2c3nc(c(-c4cccc(S(=O)(=O)[O-])c4F)c4ccc([nH]4)c(-c4cccc(S(=O)(=O)[O-])c4F)c4nc(c(-c5cccc(S(=O)(=O)[O-])c5F)c5ccc2[nH]5)C=C4)C=C3)cc1)c1ccc2c3cc(Cl)ccc3n(C(=O)c3ccc(Cl)cc3)c2c1
REMARK SMILES IDX 6 1 5 2 3 3 4 4 2 5 1 6 74 7 75 8 96 9 76 10 95 11 77 12
REMARK SMILES IDX 85 13 78 14 84 15 79 16 83 17 80 18 82 19 81 20 86 21 87 22
REMARK SMILES IDX 88 23 89 24 94 25 90 26 93 27 91 28 92 29 7 30 8 31 9 32
REMARK SMILES IDX 10 33 11 34 12 35 73 36 13 37 72 38 14 39 15 40 16 41 66 42
REMARK SMILES IDX 17 43 71 44 65 45 67 46 18 47 70 48 64 49 63 50 19 52 51 53
REMARK SMILES IDX 31 54 50 55 32 56 35 57 49 58 68 59 33 60 34 61 48 63 69 64
REMARK SMILES IDX 36 65 20 66 21 67 29 68 22 69 24 70 30 71 23 72 25 73 26 74
REMARK SMILES IDX 27 75 28 76 52 77 53 78 61 79 54 80 56 81 62 82 55 83 57 84
REMARK SMILES IDX 58 85 59 86 60 87 37 88 38 89 46 90 39 91 41 92 47 93 40 94
REMARK SMILES IDX 42 95 43 96 44 97 45 98
REMARK H PARENT 67 51 35 62
REMARK Flexibility Score: inf
ROOT
ATOM      1  C   UNL A   1      36.330  21.989  24.173  1.00  0.00     0.274 C 
ENDROOT
BRANCH   1   2
ATOM      2  O   UNL A   1      35.058  21.307  24.158  1.00  0.00    -0.462 OA
BRANCH   2   3
ATOM      3  C   UNL A   1      34.146  21.657  25.109  1.00  0.00     0.313 C 
ATOM      4  O   UNL A   1      34.198  21.298  26.279  1.00  0.00    -0.252 OA
BRANCH   3   5
ATOM      5  C   UNL A   1      33.025  22.533  24.539  1.00  0.00     0.126 C 
ATOM      6  C   UNL A   1      32.865  22.422  23.018  1.00  0.00     0.025 C 
BRANCH   5   7
ATOM      7  C   UNL A   1      33.167  23.991  24.951  1.00  0.00    -0.032 A 
ATOM      8  C   UNL A   1      34.359  24.458  25.506  1.00  0.00     0.005 A 
ATOM      9  C   UNL A   1      32.106  24.894  24.745  1.00  0.00     0.032 A 
ATOM     10  C   UNL A   1      34.505  25.796  25.873  1.00  0.00     0.011 A 
ATOM     11  C   UNL A   1      32.250  26.246  25.139  1.00  0.00     0.057 A 
ATOM     12  C   UNL A   1      33.436  26.697  25.713  1.00  0.00     0.008 A 
ATOM     13  N   UNL A   1      31.403  27.358  24.994  1.00  0.00    -0.276 N 
ATOM     14  C   UNL A   1      33.264  28.063  26.061  1.00  0.00     0.009 A 
ATOM     15  C   UNL A   1      31.971  28.438  25.685  1.00  0.00     0.057 A 
ATOM     16  C   UNL A   1      34.105  28.997  26.704  1.00  0.00     0.031 A 
ATOM     17  C   UNL A   1      31.464  29.707  26.038  1.00  0.00     0.029 A 
ATOM     18  C   UNL A   1      33.623  30.273  26.987  1.00  0.00     0.041 A 
ATOM     19  C   UNL A   1      32.316  30.618  26.676  1.00  0.00     0.023 A 
ATOM     20  Cl  UNL A   1      34.661  31.424  27.728  1.00  0.00    -0.084 Cl
BRANCH  13  21
ATOM     21  C   UNL A   1      30.195  27.346  24.245  1.00  0.00     0.262 C 
ATOM     22  O   UNL A   1      29.538  26.303  24.261  1.00  0.00    -0.268 OA
BRANCH  21  23
ATOM     23  C   UNL A   1      29.665  28.432  23.366  1.00  0.00     0.040 A 
ATOM     24  C   UNL A   1      28.268  28.594  23.301  1.00  0.00     0.015 A 
ATOM     25  C   UNL A   1      30.470  29.188  22.506  1.00  0.00     0.015 A 
ATOM     26  C   UNL A   1      27.690  29.508  22.416  1.00  0.00     0.021 A 
ATOM     27  C   UNL A   1      29.892  30.128  21.640  1.00  0.00     0.021 A 
ATOM     28  C   UNL A   1      28.507  30.278  21.594  1.00  0.00     0.041 A 
ATOM     29  Cl  UNL A   1      27.798  31.394  20.494  1.00  0.00    -0.084 Cl
ENDBRANCH  21  23
ENDBRANCH  13  21
ENDBRANCH   5   7
ENDBRANCH   3   5
ENDBRANCH   2   3
ENDBRANCH   1   2
BRANCH   1  30
ATOM     30  C   UNL A   1      37.389  21.026  24.702  1.00  0.00     0.275 C 
BRANCH  30  31
ATOM     31  O   UNL A   1      37.833  21.536  25.970  1.00  0.00    -0.458 OA
BRANCH  31  32
ATOM     32  C   UNL A   1      39.148  21.406  26.262  1.00  0.00     0.338 C 
ATOM     33  O   UNL A   1      39.829  20.409  26.101  1.00  0.00    -0.246 OA
BRANCH  32  34
ATOM     34  C   UNL A   1      39.667  22.707  26.762  1.00  0.00     0.060 A 
ATOM     35  C   UNL A   1      39.125  23.909  26.309  1.00  0.00     0.016 A 
ATOM     36  C   UNL A   1      40.773  22.740  27.615  1.00  0.00     0.016 A 
ATOM     37  C   UNL A   1      39.755  25.118  26.612  1.00  0.00     0.010 A 
ATOM     38  C   UNL A   1      41.340  23.970  27.994  1.00  0.00     0.010 A 
ATOM     39  C   UNL A   1      40.878  25.184  27.454  1.00  0.00    -0.014 A 
BRANCH  39  40
ATOM     40  C   UNL A   1      41.598  26.488  27.678  1.00  0.00     0.031 A 
ATOM     41  C   UNL A   1      42.944  26.756  27.035  1.00  0.00     0.074 A 
ATOM     42  C   UNL A   1      41.041  27.496  28.386  1.00  0.00     0.049 A 
ATOM     43  N   UNL A   1      43.795  27.724  27.271  1.00  0.00    -0.248 NA
ATOM     44  C   UNL A   1      43.397  25.819  25.993  1.00  0.00     0.031 C 
ATOM     45  C   UNL A   1      39.731  27.459  29.034  1.00  0.00     0.029 A 
ATOM     46  N   UNL A   1      41.494  28.772  28.650  1.00  0.00    -0.354 N 
ATOM     47  C   UNL A   1      44.917  27.456  26.494  1.00  0.00     0.074 A 
ATOM     48  C   UNL A   1      44.626  26.250  25.748  1.00  0.00     0.031 C 
ATOM     49  C   UNL A   1      39.438  28.674  29.517  1.00  0.00     0.029 A 
ATOM     50  C   UNL A   1      40.598  29.544  29.357  1.00  0.00     0.049 A 
ATOM     51  H   UNL A   1      42.374  29.100  28.359  1.00  0.00     0.167 HD
ATOM     52  C   UNL A   1      46.079  28.146  26.400  1.00  0.00     0.034 A 
ATOM     53  C   UNL A   1      40.701  30.785  29.877  1.00  0.00     0.034 A 
ATOM     54  C   UNL A   1      46.340  29.410  27.037  1.00  0.00     0.049 A 
ATOM     55  C   UNL A   1      41.999  31.531  29.768  1.00  0.00     0.074 A 
ATOM     56  C   UNL A   1      47.508  30.156  27.024  1.00  0.00     0.029 A 
ATOM     57  N   UNL A   1      45.410  30.143  27.755  1.00  0.00    -0.354 N 
ATOM     58  N   UNL A   1      43.089  31.204  29.119  1.00  0.00    -0.248 NA
ATOM     59  C   UNL A   1      42.093  32.809  30.491  1.00  0.00     0.031 C 
ATOM     60  C   UNL A   1      47.282  31.343  27.731  1.00  0.00     0.029 A 
ATOM     61  C   UNL A   1      45.974  31.335  28.181  1.00  0.00     0.049 A 
ATOM     62  H   UNL A   1      44.485  29.860  27.935  1.00  0.00     0.167 HD
ATOM     63  C   UNL A   1      43.993  32.233  29.351  1.00  0.00     0.074 A 
ATOM     64  C   UNL A   1      43.314  33.215  30.170  1.00  0.00     0.031 C 
ATOM     65  C   UNL A   1      45.285  32.334  28.956  1.00  0.00     0.034 A 
BRANCH  52  66
ATOM     66  C   UNL A   1      47.180  27.558  25.558  1.00  0.00     0.023 A 
ATOM     67  C   UNL A   1      48.037  26.583  26.103  1.00  0.00     0.012 A 
ATOM     68  C   UNL A   1      47.310  27.915  24.200  1.00  0.00     0.148 A 
ATOM     69  C   UNL A   1      49.020  25.986  25.313  1.00  0.00     0.002 A 
ATOM     70  C   UNL A   1      48.267  27.288  23.410  1.00  0.00     0.091 A 
ATOM     71  F   UNL A   1      46.499  28.862  23.706  1.00  0.00    -0.205 F 
ATOM     72  C   UNL A   1      49.128  26.328  23.967  1.00  0.00     0.022 A 
BRANCH  70  73
ATOM     73  S   UNL A   1      48.421  27.614  21.650  1.00  0.00     0.127 S 
ATOM     74  O   UNL A   1      49.583  28.499  21.613  1.00  0.00    -0.237 OA
ATOM     75  O   UNL A   1      48.657  26.277  21.102  1.00  0.00    -0.237 OA
ATOM     76  O   UNL A   1      47.157  28.214  21.246  1.00  0.00    -0.744 OA
ENDBRANCH  70  73
ENDBRANCH  52  66
BRANCH  53  77
ATOM     77  C   UNL A   1      39.538  31.393  30.589  1.00  0.00     0.023 A 
ATOM     78  C   UNL A   1      38.485  31.961  29.847  1.00  0.00     0.012 A 
ATOM     79  C   UNL A   1      39.452  31.383  31.995  1.00  0.00     0.148 A 
ATOM     80  C   UNL A   1      37.375  32.511  30.492  1.00  0.00     0.002 A 
ATOM     81  C   UNL A   1      38.307  31.852  32.626  1.00  0.00     0.091 A 
ATOM     82  F   UNL A   1      40.486  30.892  32.696  1.00  0.00    -0.205 F 
ATOM     83  C   UNL A   1      37.275  32.436  31.880  1.00  0.00     0.022 A 
BRANCH  81  84
ATOM     84  S   UNL A   1      38.048  31.591  34.384  1.00  0.00     0.127 S 
ATOM     85  O   UNL A   1      39.108  32.404  34.971  1.00  0.00    -0.237 OA
ATOM     86  O   UNL A   1      36.692  32.108  34.581  1.00  0.00    -0.237 OA
ATOM     87  O   UNL A   1      38.161  30.149  34.568  1.00  0.00    -0.744 OA
ENDBRANCH  81  84
ENDBRANCH  53  77
BRANCH  65  88
ATOM     88  C   UNL A   1      46.061  33.541  29.407  1.00  0.00     0.023 A 
ATOM     89  C   UNL A   1      46.761  33.489  30.630  1.00  0.00     0.012 A 
ATOM     90  C   UNL A   1      46.151  34.696  28.607  1.00  0.00     0.148 A 
ATOM     91  C   UNL A   1      47.515  34.579  31.063  1.00  0.00     0.002 A 
ATOM     92  C   UNL A   1      46.935  35.765  29.028  1.00  0.00     0.091 A 
ATOM     93  F   UNL A   1      45.462  34.735  27.458  1.00  0.00    -0.205 F 
ATOM     94  C   UNL A   1      47.611  35.712  30.259  1.00  0.00     0.022 A 
BRANCH  92  95
ATOM     95  S   UNL A   1      47.175  37.237  28.026  1.00  0.00     0.127 S 
ATOM     96  O   UNL A   1      45.799  37.690  27.826  1.00  0.00    -0.237 OA
ATOM     97  O   UNL A   1      47.977  38.088  28.905  1.00  0.00    -0.237 OA
ATOM     98  O   UNL A   1      47.869  36.792  26.824  1.00  0.00    -0.744 OA
ENDBRANCH  92  95
ENDBRANCH  65  88
ENDBRANCH  39  40
ENDBRANCH  32  34
ENDBRANCH  31  32
ENDBRANCH  30  31
ENDBRANCH   1  30
TORSDOF 17
ENDMDL
MODEL 3
REMARK VINA RESULT:     -12.7      1.096      2.893
REMARK SMILES C[C@@H](C(=O)OCCOC(=O)c1ccc(-c2c3nc(c(-c4cccc(S(=O)(=O)[O-])c4F)c4ccc([nH]4)c(-c4cccc(S(=O)(=O)[O-])c4F)c4nc(c(-c5cccc(S(=O)(=O)[O-])c5F)c5ccc2[nH]5)C=C4)C=C3)cc1)c1ccc2c3cc(Cl)ccc3n(C(=O)c3ccc(Cl)cc3)c2c1
REMARK SMILES IDX 6 1 5 2 3 3 4 4 2 5 1 6 74 7 75 8 96 9 76 10 95 11 77 12
REMARK SMILES IDX 85 13 78 14 84 15 79 16 83 17 80 18 82 19 81 20 86 21 87 22
REMARK SMILES IDX 88 23 89 24 94 25 90 26 93 27 91 28 92 29 7 30 8 31 9 32
REMARK SMILES IDX 10 33 11 34 12 35 73 36 13 37 72 38 14 39 15 40 16 41 66 42
REMARK SMILES IDX 17 43 71 44 65 45 67 46 18 47 70 48 64 49 63 50 19 52 51 53
REMARK SMILES IDX 31 54 50 55 32 56 35 57 49 58 68 59 33 60 34 61 48 63 69 64
REMARK SMILES IDX 36 65 20 66 21 67 29 68 22 69 24 70 30 71 23 72 25 73 26 74
REMARK SMILES IDX 27 75 28 76 52 77 53 78 61 79 54 80 56 81 62 82 55 83 57 84
REMARK SMILES IDX 58 85 59 86 60 87 37 88 38 89 46 90 39 91 41 92 47 93 40 94
REMARK SMILES IDX 42 95 43 96 44 97 45 98
REMARK H PARENT 67 51 35 62
REMARK Flexibility Score: inf
ROOT
ATOM      1  C   UNL A   1      34.986  20.662  25.166  1.00  0.00     0.274 C 
ENDROOT
BRANCH   1   2
ATOM      2  O   UNL A   1      33.945  20.971  24.215  1.00  0.00    -0.462 OA
BRANCH   2   3
ATOM      3  C   UNL A   1      33.628  22.285  24.033  1.00  0.00     0.313 C 
ATOM      4  O   UNL A   1      34.119  22.999  23.168  1.00  0.00    -0.252 OA
BRANCH   3   5
ATOM      5  C   UNL A   1      32.603  22.778  25.061  1.00  0.00     0.126 C 
ATOM      6  C   UNL A   1      31.574  21.716  25.468  1.00  0.00     0.025 C 
BRANCH   5   7
ATOM      7  C   UNL A   1      31.901  24.050  24.610  1.00  0.00    -0.032 A 
ATOM      8  C   UNL A   1      31.083  24.045  23.480  1.00  0.00     0.005 A 
ATOM      9  C   UNL A   1      32.042  25.240  25.350  1.00  0.00     0.032 A 
ATOM     10  C   UNL A   1      30.421  25.203  23.067  1.00  0.00     0.011 A 
ATOM     11  C   UNL A   1      31.388  26.417  24.915  1.00  0.00     0.057 A 
ATOM     12  C   UNL A   1      30.592  26.408  23.772  1.00  0.00     0.008 A 
ATOM     13  N   UNL A   1      31.296  27.700  25.482  1.00  0.00    -0.276 N 
ATOM     14  C   UNL A   1      30.125  27.731  23.550  1.00  0.00     0.009 A 
ATOM     15  C   UNL A   1      30.637  28.538  24.571  1.00  0.00     0.057 A 
ATOM     16  C   UNL A   1      29.336  28.306  22.531  1.00  0.00     0.031 A 
ATOM     17  C   UNL A   1      30.459  29.938  24.531  1.00  0.00     0.029 A 
ATOM     18  C   UNL A   1      29.103  29.679  22.536  1.00  0.00     0.041 A 
ATOM     19  C   UNL A   1      29.671  30.488  23.511  1.00  0.00     0.023 A 
ATOM     20  Cl  UNL A   1      28.105  30.373  21.322  1.00  0.00    -0.084 Cl
BRANCH  13  21
ATOM     21  C   UNL A   1      31.784  28.037  26.773  1.00  0.00     0.262 C 
ATOM     22  O   UNL A   1      31.174  27.571  27.739  1.00  0.00    -0.268 OA
BRANCH  21  23
ATOM     23  C   UNL A   1      32.908  28.963  27.103  1.00  0.00     0.040 A 
ATOM     24  C   UNL A   1      32.593  30.316  27.334  1.00  0.00     0.015 A 
ATOM     25  C   UNL A   1      34.256  28.587  27.051  1.00  0.00     0.015 A 
ATOM     26  C   UNL A   1      33.599  31.265  27.534  1.00  0.00     0.021 A 
ATOM     27  C   UNL A   1      35.263  29.534  27.284  1.00  0.00     0.021 A 
ATOM     28  C   UNL A   1      34.931  30.867  27.516  1.00  0.00     0.041 A 
ATOM     29  Cl  UNL A   1      36.172  32.036  27.748  1.00  0.00    -0.084 Cl
ENDBRANCH  21  23
ENDBRANCH  13  21
ENDBRANCH   5   7
ENDBRANCH   3   5
ENDBRANCH   2   3
ENDBRANCH   1   2
BRANCH   1  30
ATOM     30  C   UNL A   1      36.307  21.207  24.632  1.00  0.00     0.275 C 
BRANCH  30  31
ATOM     31  O   UNL A   1      36.997  21.813  25.738  1.00  0.00    -0.458 OA
BRANCH  31  32
ATOM     32  C   UNL A   1      38.328  21.589  25.832  1.00  0.00     0.338 C 
ATOM     33  O   UNL A   1      38.931  20.623  25.401  1.00  0.00    -0.246 OA
BRANCH  32  34
ATOM     34  C   UNL A   1      38.971  22.752  26.501  1.00  0.00     0.060 A 
ATOM     35  C   UNL A   1      38.520  24.049  26.259  1.00  0.00     0.016 A 
ATOM     36  C   UNL A   1      40.102  22.564  27.300  1.00  0.00     0.016 A 
ATOM     37  C   UNL A   1      39.260  25.142  26.714  1.00  0.00     0.010 A 
ATOM     38  C   UNL A   1      40.783  23.672  27.836  1.00  0.00     0.010 A 
ATOM     39  C   UNL A   1      40.410  24.988  27.507  1.00  0.00    -0.014 A 
BRANCH  39  40
ATOM     40  C   UNL A   1      41.245  26.179  27.894  1.00  0.00     0.031 A 
ATOM     41  C   UNL A   1      40.743  27.188  28.908  1.00  0.00     0.074 A 
ATOM     42  C   UNL A   1      42.501  26.352  27.421  1.00  0.00     0.049 A 
ATOM     43  N   UNL A   1      41.228  28.367  29.212  1.00  0.00    -0.248 NA
ATOM     44  C   UNL A   1      39.542  26.832  29.682  1.00  0.00     0.031 C 
ATOM     45  C   UNL A   1      43.187  25.464  26.485  1.00  0.00     0.029 A 
ATOM     46  N   UNL A   1      43.443  27.321  27.696  1.00  0.00    -0.354 N 
ATOM     47  C   UNL A   1      40.342  28.931  30.122  1.00  0.00     0.074 A 
ATOM     48  C   UNL A   1      39.303  27.950  30.352  1.00  0.00     0.031 C 
ATOM     49  C   UNL A   1      44.461  25.857  26.351  1.00  0.00     0.029 A 
ATOM     50  C   UNL A   1      44.650  27.115  27.065  1.00  0.00     0.049 A 
ATOM     51  H   UNL A   1      43.270  28.087  28.288  1.00  0.00     0.167 HD
ATOM     52  C   UNL A   1      40.385  30.147  30.720  1.00  0.00     0.034 A 
ATOM     53  C   UNL A   1      45.769  27.868  27.005  1.00  0.00     0.034 A 
ATOM     54  C   UNL A   1      41.471  31.085  30.599  1.00  0.00     0.049 A 
ATOM     55  C   UNL A   1      45.795  29.215  27.668  1.00  0.00     0.074 A 
ATOM     56  C   UNL A   1      41.573  32.356  31.142  1.00  0.00     0.029 A 
ATOM     57  N   UNL A   1      42.662  30.840  29.938  1.00  0.00    -0.354 N 
ATOM     58  N   UNL A   1      44.894  29.777  28.435  1.00  0.00    -0.248 NA
ATOM     59  C   UNL A   1      46.984  30.049  27.431  1.00  0.00     0.031 C 
ATOM     60  C   UNL A   1      42.829  32.877  30.811  1.00  0.00     0.029 A 
ATOM     61  C   UNL A   1      43.507  31.930  30.065  1.00  0.00     0.049 A 
ATOM     62  H   UNL A   1      42.876  30.012  29.449  1.00  0.00     0.167 HD
ATOM     63  C   UNL A   1      45.407  31.022  28.775  1.00  0.00     0.074 A 
ATOM     64  C   UNL A   1      46.714  31.122  28.162  1.00  0.00     0.031 C 
ATOM     65  C   UNL A   1      44.826  32.012  29.496  1.00  0.00     0.034 A 
BRANCH  52  66
ATOM     66  C   UNL A   1      39.219  30.547  31.584  1.00  0.00     0.023 A 
ATOM     67  C   UNL A   1      39.148  30.103  32.918  1.00  0.00     0.012 A 
ATOM     68  C   UNL A   1      38.237  31.432  31.094  1.00  0.00     0.148 A 
ATOM     69  C   UNL A   1      38.105  30.519  33.745  1.00  0.00     0.002 A 
ATOM     70  C   UNL A   1      37.222  31.872  31.936  1.00  0.00     0.091 A 
ATOM     71  F   UNL A   1      38.311  31.826  29.814  1.00  0.00    -0.205 F 
ATOM     72  C   UNL A   1      37.150  31.411  33.260  1.00  0.00     0.022 A 
BRANCH  70  73
ATOM     73  S   UNL A   1      35.998  33.079  31.414  1.00  0.00     0.127 S 
ATOM     74  O   UNL A   1      34.984  32.226  30.800  1.00  0.00    -0.237 OA
ATOM     75  O   UNL A   1      35.596  33.688  32.683  1.00  0.00    -0.237 OA
ATOM     76  O   UNL A   1      36.695  33.983  30.509  1.00  0.00    -0.744 OA
ENDBRANCH  70  73
ENDBRANCH  52  66
BRANCH  53  77
ATOM     77  C   UNL A   1      46.959  27.376  26.249  1.00  0.00     0.023 A 
ATOM     78  C   UNL A   1      47.106  27.705  24.888  1.00  0.00     0.012 A 
ATOM     79  C   UNL A   1      47.962  26.614  26.877  1.00  0.00     0.148 A 
ATOM     80  C   UNL A   1      48.225  27.278  24.169  1.00  0.00     0.002 A 
ATOM     81  C   UNL A   1      49.113  26.267  26.180  1.00  0.00     0.091 A 
ATOM     82  F   UNL A   1      47.788  26.255  28.159  1.00  0.00    -0.205 F 
ATOM     83  C   UNL A   1      49.239  26.579  24.820  1.00  0.00     0.022 A 
BRANCH  81  84
ATOM     84  S   UNL A   1      50.526  25.550  27.026  1.00  0.00     0.127 S 
ATOM     85  O   UNL A   1      49.959  24.324  27.577  1.00  0.00    -0.237 OA
ATOM     86  O   UNL A   1      51.480  25.353  25.933  1.00  0.00    -0.237 OA
ATOM     87  O   UNL A   1      50.937  26.563  27.991  1.00  0.00    -0.744 OA
ENDBRANCH  81  84
ENDBRANCH  53  77
BRANCH  65  88
ATOM     88  C   UNL A   1      45.590  33.297  29.658  1.00  0.00     0.023 A 
ATOM     89  C   UNL A   1      46.487  33.431  30.737  1.00  0.00     0.012 A 
ATOM     90  C   UNL A   1      45.472  34.344  28.723  1.00  0.00     0.148 A 
ATOM     91  C   UNL A   1      47.235  34.597  30.900  1.00  0.00     0.002 A 
ATOM     92  C   UNL A   1      46.248  35.489  28.871  1.00  0.00     0.091 A 
ATOM     93  F   UNL A   1      44.598  34.208  27.716  1.00  0.00    -0.205 F 
ATOM     94  C   UNL A   1      47.122  35.621  29.962  1.00  0.00     0.022 A 
BRANCH  92  95
ATOM     95  S   UNL A   1      46.223  36.829  27.675  1.00  0.00     0.127 S 
ATOM     96  O   UNL A   1      45.895  36.120  26.439  1.00  0.00    -0.237 OA
ATOM     97  O   UNL A   1      45.154  37.688  28.187  1.00  0.00    -0.237 OA
ATOM     98  O   UNL A   1      47.550  37.429  27.720  1.00  0.00    -0.744 OA
ENDBRANCH  92  95
ENDBRANCH  65  88
ENDBRANCH  39  40
ENDBRANCH  32  34
ENDBRANCH  31  32
ENDBRANCH  30  31
ENDBRANCH   1  30
TORSDOF 17
ENDMDL
