MODEL 1
REMARK VINA RESULT:     -11.0      0.000      0.000
REMARK SMILES CCC(CC)(NC(=O)c1ccc(C)s1)C(=O)OCCOC(=O)c1ccc(-c2c3nc(c(-c4cccc(S(=O)(=O)[O-])c4F)c4ccc([nH]4)c(-c4cccc(S(=O)(=O)[O-])c4F)c4nc(c(-c5cccc(S(=O)(=O)[O-])c5F)c5ccc2[nH]5)C=C4)C=C3)cc1
REMARK SMILES IDX 19 1 18 2 17 3 15 4 16 5 3 6 2 7 1 8 4 9 5 10 6 11 7 12 8 14
REMARK SMILES IDX 9 15 10 16 14 17 11 18 12 19 13 20 20 21 21 22 22 23 23 24
REMARK SMILES IDX 24 25 85 26 25 27 84 28 26 29 27 30 28 31 78 32 29 33 83 34
REMARK SMILES IDX 77 35 79 36 30 37 82 38 76 39 75 40 31 42 63 43 43 44 62 45
REMARK SMILES IDX 44 46 47 47 61 48 80 49 45 50 46 51 60 53 81 54 48 55 32 56
REMARK SMILES IDX 33 57 41 58 34 59 36 60 42 61 35 62 37 63 38 64 39 65 40 66
REMARK SMILES IDX 64 67 65 68 73 69 66 70 68 71 74 72 67 73 69 74 70 75 71 76
REMARK SMILES IDX 72 77 49 78 50 79 58 80 51 81 53 82 59 83 52 84 54 85 55 86
REMARK SMILES IDX 56 87 57 88
REMARK H PARENT 6 13 79 41 47 52
REMARK Flexibility Score: inf
ROOT
ATOM      1  C   UNL A   1      36.194  20.651  25.069  1.00  0.00     0.275 C 
ENDROOT
BRANCH   1   2
ATOM      2  C   UNL A   1      34.845  21.328  24.834  1.00  0.00     0.274 C 
BRANCH   2   3
ATOM      3  O   UNL A   1      34.982  22.765  24.902  1.00  0.00    -0.460 OA
BRANCH   3   4
ATOM      4  C   UNL A   1      34.736  23.409  23.729  1.00  0.00     0.331 C 
ATOM      5  O   UNL A   1      35.440  23.281  22.731  1.00  0.00    -0.249 OA
BRANCH   4   6
ATOM      6  C   UNL A   1      33.456  24.306  23.752  1.00  0.00     0.137 C 
BRANCH   6   7
ATOM      7  C   UNL A   1      32.344  23.602  22.902  1.00  0.00     0.037 C 
ATOM      8  C   UNL A   1      31.761  22.303  23.440  1.00  0.00     0.007 C 
ENDBRANCH   6   7
BRANCH   6   9
ATOM      9  C   UNL A   1      33.825  25.673  23.114  1.00  0.00     0.037 C 
ATOM     10  C   UNL A   1      33.064  26.045  21.847  1.00  0.00     0.007 C 
ENDBRANCH   6   9
BRANCH   6  11
ATOM     11  N   UNL A   1      32.828  24.494  25.093  1.00  0.00    -0.335 N 
ATOM     12  C   UNL A   1      31.698  25.094  25.584  1.00  0.00     0.262 C 
ATOM     13  H   UNL A   1      33.362  24.080  25.809  1.00  0.00     0.165 HD
ATOM     14  O   UNL A   1      31.403  24.792  26.744  1.00  0.00    -0.268 OA
BRANCH  12  15
ATOM     15  C   UNL A   1      30.949  26.073  24.825  1.00  0.00     0.092 A 
ATOM     16  C   UNL A   1      29.846  25.962  24.005  1.00  0.00     0.026 A 
ATOM     17  S   UNL A   1      31.401  27.723  25.018  1.00  0.00    -0.135 S 
ATOM     18  C   UNL A   1      29.431  27.219  23.468  1.00  0.00     0.016 A 
ATOM     19  C   UNL A   1      30.208  28.263  23.922  1.00  0.00     0.002 A 
ATOM     20  C   UNL A   1      30.098  29.713  23.602  1.00  0.00     0.056 C 
ENDBRANCH  12  15
ENDBRANCH   6  11
ENDBRANCH   4   6
ENDBRANCH   3   4
ENDBRANCH   2   3
ENDBRANCH   1   2
BRANCH   1  21
ATOM     21  O   UNL A   1      37.037  21.594  25.749  1.00  0.00    -0.458 OA
BRANCH  21  22
ATOM     22  C   UNL A   1      38.341  21.247  25.837  1.00  0.00     0.338 C 
ATOM     23  O   UNL A   1      38.890  20.259  25.388  1.00  0.00    -0.246 OA
BRANCH  22  24
ATOM     24  C   UNL A   1      39.053  22.393  26.413  1.00  0.00     0.060 A 
ATOM     25  C   UNL A   1      38.585  23.664  26.082  1.00  0.00     0.016 A 
ATOM     26  C   UNL A   1      40.185  22.236  27.201  1.00  0.00     0.016 A 
ATOM     27  C   UNL A   1      39.289  24.796  26.476  1.00  0.00     0.010 A 
ATOM     28  C   UNL A   1      40.850  23.378  27.662  1.00  0.00     0.010 A 
ATOM     29  C   UNL A   1      40.428  24.668  27.280  1.00  0.00    -0.014 A 
BRANCH  29  30
ATOM     30  C   UNL A   1      41.201  25.873  27.685  1.00  0.00     0.031 A 
ATOM     31  C   UNL A   1      40.544  26.937  28.522  1.00  0.00     0.074 A 
ATOM     32  C   UNL A   1      42.486  26.022  27.303  1.00  0.00     0.049 A 
ATOM     33  N   UNL A   1      40.975  28.133  28.825  1.00  0.00    -0.248 NA
ATOM     34  C   UNL A   1      39.222  26.616  29.086  1.00  0.00     0.031 C 
ATOM     35  C   UNL A   1      43.255  25.058  26.515  1.00  0.00     0.029 A 
ATOM     36  N   UNL A   1      43.369  27.055  27.515  1.00  0.00    -0.354 N 
ATOM     37  C   UNL A   1      39.953  28.733  29.551  1.00  0.00     0.074 A 
ATOM     38  C   UNL A   1      38.884  27.764  29.656  1.00  0.00     0.031 C 
ATOM     39  C   UNL A   1      44.494  25.537  26.317  1.00  0.00     0.029 A 
ATOM     40  C   UNL A   1      44.587  26.872  26.901  1.00  0.00     0.049 A 
ATOM     41  H   UNL A   1      43.151  27.847  28.055  1.00  0.00     0.167 HD
ATOM     42  C   UNL A   1      39.912  29.975  30.089  1.00  0.00     0.034 A 
ATOM     43  C   UNL A   1      45.644  27.699  26.782  1.00  0.00     0.034 A 
ATOM     44  C   UNL A   1      41.001  30.913  30.044  1.00  0.00     0.049 A 
ATOM     45  C   UNL A   1      45.574  29.069  27.399  1.00  0.00     0.074 A 
ATOM     46  C   UNL A   1      41.057  32.193  30.569  1.00  0.00     0.029 A 
ATOM     47  N   UNL A   1      42.233  30.668  29.459  1.00  0.00    -0.354 N 
ATOM     48  N   UNL A   1      44.610  29.608  28.103  1.00  0.00    -0.248 NA
ATOM     49  C   UNL A   1      46.743  29.942  27.210  1.00  0.00     0.031 C 
ATOM     50  C   UNL A   1      42.326  32.720  30.304  1.00  0.00     0.029 A 
ATOM     51  C   UNL A   1      43.060  31.766  29.618  1.00  0.00     0.049 A 
ATOM     52  H   UNL A   1      42.483  29.834  28.999  1.00  0.00     0.167 HD
ATOM     53  C   UNL A   1      45.059  30.877  28.452  1.00  0.00     0.074 A 
ATOM     54  C   UNL A   1      46.397  31.010  27.916  1.00  0.00     0.031 C 
ATOM     55  C   UNL A   1      44.409  31.859  29.128  1.00  0.00     0.034 A 
BRANCH  42  56
ATOM     56  C   UNL A   1      38.653  30.386  30.804  1.00  0.00     0.023 A 
ATOM     57  C   UNL A   1      38.513  30.109  32.177  1.00  0.00     0.012 A 
ATOM     58  C   UNL A   1      37.640  31.099  30.132  1.00  0.00     0.148 A 
ATOM     59  C   UNL A   1      37.372  30.516  32.869  1.00  0.00     0.002 A 
ATOM     60  C   UNL A   1      36.523  31.533  30.836  1.00  0.00     0.091 A 
ATOM     61  F   UNL A   1      37.785  31.330  28.819  1.00  0.00    -0.205 F 
ATOM     62  C   UNL A   1      36.385  31.237  32.202  1.00  0.00     0.022 A 
BRANCH  60  63
ATOM     63  S   UNL A   1      35.227  32.523  30.081  1.00  0.00     0.127 S 
ATOM     64  O   UNL A   1      34.294  32.686  31.194  1.00  0.00    -0.237 OA
ATOM     65  O   UNL A   1      35.948  33.740  29.707  1.00  0.00    -0.237 OA
ATOM     66  O   UNL A   1      34.730  31.742  28.957  1.00  0.00    -0.744 OA
ENDBRANCH  60  63
ENDBRANCH  42  56
BRANCH  43  67
ATOM     67  C   UNL A   1      46.867  27.250  26.055  1.00  0.00     0.023 A 
ATOM     68  C   UNL A   1      46.986  27.509  24.676  1.00  0.00     0.012 A 
ATOM     69  C   UNL A   1      47.919  26.596  26.721  1.00  0.00     0.148 A 
ATOM     70  C   UNL A   1      48.120  27.102  23.970  1.00  0.00     0.002 A 
ATOM     71  C   UNL A   1      49.074  26.250  26.026  1.00  0.00     0.091 A 
ATOM     72  F   UNL A   1      47.782  26.326  28.028  1.00  0.00    -0.205 F 
ATOM     73  C   UNL A   1      49.169  26.487  24.648  1.00  0.00     0.022 A 
BRANCH  71  74
ATOM     74  S   UNL A   1      50.517  25.599  26.876  1.00  0.00     0.127 S 
ATOM     75  O   UNL A   1      50.834  26.680  27.804  1.00  0.00    -0.237 OA
ATOM     76  O   UNL A   1      49.992  24.384  27.501  1.00  0.00    -0.237 OA
ATOM     77  O   UNL A   1      51.489  25.348  25.820  1.00  0.00    -0.744 OA
ENDBRANCH  71  74
ENDBRANCH  43  67
BRANCH  55  78
ATOM     78  C   UNL A   1      45.142  33.156  29.333  1.00  0.00     0.023 A 
ATOM     79  C   UNL A   1      45.940  33.324  30.482  1.00  0.00     0.012 A 
ATOM     80  C   UNL A   1      45.088  34.183  28.370  1.00  0.00     0.148 A 
ATOM     81  C   UNL A   1      46.652  34.505  30.684  1.00  0.00     0.002 A 
ATOM     82  C   UNL A   1      45.832  35.342  28.561  1.00  0.00     0.091 A 
ATOM     83  F   UNL A   1      44.304  34.016  27.295  1.00  0.00    -0.205 F 
ATOM     84  C   UNL A   1      46.606  35.509  29.719  1.00  0.00     0.022 A 
BRANCH  82  85
ATOM     85  S   UNL A   1      45.887  36.644  27.323  1.00  0.00     0.127 S 
ATOM     86  O   UNL A   1      44.496  37.091  27.296  1.00  0.00    -0.237 OA
ATOM     87  O   UNL A   1      46.824  37.603  27.912  1.00  0.00    -0.237 OA
ATOM     88  O   UNL A   1      46.372  36.006  26.106  1.00  0.00    -0.744 OA
ENDBRANCH  82  85
ENDBRANCH  55  78
ENDBRANCH  29  30
ENDBRANCH  22  24
ENDBRANCH  21  22
ENDBRANCH   1  21
TORSDOF 18
ENDMDL
MODEL 2
REMARK VINA RESULT:     -10.8      0.738      1.499
REMARK SMILES CCC(CC)(NC(=O)c1ccc(C)s1)C(=O)OCCOC(=O)c1ccc(-c2c3nc(c(-c4cccc(S(=O)(=O)[O-])c4F)c4ccc([nH]4)c(-c4cccc(S(=O)(=O)[O-])c4F)c4nc(c(-c5cccc(S(=O)(=O)[O-])c5F)c5ccc2[nH]5)C=C4)C=C3)cc1
REMARK SMILES IDX 19 1 18 2 17 3 15 4 16 5 3 6 2 7 1 8 4 9 5 10 6 11 7 12 8 14
REMARK SMILES IDX 9 15 10 16 14 17 11 18 12 19 13 20 20 21 21 22 22 23 23 24
REMARK SMILES IDX 24 25 85 26 25 27 84 28 26 29 27 30 28 31 78 32 29 33 83 34
REMARK SMILES IDX 77 35 79 36 30 37 82 38 76 39 75 40 31 42 63 43 43 44 62 45
REMARK SMILES IDX 44 46 47 47 61 48 80 49 45 50 46 51 60 53 81 54 48 55 32 56
REMARK SMILES IDX 33 57 41 58 34 59 36 60 42 61 35 62 37 63 38 64 39 65 40 66
REMARK SMILES IDX 64 67 65 68 73 69 66 70 68 71 74 72 67 73 69 74 70 75 71 76
REMARK SMILES IDX 72 77 49 78 50 79 58 80 51 81 53 82 59 83 52 84 54 85 55 86
REMARK SMILES IDX 56 87 57 88
REMARK H PARENT 6 13 79 41 47 52
REMARK Flexibility Score: inf
ROOT
ATOM      1  C   UNL A   1      36.072  20.838  25.026  1.00  0.00     0.275 C 
ENDROOT
BRANCH   1   2
ATOM      2  C   UNL A   1      34.821  21.589  24.577  1.00  0.00     0.274 C 
BRANCH   2   3
ATOM      3  O   UNL A   1      35.014  23.015  24.705  1.00  0.00    -0.460 OA
BRANCH   3   4
ATOM      4  C   UNL A   1      34.188  23.616  25.604  1.00  0.00     0.331 C 
ATOM      5  O   UNL A   1      34.222  23.381  26.809  1.00  0.00    -0.249 OA
BRANCH   4   6
ATOM      6  C   UNL A   1      33.209  24.657  24.972  1.00  0.00     0.137 C 
BRANCH   6   7
ATOM      7  C   UNL A   1      33.320  25.995  25.781  1.00  0.00     0.037 C 
ATOM      8  C   UNL A   1      32.079  26.480  26.517  1.00  0.00     0.007 C 
ENDBRANCH   6   7
BRANCH   6   9
ATOM      9  C   UNL A   1      31.770  24.085  25.089  1.00  0.00     0.037 C 
ATOM     10  C   UNL A   1      31.394  23.012  24.075  1.00  0.00     0.007 C 
ENDBRANCH   6   9
BRANCH   6  11
ATOM     11  N   UNL A   1      33.514  25.054  23.565  1.00  0.00    -0.335 N 
ATOM     12  C   UNL A   1      33.106  26.036  22.701  1.00  0.00     0.262 C 
ATOM     13  H   UNL A   1      34.179  24.457  23.153  1.00  0.00     0.165 HD
ATOM     14  O   UNL A   1      33.808  26.178  21.696  1.00  0.00    -0.268 OA
BRANCH  12  15
ATOM     15  C   UNL A   1      31.894  26.799  22.912  1.00  0.00     0.092 A 
ATOM     16  C   UNL A   1      30.568  26.429  22.985  1.00  0.00     0.026 A 
ATOM     17  S   UNL A   1      32.078  28.477  23.248  1.00  0.00    -0.135 S 
ATOM     18  C   UNL A   1      29.700  27.538  23.227  1.00  0.00     0.016 A 
ATOM     19  C   UNL A   1      30.392  28.721  23.369  1.00  0.00     0.002 A 
ATOM     20  C   UNL A   1      29.857  30.086  23.631  1.00  0.00     0.056 C 
ENDBRANCH  12  15
ENDBRANCH   6  11
ENDBRANCH   4   6
ENDBRANCH   3   4
ENDBRANCH   2   3
ENDBRANCH   1   2
BRANCH   1  21
ATOM     21  O   UNL A   1      36.950  21.792  25.642  1.00  0.00    -0.458 OA
BRANCH  21  22
ATOM     22  C   UNL A   1      38.231  21.388  25.792  1.00  0.00     0.338 C 
ATOM     23  O   UNL A   1      38.754  20.370  25.380  1.00  0.00    -0.246 OA
BRANCH  22  24
ATOM     24  C   UNL A   1      38.969  22.508  26.386  1.00  0.00     0.060 A 
ATOM     25  C   UNL A   1      38.491  23.792  26.129  1.00  0.00     0.016 A 
ATOM     26  C   UNL A   1      40.133  22.317  27.119  1.00  0.00     0.016 A 
ATOM     27  C   UNL A   1      39.213  24.906  26.540  1.00  0.00     0.010 A 
ATOM     28  C   UNL A   1      40.819  23.439  27.599  1.00  0.00     0.010 A 
ATOM     29  C   UNL A   1      40.384  24.744  27.290  1.00  0.00    -0.014 A 
BRANCH  29  30
ATOM     30  C   UNL A   1      41.176  25.930  27.713  1.00  0.00     0.031 A 
ATOM     31  C   UNL A   1      40.531  26.998  28.556  1.00  0.00     0.074 A 
ATOM     32  C   UNL A   1      42.466  26.060  27.343  1.00  0.00     0.049 A 
ATOM     33  N   UNL A   1      40.982  28.183  28.874  1.00  0.00    -0.248 NA
ATOM     34  C   UNL A   1      39.199  26.696  29.106  1.00  0.00     0.031 C 
ATOM     35  C   UNL A   1      43.224  25.089  26.551  1.00  0.00     0.029 A 
ATOM     36  N   UNL A   1      43.367  27.073  27.573  1.00  0.00    -0.354 N 
ATOM     37  C   UNL A   1      39.965  28.795  29.597  1.00  0.00     0.074 A 
ATOM     38  C   UNL A   1      38.878  27.844  29.685  1.00  0.00     0.031 C 
ATOM     39  C   UNL A   1      44.472  25.548  26.368  1.00  0.00     0.029 A 
ATOM     40  C   UNL A   1      44.585  26.874  26.966  1.00  0.00     0.049 A 
ATOM     41  H   UNL A   1      43.159  27.865  28.119  1.00  0.00     0.167 HD
ATOM     42  C   UNL A   1      39.943  30.032  30.147  1.00  0.00     0.034 A 
ATOM     43  C   UNL A   1      45.658  27.683  26.864  1.00  0.00     0.034 A 
ATOM     44  C   UNL A   1      41.049  30.950  30.121  1.00  0.00     0.049 A 
ATOM     45  C   UNL A   1      45.609  29.048  27.494  1.00  0.00     0.074 A 
ATOM     46  C   UNL A   1      41.124  32.224  30.659  1.00  0.00     0.029 A 
ATOM     47  N   UNL A   1      42.281  30.688  29.543  1.00  0.00    -0.354 N 
ATOM     48  N   UNL A   1      44.649  29.598  28.196  1.00  0.00    -0.248 NA
ATOM     49  C   UNL A   1      46.795  29.901  27.323  1.00  0.00     0.031 C 
ATOM     50  C   UNL A   1      42.404  32.730  30.409  1.00  0.00     0.029 A 
ATOM     51  C   UNL A   1      43.127  31.769  29.720  1.00  0.00     0.049 A 
ATOM     52  H   UNL A   1      42.520  29.854  29.077  1.00  0.00     0.167 HD
ATOM     53  C   UNL A   1      45.118  30.855  28.561  1.00  0.00     0.074 A 
ATOM     54  C   UNL A   1      46.463  30.968  28.037  1.00  0.00     0.031 C 
ATOM     55  C   UNL A   1      44.482  31.841  29.241  1.00  0.00     0.034 A 
BRANCH  42  56
ATOM     56  C   UNL A   1      38.686  30.459  30.857  1.00  0.00     0.023 A 
ATOM     57  C   UNL A   1      38.548  30.209  32.235  1.00  0.00     0.012 A 
ATOM     58  C   UNL A   1      37.673  31.160  30.173  1.00  0.00     0.148 A 
ATOM     59  C   UNL A   1      37.409  30.632  32.921  1.00  0.00     0.002 A 
ATOM     60  C   UNL A   1      36.557  31.610  30.870  1.00  0.00     0.091 A 
ATOM     61  F   UNL A   1      37.815  31.365  28.856  1.00  0.00    -0.205 F 
ATOM     62  C   UNL A   1      36.422  31.342  32.242  1.00  0.00     0.022 A 
BRANCH  60  63
ATOM     63  S   UNL A   1      35.262  32.587  30.098  1.00  0.00     0.127 S 
ATOM     64  O   UNL A   1      34.810  31.691  29.036  1.00  0.00    -0.237 OA
ATOM     65  O   UNL A   1      34.310  32.760  31.197  1.00  0.00    -0.237 OA
ATOM     66  O   UNL A   1      35.901  33.817  29.650  1.00  0.00    -0.744 OA
ENDBRANCH  60  63
ENDBRANCH  42  56
BRANCH  43  67
ATOM     67  C   UNL A   1      46.878  27.218  26.142  1.00  0.00     0.023 A 
ATOM     68  C   UNL A   1      47.006  27.474  24.763  1.00  0.00     0.012 A 
ATOM     69  C   UNL A   1      47.921  26.553  26.813  1.00  0.00     0.148 A 
ATOM     70  C   UNL A   1      48.138  27.053  24.062  1.00  0.00     0.002 A 
ATOM     71  C   UNL A   1      49.074  26.193  26.123  1.00  0.00     0.091 A 
ATOM     72  F   UNL A   1      47.775  26.286  28.119  1.00  0.00    -0.205 F 
ATOM     73  C   UNL A   1      49.177  26.426  24.745  1.00  0.00     0.022 A 
BRANCH  71  74
ATOM     74  S   UNL A   1      50.506  25.526  26.979  1.00  0.00     0.127 S 
ATOM     75  O   UNL A   1      50.834  26.605  27.905  1.00  0.00    -0.237 OA
ATOM     76  O   UNL A   1      49.964  24.320  27.607  1.00  0.00    -0.237 OA
ATOM     77  O   UNL A   1      51.478  25.259  25.927  1.00  0.00    -0.744 OA
ENDBRANCH  71  74
ENDBRANCH  43  67
BRANCH  55  78
ATOM     78  C   UNL A   1      45.236  33.123  29.464  1.00  0.00     0.023 A 
ATOM     79  C   UNL A   1      46.035  33.261  30.617  1.00  0.00     0.012 A 
ATOM     80  C   UNL A   1      45.202  34.164  28.516  1.00  0.00     0.148 A 
ATOM     81  C   UNL A   1      46.767  34.427  30.836  1.00  0.00     0.002 A 
ATOM     82  C   UNL A   1      45.965  35.307  28.723  1.00  0.00     0.091 A 
ATOM     83  F   UNL A   1      44.416  34.025  27.438  1.00  0.00    -0.205 F 
ATOM     84  C   UNL A   1      46.740  35.445  29.885  1.00  0.00     0.022 A 
BRANCH  82  85
ATOM     85  S   UNL A   1      46.044  36.625  27.504  1.00  0.00     0.127 S 
ATOM     86  O   UNL A   1      46.610  35.931  26.349  1.00  0.00    -0.237 OA
ATOM     87  O   UNL A   1      44.639  37.008  27.357  1.00  0.00    -0.237 OA
ATOM     88  O   UNL A   1      46.885  37.657  28.099  1.00  0.00    -0.744 OA
ENDBRANCH  82  85
ENDBRANCH  55  78
ENDBRANCH  29  30
ENDBRANCH  22  24
ENDBRANCH  21  22
ENDBRANCH   1  21
TORSDOF 18
ENDMDL
MODEL 3
REMARK VINA RESULT:     -10.6      5.336     10.055
REMARK SMILES CCC(CC)(NC(=O)c1ccc(C)s1)C(=O)OCCOC(=O)c1ccc(-c2c3nc(c(-c4cccc(S(=O)(=O)[O-])c4F)c4ccc([nH]4)c(-c4cccc(S(=O)(=O)[O-])c4F)c4nc(c(-c5cccc(S(=O)(=O)[O-])c5F)c5ccc2[nH]5)C=C4)C=C3)cc1
REMARK SMILES IDX 19 1 18 2 17 3 15 4 16 5 3 6 2 7 1 8 4 9 5 10 6 11 7 12 8 14
REMARK SMILES IDX 9 15 10 16 14 17 11 18 12 19 13 20 20 21 21 22 22 23 23 24
REMARK SMILES IDX 24 25 85 26 25 27 84 28 26 29 27 30 28 31 78 32 29 33 83 34
REMARK SMILES IDX 77 35 79 36 30 37 82 38 76 39 75 40 31 42 63 43 43 44 62 45
REMARK SMILES IDX 44 46 47 47 61 48 80 49 45 50 46 51 60 53 81 54 48 55 32 56
REMARK SMILES IDX 33 57 41 58 34 59 36 60 42 61 35 62 37 63 38 64 39 65 40 66
REMARK SMILES IDX 64 67 65 68 73 69 66 70 68 71 74 72 67 73 69 74 70 75 71 76
REMARK SMILES IDX 72 77 49 78 50 79 58 80 51 81 53 82 59 83 52 84 54 85 55 86
REMARK SMILES IDX 56 87 57 88
REMARK H PARENT 6 13 79 41 47 52
REMARK Flexibility Score: inf
ROOT
ATOM      1  C   UNL A   1      31.425  30.338  25.553  1.00  0.00     0.275 C 
ENDROOT
BRANCH   1   2
ATOM      2  C   UNL A   1      31.411  29.217  24.516  1.00  0.00     0.274 C 
BRANCH   2   3
ATOM      3  O   UNL A   1      31.797  27.963  25.121  1.00  0.00    -0.460 OA
BRANCH   3   4
ATOM      4  C   UNL A   1      30.983  26.917  24.815  1.00  0.00     0.331 C 
ATOM      5  O   UNL A   1      29.884  27.053  24.284  1.00  0.00    -0.249 OA
BRANCH   4   6
ATOM      6  C   UNL A   1      31.583  25.519  25.173  1.00  0.00     0.137 C 
BRANCH   6   7
ATOM      7  C   UNL A   1      32.841  25.738  26.081  1.00  0.00     0.037 C 
ATOM      8  C   UNL A   1      34.205  25.409  25.489  1.00  0.00     0.007 C 
ENDBRANCH   6   7
BRANCH   6   9
ATOM      9  C   UNL A   1      32.001  24.829  23.845  1.00  0.00     0.037 C 
ATOM     10  C   UNL A   1      32.202  25.752  22.649  1.00  0.00     0.007 C 
ENDBRANCH   6   9
BRANCH   6  11
ATOM     11  N   UNL A   1      30.699  24.629  25.983  1.00  0.00    -0.335 N 
ATOM     12  C   UNL A   1      30.853  23.489  26.728  1.00  0.00     0.262 C 
ATOM     13  H   UNL A   1      29.765  24.941  25.980  1.00  0.00     0.165 HD
ATOM     14  O   UNL A   1      29.905  23.212  27.467  1.00  0.00    -0.268 OA
BRANCH  12  15
ATOM     15  C   UNL A   1      32.011  22.630  26.599  1.00  0.00     0.092 A 
ATOM     16  C   UNL A   1      33.114  22.436  27.403  1.00  0.00     0.026 A 
ATOM     17  S   UNL A   1      32.029  21.540  25.266  1.00  0.00    -0.135 S 
ATOM     18  C   UNL A   1      34.013  21.459  26.876  1.00  0.00     0.016 A 
ATOM     19  C   UNL A   1      33.554  20.906  25.701  1.00  0.00     0.002 A 
ATOM     20  C   UNL A   1      34.192  19.863  24.851  1.00  0.00     0.056 C 
ENDBRANCH  12  15
ENDBRANCH   6  11
ENDBRANCH   4   6
ENDBRANCH   3   4
ENDBRANCH   2   3
ENDBRANCH   1   2
BRANCH   1  21
ATOM     21  O   UNL A   1      32.721  30.338  26.171  1.00  0.00    -0.458 OA
BRANCH  21  22
ATOM     22  C   UNL A   1      32.996  31.414  26.941  1.00  0.00     0.338 C 
ATOM     23  O   UNL A   1      32.258  32.332  27.246  1.00  0.00    -0.246 OA
BRANCH  22  24
ATOM     24  C   UNL A   1      34.318  31.190  27.536  1.00  0.00     0.060 A 
ATOM     25  C   UNL A   1      34.652  29.879  27.869  1.00  0.00     0.016 A 
ATOM     26  C   UNL A   1      35.183  32.238  27.822  1.00  0.00     0.016 A 
ATOM     27  C   UNL A   1      35.827  29.607  28.561  1.00  0.00     0.010 A 
ATOM     28  C   UNL A   1      36.402  31.954  28.450  1.00  0.00     0.010 A 
ATOM     29  C   UNL A   1      36.723  30.642  28.854  1.00  0.00    -0.014 A 
BRANCH  29  30
ATOM     30  C   UNL A   1      37.970  30.363  29.615  1.00  0.00     0.031 A 
ATOM     31  C   UNL A   1      39.032  29.480  29.015  1.00  0.00     0.074 A 
ATOM     32  C   UNL A   1      38.156  30.891  30.842  1.00  0.00     0.049 A 
ATOM     33  N   UNL A   1      40.096  28.969  29.577  1.00  0.00    -0.248 NA
ATOM     34  C   UNL A   1      38.869  29.117  27.597  1.00  0.00     0.031 C 
ATOM     35  C   UNL A   1      37.224  31.785  31.532  1.00  0.00     0.029 A 
ATOM     36  N   UNL A   1      39.190  30.738  31.736  1.00  0.00    -0.354 N 
ATOM     37  C   UNL A   1      40.690  28.169  28.609  1.00  0.00     0.074 A 
ATOM     38  C   UNL A   1      39.876  28.273  27.417  1.00  0.00     0.031 C 
ATOM     39  C   UNL A   1      37.728  32.107  32.734  1.00  0.00     0.029 A 
ATOM     40  C   UNL A   1      38.984  31.389  32.931  1.00  0.00     0.049 A 
ATOM     41  H   UNL A   1      39.998  30.214  31.539  1.00  0.00     0.167 HD
ATOM     42  C   UNL A   1      41.816  27.423  28.701  1.00  0.00     0.034 A 
ATOM     43  C   UNL A   1      39.700  31.377  34.072  1.00  0.00     0.034 A 
ATOM     44  C   UNL A   1      42.663  27.375  29.861  1.00  0.00     0.049 A 
ATOM     45  C   UNL A   1      40.953  30.547  34.142  1.00  0.00     0.074 A 
ATOM     46  C   UNL A   1      43.831  26.654  30.046  1.00  0.00     0.029 A 
ATOM     47  N   UNL A   1      42.447  28.090  31.028  1.00  0.00    -0.354 N 
ATOM     48  N   UNL A   1      41.513  29.819  33.208  1.00  0.00    -0.248 NA
ATOM     49  C   UNL A   1      41.677  30.545  35.422  1.00  0.00     0.031 C 
ATOM     50  C   UNL A   1      44.322  26.937  31.325  1.00  0.00     0.029 A 
ATOM     51  C   UNL A   1      43.463  27.838  31.934  1.00  0.00     0.049 A 
ATOM     52  H   UNL A   1      41.683  28.690  31.189  1.00  0.00     0.167 HD
ATOM     53  C   UNL A   1      42.659  29.281  33.781  1.00  0.00     0.074 A 
ATOM     54  C   UNL A   1      42.735  29.801  35.131  1.00  0.00     0.031 C 
ATOM     55  C   UNL A   1      43.553  28.408  33.251  1.00  0.00     0.034 A 
BRANCH  42  56
ATOM     56  C   UNL A   1      42.220  26.615  27.496  1.00  0.00     0.023 A 
ATOM     57  C   UNL A   1      42.946  27.232  26.459  1.00  0.00     0.012 A 
ATOM     58  C   UNL A   1      41.935  25.238  27.421  1.00  0.00     0.148 A 
ATOM     59  C   UNL A   1      43.366  26.493  25.353  1.00  0.00     0.002 A 
ATOM     60  C   UNL A   1      42.387  24.500  26.333  1.00  0.00     0.091 A 
ATOM     61  F   UNL A   1      41.222  24.678  28.409  1.00  0.00    -0.205 F 
ATOM     62  C   UNL A   1      43.097  25.128  25.296  1.00  0.00     0.022 A 
BRANCH  60  63
ATOM     63  S   UNL A   1      42.147  22.725  26.199  1.00  0.00     0.127 S 
ATOM     64  O   UNL A   1      42.844  22.242  27.389  1.00  0.00    -0.237 OA
ATOM     65  O   UNL A   1      40.689  22.606  26.255  1.00  0.00    -0.237 OA
ATOM     66  O   UNL A   1      42.738  22.335  24.926  1.00  0.00    -0.744 OA
ENDBRANCH  60  63
ENDBRANCH  42  56
BRANCH  43  67
ATOM     67  C   UNL A   1      39.254  32.187  35.243  1.00  0.00     0.023 A 
ATOM     68  C   UNL A   1      39.448  33.581  35.234  1.00  0.00     0.012 A 
ATOM     69  C   UNL A   1      38.617  31.591  36.348  1.00  0.00     0.148 A 
ATOM     70  C   UNL A   1      39.038  34.364  36.316  1.00  0.00     0.002 A 
ATOM     71  C   UNL A   1      38.154  32.384  37.393  1.00  0.00     0.091 A 
ATOM     72  F   UNL A   1      38.466  30.259  36.360  1.00  0.00    -0.205 F 
ATOM     73  C   UNL A   1      38.379  33.768  37.388  1.00  0.00     0.022 A 
BRANCH  71  74
ATOM     74  S   UNL A   1      37.161  31.693  38.722  1.00  0.00     0.127 S 
ATOM     75  O   UNL A   1      35.997  32.573  38.718  1.00  0.00    -0.237 OA
ATOM     76  O   UNL A   1      36.906  30.331  38.248  1.00  0.00    -0.237 OA
ATOM     77  O   UNL A   1      38.017  31.758  39.900  1.00  0.00    -0.744 OA
ENDBRANCH  71  74
ENDBRANCH  43  67
BRANCH  55  78
ATOM     78  C   UNL A   1      44.693  27.970  34.129  1.00  0.00     0.023 A 
ATOM     79  C   UNL A   1      45.883  28.725  34.141  1.00  0.00     0.012 A 
ATOM     80  C   UNL A   1      44.571  26.854  34.978  1.00  0.00     0.148 A 
ATOM     81  C   UNL A   1      46.946  28.357  34.965  1.00  0.00     0.002 A 
ATOM     82  C   UNL A   1      45.621  26.518  35.825  1.00  0.00     0.091 A 
ATOM     83  F   UNL A   1      43.441  26.133  34.934  1.00  0.00    -0.205 F 
ATOM     84  C   UNL A   1      46.812  27.261  35.814  1.00  0.00     0.022 A 
BRANCH  82  85
ATOM     85  S   UNL A   1      45.490  25.168  37.005  1.00  0.00     0.127 S 
ATOM     86  O   UNL A   1      46.511  24.242  36.517  1.00  0.00    -0.237 OA
ATOM     87  O   UNL A   1      45.816  25.821  38.274  1.00  0.00    -0.237 OA
ATOM     88  O   UNL A   1      44.113  24.700  36.911  1.00  0.00    -0.744 OA
ENDBRANCH  82  85
ENDBRANCH  55  78
ENDBRANCH  29  30
ENDBRANCH  22  24
ENDBRANCH  21  22
ENDBRANCH   1  21
TORSDOF 18
ENDMDL
