MODEL 1
REMARK VINA RESULT:     -14.5      0.000      0.000
REMARK SMILES O=C(OCCOC(=O)[C@@H](Cc1ccccc1)N1C(=O)/C(=C/c2ccc3ncccc3c2)SC1=S)c1ccc(-c2c3nc(c(-c4cccc(S(=O)(=O)[O-])c4F)c4ccc([nH]4)c(-c4cccc(S(=O)(=O)[O-])c4F)c4nc(c(-c5cccc(S(=O)(=O)[O-])c5F)c5ccc2[nH]5)C=C4)C=C3)cc1
REMARK SMILES IDX 4 1 3 2 2 3 1 4 35 5 36 6 97 7 37 8 96 9 38 10 39 11 40 12
REMARK SMILES IDX 90 13 41 14 95 15 89 16 91 17 42 18 94 19 88 20 87 21 43 23
REMARK SMILES IDX 75 24 55 25 74 26 56 27 59 28 73 29 92 30 57 31 58 32 72 34
REMARK SMILES IDX 93 35 60 36 44 37 45 38 53 39 46 40 48 41 54 42 47 43 49 44
REMARK SMILES IDX 50 45 51 46 52 47 76 48 77 49 85 50 78 51 80 52 86 53 79 54
REMARK SMILES IDX 81 55 82 56 83 57 84 58 61 59 62 60 70 61 63 62 65 63 71 64
REMARK SMILES IDX 64 65 66 66 67 67 68 68 69 69 5 70 6 71 7 72 8 73 9 74 10 75
REMARK SMILES IDX 11 76 12 77 16 78 13 79 15 80 14 81 17 82 18 83 33 84 19 85
REMARK SMILES IDX 20 86 32 87 34 88 21 89 22 90 23 91 31 92 24 93 30 94 25 95
REMARK SMILES IDX 29 96 26 97 28 98 27 99
REMARK H PARENT 91 22 59 33
REMARK Flexibility Score: inf
ROOT
ATOM      1  C   UNL A   1      36.482  20.711  25.497  1.00  0.00     0.275 C 
ENDROOT
BRANCH   1   2
ATOM      2  O   UNL A   1      37.613  19.903  25.171  1.00  0.00    -0.458 OA
BRANCH   2   3
ATOM      3  C   UNL A   1      38.859  20.179  25.578  1.00  0.00     0.338 C 
ATOM      4  O   UNL A   1      39.666  19.260  25.716  1.00  0.00    -0.246 OA
BRANCH   3   5
ATOM      5  C   UNL A   1      39.383  21.546  25.863  1.00  0.00     0.060 A 
ATOM      6  C   UNL A   1      38.670  23.202  25.505  1.00  0.00     0.016 A 
ATOM      7  C   UNL A   1      40.767  21.424  27.049  1.00  0.00     0.016 A 
ATOM      8  C   UNL A   1      39.178  24.650  26.513  1.00  0.00     0.010 A 
ATOM      9  C   UNL A   1      41.339  22.867  27.922  1.00  0.00     0.010 A 
ATOM     10  C   UNL A   1      40.614  24.485  27.663  1.00  0.00    -0.014 A 
BRANCH  10  11
ATOM     11  C   UNL A   1      41.392  25.698  28.075  1.00  0.00     0.031 A 
ATOM     12  C   UNL A   1      42.771  25.970  27.496  1.00  0.00     0.074 A 
ATOM     13  C   UNL A   1      40.700  26.667  28.696  1.00  0.00     0.049 A 
ATOM     14  N   UNL A   1      43.433  27.100  27.482  1.00  0.00    -0.248 NA
ATOM     15  C   UNL A   1      43.480  24.891  26.780  1.00  0.00     0.031 C 
ATOM     16  C   UNL A   1      39.353  26.481  29.211  1.00  0.00     0.029 A 
ATOM     17  N   UNL A   1      40.972  27.981  28.958  1.00  0.00    -0.354 N 
ATOM     18  C   UNL A   1      44.621  26.845  26.800  1.00  0.00     0.074 A 
ATOM     19  C   UNL A   1      44.591  25.477  26.370  1.00  0.00     0.031 C 
ATOM     20  C   UNL A   1      38.869  27.648  29.640  1.00  0.00     0.029 A 
ATOM     21  C   UNL A   1      39.941  28.627  29.609  1.00  0.00     0.049 A 
ATOM     22  H   UNL A   1      41.815  28.423  28.706  1.00  0.00     0.167 HD
ATOM     23  C   UNL A   1      45.656  27.678  26.562  1.00  0.00     0.034 A 
ATOM     24  C   UNL A   1      39.893  29.840  30.195  1.00  0.00     0.034 A 
ATOM     25  C   UNL A   1      45.674  29.038  27.006  1.00  0.00     0.049 A 
ATOM     26  C   UNL A   1      41.094  30.716  29.962  1.00  0.00     0.074 A 
ATOM     27  C   UNL A   1      46.692  29.965  26.901  1.00  0.00     0.029 A 
ATOM     28  N   UNL A   1      44.630  29.647  27.685  1.00  0.00    -0.354 N 
ATOM     29  N   UNL A   1      42.142  30.480  29.204  1.00  0.00    -0.248 NA
ATOM     30  C   UNL A   1      41.110  32.027  30.615  1.00  0.00     0.031 C 
ATOM     31  C   UNL A   1      46.291  31.113  27.588  1.00  0.00     0.029 A 
ATOM     32  C   UNL A   1      45.001  30.920  28.064  1.00  0.00     0.049 A 
ATOM     33  H   UNL A   1      43.756  29.233  27.869  1.00  0.00     0.167 HD
ATOM     34  C   UNL A   1      42.939  31.609  29.293  1.00  0.00     0.074 A 
ATOM     35  C   UNL A   1      42.199  32.568  30.091  1.00  0.00     0.031 C 
ATOM     36  C   UNL A   1      44.191  31.832  28.823  1.00  0.00     0.034 A 
BRANCH  23  37
ATOM     37  C   UNL A   1      46.892  27.118  25.912  1.00  0.00     0.023 A 
ATOM     38  C   UNL A   1      47.115  27.232  24.526  1.00  0.00     0.012 A 
ATOM     39  C   UNL A   1      47.877  26.521  26.725  1.00  0.00     0.148 A 
ATOM     40  C   UNL A   1      48.303  26.759  23.962  1.00  0.00     0.002 A 
ATOM     41  C   UNL A   1      49.072  26.094  26.164  1.00  0.00     0.091 A 
ATOM     42  F   UNL A   1      47.623  26.391  28.035  1.00  0.00    -0.205 F 
ATOM     43  C   UNL A   1      49.286  26.205  24.781  1.00  0.00     0.022 A 
BRANCH  41  44
ATOM     44  S   UNL A   1      50.419  25.434  27.152  1.00  0.00     0.127 S 
ATOM     45  O   UNL A   1      49.797  24.254  27.750  1.00  0.00    -0.237 OA
ATOM     46  O   UNL A   1      51.427  25.145  26.132  1.00  0.00    -0.237 OA
ATOM     47  O   UNL A   1      50.781  26.483  28.096  1.00  0.00    -0.744 OA
ENDBRANCH  41  44
ENDBRANCH  23  37
BRANCH  24  48
ATOM     48  C   UNL A   1      38.718  30.236  31.048  1.00  0.00     0.023 A 
ATOM     49  C   UNL A   1      38.696  29.980  32.429  1.00  0.00     0.012 A 
ATOM     50  C   UNL A   1      37.604  30.913  30.497  1.00  0.00     0.148 A 
ATOM     51  C   UNL A   1      37.627  30.394  33.232  1.00  0.00     0.002 A 
ATOM     52  C   UNL A   1      36.604  31.428  31.314  1.00  0.00     0.091 A 
ATOM     53  F   UNL A   1      37.545  31.066  29.166  1.00  0.00    -0.205 F 
ATOM     54  C   UNL A   1      36.603  31.154  32.684  1.00  0.00     0.022 A 
BRANCH  52  55
ATOM     55  S   UNL A   1      35.330  32.535  30.697  1.00  0.00     0.127 S 
ATOM     56  O   UNL A   1      34.408  32.583  31.828  1.00  0.00    -0.237 OA
ATOM     57  O   UNL A   1      36.085  33.766  30.463  1.00  0.00    -0.237 OA
ATOM     58  O   UNL A   1      34.815  31.906  29.489  1.00  0.00    -0.744 OA
ENDBRANCH  52  55
ENDBRANCH  24  48
BRANCH  36  59
ATOM     59  C   UNL A   1      44.804  33.150  29.186  1.00  0.00     0.023 A 
ATOM     60  C   UNL A   1      45.516  33.273  30.396  1.00  0.00     0.012 A 
ATOM     61  C   UNL A   1      44.697  34.249  28.318  1.00  0.00     0.148 A 
ATOM     62  C   UNL A   1      46.055  34.498  30.771  1.00  0.00     0.002 A 
ATOM     63  C   UNL A   1      45.295  35.449  28.668  1.00  0.00     0.091 A 
ATOM     64  F   UNL A   1      44.009  34.099  27.176  1.00  0.00    -0.205 F 
ATOM     65  C   UNL A   1      45.952  35.582  29.904  1.00  0.00     0.022 A 
BRANCH  63  66
ATOM     66  S   UNL A   1      45.306  36.866  27.571  1.00  0.00     0.127 S 
ATOM     67  O   UNL A   1      45.916  37.889  28.419  1.00  0.00    -0.237 OA
ATOM     68  O   UNL A   1      46.152  36.395  26.474  1.00  0.00    -0.237 OA
ATOM     69  O   UNL A   1      43.916  37.108  27.207  1.00  0.00    -0.744 OA
ENDBRANCH  63  66
ENDBRANCH  36  59
ENDBRANCH  10  11
ENDBRANCH   3   5
ENDBRANCH   2   3
ENDBRANCH   1   2
BRANCH   1  70
ATOM     70  C   UNL A   1      35.983  21.446  24.247  1.00  0.00     0.274 C 
BRANCH  70  71
ATOM     71  O   UNL A   1      35.227  22.581  24.692  1.00  0.00    -0.461 OA
BRANCH  71  72
ATOM     72  C   UNL A   1      34.014  22.607  25.279  1.00  0.00     0.329 C 
ATOM     73  O   UNL A   1      33.855  22.642  26.492  1.00  0.00    -0.250 OA
BRANCH  72  74
ATOM     74  C   UNL A   1      32.856  22.433  24.199  1.00  0.00     0.206 C 
BRANCH  74  75
ATOM     75  C   UNL A   1      32.158  20.791  23.612  1.00  0.00     0.073 C 
BRANCH  75  76
ATOM     76  C   UNL A   1      32.617  18.709  23.931  1.00  0.00    -0.045 A 
ATOM     77  C   UNL A   1      32.555  17.890  25.278  1.00  0.00     0.004 A 
ATOM     78  C   UNL A   1      33.372  17.715  23.077  1.00  0.00     0.004 A 
ATOM     79  C   UNL A   1      33.176  16.690  25.681  1.00  0.00     0.000 A 
ATOM     80  C   UNL A   1      34.033  16.511  23.503  1.00  0.00     0.000 A 
ATOM     81  C   UNL A   1      33.977  16.032  24.800  1.00  0.00     0.000 A 
ENDBRANCH  75  76
ENDBRANCH  74  75
BRANCH  74  82
ATOM     82  N   UNL A   1      31.932  23.614  24.212  1.00  0.00    -0.278 N 
ATOM     83  C   UNL A   1      32.052  24.576  23.227  1.00  0.00     0.267 C 
ATOM     84  C   UNL A   1      30.918  23.844  25.129  1.00  0.00     0.149 C 
ATOM     85  O   UNL A   1      32.714  24.510  22.200  1.00  0.00    -0.268 OA
ATOM     86  C   UNL A   1      31.246  25.772  23.549  1.00  0.00     0.081 C 
ATOM     87  S   UNL A   1      30.133  25.397  24.782  1.00  0.00    -0.054 SA
ATOM     88  S   UNL A   1      30.463  22.880  26.414  1.00  0.00    -0.052 S 
ATOM     89  C   UNL A   1      31.549  26.924  22.938  1.00  0.00     0.029 C 
BRANCH  89  90
ATOM     90  C   UNL A   1      30.983  28.254  23.147  1.00  0.00    -0.024 A 
ATOM     91  C   UNL A   1      31.173  28.929  24.348  1.00  0.00     0.010 A 
ATOM     92  C   UNL A   1      30.133  28.802  22.181  1.00  0.00     0.018 A 
ATOM     93  C   UNL A   1      30.537  30.156  24.567  1.00  0.00     0.029 A 
ATOM     94  C   UNL A   1      29.489  30.030  22.413  1.00  0.00     0.001 A 
ATOM     95  C   UNL A   1      29.703  30.732  23.617  1.00  0.00     0.070 A 
ATOM     96  C   UNL A   1      28.622  30.597  21.469  1.00  0.00     0.012 A 
ATOM     97  N   UNL A   1      29.128  31.923  23.871  1.00  0.00    -0.256 NA
ATOM     98  C   UNL A   1      28.050  31.840  21.715  1.00  0.00     0.021 A 
ATOM     99  C   UNL A   1      28.344  32.462  22.912  1.00  0.00     0.112 A 
ENDBRANCH  89  90
ENDBRANCH  74  82
ENDBRANCH  72  74
ENDBRANCH  71  72
ENDBRANCH  70  71
ENDBRANCH   1  70
TORSDOF 18
ENDMDL
MODEL 2
REMARK VINA RESULT:     -13.5      8.668     14.941
REMARK SMILES O=C(OCCOC(=O)[C@@H](Cc1ccccc1)N1C(=O)/C(=C/c2ccc3ncccc3c2)SC1=S)c1ccc(-c2c3nc(c(-c4cccc(S(=O)(=O)[O-])c4F)c4ccc([nH]4)c(-c4cccc(S(=O)(=O)[O-])c4F)c4nc(c(-c5cccc(S(=O)(=O)[O-])c5F)c5ccc2[nH]5)C=C4)C=C3)cc1
REMARK SMILES IDX 4 1 3 2 2 3 1 4 35 5 36 6 97 7 37 8 96 9 38 10 39 11 40 12
REMARK SMILES IDX 90 13 41 14 95 15 89 16 91 17 42 18 94 19 88 20 87 21 43 23
REMARK SMILES IDX 75 24 55 25 74 26 56 27 59 28 73 29 92 30 57 31 58 32 72 34
REMARK SMILES IDX 93 35 60 36 44 37 45 38 53 39 46 40 48 41 54 42 47 43 49 44
REMARK SMILES IDX 50 45 51 46 52 47 76 48 77 49 85 50 78 51 80 52 86 53 79 54
REMARK SMILES IDX 81 55 82 56 83 57 84 58 61 59 62 60 70 61 63 62 65 63 71 64
REMARK SMILES IDX 64 65 66 66 67 67 68 68 69 69 5 70 6 71 7 72 8 73 9 74 10 75
REMARK SMILES IDX 11 76 12 77 16 78 13 79 15 80 14 81 17 82 18 83 33 84 19 85
REMARK SMILES IDX 20 86 32 87 34 88 21 89 22 90 23 91 31 92 24 93 30 94 25 95
REMARK SMILES IDX 29 96 26 97 28 98 27 99
REMARK H PARENT 91 22 59 33
REMARK Flexibility Score: inf
ROOT
ATOM      1  C   UNL A   1      48.586  24.446  38.860  1.00  0.00     0.275 C 
ENDROOT
BRANCH   1   2
ATOM      2  O   UNL A   1      47.774  25.017  37.835  1.00  0.00    -0.458 OA
BRANCH   2   3
ATOM      3  C   UNL A   1      46.567  25.553  38.063  1.00  0.00     0.338 C 
ATOM      4  O   UNL A   1      45.994  25.317  39.126  1.00  0.00    -0.246 OA
BRANCH   3   5
ATOM      5  C   UNL A   1      45.844  26.459  37.126  1.00  0.00     0.060 A 
ATOM      6  C   UNL A   1      46.364  28.039  36.344  1.00  0.00     0.016 A 
ATOM      7  C   UNL A   1      44.378  25.593  36.464  1.00  0.00     0.016 A 
ATOM      8  C   UNL A   1      45.575  28.585  34.779  1.00  0.00     0.010 A 
ATOM      9  C   UNL A   1      43.538  26.212  35.020  1.00  0.00     0.010 A 
ATOM     10  C   UNL A   1      44.067  27.702  34.178  1.00  0.00    -0.014 A 
BRANCH  10  11
ATOM     11  C   UNL A   1      43.099  28.398  33.268  1.00  0.00     0.031 A 
ATOM     12  C   UNL A   1      42.919  27.939  31.830  1.00  0.00     0.074 A 
ATOM     13  C   UNL A   1      42.193  29.193  33.858  1.00  0.00     0.049 A 
ATOM     14  N   UNL A   1      41.924  28.197  31.019  1.00  0.00    -0.248 NA
ATOM     15  C   UNL A   1      43.914  27.027  31.232  1.00  0.00     0.031 C 
ATOM     16  C   UNL A   1      42.282  29.610  35.249  1.00  0.00     0.029 A 
ATOM     17  N   UNL A   1      41.021  29.748  33.426  1.00  0.00    -0.354 N 
ATOM     18  C   UNL A   1      42.202  27.515  29.835  1.00  0.00     0.074 A 
ATOM     19  C   UNL A   1      43.427  26.794  30.026  1.00  0.00     0.031 C 
ATOM     20  C   UNL A   1      41.174  30.269  35.594  1.00  0.00     0.029 A 
ATOM     21  C   UNL A   1      40.382  30.490  34.397  1.00  0.00     0.049 A 
ATOM     22  H   UNL A   1      40.666  29.628  32.514  1.00  0.00     0.167 HD
ATOM     23  C   UNL A   1      41.501  27.502  28.682  1.00  0.00     0.034 A 
ATOM     24  C   UNL A   1      39.328  31.327  34.315  1.00  0.00     0.034 A 
ATOM     25  C   UNL A   1      40.285  28.236  28.505  1.00  0.00     0.049 A 
ATOM     26  C   UNL A   1      38.613  31.334  32.992  1.00  0.00     0.074 A 
ATOM     27  C   UNL A   1      39.520  28.371  27.364  1.00  0.00     0.029 A 
ATOM     28  N   UNL A   1      39.686  28.997  29.497  1.00  0.00    -0.354 N 
ATOM     29  N   UNL A   1      38.835  30.578  31.939  1.00  0.00    -0.248 NA
ATOM     30  C   UNL A   1      37.488  32.260  32.838  1.00  0.00     0.031 C 
ATOM     31  C   UNL A   1      38.498  29.281  27.647  1.00  0.00     0.029 A 
ATOM     32  C   UNL A   1      38.594  29.660  28.979  1.00  0.00     0.049 A 
ATOM     33  H   UNL A   1      39.995  29.056  30.430  1.00  0.00     0.167 HD
ATOM     34  C   UNL A   1      37.883  30.940  31.002  1.00  0.00     0.074 A 
ATOM     35  C   UNL A   1      37.016  31.905  31.652  1.00  0.00     0.031 C 
ATOM     36  C   UNL A   1      37.754  30.573  29.702  1.00  0.00     0.034 A 
BRANCH  23  37
ATOM     37  C   UNL A   1      42.088  26.786  27.495  1.00  0.00     0.023 A 
ATOM     38  C   UNL A   1      42.927  27.445  26.576  1.00  0.00     0.012 A 
ATOM     39  C   UNL A   1      41.839  25.407  27.341  1.00  0.00     0.148 A 
ATOM     40  C   UNL A   1      43.510  26.737  25.521  1.00  0.00     0.002 A 
ATOM     41  C   UNL A   1      42.456  24.703  26.317  1.00  0.00     0.091 A 
ATOM     42  F   UNL A   1      41.007  24.814  28.208  1.00  0.00    -0.205 F 
ATOM     43  C   UNL A   1      43.286  25.366  25.401  1.00  0.00     0.022 A 
BRANCH  41  44
ATOM     44  S   UNL A   1      42.281  22.925  26.130  1.00  0.00     0.127 S 
ATOM     45  O   UNL A   1      42.882  22.705  24.815  1.00  0.00    -0.237 OA
ATOM     46  O   UNL A   1      43.071  22.425  27.254  1.00  0.00    -0.237 OA
ATOM     47  O   UNL A   1      40.854  22.647  26.206  1.00  0.00    -0.744 OA
ENDBRANCH  41  44
ENDBRANCH  23  37
BRANCH  24  48
ATOM     48  C   UNL A   1      38.953  32.207  35.477  1.00  0.00     0.023 A 
ATOM     49  C   UNL A   1      38.155  31.729  36.530  1.00  0.00     0.012 A 
ATOM     50  C   UNL A   1      39.418  33.541  35.570  1.00  0.00     0.148 A 
ATOM     51  C   UNL A   1      37.849  32.530  37.636  1.00  0.00     0.002 A 
ATOM     52  C   UNL A   1      39.213  34.291  36.722  1.00  0.00     0.091 A 
ATOM     53  F   UNL A   1      40.081  34.059  34.526  1.00  0.00    -0.205 F 
ATOM     54  C   UNL A   1      38.412  33.795  37.753  1.00  0.00     0.022 A 
BRANCH  52  55
ATOM     55  S   UNL A   1      40.025  35.869  37.001  1.00  0.00     0.127 S 
ATOM     56  O   UNL A   1      39.600  36.631  35.830  1.00  0.00    -0.237 OA
ATOM     57  O   UNL A   1      39.430  36.298  38.266  1.00  0.00    -0.237 OA
ATOM     58  O   UNL A   1      41.448  35.571  37.076  1.00  0.00    -0.744 OA
ENDBRANCH  52  55
ENDBRANCH  24  48
BRANCH  36  59
ATOM     59  C   UNL A   1      36.650  31.238  28.939  1.00  0.00     0.023 A 
ATOM     60  C   UNL A   1      36.729  32.619  28.669  1.00  0.00     0.012 A 
ATOM     61  C   UNL A   1      35.558  30.491  28.469  1.00  0.00     0.148 A 
ATOM     62  C   UNL A   1      35.696  33.263  27.998  1.00  0.00     0.002 A 
ATOM     63  C   UNL A   1      34.564  31.128  27.743  1.00  0.00     0.091 A 
ATOM     64  F   UNL A   1      35.512  29.180  28.746  1.00  0.00    -0.205 F 
ATOM     65  C   UNL A   1      34.618  32.516  27.529  1.00  0.00     0.022 A 
BRANCH  63  66
ATOM     66  S   UNL A   1      33.196  30.233  27.009  1.00  0.00     0.127 S 
ATOM     67  O   UNL A   1      32.183  31.283  26.900  1.00  0.00    -0.237 OA
ATOM     68  O   UNL A   1      33.766  29.797  25.734  1.00  0.00    -0.237 OA
ATOM     69  O   UNL A   1      32.874  29.154  27.933  1.00  0.00    -0.744 OA
ENDBRANCH  63  66
ENDBRANCH  36  59
ENDBRANCH  10  11
ENDBRANCH   3   5
ENDBRANCH   2   3
ENDBRANCH   1   2
BRANCH   1  70
ATOM     70  C   UNL A   1      48.863  22.970  38.550  1.00  0.00     0.274 C 
BRANCH  70  71
ATOM     71  O   UNL A   1      47.665  22.239  38.845  1.00  0.00    -0.461 OA
BRANCH  71  72
ATOM     72  C   UNL A   1      46.781  21.688  37.989  1.00  0.00     0.329 C 
ATOM     73  O   UNL A   1      45.669  22.152  37.782  1.00  0.00    -0.250 OA
BRANCH  72  74
ATOM     74  C   UNL A   1      47.325  20.302  37.425  1.00  0.00     0.206 C 
BRANCH  74  75
ATOM     75  C   UNL A   1      48.868  20.087  36.374  1.00  0.00     0.073 C 
BRANCH  75  76
ATOM     76  C   UNL A   1      49.798  21.156  34.750  1.00  0.00    -0.045 A 
ATOM     77  C   UNL A   1      51.001  20.695  33.838  1.00  0.00     0.004 A 
ATOM     78  C   UNL A   1      49.746  22.617  34.362  1.00  0.00     0.004 A 
ATOM     79  C   UNL A   1      51.914  21.419  33.046  1.00  0.00     0.000 A 
ATOM     80  C   UNL A   1      50.702  23.355  33.582  1.00  0.00     0.000 A 
ATOM     81  C   UNL A   1      51.799  22.772  32.974  1.00  0.00     0.000 A 
ENDBRANCH  75  76
ENDBRANCH  74  75
BRANCH  74  82
ATOM     82  N   UNL A   1      46.940  19.170  38.330  1.00  0.00    -0.278 N 
ATOM     83  C   UNL A   1      45.811  18.426  38.041  1.00  0.00     0.267 C 
ATOM     84  C   UNL A   1      47.633  18.759  39.459  1.00  0.00     0.149 C 
ATOM     85  O   UNL A   1      45.152  18.447  37.010  1.00  0.00    -0.268 OA
ATOM     86  C   UNL A   1      45.453  17.540  39.167  1.00  0.00     0.081 C 
ATOM     87  S   UNL A   1      46.767  17.424  40.243  1.00  0.00    -0.054 SA
ATOM     88  S   UNL A   1      49.049  19.391  40.077  1.00  0.00    -0.052 S 
ATOM     89  C   UNL A   1      44.203  17.066  39.228  1.00  0.00     0.029 C 
BRANCH  89  90
ATOM     90  C   UNL A   1      43.572  16.264  40.272  1.00  0.00    -0.024 A 
ATOM     91  C   UNL A   1      43.869  16.479  41.614  1.00  0.00     0.010 A 
ATOM     92  C   UNL A   1      42.759  15.183  39.917  1.00  0.00     0.018 A 
ATOM     93  C   UNL A   1      43.334  15.633  42.592  1.00  0.00     0.029 A 
ATOM     94  C   UNL A   1      42.234  14.330  40.904  1.00  0.00     0.001 A 
ATOM     95  C   UNL A   1      42.508  14.564  42.267  1.00  0.00     0.070 A 
ATOM     96  C   UNL A   1      41.427  13.232  40.576  1.00  0.00     0.012 A 
ATOM     97  N   UNL A   1      42.005  13.790  43.247  1.00  0.00    -0.256 NA
ATOM     98  C   UNL A   1      40.882  12.449  41.587  1.00  0.00     0.021 A 
ATOM     99  C   UNL A   1      41.188  12.775  42.893  1.00  0.00     0.112 A 
ENDBRANCH  89  90
ENDBRANCH  74  82
ENDBRANCH  72  74
ENDBRANCH  71  72
ENDBRANCH  70  71
ENDBRANCH   1  70
TORSDOF 18
ENDMDL
MODEL 3
REMARK VINA RESULT:     -13.0      1.741      2.138
REMARK SMILES O=C(OCCOC(=O)[C@@H](Cc1ccccc1)N1C(=O)/C(=C/c2ccc3ncccc3c2)SC1=S)c1ccc(-c2c3nc(c(-c4cccc(S(=O)(=O)[O-])c4F)c4ccc([nH]4)c(-c4cccc(S(=O)(=O)[O-])c4F)c4nc(c(-c5cccc(S(=O)(=O)[O-])c5F)c5ccc2[nH]5)C=C4)C=C3)cc1
REMARK SMILES IDX 4 1 3 2 2 3 1 4 35 5 36 6 97 7 37 8 96 9 38 10 39 11 40 12
REMARK SMILES IDX 90 13 41 14 95 15 89 16 91 17 42 18 94 19 88 20 87 21 43 23
REMARK SMILES IDX 75 24 55 25 74 26 56 27 59 28 73 29 92 30 57 31 58 32 72 34
REMARK SMILES IDX 93 35 60 36 44 37 45 38 53 39 46 40 48 41 54 42 47 43 49 44
REMARK SMILES IDX 50 45 51 46 52 47 76 48 77 49 85 50 78 51 80 52 86 53 79 54
REMARK SMILES IDX 81 55 82 56 83 57 84 58 61 59 62 60 70 61 63 62 65 63 71 64
REMARK SMILES IDX 64 65 66 66 67 67 68 68 69 69 5 70 6 71 7 72 8 73 9 74 10 75
REMARK SMILES IDX 11 76 12 77 16 78 13 79 15 80 14 81 17 82 18 83 33 84 19 85
REMARK SMILES IDX 20 86 32 87 34 88 21 89 22 90 23 91 31 92 24 93 30 94 25 95
REMARK SMILES IDX 29 96 26 97 28 98 27 99
REMARK H PARENT 91 22 59 33
REMARK Flexibility Score: inf
ROOT
ATOM      1  C   UNL A   1      37.419  21.561  25.815  1.00  0.00     0.275 C 
ENDROOT
BRANCH   1   2
ATOM      2  O   UNL A   1      38.733  21.026  25.664  1.00  0.00    -0.458 OA
BRANCH   2   3
ATOM      3  C   UNL A   1      39.752  21.334  26.478  1.00  0.00     0.338 C 
ATOM      4  O   UNL A   1      40.263  20.450  27.165  1.00  0.00    -0.246 OA
BRANCH   3   5
ATOM      5  C   UNL A   1      40.362  22.687  26.610  1.00  0.00     0.060 A 
ATOM      6  C   UNL A   1      39.864  24.303  25.888  1.00  0.00     0.016 A 
ATOM      7  C   UNL A   1      41.561  22.675  27.989  1.00  0.00     0.016 A 
ATOM      8  C   UNL A   1      40.371  25.864  26.711  1.00  0.00     0.010 A 
ATOM      9  C   UNL A   1      42.149  24.203  28.689  1.00  0.00     0.010 A 
ATOM     10  C   UNL A   1      41.621  25.798  28.069  1.00  0.00    -0.014 A 
BRANCH  10  11
ATOM     11  C   UNL A   1      42.452  27.006  28.388  1.00  0.00     0.031 A 
ATOM     12  C   UNL A   1      43.835  27.179  27.782  1.00  0.00     0.074 A 
ATOM     13  C   UNL A   1      41.804  28.045  28.940  1.00  0.00     0.049 A 
ATOM     14  N   UNL A   1      44.541  28.277  27.682  1.00  0.00    -0.248 NA
ATOM     15  C   UNL A   1      44.494  26.023  27.143  1.00  0.00     0.031 C 
ATOM     16  C   UNL A   1      40.455  27.951  29.475  1.00  0.00     0.029 A 
ATOM     17  N   UNL A   1      42.130  29.362  29.104  1.00  0.00    -0.354 N 
ATOM     18  C   UNL A   1      45.713  27.926  27.014  1.00  0.00     0.074 A 
ATOM     19  C   UNL A   1      45.624  26.532  26.685  1.00  0.00     0.031 C 
ATOM     20  C   UNL A   1      40.022  29.165  29.821  1.00  0.00     0.029 A 
ATOM     21  C   UNL A   1      41.132  30.095  29.712  1.00  0.00     0.049 A 
ATOM     22  H   UNL A   1      42.989  29.750  28.816  1.00  0.00     0.167 HD
ATOM     23  C   UNL A   1      46.778  28.697  26.710  1.00  0.00     0.034 A 
ATOM     24  C   UNL A   1      41.138  31.348  30.208  1.00  0.00     0.034 A 
ATOM     25  C   UNL A   1      46.854  30.084  27.054  1.00  0.00     0.049 A 
ATOM     26  C   UNL A   1      42.371  32.155  29.906  1.00  0.00     0.074 A 
ATOM     27  C   UNL A   1      47.908  30.958  26.876  1.00  0.00     0.029 A 
ATOM     28  N   UNL A   1      45.841  30.782  27.693  1.00  0.00    -0.354 N 
ATOM     29  N   UNL A   1      43.402  31.823  29.161  1.00  0.00    -0.248 NA
ATOM     30  C   UNL A   1      42.444  33.509  30.462  1.00  0.00     0.031 C 
ATOM     31  C   UNL A   1      47.558  32.168  27.480  1.00  0.00     0.029 A 
ATOM     32  C   UNL A   1      46.266  32.063  27.977  1.00  0.00     0.049 A 
ATOM     33  H   UNL A   1      44.953  30.418  27.912  1.00  0.00     0.167 HD
ATOM     34  C   UNL A   1      44.244  32.922  29.163  1.00  0.00     0.074 A 
ATOM     35  C   UNL A   1      43.550  33.966  29.894  1.00  0.00     0.031 C 
ATOM     36  C   UNL A   1      45.500  33.059  28.672  1.00  0.00     0.034 A 
BRANCH  23  37
ATOM     37  C   UNL A   1      47.985  28.041  26.095  1.00  0.00     0.023 A 
ATOM     38  C   UNL A   1      48.092  27.845  24.705  1.00  0.00     0.012 A 
ATOM     39  C   UNL A   1      49.059  27.674  26.931  1.00  0.00     0.148 A 
ATOM     40  C   UNL A   1      49.254  27.292  24.158  1.00  0.00     0.002 A 
ATOM     41  C   UNL A   1      50.226  27.167  26.378  1.00  0.00     0.091 A 
ATOM     42  F   UNL A   1      48.916  27.837  28.254  1.00  0.00    -0.205 F 
ATOM     43  C   UNL A   1      50.324  26.969  24.992  1.00  0.00     0.022 A 
BRANCH  41  44
ATOM     44  S   UNL A   1      51.677  26.789  27.366  1.00  0.00     0.127 S 
ATOM     45  O   UNL A   1      51.269  25.553  28.031  1.00  0.00    -0.237 OA
ATOM     46  O   UNL A   1      52.705  26.621  26.339  1.00  0.00    -0.237 OA
ATOM     47  O   UNL A   1      51.872  27.928  28.252  1.00  0.00    -0.744 OA
ENDBRANCH  41  44
ENDBRANCH  23  37
BRANCH  24  48
ATOM     48  C   UNL A   1      39.987  31.852  31.037  1.00  0.00     0.023 A 
ATOM     49  C   UNL A   1      38.899  32.520  30.451  1.00  0.00     0.012 A 
ATOM     50  C   UNL A   1      39.941  31.643  32.437  1.00  0.00     0.148 A 
ATOM     51  C   UNL A   1      37.804  32.942  31.214  1.00  0.00     0.002 A 
ATOM     52  C   UNL A   1      38.802  31.955  33.170  1.00  0.00     0.091 A 
ATOM     53  F   UNL A   1      41.017  31.114  33.038  1.00  0.00    -0.205 F 
ATOM     54  C   UNL A   1      37.735  32.623  32.564  1.00  0.00     0.022 A 
BRANCH  52  55
ATOM     55  S   UNL A   1      38.587  31.446  34.879  1.00  0.00     0.127 S 
ATOM     56  O   UNL A   1      37.248  31.949  35.171  1.00  0.00    -0.237 OA
ATOM     57  O   UNL A   1      38.691  29.990  34.778  1.00  0.00    -0.237 OA
ATOM     58  O   UNL A   1      39.673  32.076  35.616  1.00  0.00    -0.744 OA
ENDBRANCH  52  55
ENDBRANCH  24  48
BRANCH  36  59
ATOM     59  C   UNL A   1      46.168  34.374  28.934  1.00  0.00     0.023 A 
ATOM     60  C   UNL A   1      46.922  34.545  30.113  1.00  0.00     0.012 A 
ATOM     61  C   UNL A   1      46.070  35.422  28.004  1.00  0.00     0.148 A 
ATOM     62  C   UNL A   1      47.514  35.770  30.395  1.00  0.00     0.002 A 
ATOM     63  C   UNL A   1      46.719  36.619  28.262  1.00  0.00     0.091 A 
ATOM     64  F   UNL A   1      45.342  35.228  26.895  1.00  0.00    -0.205 F 
ATOM     65  C   UNL A   1      47.420  36.803  29.466  1.00  0.00     0.022 A 
BRANCH  63  66
ATOM     66  S   UNL A   1      46.743  37.966  27.080  1.00  0.00     0.127 S 
ATOM     67  O   UNL A   1      45.324  38.311  26.999  1.00  0.00    -0.237 OA
ATOM     68  O   UNL A   1      47.577  38.955  27.763  1.00  0.00    -0.237 OA
ATOM     69  O   UNL A   1      47.321  37.422  25.858  1.00  0.00    -0.744 OA
ENDBRANCH  63  66
ENDBRANCH  36  59
ENDBRANCH  10  11
ENDBRANCH   3   5
ENDBRANCH   2   3
ENDBRANCH   1   2
BRANCH   1  70
ATOM     70  C   UNL A   1      36.884  22.031  24.456  1.00  0.00     0.274 C 
BRANCH  70  71
ATOM     71  O   UNL A   1      35.898  23.041  24.711  1.00  0.00    -0.461 OA
BRANCH  71  72
ATOM     72  C   UNL A   1      34.697  22.915  25.310  1.00  0.00     0.329 C 
ATOM     73  O   UNL A   1      34.544  22.955  26.522  1.00  0.00    -0.250 OA
BRANCH  72  74
ATOM     74  C   UNL A   1      33.567  22.560  24.245  1.00  0.00     0.206 C 
BRANCH  74  75
ATOM     75  C   UNL A   1      33.029  20.823  23.771  1.00  0.00     0.073 C 
BRANCH  75  76
ATOM     76  C   UNL A   1      33.389  18.833  24.514  1.00  0.00    -0.045 A 
ATOM     77  C   UNL A   1      34.259  17.689  23.862  1.00  0.00     0.004 A 
ATOM     78  C   UNL A   1      32.674  18.021  25.571  1.00  0.00     0.004 A 
ATOM     79  C   UNL A   1      34.256  16.290  24.031  1.00  0.00     0.000 A 
ATOM     80  C   UNL A   1      32.649  16.590  25.715  1.00  0.00     0.000 A 
ATOM     81  C   UNL A   1      33.391  15.733  24.922  1.00  0.00     0.000 A 
ENDBRANCH  75  76
ENDBRANCH  74  75
BRANCH  74  82
ATOM     82  N   UNL A   1      32.536  23.647  24.179  1.00  0.00    -0.278 N 
ATOM     83  C   UNL A   1      32.694  24.675  23.268  1.00  0.00     0.267 C 
ATOM     84  C   UNL A   1      31.384  23.725  24.948  1.00  0.00     0.149 C 
ATOM     85  O   UNL A   1      33.497  24.734  22.347  1.00  0.00    -0.268 OA
ATOM     86  C   UNL A   1      31.735  25.768  23.526  1.00  0.00     0.081 C 
ATOM     87  S   UNL A   1      30.504  25.216  24.564  1.00  0.00    -0.054 SA
ATOM     88  S   UNL A   1      30.853  22.646  26.106  1.00  0.00    -0.052 S 
ATOM     89  C   UNL A   1      32.002  26.979  23.020  1.00  0.00     0.029 C 
BRANCH  89  90
ATOM     90  C   UNL A   1      31.281  28.234  23.207  1.00  0.00    -0.024 A 
ATOM     91  C   UNL A   1      31.474  29.004  24.350  1.00  0.00     0.010 A 
ATOM     92  C   UNL A   1      30.291  28.605  22.292  1.00  0.00     0.018 A 
ATOM     93  C   UNL A   1      30.698  30.150  24.558  1.00  0.00     0.029 A 
ATOM     94  C   UNL A   1      29.508  29.752  22.514  1.00  0.00     0.001 A 
ATOM     95  C   UNL A   1      29.722  30.551  23.656  1.00  0.00     0.070 A 
ATOM     96  C   UNL A   1      28.501  30.140  21.620  1.00  0.00     0.012 A 
ATOM     97  N   UNL A   1      29.014  31.671  23.895  1.00  0.00    -0.256 NA
ATOM     98  C   UNL A   1      27.788  31.312  21.849  1.00  0.00     0.021 A 
ATOM     99  C   UNL A   1      28.090  32.041  22.982  1.00  0.00     0.112 A 
ENDBRANCH  89  90
ENDBRANCH  74  82
ENDBRANCH  72  74
ENDBRANCH  71  72
ENDBRANCH  70  71
ENDBRANCH   1  70
TORSDOF 18
ENDMDL
