MODEL 1
REMARK VINA RESULT:     -13.0      0.000      0.000
REMARK SMILES O=C(OCCOC(=O)C1CCN(C2=[NH+]C(Cl)=[NH+]C3=[NH+]C=N[C@@H]32)CC1)c1ccc(-c2c3nc(c(-c4cccc(S(=O)(=O)[O-])c4F)c4ccc([nH]4)c(-c4cccc(S(=O)(=O)[O-])c4F)c4nc(c(-c5cccc(S(=O)(=O)[O-])c5F)c5ccc2[nH]5)C=C4)C=C3)cc1
REMARK SMILES IDX 3 1 2 2 1 3 25 4 26 5 87 6 27 7 86 8 28 9 29 10 30 11 80 12
REMARK SMILES IDX 31 13 85 14 79 15 81 16 32 17 84 18 78 19 77 20 33 22 65 23
REMARK SMILES IDX 45 24 64 25 46 26 49 27 63 28 82 29 47 30 48 31 62 33 83 34
REMARK SMILES IDX 50 35 34 36 35 37 43 38 36 39 38 40 44 41 37 42 39 43 40 44
REMARK SMILES IDX 41 45 42 46 66 47 67 48 75 49 68 50 70 51 76 52 69 53 71 54
REMARK SMILES IDX 72 55 73 56 74 57 51 58 52 59 60 60 53 61 55 62 61 63 54 64
REMARK SMILES IDX 56 65 57 66 58 67 59 68 4 69 5 70 6 71 7 72 8 73 9 74 10 75
REMARK SMILES IDX 24 76 11 77 23 78 12 79 13 80 14 81 22 82 15 83 18 85 21 86
REMARK SMILES IDX 16 87 17 88 19 89 20 90
REMARK H PARENT 81 21 49 32 14 84 17 91 19 92
REMARK Flexibility Score: inf
ROOT
ATOM      1  O   UNL A   1      40.425  18.733  25.846  1.00  0.00    -0.458 OA
ENDROOT
BRANCH   1   2
ATOM      2  C   UNL A   1      41.756  18.911  25.967  1.00  0.00     0.338 C 
ATOM      3  O   UNL A   1      42.602  18.130  25.569  1.00  0.00    -0.246 OA
BRANCH   2   4
ATOM      4  C   UNL A   1      42.062  20.220  26.593  1.00  0.00     0.060 A 
ATOM      5  C   UNL A   1      42.842  21.195  25.954  1.00  0.00     0.016 A 
ATOM      6  C   UNL A   1      41.415  20.524  27.788  1.00  0.00     0.016 A 
ATOM      7  C   UNL A   1      42.965  22.476  26.501  1.00  0.00     0.010 A 
ATOM      8  C   UNL A   1      41.472  21.822  28.282  1.00  0.00     0.010 A 
ATOM      9  C   UNL A   1      42.259  22.808  27.659  1.00  0.00    -0.014 A 
BRANCH   9  10
ATOM     10  C   UNL A   1      42.304  24.174  28.228  1.00  0.00     0.031 A 
ATOM     11  C   UNL A   1      41.141  25.145  28.035  1.00  0.00     0.074 A 
ATOM     12  C   UNL A   1      43.275  24.466  29.128  1.00  0.00     0.049 A 
ATOM     13  N   UNL A   1      41.015  26.347  28.530  1.00  0.00    -0.248 NA
ATOM     14  C   UNL A   1      39.964  24.750  27.239  1.00  0.00     0.031 C 
ATOM     15  C   UNL A   1      44.329  23.584  29.655  1.00  0.00     0.029 A 
ATOM     16  N   UNL A   1      43.394  25.577  29.910  1.00  0.00    -0.354 N 
ATOM     17  C   UNL A   1      39.743  26.828  28.195  1.00  0.00     0.074 A 
ATOM     18  C   UNL A   1      39.144  25.795  27.374  1.00  0.00     0.031 C 
ATOM     19  C   UNL A   1      44.756  24.065  30.843  1.00  0.00     0.029 A 
ATOM     20  C   UNL A   1      44.156  25.366  31.055  1.00  0.00     0.049 A 
ATOM     21  H   UNL A   1      42.982  26.443  29.686  1.00  0.00     0.167 HD
ATOM     22  C   UNL A   1      39.447  28.135  27.931  1.00  0.00     0.034 A 
ATOM     23  C   UNL A   1      44.256  26.193  32.118  1.00  0.00     0.034 A 
ATOM     24  C   UNL A   1      40.573  28.830  27.388  1.00  0.00     0.049 A 
ATOM     25  C   UNL A   1      43.874  27.542  31.653  1.00  0.00     0.074 A 
ATOM     26  C   UNL A   1      41.217  28.858  26.173  1.00  0.00     0.029 A 
ATOM     27  N   UNL A   1      41.370  29.511  28.271  1.00  0.00    -0.354 N 
ATOM     28  N   UNL A   1      44.575  28.247  30.809  1.00  0.00    -0.248 NA
ATOM     29  C   UNL A   1      42.538  28.042  31.934  1.00  0.00     0.031 C 
ATOM     30  C   UNL A   1      42.563  29.209  26.476  1.00  0.00     0.029 A 
ATOM     31  C   UNL A   1      42.662  29.368  27.861  1.00  0.00     0.049 A 
ATOM     32  H   UNL A   1      41.063  30.012  29.061  1.00  0.00     0.167 HD
ATOM     33  C   UNL A   1      43.625  28.978  30.115  1.00  0.00     0.074 A 
ATOM     34  C   UNL A   1      42.451  28.973  30.982  1.00  0.00     0.031 C 
ATOM     35  C   UNL A   1      43.776  29.231  28.779  1.00  0.00     0.034 A 
BRANCH  22  36
ATOM     36  C   UNL A   1      38.407  28.887  28.745  1.00  0.00     0.023 A 
ATOM     37  C   UNL A   1      37.553  29.775  28.039  1.00  0.00     0.012 A 
ATOM     38  C   UNL A   1      38.342  28.906  30.152  1.00  0.00     0.148 A 
ATOM     39  C   UNL A   1      36.767  30.726  28.692  1.00  0.00     0.002 A 
ATOM     40  C   UNL A   1      37.549  29.858  30.802  1.00  0.00     0.091 A 
ATOM     41  F   UNL A   1      39.073  28.020  30.841  1.00  0.00    -0.205 F 
ATOM     42  C   UNL A   1      36.785  30.783  30.075  1.00  0.00     0.022 A 
BRANCH  40  43
ATOM     43  S   UNL A   1      37.455  30.003  32.590  1.00  0.00     0.127 S 
ATOM     44  O   UNL A   1      38.776  30.538  32.909  1.00  0.00    -0.237 OA
ATOM     45  O   UNL A   1      36.353  30.952  32.760  1.00  0.00    -0.237 OA
ATOM     46  O   UNL A   1      37.161  28.660  33.062  1.00  0.00    -0.744 OA
ENDBRANCH  40  43
ENDBRANCH  22  36
BRANCH  23  47
ATOM     47  C   UNL A   1      44.601  25.946  33.532  1.00  0.00     0.023 A 
ATOM     48  C   UNL A   1      45.961  25.923  33.898  1.00  0.00     0.012 A 
ATOM     49  C   UNL A   1      43.628  26.009  34.553  1.00  0.00     0.148 A 
ATOM     50  C   UNL A   1      46.350  26.017  35.235  1.00  0.00     0.002 A 
ATOM     51  C   UNL A   1      44.022  26.103  35.887  1.00  0.00     0.091 A 
ATOM     52  F   UNL A   1      42.334  26.058  34.210  1.00  0.00    -0.205 F 
ATOM     53  C   UNL A   1      45.383  26.122  36.228  1.00  0.00     0.022 A 
BRANCH  51  54
ATOM     54  S   UNL A   1      42.849  26.253  37.244  1.00  0.00     0.127 S 
ATOM     55  O   UNL A   1      43.733  26.271  38.410  1.00  0.00    -0.237 OA
ATOM     56  O   UNL A   1      42.205  27.531  36.950  1.00  0.00    -0.237 OA
ATOM     57  O   UNL A   1      41.993  25.077  37.162  1.00  0.00    -0.744 OA
ENDBRANCH  51  54
ENDBRANCH  23  47
BRANCH  35  58
ATOM     58  C   UNL A   1      45.124  28.995  28.137  1.00  0.00     0.023 A 
ATOM     59  C   UNL A   1      46.173  29.931  28.250  1.00  0.00     0.012 A 
ATOM     60  C   UNL A   1      45.417  27.725  27.610  1.00  0.00     0.148 A 
ATOM     61  C   UNL A   1      47.468  29.625  27.830  1.00  0.00     0.002 A 
ATOM     62  C   UNL A   1      46.722  27.401  27.251  1.00  0.00     0.091 A 
ATOM     63  F   UNL A   1      44.423  26.828  27.509  1.00  0.00    -0.205 F 
ATOM     64  C   UNL A   1      47.747  28.352  27.345  1.00  0.00     0.022 A 
BRANCH  62  65
ATOM     65  S   UNL A   1      47.158  25.718  26.800  1.00  0.00     0.127 S 
ATOM     66  O   UNL A   1      46.335  25.490  25.617  1.00  0.00    -0.237 OA
ATOM     67  O   UNL A   1      48.595  25.814  26.535  1.00  0.00    -0.237 OA
ATOM     68  O   UNL A   1      46.833  24.913  27.973  1.00  0.00    -0.744 OA
ENDBRANCH  62  65
ENDBRANCH  35  58
ENDBRANCH   9  10
ENDBRANCH   2   4
ENDBRANCH   1   2
BRANCH   1  69
ATOM     69  C   UNL A   1      39.643  19.834  25.355  1.00  0.00     0.275 C 
BRANCH  69  70
ATOM     70  C   UNL A   1      38.133  19.646  25.184  1.00  0.00     0.274 C 
BRANCH  70  71
ATOM     71  O   UNL A   1      37.496  20.682  24.400  1.00  0.00    -0.462 OA
BRANCH  71  72
ATOM     72  C   UNL A   1      37.186  21.790  25.139  1.00  0.00     0.309 C 
ATOM     73  O   UNL A   1      37.990  22.682  25.403  1.00  0.00    -0.252 OA
BRANCH  72  74
ATOM     74  C   UNL A   1      35.761  21.846  25.669  1.00  0.00     0.108 C 
ATOM     75  C   UNL A   1      34.643  21.478  24.686  1.00  0.00     0.070 C 
ATOM     76  C   UNL A   1      35.494  23.115  26.477  1.00  0.00     0.070 C 
ATOM     77  C   UNL A   1      33.950  22.658  24.008  1.00  0.00     0.277 C 
ATOM     78  C   UNL A   1      34.895  24.226  25.635  1.00  0.00     0.277 C 
ATOM     79  N   UNL A   1      33.708  23.738  24.951  1.00  0.00    -0.230 N 
ATOM     80  C   UNL A   1      32.526  24.478  25.002  1.00  0.00     0.383 C 
ATOM     81  N   UNL A   1      32.575  25.781  25.100  1.00  0.00    -0.155 N 
ATOM     82  C   UNL A   1      31.167  23.798  24.968  1.00  0.00     0.523 C 
ATOM     83  C   UNL A   1      31.395  26.487  25.219  1.00  0.00     0.414 C 
ATOM     84  H   UNL A   1      33.440  26.250  25.088  1.00  0.00     0.367 HD
ATOM     85  C   UNL A   1      30.290  24.668  25.790  1.00  0.00     0.389 C 
ATOM     86  N   UNL A   1      31.118  22.522  25.731  1.00  0.00     0.003 NA
ATOM     87  Cl  UNL A   1      31.495  28.164  24.925  1.00  0.00     0.028 Cl
ATOM     88  N   UNL A   1      30.260  25.998  25.578  1.00  0.00    -0.155 N 
ATOM     89  N   UNL A   1      29.763  24.053  26.786  1.00  0.00    -0.169 N 
ATOM     90  C   UNL A   1      30.251  22.785  26.670  1.00  0.00     0.532 C 
ATOM     91  H   UNL A   1      29.448  26.543  25.688  1.00  0.00     0.367 HD
ATOM     92  H   UNL A   1      29.154  24.413  27.471  1.00  0.00     0.365 HD
ENDBRANCH  72  74
ENDBRANCH  71  72
ENDBRANCH  70  71
ENDBRANCH  69  70
ENDBRANCH   1  69
TORSDOF 14
ENDMDL
MODEL 2
REMARK VINA RESULT:     -12.7      4.149      9.740
REMARK SMILES O=C(OCCOC(=O)C1CCN(C2=[NH+]C(Cl)=[NH+]C3=[NH+]C=N[C@@H]32)CC1)c1ccc(-c2c3nc(c(-c4cccc(S(=O)(=O)[O-])c4F)c4ccc([nH]4)c(-c4cccc(S(=O)(=O)[O-])c4F)c4nc(c(-c5cccc(S(=O)(=O)[O-])c5F)c5ccc2[nH]5)C=C4)C=C3)cc1
REMARK SMILES IDX 3 1 2 2 1 3 25 4 26 5 87 6 27 7 86 8 28 9 29 10 30 11 80 12
REMARK SMILES IDX 31 13 85 14 79 15 81 16 32 17 84 18 78 19 77 20 33 22 65 23
REMARK SMILES IDX 45 24 64 25 46 26 49 27 63 28 82 29 47 30 48 31 62 33 83 34
REMARK SMILES IDX 50 35 34 36 35 37 43 38 36 39 38 40 44 41 37 42 39 43 40 44
REMARK SMILES IDX 41 45 42 46 66 47 67 48 75 49 68 50 70 51 76 52 69 53 71 54
REMARK SMILES IDX 72 55 73 56 74 57 51 58 52 59 60 60 53 61 55 62 61 63 54 64
REMARK SMILES IDX 56 65 57 66 58 67 59 68 4 69 5 70 6 71 7 72 8 73 9 74 10 75
REMARK SMILES IDX 24 76 11 77 23 78 12 79 13 80 14 81 22 82 15 83 18 85 21 86
REMARK SMILES IDX 16 87 17 88 19 89 20 90
REMARK H PARENT 81 21 49 32 14 84 17 91 19 92
REMARK Flexibility Score: inf
ROOT
ATOM      1  O   UNL A   1      32.166  34.561  28.171  1.00  0.00    -0.458 OA
ENDROOT
BRANCH   1   2
ATOM      2  C   UNL A   1      32.910  35.367  28.954  1.00  0.00     0.338 C 
ATOM      3  O   UNL A   1      32.546  36.447  29.387  1.00  0.00    -0.246 OA
BRANCH   2   4
ATOM      4  C   UNL A   1      34.213  34.738  29.278  1.00  0.00     0.060 A 
ATOM      5  C   UNL A   1      34.445  34.068  30.487  1.00  0.00     0.016 A 
ATOM      6  C   UNL A   1      35.170  34.696  28.267  1.00  0.00     0.016 A 
ATOM      7  C   UNL A   1      35.625  33.344  30.683  1.00  0.00     0.010 A 
ATOM      8  C   UNL A   1      36.302  33.906  28.435  1.00  0.00     0.010 A 
ATOM      9  C   UNL A   1      36.554  33.236  29.647  1.00  0.00    -0.014 A 
BRANCH   9  10
ATOM     10  C   UNL A   1      37.780  32.419  29.787  1.00  0.00     0.031 A 
ATOM     11  C   UNL A   1      37.837  30.988  29.257  1.00  0.00     0.074 A 
ATOM     12  C   UNL A   1      38.926  33.035  30.169  1.00  0.00     0.049 A 
ATOM     13  N   UNL A   1      38.862  30.179  29.253  1.00  0.00    -0.248 NA
ATOM     14  C   UNL A   1      36.651  30.380  28.626  1.00  0.00     0.031 C 
ATOM     15  C   UNL A   1      39.144  34.461  30.463  1.00  0.00     0.029 A 
ATOM     16  N   UNL A   1      40.193  32.530  30.180  1.00  0.00    -0.354 N 
ATOM     17  C   UNL A   1      38.499  29.014  28.564  1.00  0.00     0.074 A 
ATOM     18  C   UNL A   1      37.104  29.191  28.215  1.00  0.00     0.031 C 
ATOM     19  C   UNL A   1      40.455  34.749  30.316  1.00  0.00     0.029 A 
ATOM     20  C   UNL A   1      41.178  33.510  30.115  1.00  0.00     0.049 A 
ATOM     21  H   UNL A   1      40.390  31.566  30.230  1.00  0.00     0.167 HD
ATOM     22  C   UNL A   1      38.952  27.760  28.858  1.00  0.00     0.034 A 
ATOM     23  C   UNL A   1      42.493  33.315  29.878  1.00  0.00     0.034 A 
ATOM     24  C   UNL A   1      39.266  27.628  30.248  1.00  0.00     0.049 A 
ATOM     25  C   UNL A   1      42.789  31.909  30.223  1.00  0.00     0.074 A 
ATOM     26  C   UNL A   1      38.543  27.507  31.411  1.00  0.00     0.029 A 
ATOM     27  N   UNL A   1      40.568  27.847  30.615  1.00  0.00    -0.354 N 
ATOM     28  N   UNL A   1      42.752  31.434  31.437  1.00  0.00    -0.248 NA
ATOM     29  C   UNL A   1      42.890  30.920  29.163  1.00  0.00     0.031 C 
ATOM     30  C   UNL A   1      39.376  28.060  32.423  1.00  0.00     0.029 A 
ATOM     31  C   UNL A   1      40.558  28.493  31.816  1.00  0.00     0.049 A 
ATOM     32  H   UNL A   1      41.367  27.586  30.103  1.00  0.00     0.167 HD
ATOM     33  C   UNL A   1      42.352  30.119  31.269  1.00  0.00     0.074 A 
ATOM     34  C   UNL A   1      42.663  29.815  29.876  1.00  0.00     0.031 C 
ATOM     35  C   UNL A   1      41.516  29.521  32.172  1.00  0.00     0.034 A 
BRANCH  22  36
ATOM     36  C   UNL A   1      39.693  26.927  27.826  1.00  0.00     0.023 A 
ATOM     37  C   UNL A   1      39.363  25.548  27.750  1.00  0.00     0.012 A 
ATOM     38  C   UNL A   1      40.795  27.373  27.070  1.00  0.00     0.148 A 
ATOM     39  C   UNL A   1      40.159  24.630  27.064  1.00  0.00     0.002 A 
ATOM     40  C   UNL A   1      41.587  26.448  26.379  1.00  0.00     0.091 A 
ATOM     41  F   UNL A   1      41.077  28.681  27.054  1.00  0.00    -0.205 F 
ATOM     42  C   UNL A   1      41.286  25.078  26.398  1.00  0.00     0.022 A 
BRANCH  40  43
ATOM     43  S   UNL A   1      43.049  26.913  25.444  1.00  0.00     0.127 S 
ATOM     44  O   UNL A   1      43.923  27.415  26.501  1.00  0.00    -0.237 OA
ATOM     45  O   UNL A   1      43.460  25.632  24.867  1.00  0.00    -0.237 OA
ATOM     46  O   UNL A   1      42.579  27.882  24.467  1.00  0.00    -0.744 OA
ENDBRANCH  40  43
ENDBRANCH  22  36
BRANCH  23  47
ATOM     47  C   UNL A   1      43.540  34.199  29.328  1.00  0.00     0.023 A 
ATOM     48  C   UNL A   1      44.206  35.077  30.205  1.00  0.00     0.012 A 
ATOM     49  C   UNL A   1      44.075  33.999  28.037  1.00  0.00     0.148 A 
ATOM     50  C   UNL A   1      45.401  35.696  29.836  1.00  0.00     0.002 A 
ATOM     51  C   UNL A   1      45.268  34.621  27.674  1.00  0.00     0.091 A 
ATOM     52  F   UNL A   1      43.460  33.145  27.208  1.00  0.00    -0.205 F 
ATOM     53  C   UNL A   1      45.940  35.457  28.577  1.00  0.00     0.022 A 
BRANCH  51  54
ATOM     54  S   UNL A   1      46.052  34.369  26.073  1.00  0.00     0.127 S 
ATOM     55  O   UNL A   1      47.165  35.317  26.127  1.00  0.00    -0.237 OA
ATOM     56  O   UNL A   1      46.447  32.964  26.145  1.00  0.00    -0.237 OA
ATOM     57  O   UNL A   1      45.039  34.693  25.078  1.00  0.00    -0.744 OA
ENDBRANCH  51  54
ENDBRANCH  23  47
BRANCH  35  58
ATOM     58  C   UNL A   1      41.293  30.183  33.513  1.00  0.00     0.023 A 
ATOM     59  C   UNL A   1      42.231  30.074  34.559  1.00  0.00     0.012 A 
ATOM     60  C   UNL A   1      40.244  31.111  33.649  1.00  0.00     0.148 A 
ATOM     61  C   UNL A   1      42.119  30.844  35.718  1.00  0.00     0.002 A 
ATOM     62  C   UNL A   1      40.172  31.922  34.778  1.00  0.00     0.091 A 
ATOM     63  F   UNL A   1      39.354  31.224  32.651  1.00  0.00    -0.205 F 
ATOM     64  C   UNL A   1      41.098  31.782  35.821  1.00  0.00     0.022 A 
BRANCH  62  65
ATOM     65  S   UNL A   1      38.985  33.267  34.865  1.00  0.00     0.127 S 
ATOM     66  O   UNL A   1      37.720  32.583  34.623  1.00  0.00    -0.237 OA
ATOM     67  O   UNL A   1      39.159  33.766  36.231  1.00  0.00    -0.237 OA
ATOM     68  O   UNL A   1      39.408  34.215  33.840  1.00  0.00    -0.744 OA
ENDBRANCH  62  65
ENDBRANCH  35  58
ENDBRANCH   9  10
ENDBRANCH   2   4
ENDBRANCH   1   2
BRANCH   1  69
ATOM     69  C   UNL A   1      32.767  33.343  27.700  1.00  0.00     0.275 C 
BRANCH  69  70
ATOM     70  C   UNL A   1      31.906  32.359  26.902  1.00  0.00     0.274 C 
BRANCH  70  71
ATOM     71  O   UNL A   1      32.382  30.993  26.947  1.00  0.00    -0.462 OA
BRANCH  71  72
ATOM     72  C   UNL A   1      31.931  30.241  25.897  1.00  0.00     0.309 C 
ATOM     73  O   UNL A   1      31.024  30.592  25.145  1.00  0.00    -0.252 OA
BRANCH  72  74
ATOM     74  C   UNL A   1      32.604  28.887  25.725  1.00  0.00     0.108 C 
ATOM     75  C   UNL A   1      32.358  28.158  24.397  1.00  0.00     0.070 C 
ATOM     76  C   UNL A   1      32.453  28.005  26.963  1.00  0.00     0.070 C 
ATOM     77  C   UNL A   1      31.260  27.097  24.425  1.00  0.00     0.277 C 
ATOM     78  C   UNL A   1      31.257  27.076  26.875  1.00  0.00     0.277 C 
ATOM     79  N   UNL A   1      31.325  26.305  25.642  1.00  0.00    -0.230 N 
ATOM     80  C   UNL A   1      31.154  24.921  25.682  1.00  0.00     0.383 C 
ATOM     81  N   UNL A   1      30.387  24.383  26.594  1.00  0.00    -0.155 N 
ATOM     82  C   UNL A   1      31.862  24.009  24.692  1.00  0.00     0.523 C 
ATOM     83  C   UNL A   1      30.288  23.008  26.658  1.00  0.00     0.414 C 
ATOM     84  H   UNL A   1      29.889  24.950  27.225  1.00  0.00     0.367 HD
ATOM     85  C   UNL A   1      32.111  22.756  25.446  1.00  0.00     0.389 C 
ATOM     86  N   UNL A   1      33.249  24.441  24.369  1.00  0.00     0.003 NA
ATOM     87  Cl  UNL A   1      28.983  22.394  27.569  1.00  0.00     0.028 Cl
ATOM     88  N   UNL A   1      31.116  22.170  26.140  1.00  0.00    -0.155 N 
ATOM     89  N   UNL A   1      33.356  22.446  25.511  1.00  0.00    -0.169 N 
ATOM     90  C   UNL A   1      33.968  23.450  24.819  1.00  0.00     0.532 C 
ATOM     91  H   UNL A   1      31.030  21.194  26.240  1.00  0.00     0.367 HD
ATOM     92  H   UNL A   1      33.768  21.670  25.954  1.00  0.00     0.365 HD
ENDBRANCH  72  74
ENDBRANCH  71  72
ENDBRANCH  70  71
ENDBRANCH  69  70
ENDBRANCH   1  69
TORSDOF 14
ENDMDL
MODEL 3
REMARK VINA RESULT:     -12.6      1.538      2.153
REMARK SMILES O=C(OCCOC(=O)C1CCN(C2=[NH+]C(Cl)=[NH+]C3=[NH+]C=N[C@@H]32)CC1)c1ccc(-c2c3nc(c(-c4cccc(S(=O)(=O)[O-])c4F)c4ccc([nH]4)c(-c4cccc(S(=O)(=O)[O-])c4F)c4nc(c(-c5cccc(S(=O)(=O)[O-])c5F)c5ccc2[nH]5)C=C4)C=C3)cc1
REMARK SMILES IDX 3 1 2 2 1 3 25 4 26 5 87 6 27 7 86 8 28 9 29 10 30 11 80 12
REMARK SMILES IDX 31 13 85 14 79 15 81 16 32 17 84 18 78 19 77 20 33 22 65 23
REMARK SMILES IDX 45 24 64 25 46 26 49 27 63 28 82 29 47 30 48 31 62 33 83 34
REMARK SMILES IDX 50 35 34 36 35 37 43 38 36 39 38 40 44 41 37 42 39 43 40 44
REMARK SMILES IDX 41 45 42 46 66 47 67 48 75 49 68 50 70 51 76 52 69 53 71 54
REMARK SMILES IDX 72 55 73 56 74 57 51 58 52 59 60 60 53 61 55 62 61 63 54 64
REMARK SMILES IDX 56 65 57 66 58 67 59 68 4 69 5 70 6 71 7 72 8 73 9 74 10 75
REMARK SMILES IDX 24 76 11 77 23 78 12 79 13 80 14 81 22 82 15 83 18 85 21 86
REMARK SMILES IDX 16 87 17 88 19 89 20 90
REMARK H PARENT 81 21 49 32 14 84 17 91 19 92
REMARK Flexibility Score: inf
ROOT
ATOM      1  O   UNL A   1      40.518  18.757  26.091  1.00  0.00    -0.458 OA
ENDROOT
BRANCH   1   2
ATOM      2  C   UNL A   1      41.841  19.010  26.045  1.00  0.00     0.338 C 
ATOM      3  O   UNL A   1      42.672  18.279  25.537  1.00  0.00    -0.246 OA
BRANCH   2   4
ATOM      4  C   UNL A   1      42.150  20.333  26.640  1.00  0.00     0.060 A 
ATOM      5  C   UNL A   1      42.829  21.336  25.932  1.00  0.00     0.016 A 
ATOM      6  C   UNL A   1      41.603  20.616  27.889  1.00  0.00     0.016 A 
ATOM      7  C   UNL A   1      42.950  22.622  26.465  1.00  0.00     0.010 A 
ATOM      8  C   UNL A   1      41.653  21.917  28.375  1.00  0.00     0.010 A 
ATOM      9  C   UNL A   1      42.340  22.931  27.682  1.00  0.00    -0.014 A 
BRANCH   9  10
ATOM     10  C   UNL A   1      42.381  24.300  28.244  1.00  0.00     0.031 A 
ATOM     11  C   UNL A   1      41.230  25.278  28.018  1.00  0.00     0.074 A 
ATOM     12  C   UNL A   1      43.333  24.591  29.164  1.00  0.00     0.049 A 
ATOM     13  N   UNL A   1      41.101  26.484  28.503  1.00  0.00    -0.248 NA
ATOM     14  C   UNL A   1      40.069  24.886  27.199  1.00  0.00     0.031 C 
ATOM     15  C   UNL A   1      44.369  23.704  29.721  1.00  0.00     0.029 A 
ATOM     16  N   UNL A   1      43.443  25.705  29.942  1.00  0.00    -0.354 N 
ATOM     17  C   UNL A   1      39.841  26.972  28.136  1.00  0.00     0.074 A 
ATOM     18  C   UNL A   1      39.253  25.939  27.308  1.00  0.00     0.031 C 
ATOM     19  C   UNL A   1      44.772  24.189  30.915  1.00  0.00     0.029 A 
ATOM     20  C   UNL A   1      44.176  25.496  31.106  1.00  0.00     0.049 A 
ATOM     21  H   UNL A   1      43.042  26.573  29.704  1.00  0.00     0.167 HD
ATOM     22  C   UNL A   1      39.561  28.279  27.859  1.00  0.00     0.034 A 
ATOM     23  C   UNL A   1      44.258  26.328  32.167  1.00  0.00     0.034 A 
ATOM     24  C   UNL A   1      40.704  28.963  27.337  1.00  0.00     0.049 A 
ATOM     25  C   UNL A   1      43.896  27.677  31.685  1.00  0.00     0.074 A 
ATOM     26  C   UNL A   1      41.376  28.979  26.137  1.00  0.00     0.029 A 
ATOM     27  N   UNL A   1      41.485  29.643  28.235  1.00  0.00    -0.354 N 
ATOM     28  N   UNL A   1      44.622  28.372  30.853  1.00  0.00    -0.248 NA
ATOM     29  C   UNL A   1      42.559  28.188  31.932  1.00  0.00     0.031 C 
ATOM     30  C   UNL A   1      42.717  29.323  26.469  1.00  0.00     0.029 A 
ATOM     31  C   UNL A   1      42.786  29.489  27.855  1.00  0.00     0.049 A 
ATOM     32  H   UNL A   1      41.164  30.152  29.014  1.00  0.00     0.167 HD
ATOM     33  C   UNL A   1      43.694  29.106  30.133  1.00  0.00     0.074 A 
ATOM     34  C   UNL A   1      42.500  29.114  30.973  1.00  0.00     0.031 C 
ATOM     35  C   UNL A   1      43.877  29.349  28.799  1.00  0.00     0.034 A 
BRANCH  22  36
ATOM     36  C   UNL A   1      38.508  29.044  28.644  1.00  0.00     0.023 A 
ATOM     37  C   UNL A   1      38.339  28.694  30.009  1.00  0.00     0.012 A 
ATOM     38  C   UNL A   1      37.574  29.938  28.082  1.00  0.00     0.148 A 
ATOM     39  C   UNL A   1      37.229  29.104  30.750  1.00  0.00     0.002 A 
ATOM     40  C   UNL A   1      36.466  30.350  28.832  1.00  0.00     0.091 A 
ATOM     41  F   UNL A   1      37.757  30.352  26.823  1.00  0.00    -0.205 F 
ATOM     42  C   UNL A   1      36.280  29.914  30.152  1.00  0.00     0.022 A 
BRANCH  40  43
ATOM     43  S   UNL A   1      35.190  31.434  28.180  1.00  0.00     0.127 S 
ATOM     44  O   UNL A   1      34.518  30.553  27.228  1.00  0.00    -0.237 OA
ATOM     45  O   UNL A   1      34.412  31.743  29.382  1.00  0.00    -0.237 OA
ATOM     46  O   UNL A   1      35.906  32.571  27.628  1.00  0.00    -0.744 OA
ENDBRANCH  40  43
ENDBRANCH  22  36
BRANCH  23  47
ATOM     47  C   UNL A   1      44.568  26.087  33.589  1.00  0.00     0.023 A 
ATOM     48  C   UNL A   1      45.910  26.182  34.010  1.00  0.00     0.012 A 
ATOM     49  C   UNL A   1      43.554  26.043  34.571  1.00  0.00     0.148 A 
ATOM     50  C   UNL A   1      46.236  26.286  35.363  1.00  0.00     0.002 A 
ATOM     51  C   UNL A   1      43.886  26.147  35.921  1.00  0.00     0.091 A 
ATOM     52  F   UNL A   1      42.276  25.979  34.176  1.00  0.00    -0.205 F 
ATOM     53  C   UNL A   1      45.224  26.284  36.317  1.00  0.00     0.022 A 
BRANCH  51  54
ATOM     54  S   UNL A   1      42.652  26.163  37.231  1.00  0.00     0.127 S 
ATOM     55  O   UNL A   1      42.037  24.843  37.085  1.00  0.00    -0.237 OA
ATOM     56  O   UNL A   1      43.478  26.320  38.425  1.00  0.00    -0.237 OA
ATOM     57  O   UNL A   1      41.761  27.274  36.925  1.00  0.00    -0.744 OA
ENDBRANCH  51  54
ENDBRANCH  23  47
BRANCH  35  58
ATOM     58  C   UNL A   1      45.238  29.101  28.190  1.00  0.00     0.023 A 
ATOM     59  C   UNL A   1      46.293  30.025  28.331  1.00  0.00     0.012 A 
ATOM     60  C   UNL A   1      45.529  27.828  27.668  1.00  0.00     0.148 A 
ATOM     61  C   UNL A   1      47.595  29.706  27.941  1.00  0.00     0.002 A 
ATOM     62  C   UNL A   1      46.840  27.490  27.340  1.00  0.00     0.091 A 
ATOM     63  F   UNL A   1      44.529  26.942  27.540  1.00  0.00    -0.205 F 
ATOM     64  C   UNL A   1      47.872  28.431  27.461  1.00  0.00     0.022 A 
BRANCH  62  65
ATOM     65  S   UNL A   1      47.268  25.804  26.896  1.00  0.00     0.127 S 
ATOM     66  O   UNL A   1      48.701  25.904  26.641  1.00  0.00    -0.237 OA
ATOM     67  O   UNL A   1      46.913  25.050  28.101  1.00  0.00    -0.237 OA
ATOM     68  O   UNL A   1      46.432  25.489  25.743  1.00  0.00    -0.744 OA
ENDBRANCH  62  65
ENDBRANCH  35  58
ENDBRANCH   9  10
ENDBRANCH   2   4
ENDBRANCH   1   2
BRANCH   1  69
ATOM     69  C   UNL A   1      39.655  19.547  25.257  1.00  0.00     0.275 C 
BRANCH  69  70
ATOM     70  C   UNL A   1      38.763  20.604  25.913  1.00  0.00     0.274 C 
BRANCH  70  71
ATOM     71  O   UNL A   1      38.022  21.417  24.971  1.00  0.00    -0.462 OA
BRANCH  71  72
ATOM     72  C   UNL A   1      36.702  21.070  24.897  1.00  0.00     0.309 C 
ATOM     73  O   UNL A   1      36.291  19.916  25.001  1.00  0.00    -0.252 OA
BRANCH  72  74
ATOM     74  C   UNL A   1      35.737  22.216  24.630  1.00  0.00     0.108 C 
ATOM     75  C   UNL A   1      35.714  23.354  25.659  1.00  0.00     0.070 C 
ATOM     76  C   UNL A   1      34.354  21.722  24.209  1.00  0.00     0.070 C 
ATOM     77  C   UNL A   1      34.605  23.270  26.705  1.00  0.00     0.277 C 
ATOM     78  C   UNL A   1      33.398  21.600  25.380  1.00  0.00     0.277 C 
ATOM     79  N   UNL A   1      33.346  22.860  26.105  1.00  0.00    -0.230 N 
ATOM     80  C   UNL A   1      32.110  23.424  26.424  1.00  0.00     0.383 C 
ATOM     81  N   UNL A   1      31.077  22.654  26.640  1.00  0.00    -0.155 N 
ATOM     82  C   UNL A   1      31.928  24.932  26.507  1.00  0.00     0.523 C 
ATOM     83  C   UNL A   1      29.849  23.235  26.886  1.00  0.00     0.414 C 
ATOM     84  H   UNL A   1      31.173  21.675  26.628  1.00  0.00     0.367 HD
ATOM     85  C   UNL A   1      30.529  25.166  26.073  1.00  0.00     0.389 C 
ATOM     86  N   UNL A   1      32.690  25.683  25.473  1.00  0.00     0.003 NA
ATOM     87  Cl  UNL A   1      28.660  22.214  27.560  1.00  0.00     0.028 Cl
ATOM     88  N   UNL A   1      29.522  24.447  26.604  1.00  0.00    -0.155 N 
ATOM     89  N   UNL A   1      30.443  25.942  25.053  1.00  0.00    -0.169 N 
ATOM     90  C   UNL A   1      31.743  26.249  24.777  1.00  0.00     0.532 C 
ATOM     91  H   UNL A   1      28.622  24.814  26.761  1.00  0.00     0.367 HD
ATOM     92  H   UNL A   1      29.631  26.242  24.582  1.00  0.00     0.365 HD
ENDBRANCH  72  74
ENDBRANCH  71  72
ENDBRANCH  70  71
ENDBRANCH  69  70
ENDBRANCH   1  69
TORSDOF 14
ENDMDL
