MODEL 1
REMARK VINA RESULT:     -12.4      0.000      0.000
REMARK SMILES COc1ccc([C@H](NC(=O)[C@H]2CC(C)=C(C)C[C@@H]2C(=O)OCCOC(=O)c2ccc(-c3c4nc(c(-c5cccc(S(=O)(=O)[O-])c5F)c5ccc([nH]5)c(-c5cccc(S(=O)(=O)[O-])c5F)c5nc(c(-c6cccc(S(=O)(=O)[O-])c6F)c6ccc3[nH]6)C=C5)C=C4)cc2)c2ccccc2)cc1
REMARK SMILES IDX 22 1 21 2 19 3 20 4 18 5 11 6 12 7 13 8 17 9 14 10 15 11
REMARK SMILES IDX 16 12 9 13 8 14 10 16 7 17 6 18 3 19 4 20 97 21 5 22 96 23
REMARK SMILES IDX 2 24 1 25 90 26 91 27 95 28 92 29 94 30 93 31 23 32 24 33
REMARK SMILES IDX 25 34 26 35 27 36 28 37 89 38 29 39 88 40 30 41 31 42 32 43
REMARK SMILES IDX 82 44 33 45 87 46 81 47 83 48 34 49 86 50 80 51 79 52 35 54
REMARK SMILES IDX 67 55 47 56 66 57 48 58 51 59 65 60 84 61 49 62 50 63 64 65
REMARK SMILES IDX 85 66 52 67 36 68 37 69 45 70 38 71 40 72 46 73 39 74 41 75
REMARK SMILES IDX 42 76 43 77 44 78 68 79 69 80 77 81 70 82 72 83 78 84 71 85
REMARK SMILES IDX 73 86 74 87 75 88 76 89 53 90 54 91 62 92 55 93 57 94 63 95
REMARK SMILES IDX 56 96 58 97 59 98 60 99 61 100
REMARK H PARENT 8 15 83 53 51 64
REMARK Flexibility Score: inf
ROOT
ATOM      1  C   UNL A   1      31.502  28.184  27.733  1.00  0.00     0.274 C 
ENDROOT
BRANCH   1   2
ATOM      2  O   UNL A   1      31.148  27.047  26.912  1.00  0.00    -0.462 OA
BRANCH   2   3
ATOM      3  C   UNL A   1      32.159  26.505  26.156  1.00  0.00     0.310 C 
ATOM      4  O   UNL A   1      33.326  26.507  26.477  1.00  0.00    -0.252 OA
BRANCH   3   5
ATOM      5  C   UNL A   1      31.604  25.895  24.860  1.00  0.00     0.116 C 
ATOM      6  C   UNL A   1      32.733  25.279  24.013  1.00  0.00     0.097 C 
ATOM      7  C   UNL A   1      33.519  26.316  23.178  1.00  0.00     0.045 C 
ATOM      8  C   UNL A   1      32.905  27.691  22.994  1.00  0.00    -0.074 C 
ATOM      9  C   UNL A   1      30.801  26.962  24.112  1.00  0.00     0.046 C 
ATOM     10  C   UNL A   1      33.836  28.689  22.345  1.00  0.00     0.039 C 
ATOM     11  C   UNL A   1      31.652  27.986  23.399  1.00  0.00    -0.073 C 
ATOM     12  C   UNL A   1      31.022  29.340  23.206  1.00  0.00     0.039 C 
BRANCH   6  13
ATOM     13  C   UNL A   1      32.193  24.164  23.118  1.00  0.00     0.225 C 
ATOM     14  N   UNL A   1      32.373  22.845  23.417  1.00  0.00    -0.345 N 
ATOM     15  H   UNL A   1      32.022  22.235  22.730  1.00  0.00     0.164 HD
ATOM     16  O   UNL A   1      31.562  24.429  22.091  1.00  0.00    -0.275 OA
BRANCH  14  17
ATOM     17  C   UNL A   1      32.987  22.154  24.562  1.00  0.00     0.143 C 
BRANCH  17  18
ATOM     18  C   UNL A   1      32.863  20.629  24.469  1.00  0.00    -0.021 A 
ATOM     19  C   UNL A   1      32.593  17.814  24.415  1.00  0.00     0.118 A 
ATOM     20  C   UNL A   1      32.955  18.460  25.595  1.00  0.00     0.047 A 
ATOM     21  C   UNL A   1      32.384  18.570  23.260  1.00  0.00     0.047 A 
ATOM     22  C   UNL A   1      33.097  19.849  25.621  1.00  0.00     0.010 A 
ATOM     23  C   UNL A   1      32.525  19.962  23.284  1.00  0.00     0.010 A 
BRANCH  19  24
ATOM     24  O   UNL A   1      32.463  16.457  24.522  1.00  0.00    -0.497 OA
ATOM     25  C   UNL A   1      33.437  15.792  25.314  1.00  0.00     0.278 C 
ENDBRANCH  19  24
ENDBRANCH  17  18
BRANCH  17  26
ATOM     26  C   UNL A   1      34.439  22.632  24.726  1.00  0.00    -0.021 A 
ATOM     27  C   UNL A   1      34.930  23.210  25.914  1.00  0.00     0.006 A 
ATOM     28  C   UNL A   1      35.325  22.524  23.640  1.00  0.00     0.006 A 
ATOM     29  C   UNL A   1      36.236  23.686  26.009  1.00  0.00     0.000 A 
ATOM     30  C   UNL A   1      36.645  22.970  23.747  1.00  0.00     0.000 A 
ATOM     31  C   UNL A   1      37.095  23.553  24.928  1.00  0.00     0.000 A 
ENDBRANCH  17  26
ENDBRANCH  14  17
ENDBRANCH   6  13
ENDBRANCH   3   5
ENDBRANCH   2   3
ENDBRANCH   1   2
BRANCH   1  32
ATOM     32  C   UNL A   1      31.399  29.537  26.995  1.00  0.00     0.275 C 
BRANCH  32  33
ATOM     33  O   UNL A   1      32.626  29.959  26.345  1.00  0.00    -0.458 OA
BRANCH  33  34
ATOM     34  C   UNL A   1      33.195  31.002  26.968  1.00  0.00     0.338 C 
ATOM     35  O   UNL A   1      32.605  32.011  27.314  1.00  0.00    -0.246 OA
BRANCH  34  36
ATOM     36  C   UNL A   1      34.613  30.878  27.329  1.00  0.00     0.060 A 
ATOM     37  C   UNL A   1      35.014  29.592  27.685  1.00  0.00     0.016 A 
ATOM     38  C   UNL A   1      35.389  31.977  27.708  1.00  0.00     0.016 A 
ATOM     39  C   UNL A   1      36.093  29.405  28.535  1.00  0.00     0.010 A 
ATOM     40  C   UNL A   1      36.555  31.771  28.470  1.00  0.00     0.010 A 
ATOM     41  C   UNL A   1      36.900  30.487  28.927  1.00  0.00    -0.014 A 
BRANCH  41  42
ATOM     42  C   UNL A   1      38.136  30.187  29.711  1.00  0.00     0.031 A 
ATOM     43  C   UNL A   1      38.422  30.768  31.073  1.00  0.00     0.074 A 
ATOM     44  C   UNL A   1      39.001  29.290  29.194  1.00  0.00     0.049 A 
ATOM     45  N   UNL A   1      39.372  30.435  31.914  1.00  0.00    -0.248 NA
ATOM     46  C   UNL A   1      37.544  31.839  31.563  1.00  0.00     0.031 C 
ATOM     47  C   UNL A   1      38.873  28.673  27.871  1.00  0.00     0.029 A 
ATOM     48  N   UNL A   1      40.144  28.731  29.711  1.00  0.00    -0.354 N 
ATOM     49  C   UNL A   1      39.187  31.224  33.044  1.00  0.00     0.074 A 
ATOM     50  C   UNL A   1      38.073  32.101  32.756  1.00  0.00     0.031 C 
ATOM     51  C   UNL A   1      39.876  27.806  27.690  1.00  0.00     0.029 A 
ATOM     52  C   UNL A   1      40.758  27.853  28.850  1.00  0.00     0.049 A 
ATOM     53  H   UNL A   1      40.488  28.938  30.609  1.00  0.00     0.167 HD
ATOM     54  C   UNL A   1      39.847  31.179  34.228  1.00  0.00     0.034 A 
ATOM     55  C   UNL A   1      41.919  27.177  28.951  1.00  0.00     0.034 A 
ATOM     56  C   UNL A   1      40.965  30.317  34.514  1.00  0.00     0.049 A 
ATOM     57  C   UNL A   1      42.720  27.274  30.210  1.00  0.00     0.074 A 
ATOM     58  C   UNL A   1      41.632  30.146  35.717  1.00  0.00     0.029 A 
ATOM     59  N   UNL A   1      41.608  29.515  33.587  1.00  0.00    -0.354 N 
ATOM     60  N   UNL A   1      42.410  27.871  31.334  1.00  0.00    -0.248 NA
ATOM     61  C   UNL A   1      44.022  26.593  30.226  1.00  0.00     0.031 C 
ATOM     62  C   UNL A   1      42.697  29.261  35.508  1.00  0.00     0.029 A 
ATOM     63  C   UNL A   1      42.694  28.887  34.176  1.00  0.00     0.049 A 
ATOM     64  H   UNL A   1      41.334  29.408  32.647  1.00  0.00     0.167 HD
ATOM     65  C   UNL A   1      43.469  27.627  32.197  1.00  0.00     0.074 A 
ATOM     66  C   UNL A   1      44.420  26.809  31.474  1.00  0.00     0.031 C 
ATOM     67  C   UNL A   1      43.637  28.058  33.471  1.00  0.00     0.034 A 
BRANCH  54  68
ATOM     68  C   UNL A   1      39.321  32.003  35.372  1.00  0.00     0.023 A 
ATOM     69  C   UNL A   1      38.454  31.375  36.289  1.00  0.00     0.012 A 
ATOM     70  C   UNL A   1      39.767  33.311  35.629  1.00  0.00     0.148 A 
ATOM     71  C   UNL A   1      38.020  32.040  37.435  1.00  0.00     0.002 A 
ATOM     72  C   UNL A   1      39.345  33.962  36.787  1.00  0.00     0.091 A 
ATOM     73  F   UNL A   1      40.585  33.896  34.745  1.00  0.00    -0.205 F 
ATOM     74  C   UNL A   1      38.470  33.332  37.687  1.00  0.00     0.022 A 
BRANCH  72  75
ATOM     75  S   UNL A   1      39.936  35.603  37.223  1.00  0.00     0.127 S 
ATOM     76  O   UNL A   1      39.215  35.854  38.470  1.00  0.00    -0.237 OA
ATOM     77  O   UNL A   1      41.375  35.393  37.385  1.00  0.00    -0.237 OA
ATOM     78  O   UNL A   1      39.577  36.456  36.098  1.00  0.00    -0.744 OA
ENDBRANCH  72  75
ENDBRANCH  54  68
BRANCH  55  79
ATOM     79  C   UNL A   1      42.364  26.350  27.797  1.00  0.00     0.023 A 
ATOM     80  C   UNL A   1      43.368  26.824  26.936  1.00  0.00     0.012 A 
ATOM     81  C   UNL A   1      41.872  25.040  27.628  1.00  0.00     0.148 A 
ATOM     82  C   UNL A   1      43.881  26.001  25.931  1.00  0.00     0.002 A 
ATOM     83  C   UNL A   1      42.440  24.204  26.677  1.00  0.00     0.091 A 
ATOM     84  F   UNL A   1      40.887  24.617  28.434  1.00  0.00    -0.205 F 
ATOM     85  C   UNL A   1      43.436  24.684  25.817  1.00  0.00     0.022 A 
BRANCH  83  86
ATOM     86  S   UNL A   1      42.034  22.453  26.638  1.00  0.00     0.127 S 
ATOM     87  O   UNL A   1      40.579  22.481  26.538  1.00  0.00    -0.237 OA
ATOM     88  O   UNL A   1      42.726  21.993  25.434  1.00  0.00    -0.237 OA
ATOM     89  O   UNL A   1      42.589  21.920  27.876  1.00  0.00    -0.744 OA
ENDBRANCH  83  86
ENDBRANCH  55  79
BRANCH  67  90
ATOM     90  C   UNL A   1      44.913  27.677  34.169  1.00  0.00     0.023 A 
ATOM     91  C   UNL A   1      46.008  28.563  34.125  1.00  0.00     0.012 A 
ATOM     92  C   UNL A   1      45.023  26.481  34.901  1.00  0.00     0.148 A 
ATOM     93  C   UNL A   1      47.201  28.251  34.777  1.00  0.00     0.002 A 
ATOM     94  C   UNL A   1      46.202  26.195  35.582  1.00  0.00     0.091 A 
ATOM     95  F   UNL A   1      43.983  25.633  34.915  1.00  0.00    -0.205 F 
ATOM     96  C   UNL A   1      47.295  27.073  35.514  1.00  0.00     0.022 A 
BRANCH  94  97
ATOM     97  S   UNL A   1      46.343  24.735  36.619  1.00  0.00     0.127 S 
ATOM     98  O   UNL A   1      46.199  23.656  35.645  1.00  0.00    -0.237 OA
ATOM     99  O   UNL A   1      47.684  24.866  37.188  1.00  0.00    -0.237 OA
ATOM    100  O   UNL A   1      45.268  24.864  37.597  1.00  0.00    -0.744 OA
ENDBRANCH  94  97
ENDBRANCH  67  90
ENDBRANCH  41  42
ENDBRANCH  34  36
ENDBRANCH  33  34
ENDBRANCH  32  33
ENDBRANCH   1  32
TORSDOF 19
ENDMDL
MODEL 2
REMARK VINA RESULT:     -12.3      4.851     10.114
REMARK SMILES COc1ccc([C@H](NC(=O)[C@H]2CC(C)=C(C)C[C@@H]2C(=O)OCCOC(=O)c2ccc(-c3c4nc(c(-c5cccc(S(=O)(=O)[O-])c5F)c5ccc([nH]5)c(-c5cccc(S(=O)(=O)[O-])c5F)c5nc(c(-c6cccc(S(=O)(=O)[O-])c6F)c6ccc3[nH]6)C=C5)C=C4)cc2)c2ccccc2)cc1
REMARK SMILES IDX 22 1 21 2 19 3 20 4 18 5 11 6 12 7 13 8 17 9 14 10 15 11
REMARK SMILES IDX 16 12 9 13 8 14 10 16 7 17 6 18 3 19 4 20 97 21 5 22 96 23
REMARK SMILES IDX 2 24 1 25 90 26 91 27 95 28 92 29 94 30 93 31 23 32 24 33
REMARK SMILES IDX 25 34 26 35 27 36 28 37 89 38 29 39 88 40 30 41 31 42 32 43
REMARK SMILES IDX 82 44 33 45 87 46 81 47 83 48 34 49 86 50 80 51 79 52 35 54
REMARK SMILES IDX 67 55 47 56 66 57 48 58 51 59 65 60 84 61 49 62 50 63 64 65
REMARK SMILES IDX 85 66 52 67 36 68 37 69 45 70 38 71 40 72 46 73 39 74 41 75
REMARK SMILES IDX 42 76 43 77 44 78 68 79 69 80 77 81 70 82 72 83 78 84 71 85
REMARK SMILES IDX 73 86 74 87 75 88 76 89 53 90 54 91 62 92 55 93 57 94 63 95
REMARK SMILES IDX 56 96 58 97 59 98 60 99 61 100
REMARK H PARENT 8 15 83 53 51 64
REMARK Flexibility Score: inf
ROOT
ATOM      1  C   UNL A   1      35.986  21.310  25.132  1.00  0.00     0.274 C 
ENDROOT
BRANCH   1   2
ATOM      2  O   UNL A   1      35.692  22.085  23.946  1.00  0.00    -0.462 OA
BRANCH   2   3
ATOM      3  C   UNL A   1      35.350  23.399  24.148  1.00  0.00     0.310 C 
ATOM      4  O   UNL A   1      35.781  24.085  25.048  1.00  0.00    -0.252 OA
BRANCH   3   5
ATOM      5  C   UNL A   1      34.359  23.876  23.075  1.00  0.00     0.116 C 
ATOM      6  C   UNL A   1      33.441  24.983  23.627  1.00  0.00     0.097 C 
ATOM      7  C   UNL A   1      32.260  24.447  24.467  1.00  0.00     0.045 C 
ATOM      8  C   UNL A   1      31.925  22.971  24.362  1.00  0.00    -0.074 C 
ATOM      9  C   UNL A   1      33.591  22.668  22.535  1.00  0.00     0.046 C 
ATOM     10  C   UNL A   1      30.899  22.509  25.369  1.00  0.00     0.039 C 
ATOM     11  C   UNL A   1      32.516  22.157  23.463  1.00  0.00    -0.073 C 
ATOM     12  C   UNL A   1      32.180  20.695  23.333  1.00  0.00     0.039 C 
BRANCH   6  13
ATOM     13  C   UNL A   1      32.935  25.881  22.498  1.00  0.00     0.225 C 
ATOM     14  N   UNL A   1      31.900  26.751  22.675  1.00  0.00    -0.345 N 
ATOM     15  H   UNL A   1      31.642  27.228  21.853  1.00  0.00     0.164 HD
ATOM     16  O   UNL A   1      33.463  25.850  21.383  1.00  0.00    -0.275 OA
BRANCH  14  17
ATOM     17  C   UNL A   1      31.092  27.120  23.847  1.00  0.00     0.143 C 
BRANCH  17  18
ATOM     18  C   UNL A   1      31.930  27.724  24.979  1.00  0.00    -0.021 A 
ATOM     19  C   UNL A   1      33.513  28.931  26.988  1.00  0.00     0.118 A 
ATOM     20  C   UNL A   1      33.910  28.992  25.655  1.00  0.00     0.047 A 
ATOM     21  C   UNL A   1      32.338  28.254  27.321  1.00  0.00     0.047 A 
ATOM     22  C   UNL A   1      33.134  28.389  24.663  1.00  0.00     0.010 A 
ATOM     23  C   UNL A   1      31.558  27.650  26.327  1.00  0.00     0.010 A 
BRANCH  19  24
ATOM     24  O   UNL A   1      34.342  29.578  27.863  1.00  0.00    -0.497 OA
ATOM     25  C   UNL A   1      35.734  29.349  27.697  1.00  0.00     0.278 C 
ENDBRANCH  19  24
ENDBRANCH  17  18
BRANCH  17  26
ATOM     26  C   UNL A   1      29.935  28.031  23.402  1.00  0.00    -0.021 A 
ATOM     27  C   UNL A   1      28.579  27.658  23.503  1.00  0.00     0.006 A 
ATOM     28  C   UNL A   1      30.226  29.284  22.836  1.00  0.00     0.006 A 
ATOM     29  C   UNL A   1      27.559  28.485  23.035  1.00  0.00     0.000 A 
ATOM     30  C   UNL A   1      29.201  30.127  22.399  1.00  0.00     0.000 A 
ATOM     31  C   UNL A   1      27.872  29.724  22.497  1.00  0.00     0.000 A 
ENDBRANCH  17  26
ENDBRANCH  14  17
ENDBRANCH   6  13
ENDBRANCH   3   5
ENDBRANCH   2   3
ENDBRANCH   1   2
BRANCH   1  32
ATOM     32  C   UNL A   1      37.414  20.722  25.150  1.00  0.00     0.275 C 
BRANCH  32  33
ATOM     33  O   UNL A   1      38.471  21.716  25.145  1.00  0.00    -0.458 OA
BRANCH  33  34
ATOM     34  C   UNL A   1      39.377  21.494  26.110  1.00  0.00     0.338 C 
ATOM     35  O   UNL A   1      39.954  20.435  26.291  1.00  0.00    -0.246 OA
BRANCH  34  36
ATOM     36  C   UNL A   1      39.754  22.635  26.952  1.00  0.00     0.060 A 
ATOM     37  C   UNL A   1      39.271  23.868  26.516  1.00  0.00     0.016 A 
ATOM     38  C   UNL A   1      40.833  22.588  27.840  1.00  0.00     0.016 A 
ATOM     39  C   UNL A   1      39.944  25.037  26.838  1.00  0.00     0.010 A 
ATOM     40  C   UNL A   1      41.437  23.788  28.261  1.00  0.00     0.010 A 
ATOM     41  C   UNL A   1      41.026  25.026  27.735  1.00  0.00    -0.014 A 
BRANCH  41  42
ATOM     42  C   UNL A   1      41.595  26.341  28.158  1.00  0.00     0.031 A 
ATOM     43  C   UNL A   1      43.029  26.743  27.920  1.00  0.00     0.074 A 
ATOM     44  C   UNL A   1      40.753  27.235  28.714  1.00  0.00     0.049 A 
ATOM     45  N   UNL A   1      43.578  27.924  28.083  1.00  0.00    -0.248 NA
ATOM     46  C   UNL A   1      43.963  25.717  27.438  1.00  0.00     0.031 C 
ATOM     47  C   UNL A   1      39.348  26.973  29.037  1.00  0.00     0.029 A 
ATOM     48  N   UNL A   1      40.942  28.541  29.096  1.00  0.00    -0.354 N 
ATOM     49  C   UNL A   1      44.905  27.795  27.689  1.00  0.00     0.074 A 
ATOM     50  C   UNL A   1      45.098  26.404  27.342  1.00  0.00     0.031 C 
ATOM     51  C   UNL A   1      38.797  28.083  29.541  1.00  0.00     0.029 A 
ATOM     52  C   UNL A   1      39.820  29.116  29.644  1.00  0.00     0.049 A 
ATOM     53  H   UNL A   1      41.796  29.018  28.987  1.00  0.00     0.167 HD
ATOM     54  C   UNL A   1      45.853  28.757  27.574  1.00  0.00     0.034 A 
ATOM     55  C   UNL A   1      39.625  30.326  30.203  1.00  0.00     0.034 A 
ATOM     56  C   UNL A   1      45.669  30.141  27.931  1.00  0.00     0.049 A 
ATOM     57  C   UNL A   1      40.744  31.320  30.214  1.00  0.00     0.074 A 
ATOM     58  C   UNL A   1      46.550  31.197  27.760  1.00  0.00     0.029 A 
ATOM     59  N   UNL A   1      44.551  30.655  28.566  1.00  0.00    -0.354 N 
ATOM     60  N   UNL A   1      41.923  31.232  29.651  1.00  0.00    -0.248 NA
ATOM     61  C   UNL A   1      40.504  32.585  30.922  1.00  0.00     0.031 C 
ATOM     62  C   UNL A   1      45.975  32.345  28.318  1.00  0.00     0.029 A 
ATOM     63  C   UNL A   1      44.740  32.001  28.840  1.00  0.00     0.049 A 
ATOM     64  H   UNL A   1      43.742  30.141  28.789  1.00  0.00     0.167 HD
ATOM     65  C   UNL A   1      42.562  32.434  29.921  1.00  0.00     0.074 A 
ATOM     66  C   UNL A   1      41.630  33.243  30.680  1.00  0.00     0.031 C 
ATOM     67  C   UNL A   1      43.815  32.820  29.579  1.00  0.00     0.034 A 
BRANCH  54  68
ATOM     68  C   UNL A   1      47.163  28.397  26.928  1.00  0.00     0.023 A 
ATOM     69  C   UNL A   1      48.288  28.245  27.766  1.00  0.00     0.012 A 
ATOM     70  C   UNL A   1      47.272  28.075  25.564  1.00  0.00     0.148 A 
ATOM     71  C   UNL A   1      49.507  27.800  27.254  1.00  0.00     0.002 A 
ATOM     72  C   UNL A   1      48.487  27.612  25.064  1.00  0.00     0.091 A 
ATOM     73  F   UNL A   1      46.196  28.231  24.780  1.00  0.00    -0.205 F 
ATOM     74  C   UNL A   1      49.604  27.478  25.905  1.00  0.00     0.022 A 
BRANCH  72  75
ATOM     75  S   UNL A   1      48.679  27.106  23.350  1.00  0.00     0.127 S 
ATOM     76  O   UNL A   1      48.084  28.237  22.641  1.00  0.00    -0.237 OA
ATOM     77  O   UNL A   1      50.133  26.998  23.210  1.00  0.00    -0.237 OA
ATOM     78  O   UNL A   1      47.970  25.840  23.237  1.00  0.00    -0.744 OA
ENDBRANCH  72  75
ENDBRANCH  54  68
BRANCH  55  79
ATOM     79  C   UNL A   1      38.294  30.633  30.791  1.00  0.00     0.023 A 
ATOM     80  C   UNL A   1      37.983  30.207  32.093  1.00  0.00     0.012 A 
ATOM     81  C   UNL A   1      37.381  31.453  30.097  1.00  0.00     0.148 A 
ATOM     82  C   UNL A   1      36.789  30.603  32.699  1.00  0.00     0.002 A 
ATOM     83  C   UNL A   1      36.233  31.904  30.733  1.00  0.00     0.091 A 
ATOM     84  F   UNL A   1      37.675  31.819  28.841  1.00  0.00    -0.205 F 
ATOM     85  C   UNL A   1      35.926  31.471  32.029  1.00  0.00     0.022 A 
BRANCH  83  86
ATOM     86  S   UNL A   1      35.207  33.174  29.980  1.00  0.00     0.127 S 
ATOM     87  O   UNL A   1      34.674  32.481  28.813  1.00  0.00    -0.237 OA
ATOM     88  O   UNL A   1      34.228  33.456  31.029  1.00  0.00    -0.237 OA
ATOM     89  O   UNL A   1      36.123  34.276  29.716  1.00  0.00    -0.744 OA
ENDBRANCH  83  86
ENDBRANCH  55  79
BRANCH  67  90
ATOM     90  C   UNL A   1      44.274  34.174  30.042  1.00  0.00     0.023 A 
ATOM     91  C   UNL A   1      45.030  34.273  31.228  1.00  0.00     0.012 A 
ATOM     92  C   UNL A   1      44.006  35.337  29.297  1.00  0.00     0.148 A 
ATOM     93  C   UNL A   1      45.488  35.510  31.677  1.00  0.00     0.002 A 
ATOM     94  C   UNL A   1      44.500  36.563  29.731  1.00  0.00     0.091 A 
ATOM     95  F   UNL A   1      43.263  35.236  28.184  1.00  0.00    -0.205 F 
ATOM     96  C   UNL A   1      45.233  36.654  30.924  1.00  0.00     0.022 A 
BRANCH  94  97
ATOM     97  S   UNL A   1      44.276  38.053  28.750  1.00  0.00     0.127 S 
ATOM     98  O   UNL A   1      44.956  39.057  29.565  1.00  0.00    -0.237 OA
ATOM     99  O   UNL A   1      44.956  37.724  27.497  1.00  0.00    -0.237 OA
ATOM    100  O   UNL A   1      42.831  38.202  28.620  1.00  0.00    -0.744 OA
ENDBRANCH  94  97
ENDBRANCH  67  90
ENDBRANCH  41  42
ENDBRANCH  34  36
ENDBRANCH  33  34
ENDBRANCH  32  33
ENDBRANCH   1  32
TORSDOF 19
ENDMDL
MODEL 3
REMARK VINA RESULT:     -12.0      2.186      7.700
REMARK SMILES COc1ccc([C@H](NC(=O)[C@H]2CC(C)=C(C)C[C@@H]2C(=O)OCCOC(=O)c2ccc(-c3c4nc(c(-c5cccc(S(=O)(=O)[O-])c5F)c5ccc([nH]5)c(-c5cccc(S(=O)(=O)[O-])c5F)c5nc(c(-c6cccc(S(=O)(=O)[O-])c6F)c6ccc3[nH]6)C=C5)C=C4)cc2)c2ccccc2)cc1
REMARK SMILES IDX 22 1 21 2 19 3 20 4 18 5 11 6 12 7 13 8 17 9 14 10 15 11
REMARK SMILES IDX 16 12 9 13 8 14 10 16 7 17 6 18 3 19 4 20 97 21 5 22 96 23
REMARK SMILES IDX 2 24 1 25 90 26 91 27 95 28 92 29 94 30 93 31 23 32 24 33
REMARK SMILES IDX 25 34 26 35 27 36 28 37 89 38 29 39 88 40 30 41 31 42 32 43
REMARK SMILES IDX 82 44 33 45 87 46 81 47 83 48 34 49 86 50 80 51 79 52 35 54
REMARK SMILES IDX 67 55 47 56 66 57 48 58 51 59 65 60 84 61 49 62 50 63 64 65
REMARK SMILES IDX 85 66 52 67 36 68 37 69 45 70 38 71 40 72 46 73 39 74 41 75
REMARK SMILES IDX 42 76 43 77 44 78 68 79 69 80 77 81 70 82 72 83 78 84 71 85
REMARK SMILES IDX 73 86 74 87 75 88 76 89 53 90 54 91 62 92 55 93 57 94 63 95
REMARK SMILES IDX 56 96 58 97 59 98 60 99 61 100
REMARK H PARENT 8 15 83 53 51 64
REMARK Flexibility Score: inf
ROOT
ATOM      1  C   UNL A   1      33.378  28.205  26.012  1.00  0.00     0.274 C 
ENDROOT
BRANCH   1   2
ATOM      2  O   UNL A   1      33.426  26.760  26.066  1.00  0.00    -0.462 OA
BRANCH   2   3
ATOM      3  C   UNL A   1      32.216  26.110  26.034  1.00  0.00     0.310 C 
ATOM      4  O   UNL A   1      31.385  26.174  26.913  1.00  0.00    -0.252 OA
BRANCH   3   5
ATOM      5  C   UNL A   1      32.063  25.306  24.735  1.00  0.00     0.116 C 
ATOM      6  C   UNL A   1      33.115  25.733  23.694  1.00  0.00     0.097 C 
ATOM      7  C   UNL A   1      32.742  27.023  22.929  1.00  0.00     0.045 C 
ATOM      8  C   UNL A   1      31.304  27.501  23.002  1.00  0.00    -0.074 C 
ATOM      9  C   UNL A   1      30.625  25.443  24.231  1.00  0.00     0.046 C 
ATOM     10  C   UNL A   1      31.088  28.869  22.399  1.00  0.00     0.039 C 
ATOM     11  C   UNL A   1      30.326  26.771  23.577  1.00  0.00    -0.073 C 
ATOM     12  C   UNL A   1      28.891  27.223  23.640  1.00  0.00     0.039 C 
BRANCH   6  13
ATOM     13  C   UNL A   1      33.407  24.593  22.719  1.00  0.00     0.225 C 
ATOM     14  N   UNL A   1      33.788  23.355  23.148  1.00  0.00    -0.345 N 
ATOM     15  H   UNL A   1      33.996  22.732  22.415  1.00  0.00     0.164 HD
ATOM     16  O   UNL A   1      33.297  24.760  21.502  1.00  0.00    -0.275 OA
BRANCH  14  17
ATOM     17  C   UNL A   1      33.949  22.764  24.486  1.00  0.00     0.143 C 
BRANCH  17  18
ATOM     18  C   UNL A   1      33.420  21.329  24.567  1.00  0.00    -0.021 A 
ATOM     19  C   UNL A   1      32.406  18.702  24.836  1.00  0.00     0.118 A 
ATOM     20  C   UNL A   1      32.962  19.353  25.935  1.00  0.00     0.047 A 
ATOM     21  C   UNL A   1      32.374  19.353  23.601  1.00  0.00     0.047 A 
ATOM     22  C   UNL A   1      33.470  20.647  25.802  1.00  0.00     0.010 A 
ATOM     23  C   UNL A   1      32.883  20.650  23.466  1.00  0.00     0.010 A 
BRANCH  19  24
ATOM     24  O   UNL A   1      31.922  17.449  25.097  1.00  0.00    -0.497 OA
ATOM     25  C   UNL A   1      32.845  16.378  24.964  1.00  0.00     0.278 C 
ENDBRANCH  19  24
ENDBRANCH  17  18
BRANCH  17  26
ATOM     26  C   UNL A   1      35.417  22.892  24.924  1.00  0.00    -0.021 A 
ATOM     27  C   UNL A   1      35.897  23.965  25.702  1.00  0.00     0.006 A 
ATOM     28  C   UNL A   1      36.345  21.919  24.513  1.00  0.00     0.006 A 
ATOM     29  C   UNL A   1      37.247  24.080  26.032  1.00  0.00     0.000 A 
ATOM     30  C   UNL A   1      37.691  22.016  24.874  1.00  0.00     0.000 A 
ATOM     31  C   UNL A   1      38.139  23.097  25.629  1.00  0.00     0.000 A 
ENDBRANCH  17  26
ENDBRANCH  14  17
ENDBRANCH   6  13
ENDBRANCH   3   5
ENDBRANCH   2   3
ENDBRANCH   1   2
BRANCH   1  32
ATOM     32  C   UNL A   1      33.578  28.884  27.385  1.00  0.00     0.275 C 
BRANCH  32  33
ATOM     33  O   UNL A   1      33.702  30.328  27.326  1.00  0.00    -0.458 OA
BRANCH  33  34
ATOM     34  C   UNL A   1      34.699  30.781  28.101  1.00  0.00     0.338 C 
ATOM     35  O   UNL A   1      34.641  31.783  28.794  1.00  0.00    -0.246 OA
BRANCH  34  36
ATOM     36  C   UNL A   1      35.914  29.962  28.179  1.00  0.00     0.060 A 
ATOM     37  C   UNL A   1      36.128  29.350  29.413  1.00  0.00     0.016 A 
ATOM     38  C   UNL A   1      36.980  30.114  27.287  1.00  0.00     0.016 A 
ATOM     39  C   UNL A   1      37.413  29.026  29.820  1.00  0.00     0.010 A 
ATOM     40  C   UNL A   1      38.263  29.670  27.658  1.00  0.00     0.010 A 
ATOM     41  C   UNL A   1      38.504  29.157  28.945  1.00  0.00    -0.014 A 
BRANCH  41  42
ATOM     42  C   UNL A   1      39.829  28.637  29.399  1.00  0.00     0.031 A 
ATOM     43  C   UNL A   1      40.484  27.406  28.824  1.00  0.00     0.074 A 
ATOM     44  C   UNL A   1      40.500  29.359  30.321  1.00  0.00     0.049 A 
ATOM     45  N   UNL A   1      41.707  26.973  29.017  1.00  0.00    -0.248 NA
ATOM     46  C   UNL A   1      39.690  26.560  27.923  1.00  0.00     0.031 C 
ATOM     47  C   UNL A   1      39.976  30.552  30.991  1.00  0.00     0.029 A 
ATOM     48  N   UNL A   1      41.760  29.210  30.847  1.00  0.00    -0.354 N 
ATOM     49  C   UNL A   1      41.844  25.831  28.236  1.00  0.00     0.074 A 
ATOM     50  C   UNL A   1      40.557  25.598  27.617  1.00  0.00     0.031 C 
ATOM     51  C   UNL A   1      40.910  31.040  31.815  1.00  0.00     0.029 A 
ATOM     52  C   UNL A   1      42.073  30.162  31.788  1.00  0.00     0.049 A 
ATOM     53  H   UNL A   1      42.378  28.494  30.575  1.00  0.00     0.167 HD
ATOM     54  C   UNL A   1      42.953  25.083  28.014  1.00  0.00     0.034 A 
ATOM     55  C   UNL A   1      43.155  30.308  32.576  1.00  0.00     0.034 A 
ATOM     56  C   UNL A   1      44.233  25.302  28.638  1.00  0.00     0.049 A 
ATOM     57  C   UNL A   1      44.306  29.364  32.428  1.00  0.00     0.074 A 
ATOM     58  C   UNL A   1      45.429  24.646  28.399  1.00  0.00     0.029 A 
ATOM     59  N   UNL A   1      44.476  26.215  29.650  1.00  0.00    -0.354 N 
ATOM     60  N   UNL A   1      44.481  28.419  31.539  1.00  0.00    -0.248 NA
ATOM     61  C   UNL A   1      45.417  29.513  33.379  1.00  0.00     0.031 C 
ATOM     62  C   UNL A   1      46.390  25.144  29.287  1.00  0.00     0.029 A 
ATOM     63  C   UNL A   1      45.789  26.105  30.081  1.00  0.00     0.049 A 
ATOM     64  H   UNL A   1      43.815  26.849  30.010  1.00  0.00     0.167 HD
ATOM     65  C   UNL A   1      45.726  27.869  31.810  1.00  0.00     0.074 A 
ATOM     66  C   UNL A   1      46.272  28.601  32.934  1.00  0.00     0.031 C 
ATOM     67  C   UNL A   1      46.348  26.839  31.186  1.00  0.00     0.034 A 
BRANCH  54  68
ATOM     68  C   UNL A   1      42.892  24.009  26.962  1.00  0.00     0.023 A 
ATOM     69  C   UNL A   1      43.554  24.249  25.740  1.00  0.00     0.012 A 
ATOM     70  C   UNL A   1      42.328  22.744  27.203  1.00  0.00     0.148 A 
ATOM     71  C   UNL A   1      43.639  23.256  24.765  1.00  0.00     0.002 A 
ATOM     72  C   UNL A   1      42.435  21.750  26.232  1.00  0.00     0.091 A 
ATOM     73  F   UNL A   1      41.697  22.534  28.366  1.00  0.00    -0.205 F 
ATOM     74  C   UNL A   1      43.085  22.005  25.013  1.00  0.00     0.022 A 
BRANCH  72  75
ATOM     75  S   UNL A   1      41.808  20.087  26.501  1.00  0.00     0.127 S 
ATOM     76  O   UNL A   1      40.364  20.308  26.471  1.00  0.00    -0.237 OA
ATOM     77  O   UNL A   1      42.336  19.356  25.348  1.00  0.00    -0.237 OA
ATOM     78  O   UNL A   1      42.362  19.667  27.781  1.00  0.00    -0.744 OA
ENDBRANCH  72  75
ENDBRANCH  54  68
BRANCH  55  79
ATOM     79  C   UNL A   1      43.168  31.414  33.571  1.00  0.00     0.023 A 
ATOM     80  C   UNL A   1      43.574  32.703  33.187  1.00  0.00     0.012 A 
ATOM     81  C   UNL A   1      42.661  31.208  34.870  1.00  0.00     0.148 A 
ATOM     82  C   UNL A   1      43.464  33.772  34.080  1.00  0.00     0.002 A 
ATOM     83  C   UNL A   1      42.485  32.288  35.724  1.00  0.00     0.091 A 
ATOM     84  F   UNL A   1      42.314  29.965  35.234  1.00  0.00    -0.205 F 
ATOM     85  C   UNL A   1      42.897  33.570  35.338  1.00  0.00     0.022 A 
BRANCH  83  86
ATOM     86  S   UNL A   1      41.577  32.099  37.264  1.00  0.00     0.127 S 
ATOM     87  O   UNL A   1      42.369  31.092  37.961  1.00  0.00    -0.237 OA
ATOM     88  O   UNL A   1      41.644  33.442  37.840  1.00  0.00    -0.237 OA
ATOM     89  O   UNL A   1      40.237  31.699  36.854  1.00  0.00    -0.744 OA
ENDBRANCH  83  86
ENDBRANCH  55  79
BRANCH  67  90
ATOM     90  C   UNL A   1      47.689  26.416  31.719  1.00  0.00     0.023 A 
ATOM     91  C   UNL A   1      48.855  26.982  31.165  1.00  0.00     0.012 A 
ATOM     92  C   UNL A   1      47.804  25.505  32.784  1.00  0.00     0.148 A 
ATOM     93  C   UNL A   1      50.114  26.627  31.647  1.00  0.00     0.002 A 
ATOM     94  C   UNL A   1      49.062  25.186  33.286  1.00  0.00     0.091 A 
ATOM     95  F   UNL A   1      46.689  24.953  33.287  1.00  0.00    -0.205 F 
ATOM     96  C   UNL A   1      50.219  25.738  32.714  1.00  0.00     0.022 A 
BRANCH  94  97
ATOM     97  S   UNL A   1      49.245  24.115  34.718  1.00  0.00     0.127 S 
ATOM     98  O   UNL A   1      50.696  23.990  34.819  1.00  0.00    -0.237 OA
ATOM     99  O   UNL A   1      48.625  24.895  35.790  1.00  0.00    -0.237 OA
ATOM    100  O   UNL A   1      48.518  22.899  34.372  1.00  0.00    -0.744 OA
ENDBRANCH  94  97
ENDBRANCH  67  90
ENDBRANCH  41  42
ENDBRANCH  34  36
ENDBRANCH  33  34
ENDBRANCH  32  33
ENDBRANCH   1  32
TORSDOF 19
ENDMDL
