MODEL 1
REMARK VINA RESULT:     -13.0      0.000      0.000
REMARK SMILES Cc1cnn(C2(C(=O)OCCOC(=O)c3ccc(-c4c5nc(c(-c6cccc(S(=O)(=O)[O-])c6F)c6ccc([nH]6)c(-c6cccc(S(=O)(=O)[O-])c6F)c6nc(c(-c7cccc(S(=O)(=O)[O-])c7F)c7ccc4[nH]7)C=C6)C=C5)cc3)CCN(C(=O)c3cc4ccccc4[nH]3)CC2)c1
REMARK SMILES IDX 11 1 10 2 9 3 7 4 8 5 6 6 78 7 93 8 79 9 92 10 80 11 81 12
REMARK SMILES IDX 82 13 5 14 1 15 2 16 3 17 94 18 4 19 83 20 84 21 91 22 85 23
REMARK SMILES IDX 90 24 86 26 89 27 87 28 88 29 12 30 13 31 14 32 15 33 16 34
REMARK SMILES IDX 77 35 17 36 76 37 18 38 19 39 20 40 70 41 21 42 75 43 69 44
REMARK SMILES IDX 71 45 22 46 74 47 68 48 67 49 23 51 55 52 35 53 54 54 36 55
REMARK SMILES IDX 39 56 53 57 72 58 37 59 38 60 52 62 73 63 40 64 24 65 25 66
REMARK SMILES IDX 33 67 26 68 28 69 34 70 27 71 29 72 30 73 31 74 32 75 56 76
REMARK SMILES IDX 57 77 65 78 58 79 60 80 66 81 59 82 61 83 62 84 63 85 64 86
REMARK SMILES IDX 41 87 42 88 50 89 43 90 45 91 51 92 44 93 46 94 47 95 48 96
REMARK SMILES IDX 49 97
REMARK H PARENT 91 25 71 50 39 61
REMARK Flexibility Score: inf
ROOT
ATOM      1  C   UNL A   1      33.512  30.931  27.144  1.00  0.00     0.275 C 
ENDROOT
BRANCH   1   2
ATOM      2  C   UNL A   1      32.472  29.817  27.222  1.00  0.00     0.274 C 
BRANCH   2   3
ATOM      3  O   UNL A   1      32.693  28.820  26.204  1.00  0.00    -0.460 OA
BRANCH   3   4
ATOM      4  C   UNL A   1      31.787  27.794  26.132  1.00  0.00     0.334 C 
ATOM      5  O   UNL A   1      31.371  27.227  27.139  1.00  0.00    -0.249 OA
BRANCH   4   6
ATOM      6  C   UNL A   1      31.583  27.287  24.674  1.00  0.00     0.163 C 
ATOM      7  C   UNL A   1      32.868  27.384  23.802  1.00  0.00     0.064 C 
ATOM      8  C   UNL A   1      31.161  25.816  24.937  1.00  0.00     0.064 C 
ATOM      9  C   UNL A   1      32.961  26.352  22.683  1.00  0.00     0.123 C 
ATOM     10  C   UNL A   1      31.330  24.871  23.762  1.00  0.00     0.123 C 
ATOM     11  N   UNL A   1      32.659  25.020  23.182  1.00  0.00    -0.337 N 
ATOM     12  C   UNL A   1      33.684  24.077  23.268  1.00  0.00     0.270 C 
ATOM     13  O   UNL A   1      34.857  24.363  23.041  1.00  0.00    -0.267 OA
BRANCH   6  14
ATOM     14  N   UNL A   1      30.494  28.041  24.003  1.00  0.00    -0.255 N 
ATOM     15  C   UNL A   1      28.739  30.944  22.612  1.00  0.00     0.048 C 
ATOM     16  C   UNL A   1      29.241  29.645  23.112  1.00  0.00    -0.013 A 
ATOM     17  C   UNL A   1      28.603  28.392  23.093  1.00  0.00     0.138 A 
ATOM     18  C   UNL A   1      30.447  29.388  23.726  1.00  0.00     0.113 A 
ATOM     19  N   UNL A   1      29.330  27.441  23.680  1.00  0.00    -0.180 NA
ENDBRANCH   6  14
BRANCH  12  20
ATOM     20  C   UNL A   1      33.330  22.749  23.707  1.00  0.00     0.105 A 
ATOM     21  C   UNL A   1      33.415  22.146  24.949  1.00  0.00     0.042 A 
ATOM     22  N   UNL A   1      32.762  21.828  22.858  1.00  0.00    -0.351 N 
ATOM     23  C   UNL A   1      33.053  20.781  24.801  1.00  0.00     0.000 A 
ATOM     24  C   UNL A   1      32.664  20.602  23.474  1.00  0.00     0.046 A 
ATOM     25  H   UNL A   1      32.467  22.019  21.938  1.00  0.00     0.167 HD
ATOM     26  C   UNL A   1      33.037  19.675  25.669  1.00  0.00     0.010 A 
ATOM     27  C   UNL A   1      32.265  19.364  22.963  1.00  0.00     0.026 A 
ATOM     28  C   UNL A   1      32.648  18.425  25.174  1.00  0.00     0.001 A 
ATOM     29  C   UNL A   1      32.270  18.274  23.841  1.00  0.00     0.002 A 
ENDBRANCH  12  20
ENDBRANCH   4   6
ENDBRANCH   3   4
ENDBRANCH   2   3
ENDBRANCH   1   2
BRANCH   1  30
ATOM     30  O   UNL A   1      34.841  30.442  27.343  1.00  0.00    -0.458 OA
BRANCH  30  31
ATOM     31  C   UNL A   1      35.686  31.374  27.841  1.00  0.00     0.338 C 
ATOM     32  O   UNL A   1      35.723  32.556  27.532  1.00  0.00    -0.246 OA
BRANCH  31  33
ATOM     33  C   UNL A   1      36.727  30.770  28.671  1.00  0.00     0.060 A 
ATOM     34  C   UNL A   1      37.762  31.611  29.095  1.00  0.00     0.016 A 
ATOM     35  C   UNL A   1      36.831  29.378  28.741  1.00  0.00     0.016 A 
ATOM     36  C   UNL A   1      38.977  31.054  29.440  1.00  0.00     0.010 A 
ATOM     37  C   UNL A   1      38.044  28.823  29.095  1.00  0.00     0.010 A 
ATOM     38  C   UNL A   1      39.128  29.668  29.360  1.00  0.00    -0.014 A 
BRANCH  38  39
ATOM     39  C   UNL A   1      40.463  29.122  29.546  1.00  0.00     0.031 A 
ATOM     40  C   UNL A   1      40.898  28.913  30.949  1.00  0.00     0.074 A 
ATOM     41  C   UNL A   1      41.194  28.671  28.506  1.00  0.00     0.049 A 
ATOM     42  N   UNL A   1      41.999  29.290  31.515  1.00  0.00    -0.248 NA
ATOM     43  C   UNL A   1      39.951  28.235  31.847  1.00  0.00     0.031 C 
ATOM     44  C   UNL A   1      40.750  28.523  27.117  1.00  0.00     0.029 A 
ATOM     45  N   UNL A   1      42.424  28.080  28.514  1.00  0.00    -0.354 N 
ATOM     46  C   UNL A   1      41.972  28.720  32.785  1.00  0.00     0.074 A 
ATOM     47  C   UNL A   1      40.647  28.190  32.981  1.00  0.00     0.031 C 
ATOM     48  C   UNL A   1      41.566  27.648  26.491  1.00  0.00     0.029 A 
ATOM     49  C   UNL A   1      42.642  27.286  27.397  1.00  0.00     0.049 A 
ATOM     50  H   UNL A   1      43.085  28.205  29.233  1.00  0.00     0.167 HD
ATOM     51  C   UNL A   1      43.092  28.532  33.529  1.00  0.00     0.034 A 
ATOM     52  C   UNL A   1      43.577  26.319  27.257  1.00  0.00     0.034 A 
ATOM     53  C   UNL A   1      44.199  29.331  33.094  1.00  0.00     0.049 A 
ATOM     54  C   UNL A   1      44.621  26.529  28.284  1.00  0.00     0.074 A 
ATOM     55  C   UNL A   1      44.451  30.682  32.969  1.00  0.00     0.029 A 
ATOM     56  N   UNL A   1      45.215  28.693  32.430  1.00  0.00    -0.354 N 
ATOM     57  N   UNL A   1      45.462  27.525  28.287  1.00  0.00    -0.248 NA
ATOM     58  C   UNL A   1      44.547  25.772  29.523  1.00  0.00     0.031 C 
ATOM     59  C   UNL A   1      45.372  30.797  31.889  1.00  0.00     0.029 A 
ATOM     60  C   UNL A   1      45.612  29.510  31.404  1.00  0.00     0.049 A 
ATOM     61  H   UNL A   1      45.591  27.809  32.649  1.00  0.00     0.167 HD
ATOM     62  C   UNL A   1      45.709  27.773  29.631  1.00  0.00     0.074 A 
ATOM     63  C   UNL A   1      45.254  26.572  30.322  1.00  0.00     0.031 C 
ATOM     64  C   UNL A   1      45.976  29.035  30.083  1.00  0.00     0.034 A 
BRANCH  51  65
ATOM     65  C   UNL A   1      43.266  27.391  34.494  1.00  0.00     0.023 A 
ATOM     66  C   UNL A   1      43.293  27.680  35.874  1.00  0.00     0.012 A 
ATOM     67  C   UNL A   1      43.642  26.086  34.100  1.00  0.00     0.148 A 
ATOM     68  C   UNL A   1      43.679  26.719  36.814  1.00  0.00     0.002 A 
ATOM     69  C   UNL A   1      43.937  25.110  35.045  1.00  0.00     0.091 A 
ATOM     70  F   UNL A   1      43.838  25.806  32.805  1.00  0.00    -0.205 F 
ATOM     71  C   UNL A   1      43.983  25.425  36.403  1.00  0.00     0.022 A 
BRANCH  69  72
ATOM     72  S   UNL A   1      44.230  23.419  34.523  1.00  0.00     0.127 S 
ATOM     73  O   UNL A   1      45.399  23.566  33.663  1.00  0.00    -0.237 OA
ATOM     74  O   UNL A   1      44.477  22.733  35.792  1.00  0.00    -0.237 OA
ATOM     75  O   UNL A   1      42.983  23.026  33.875  1.00  0.00    -0.744 OA
ENDBRANCH  69  72
ENDBRANCH  51  65
BRANCH  52  76
ATOM     76  C   UNL A   1      43.528  25.115  26.400  1.00  0.00     0.023 A 
ATOM     77  C   UNL A   1      44.404  24.998  25.306  1.00  0.00     0.012 A 
ATOM     78  C   UNL A   1      42.752  23.988  26.759  1.00  0.00     0.148 A 
ATOM     79  C   UNL A   1      44.504  23.798  24.592  1.00  0.00     0.002 A 
ATOM     80  C   UNL A   1      42.833  22.807  26.028  1.00  0.00     0.091 A 
ATOM     81  F   UNL A   1      41.999  24.045  27.867  1.00  0.00    -0.205 F 
ATOM     82  C   UNL A   1      43.716  22.706  24.948  1.00  0.00     0.022 A 
BRANCH  80  83
ATOM     83  S   UNL A   1      41.816  21.376  26.419  1.00  0.00     0.127 S 
ATOM     84  O   UNL A   1      42.311  20.379  25.469  1.00  0.00    -0.237 OA
ATOM     85  O   UNL A   1      42.170  21.121  27.812  1.00  0.00    -0.237 OA
ATOM     86  O   UNL A   1      40.441  21.796  26.174  1.00  0.00    -0.744 OA
ENDBRANCH  80  83
ENDBRANCH  52  76
BRANCH  64  87
ATOM     87  C   UNL A   1      46.313  30.104  29.070  1.00  0.00     0.023 A 
ATOM     88  C   UNL A   1      47.644  30.320  28.654  1.00  0.00     0.012 A 
ATOM     89  C   UNL A   1      45.276  30.755  28.377  1.00  0.00     0.148 A 
ATOM     90  C   UNL A   1      47.938  31.183  27.598  1.00  0.00     0.002 A 
ATOM     91  C   UNL A   1      45.569  31.577  27.292  1.00  0.00     0.091 A 
ATOM     92  F   UNL A   1      44.011  30.534  28.766  1.00  0.00    -0.205 F 
ATOM     93  C   UNL A   1      46.901  31.801  26.907  1.00  0.00     0.022 A 
BRANCH  91  94
ATOM     94  S   UNL A   1      44.276  32.287  26.266  1.00  0.00     0.127 S 
ATOM     95  O   UNL A   1      43.403  31.140  26.031  1.00  0.00    -0.237 OA
ATOM     96  O   UNL A   1      43.708  33.319  27.138  1.00  0.00    -0.237 OA
ATOM     97  O   UNL A   1      44.953  32.818  25.088  1.00  0.00    -0.744 OA
ENDBRANCH  91  94
ENDBRANCH  64  87
ENDBRANCH  38  39
ENDBRANCH  31  33
ENDBRANCH  30  31
ENDBRANCH   1  30
TORSDOF 16
ENDMDL
MODEL 2
REMARK VINA RESULT:     -12.9      2.842      9.047
REMARK SMILES Cc1cnn(C2(C(=O)OCCOC(=O)c3ccc(-c4c5nc(c(-c6cccc(S(=O)(=O)[O-])c6F)c6ccc([nH]6)c(-c6cccc(S(=O)(=O)[O-])c6F)c6nc(c(-c7cccc(S(=O)(=O)[O-])c7F)c7ccc4[nH]7)C=C6)C=C5)cc3)CCN(C(=O)c3cc4ccccc4[nH]3)CC2)c1
REMARK SMILES IDX 11 1 10 2 9 3 7 4 8 5 6 6 78 7 93 8 79 9 92 10 80 11 81 12
REMARK SMILES IDX 82 13 5 14 1 15 2 16 3 17 94 18 4 19 83 20 84 21 91 22 85 23
REMARK SMILES IDX 90 24 86 26 89 27 87 28 88 29 12 30 13 31 14 32 15 33 16 34
REMARK SMILES IDX 77 35 17 36 76 37 18 38 19 39 20 40 70 41 21 42 75 43 69 44
REMARK SMILES IDX 71 45 22 46 74 47 68 48 67 49 23 51 55 52 35 53 54 54 36 55
REMARK SMILES IDX 39 56 53 57 72 58 37 59 38 60 52 62 73 63 40 64 24 65 25 66
REMARK SMILES IDX 33 67 26 68 28 69 34 70 27 71 29 72 30 73 31 74 32 75 56 76
REMARK SMILES IDX 57 77 65 78 58 79 60 80 66 81 59 82 61 83 62 84 63 85 64 86
REMARK SMILES IDX 41 87 42 88 50 89 43 90 45 91 51 92 44 93 46 94 47 95 48 96
REMARK SMILES IDX 49 97
REMARK H PARENT 91 25 71 50 39 61
REMARK Flexibility Score: inf
ROOT
ATOM      1  C   UNL A   1      38.234  21.921  25.819  1.00  0.00     0.275 C 
ENDROOT
BRANCH   1   2
ATOM      2  C   UNL A   1      37.322  22.071  24.605  1.00  0.00     0.274 C 
BRANCH   2   3
ATOM      3  O   UNL A   1      35.933  22.097  24.991  1.00  0.00    -0.460 OA
BRANCH   3   4
ATOM      4  C   UNL A   1      35.019  22.352  24.002  1.00  0.00     0.334 C 
ATOM      5  O   UNL A   1      35.319  22.976  22.988  1.00  0.00    -0.249 OA
BRANCH   4   6
ATOM      6  C   UNL A   1      33.564  22.007  24.440  1.00  0.00     0.163 C 
ATOM      7  C   UNL A   1      33.301  22.256  25.953  1.00  0.00     0.064 C 
ATOM      8  C   UNL A   1      32.754  22.975  23.537  1.00  0.00     0.064 C 
ATOM      9  C   UNL A   1      31.856  22.597  26.303  1.00  0.00     0.123 C 
ATOM     10  C   UNL A   1      31.341  23.269  24.002  1.00  0.00     0.123 C 
ATOM     11  N   UNL A   1      31.338  23.625  25.415  1.00  0.00    -0.337 N 
ATOM     12  C   UNL A   1      31.090  24.901  25.922  1.00  0.00     0.270 C 
ATOM     13  O   UNL A   1      31.396  25.221  27.068  1.00  0.00    -0.267 OA
BRANCH   6  14
ATOM     14  N   UNL A   1      33.243  20.591  24.127  1.00  0.00    -0.255 N 
ATOM     15  C   UNL A   1      33.474  16.938  24.329  1.00  0.00     0.048 C 
ATOM     16  C   UNL A   1      33.213  18.371  24.068  1.00  0.00    -0.013 A 
ATOM     17  C   UNL A   1      32.321  18.945  23.145  1.00  0.00     0.138 A 
ATOM     18  C   UNL A   1      33.807  19.459  24.668  1.00  0.00     0.113 A 
ATOM     19  N   UNL A   1      32.381  20.277  23.138  1.00  0.00    -0.180 NA
ENDBRANCH   6  14
BRANCH  12  20
ATOM     20  C   UNL A   1      30.516  25.873  25.023  1.00  0.00     0.105 A 
ATOM     21  C   UNL A   1      31.103  26.863  24.256  1.00  0.00     0.042 A 
ATOM     22  N   UNL A   1      29.167  25.914  24.758  1.00  0.00    -0.351 N 
ATOM     23  C   UNL A   1      30.067  27.624  23.652  1.00  0.00     0.000 A 
ATOM     24  C   UNL A   1      28.859  27.018  23.999  1.00  0.00     0.046 A 
ATOM     25  H   UNL A   1      28.513  25.247  25.069  1.00  0.00     0.167 HD
ATOM     26  C   UNL A   1      30.042  28.784  22.858  1.00  0.00     0.010 A 
ATOM     27  C   UNL A   1      27.619  27.521  23.596  1.00  0.00     0.026 A 
ATOM     28  C   UNL A   1      28.809  29.307  22.452  1.00  0.00     0.001 A 
ATOM     29  C   UNL A   1      27.617  28.684  22.819  1.00  0.00     0.002 A 
ENDBRANCH  12  20
ENDBRANCH   4   6
ENDBRANCH   3   4
ENDBRANCH   2   3
ENDBRANCH   1   2
BRANCH   1  30
ATOM     30  O   UNL A   1      38.786  23.172  26.236  1.00  0.00    -0.458 OA
BRANCH  30  31
ATOM     31  C   UNL A   1      39.930  23.042  26.948  1.00  0.00     0.338 C 
ATOM     32  O   UNL A   1      40.321  22.032  27.512  1.00  0.00    -0.246 OA
BRANCH  31  33
ATOM     33  C   UNL A   1      40.585  24.333  27.156  1.00  0.00     0.060 A 
ATOM     34  C   UNL A   1      41.463  24.426  28.242  1.00  0.00     0.016 A 
ATOM     35  C   UNL A   1      40.096  25.468  26.504  1.00  0.00     0.016 A 
ATOM     36  C   UNL A   1      41.726  25.667  28.784  1.00  0.00     0.010 A 
ATOM     37  C   UNL A   1      40.366  26.709  27.043  1.00  0.00     0.010 A 
ATOM     38  C   UNL A   1      41.111  26.790  28.226  1.00  0.00    -0.014 A 
BRANCH  38  39
ATOM     39  C   UNL A   1      41.252  28.057  28.926  1.00  0.00     0.031 A 
ATOM     40  C   UNL A   1      42.329  28.957  28.443  1.00  0.00     0.074 A 
ATOM     41  C   UNL A   1      40.351  28.464  29.842  1.00  0.00     0.049 A 
ATOM     42  N   UNL A   1      43.248  29.554  29.132  1.00  0.00    -0.248 NA
ATOM     43  C   UNL A   1      42.417  29.174  26.992  1.00  0.00     0.031 C 
ATOM     44  C   UNL A   1      39.076  27.818  30.169  1.00  0.00     0.029 A 
ATOM     45  N   UNL A   1      40.303  29.637  30.537  1.00  0.00    -0.354 N 
ATOM     46  C   UNL A   1      43.904  30.384  28.227  1.00  0.00     0.074 A 
ATOM     47  C   UNL A   1      43.439  30.023  26.912  1.00  0.00     0.031 C 
ATOM     48  C   UNL A   1      38.272  28.723  30.767  1.00  0.00     0.029 A 
ATOM     49  C   UNL A   1      39.022  29.950  30.969  1.00  0.00     0.049 A 
ATOM     50  H   UNL A   1      41.091  30.200  30.713  1.00  0.00     0.167 HD
ATOM     51  C   UNL A   1      44.638  31.458  28.615  1.00  0.00     0.034 A 
ATOM     52  C   UNL A   1      38.572  31.161  31.368  1.00  0.00     0.034 A 
ATOM     53  C   UNL A   1      45.020  31.412  29.996  1.00  0.00     0.049 A 
ATOM     54  C   UNL A   1      39.739  32.003  31.709  1.00  0.00     0.074 A 
ATOM     55  C   UNL A   1      45.763  30.558  30.784  1.00  0.00     0.029 A 
ATOM     56  N   UNL A   1      44.370  32.256  30.858  1.00  0.00    -0.354 N 
ATOM     57  N   UNL A   1      40.516  31.805  32.737  1.00  0.00    -0.248 NA
ATOM     58  C   UNL A   1      40.252  32.926  30.710  1.00  0.00     0.031 C 
ATOM     59  C   UNL A   1      45.202  30.663  32.089  1.00  0.00     0.029 A 
ATOM     60  C   UNL A   1      44.135  31.559  32.014  1.00  0.00     0.049 A 
ATOM     61  H   UNL A   1      44.117  33.191  30.680  1.00  0.00     0.167 HD
ATOM     62  C   UNL A   1      41.767  32.244  32.324  1.00  0.00     0.074 A 
ATOM     63  C   UNL A   1      41.505  33.063  31.147  1.00  0.00     0.031 C 
ATOM     64  C   UNL A   1      42.913  31.663  32.790  1.00  0.00     0.034 A 
BRANCH  51  65
ATOM     65  C   UNL A   1      44.772  32.712  27.795  1.00  0.00     0.023 A 
ATOM     66  C   UNL A   1      43.616  33.240  27.185  1.00  0.00     0.012 A 
ATOM     67  C   UNL A   1      46.016  33.257  27.401  1.00  0.00     0.148 A 
ATOM     68  C   UNL A   1      43.694  34.256  26.227  1.00  0.00     0.002 A 
ATOM     69  C   UNL A   1      46.080  34.328  26.518  1.00  0.00     0.091 A 
ATOM     70  F   UNL A   1      47.157  32.669  27.781  1.00  0.00    -0.205 F 
ATOM     71  C   UNL A   1      44.926  34.817  25.906  1.00  0.00     0.022 A 
BRANCH  69  72
ATOM     72  S   UNL A   1      47.657  35.117  26.180  1.00  0.00     0.127 S 
ATOM     73  O   UNL A   1      48.271  34.178  25.248  1.00  0.00    -0.237 OA
ATOM     74  O   UNL A   1      47.254  36.396  25.595  1.00  0.00    -0.237 OA
ATOM     75  O   UNL A   1      48.280  35.240  27.495  1.00  0.00    -0.744 OA
ENDBRANCH  69  72
ENDBRANCH  51  65
BRANCH  52  76
ATOM     76  C   UNL A   1      37.194  31.694  31.301  1.00  0.00     0.023 A 
ATOM     77  C   UNL A   1      36.533  32.077  32.482  1.00  0.00     0.012 A 
ATOM     78  C   UNL A   1      36.586  32.007  30.063  1.00  0.00     0.148 A 
ATOM     79  C   UNL A   1      35.306  32.749  32.432  1.00  0.00     0.002 A 
ATOM     80  C   UNL A   1      35.353  32.649  30.019  1.00  0.00     0.091 A 
ATOM     81  F   UNL A   1      37.255  31.753  28.929  1.00  0.00    -0.205 F 
ATOM     82  C   UNL A   1      34.713  33.030  31.203  1.00  0.00     0.022 A 
BRANCH  80  83
ATOM     83  S   UNL A   1      34.523  33.007  28.464  1.00  0.00     0.127 S 
ATOM     84  O   UNL A   1      33.993  31.695  28.089  1.00  0.00    -0.237 OA
ATOM     85  O   UNL A   1      33.513  33.979  28.873  1.00  0.00    -0.237 OA
ATOM     86  O   UNL A   1      35.564  33.502  27.571  1.00  0.00    -0.744 OA
ENDBRANCH  80  83
ENDBRANCH  52  76
BRANCH  64  87
ATOM     87  C   UNL A   1      42.819  30.754  33.994  1.00  0.00     0.023 A 
ATOM     88  C   UNL A   1      42.876  31.274  35.304  1.00  0.00     0.012 A 
ATOM     89  C   UNL A   1      42.466  29.403  33.818  1.00  0.00     0.148 A 
ATOM     90  C   UNL A   1      42.618  30.465  36.412  1.00  0.00     0.002 A 
ATOM     91  C   UNL A   1      42.161  28.612  34.922  1.00  0.00     0.091 A 
ATOM     92  F   UNL A   1      42.398  28.919  32.568  1.00  0.00    -0.205 F 
ATOM     93  C   UNL A   1      42.247  29.138  36.222  1.00  0.00     0.022 A 
BRANCH  91  94
ATOM     94  S   UNL A   1      41.534  26.938  34.742  1.00  0.00     0.127 S 
ATOM     95  O   UNL A   1      41.142  26.606  36.110  1.00  0.00    -0.237 OA
ATOM     96  O   UNL A   1      40.417  27.114  33.812  1.00  0.00    -0.237 OA
ATOM     97  O   UNL A   1      42.640  26.159  34.196  1.00  0.00    -0.744 OA
ENDBRANCH  91  94
ENDBRANCH  64  87
ENDBRANCH  38  39
ENDBRANCH  31  33
ENDBRANCH  30  31
ENDBRANCH   1  30
TORSDOF 16
ENDMDL
MODEL 3
REMARK VINA RESULT:     -12.2      3.034      8.964
REMARK SMILES Cc1cnn(C2(C(=O)OCCOC(=O)c3ccc(-c4c5nc(c(-c6cccc(S(=O)(=O)[O-])c6F)c6ccc([nH]6)c(-c6cccc(S(=O)(=O)[O-])c6F)c6nc(c(-c7cccc(S(=O)(=O)[O-])c7F)c7ccc4[nH]7)C=C6)C=C5)cc3)CCN(C(=O)c3cc4ccccc4[nH]3)CC2)c1
REMARK SMILES IDX 11 1 10 2 9 3 7 4 8 5 6 6 78 7 93 8 79 9 92 10 80 11 81 12
REMARK SMILES IDX 82 13 5 14 1 15 2 16 3 17 94 18 4 19 83 20 84 21 91 22 85 23
REMARK SMILES IDX 90 24 86 26 89 27 87 28 88 29 12 30 13 31 14 32 15 33 16 34
REMARK SMILES IDX 77 35 17 36 76 37 18 38 19 39 20 40 70 41 21 42 75 43 69 44
REMARK SMILES IDX 71 45 22 46 74 47 68 48 67 49 23 51 55 52 35 53 54 54 36 55
REMARK SMILES IDX 39 56 53 57 72 58 37 59 38 60 52 62 73 63 40 64 24 65 25 66
REMARK SMILES IDX 33 67 26 68 28 69 34 70 27 71 29 72 30 73 31 74 32 75 56 76
REMARK SMILES IDX 57 77 65 78 58 79 60 80 66 81 59 82 61 83 62 84 63 85 64 86
REMARK SMILES IDX 41 87 42 88 50 89 43 90 45 91 51 92 44 93 46 94 47 95 48 96
REMARK SMILES IDX 49 97
REMARK H PARENT 91 25 71 50 39 61
REMARK Flexibility Score: inf
ROOT
ATOM      1  C   UNL A   1      38.085  21.479  25.421  1.00  0.00     0.275 C 
ENDROOT
BRANCH   1   2
ATOM      2  C   UNL A   1      37.230  21.939  24.244  1.00  0.00     0.274 C 
BRANCH   2   3
ATOM      3  O   UNL A   1      35.848  21.572  24.424  1.00  0.00    -0.460 OA
BRANCH   3   4
ATOM      4  C   UNL A   1      34.909  22.380  23.837  1.00  0.00     0.334 C 
ATOM      5  O   UNL A   1      35.224  23.292  23.078  1.00  0.00    -0.249 OA
BRANCH   4   6
ATOM      6  C   UNL A   1      33.490  22.177  24.447  1.00  0.00     0.163 C 
ATOM      7  C   UNL A   1      33.424  22.486  25.971  1.00  0.00     0.064 C 
ATOM      8  C   UNL A   1      32.668  23.190  23.606  1.00  0.00     0.064 C 
ATOM      9  C   UNL A   1      32.064  22.963  26.468  1.00  0.00     0.123 C 
ATOM     10  C   UNL A   1      31.347  23.621  24.216  1.00  0.00     0.123 C 
ATOM     11  N   UNL A   1      31.537  24.011  25.607  1.00  0.00    -0.337 N 
ATOM     12  C   UNL A   1      31.458  25.316  26.094  1.00  0.00     0.270 C 
ATOM     13  O   UNL A   1      31.920  25.636  27.187  1.00  0.00    -0.267 OA
BRANCH   6  14
ATOM     14  N   UNL A   1      33.015  20.788  24.222  1.00  0.00    -0.255 N 
ATOM     15  C   UNL A   1      32.439  17.242  24.951  1.00  0.00     0.048 C 
ATOM     16  C   UNL A   1      32.567  18.623  24.436  1.00  0.00    -0.013 A 
ATOM     17  C   UNL A   1      32.158  19.136  23.191  1.00  0.00     0.138 A 
ATOM     18  C   UNL A   1      33.136  19.708  25.065  1.00  0.00     0.113 A 
ATOM     19  N   UNL A   1      32.480  20.420  23.039  1.00  0.00    -0.180 NA
ENDBRANCH   6  14
BRANCH  12  20
ATOM     20  C   UNL A   1      30.871  26.313  25.232  1.00  0.00     0.105 A 
ATOM     21  C   UNL A   1      29.567  26.496  24.806  1.00  0.00     0.042 A 
ATOM     22  N   UNL A   1      31.609  27.343  24.700  1.00  0.00    -0.351 N 
ATOM     23  C   UNL A   1      29.558  27.555  23.861  1.00  0.00     0.000 A 
ATOM     24  C   UNL A   1      30.857  28.058  23.798  1.00  0.00     0.046 A 
ATOM     25  H   UNL A   1      32.546  27.541  24.931  1.00  0.00     0.167 HD
ATOM     26  C   UNL A   1      28.569  28.122  23.038  1.00  0.00     0.010 A 
ATOM     27  C   UNL A   1      31.223  29.102  22.942  1.00  0.00     0.026 A 
ATOM     28  C   UNL A   1      28.918  29.162  22.168  1.00  0.00     0.001 A 
ATOM     29  C   UNL A   1      30.226  29.640  22.122  1.00  0.00     0.002 A 
ENDBRANCH  12  20
ENDBRANCH   4   6
ENDBRANCH   3   4
ENDBRANCH   2   3
ENDBRANCH   1   2
BRANCH   1  30
ATOM     30  O   UNL A   1      38.438  22.562  26.287  1.00  0.00    -0.458 OA
BRANCH  30  31
ATOM     31  C   UNL A   1      39.683  22.450  26.805  1.00  0.00     0.338 C 
ATOM     32  O   UNL A   1      40.191  21.434  27.254  1.00  0.00    -0.246 OA
BRANCH  31  33
ATOM     33  C   UNL A   1      40.319  23.756  26.968  1.00  0.00     0.060 A 
ATOM     34  C   UNL A   1      41.364  23.837  27.894  1.00  0.00     0.016 A 
ATOM     35  C   UNL A   1      39.687  24.897  26.466  1.00  0.00     0.016 A 
ATOM     36  C   UNL A   1      41.672  25.063  28.449  1.00  0.00     0.010 A 
ATOM     37  C   UNL A   1      40.002  26.124  27.016  1.00  0.00     0.010 A 
ATOM     38  C   UNL A   1      40.932  26.182  28.060  1.00  0.00    -0.014 A 
BRANCH  38  39
ATOM     39  C   UNL A   1      41.146  27.421  28.792  1.00  0.00     0.031 A 
ATOM     40  C   UNL A   1      42.289  28.257  28.346  1.00  0.00     0.074 A 
ATOM     41  C   UNL A   1      40.259  27.867  29.703  1.00  0.00     0.049 A 
ATOM     42  N   UNL A   1      43.233  28.777  29.063  1.00  0.00    -0.248 NA
ATOM     43  C   UNL A   1      42.415  28.501  26.902  1.00  0.00     0.031 C 
ATOM     44  C   UNL A   1      38.938  27.301  29.996  1.00  0.00     0.029 A 
ATOM     45  N   UNL A   1      40.278  29.026  30.424  1.00  0.00    -0.354 N 
ATOM     46  C   UNL A   1      43.958  29.580  28.187  1.00  0.00     0.074 A 
ATOM     47  C   UNL A   1      43.492  29.280  26.857  1.00  0.00     0.031 C 
ATOM     48  C   UNL A   1      38.187  28.244  30.603  1.00  0.00     0.029 A 
ATOM     49  C   UNL A   1      39.013  29.414  30.844  1.00  0.00     0.049 A 
ATOM     50  H   UNL A   1      41.099  29.530  30.626  1.00  0.00     0.167 HD
ATOM     51  C   UNL A   1      44.755  30.594  28.611  1.00  0.00     0.034 A 
ATOM     52  C   UNL A   1      38.638  30.643  31.265  1.00  0.00     0.034 A 
ATOM     53  C   UNL A   1      45.110  30.492  29.996  1.00  0.00     0.049 A 
ATOM     54  C   UNL A   1      39.853  31.397  31.642  1.00  0.00     0.074 A 
ATOM     55  C   UNL A   1      45.782  29.573  30.775  1.00  0.00     0.029 A 
ATOM     56  N   UNL A   1      44.504  31.358  30.868  1.00  0.00    -0.354 N 
ATOM     57  N   UNL A   1      40.598  31.125  32.678  1.00  0.00    -0.248 NA
ATOM     58  C   UNL A   1      40.443  32.306  30.673  1.00  0.00     0.031 C 
ATOM     59  C   UNL A   1      45.208  29.686  32.073  1.00  0.00     0.029 A 
ATOM     60  C   UNL A   1      44.204  30.653  32.004  1.00  0.00     0.049 A 
ATOM     61  H   UNL A   1      44.317  32.312  30.708  1.00  0.00     0.167 HD
ATOM     62  C   UNL A   1      41.882  31.488  32.294  1.00  0.00     0.074 A 
ATOM     63  C   UNL A   1      41.694  32.349  31.132  1.00  0.00     0.031 C 
ATOM     64  C   UNL A   1      42.979  30.821  32.763  1.00  0.00     0.034 A 
BRANCH  51  65
ATOM     65  C   UNL A   1      44.987  31.854  27.822  1.00  0.00     0.023 A 
ATOM     66  C   UNL A   1      46.227  32.018  27.171  1.00  0.00     0.012 A 
ATOM     67  C   UNL A   1      44.138  32.983  27.889  1.00  0.00     0.148 A 
ATOM     68  C   UNL A   1      46.605  33.247  26.619  1.00  0.00     0.002 A 
ATOM     69  C   UNL A   1      44.480  34.174  27.259  1.00  0.00     0.091 A 
ATOM     70  F   UNL A   1      43.047  32.958  28.665  1.00  0.00    -0.205 F 
ATOM     71  C   UNL A   1      45.723  34.322  26.644  1.00  0.00     0.022 A 
BRANCH  69  72
ATOM     72  S   UNL A   1      43.303  35.528  27.204  1.00  0.00     0.127 S 
ATOM     73  O   UNL A   1      42.809  35.554  28.576  1.00  0.00    -0.237 OA
ATOM     74  O   UNL A   1      44.143  36.664  26.827  1.00  0.00    -0.237 OA
ATOM     75  O   UNL A   1      42.352  35.129  26.171  1.00  0.00    -0.744 OA
ENDBRANCH  69  72
ENDBRANCH  51  65
BRANCH  52  76
ATOM     76  C   UNL A   1      37.300  31.268  31.189  1.00  0.00     0.023 A 
ATOM     77  C   UNL A   1      36.660  31.697  32.365  1.00  0.00     0.012 A 
ATOM     78  C   UNL A   1      36.722  31.620  29.947  1.00  0.00     0.148 A 
ATOM     79  C   UNL A   1      35.482  32.451  32.308  1.00  0.00     0.002 A 
ATOM     80  C   UNL A   1      35.535  32.344  29.895  1.00  0.00     0.091 A 
ATOM     81  F   UNL A   1      37.379  31.319  28.818  1.00  0.00    -0.205 F 
ATOM     82  C   UNL A   1      34.917  32.769  31.076  1.00  0.00     0.022 A 
BRANCH  80  83
ATOM     83  S   UNL A   1      34.741  32.756  28.335  1.00  0.00     0.127 S 
ATOM     84  O   UNL A   1      35.829  33.399  27.596  1.00  0.00    -0.237 OA
ATOM     85  O   UNL A   1      34.355  31.440  27.832  1.00  0.00    -0.237 OA
ATOM     86  O   UNL A   1      33.646  33.655  28.679  1.00  0.00    -0.744 OA
ENDBRANCH  80  83
ENDBRANCH  52  76
BRANCH  64  87
ATOM     87  C   UNL A   1      42.805  29.894  33.944  1.00  0.00     0.023 A 
ATOM     88  C   UNL A   1      42.086  28.687  33.822  1.00  0.00     0.012 A 
ATOM     89  C   UNL A   1      43.534  30.129  35.124  1.00  0.00     0.148 A 
ATOM     90  C   UNL A   1      42.068  27.751  34.857  1.00  0.00     0.002 A 
ATOM     91  C   UNL A   1      43.555  29.171  36.134  1.00  0.00     0.091 A 
ATOM     92  F   UNL A   1      44.230  31.273  35.228  1.00  0.00    -0.205 F 
ATOM     93  C   UNL A   1      42.813  27.986  36.008  1.00  0.00     0.022 A 
BRANCH  91  94
ATOM     94  S   UNL A   1      44.609  29.343  37.579  1.00  0.00     0.127 S 
ATOM     95  O   UNL A   1      45.919  29.584  36.978  1.00  0.00    -0.237 OA
ATOM     96  O   UNL A   1      44.029  30.501  38.263  1.00  0.00    -0.237 OA
ATOM     97  O   UNL A   1      44.474  28.092  38.317  1.00  0.00    -0.744 OA
ENDBRANCH  91  94
ENDBRANCH  64  87
ENDBRANCH  38  39
ENDBRANCH  31  33
ENDBRANCH  30  31
ENDBRANCH   1  30
TORSDOF 16
ENDMDL
