MODEL 1
REMARK VINA RESULT:      -9.5      0.000      0.000
REMARK SMILES CCOc1cc(OCC)cc(-c2ccc([C@@H](C)C(=O)OCCOC(=O)c3ccc(-c4c5nc(c(-c6cccc(S(=O)(=O)[O-])c6F)c6ccc([nH]6)c(-c6cccc(S(=O)(=O)[O-])c6F)c6nc(c(-c7cccc(S(=O)(=O)[O-])c7F)c7ccc4[nH]7)C=C6)C=C5)cc3)cc2)c1
REMARK SMILES IDX 21 1 20 2 18 3 19 4 16 5 17 6 15 7 12 8 13 9 90 10 14 11
REMARK SMILES IDX 89 12 11 13 4 14 5 15 91 16 6 17 10 18 3 19 2 20 1 21 7 22
REMARK SMILES IDX 8 23 9 24 22 25 23 26 24 27 25 28 26 29 27 30 88 31 28 32
REMARK SMILES IDX 87 33 29 34 30 35 31 36 81 37 32 38 86 39 80 40 82 41 33 42
REMARK SMILES IDX 85 43 79 44 78 45 34 47 66 48 46 49 65 50 47 51 50 52 64 53
REMARK SMILES IDX 83 54 48 55 49 56 63 58 84 59 51 60 35 61 36 62 44 63 37 64
REMARK SMILES IDX 39 65 45 66 38 67 40 68 41 69 42 70 43 71 67 72 68 73 76 74
REMARK SMILES IDX 69 75 71 76 77 77 70 78 72 79 73 80 74 81 75 82 52 83 53 84
REMARK SMILES IDX 61 85 54 86 56 87 62 88 55 89 57 90 58 91 59 92 60 93
REMARK H PARENT 82 46 50 57
REMARK Flexibility Score: inf
ROOT
ATOM      1  C   UNL A   1      41.817  20.316  26.260  1.00  0.00     0.274 C 
ENDROOT
BRANCH   1   2
ATOM      2  O   UNL A   1      42.572  21.197  27.112  1.00  0.00    -0.462 OA
BRANCH   2   3
ATOM      3  C   UNL A   1      43.420  22.065  26.500  1.00  0.00     0.313 C 
ATOM      4  O   UNL A   1      43.722  22.011  25.312  1.00  0.00    -0.252 OA
BRANCH   3   5
ATOM      5  C   UNL A   1      44.035  23.093  27.445  1.00  0.00     0.126 C 
ATOM      6  C   UNL A   1      42.934  23.970  28.040  1.00  0.00     0.025 C 
BRANCH   5   7
ATOM      7  C   UNL A   1      45.178  23.921  26.879  1.00  0.00    -0.034 A 
ATOM      8  C   UNL A   1      47.299  25.423  25.740  1.00  0.00    -0.018 A 
ATOM      9  C   UNL A   1      47.519  24.565  26.829  1.00  0.00     0.009 A 
ATOM     10  C   UNL A   1      45.994  25.543  25.250  1.00  0.00     0.009 A 
ATOM     11  C   UNL A   1      46.479  23.821  27.386  1.00  0.00     0.005 A 
ATOM     12  C   UNL A   1      44.951  24.796  25.805  1.00  0.00     0.005 A 
BRANCH   8  13
ATOM     13  C   UNL A   1      48.427  26.110  25.095  1.00  0.00    -0.011 A 
ATOM     14  C   UNL A   1      49.381  27.477  23.336  1.00  0.00     0.123 A 
ATOM     15  C   UNL A   1      50.643  27.377  23.925  1.00  0.00     0.092 A 
ATOM     16  C   UNL A   1      48.283  26.830  23.904  1.00  0.00     0.055 A 
ATOM     17  C   UNL A   1      50.813  26.643  25.098  1.00  0.00     0.123 A 
ATOM     18  C   UNL A   1      49.705  26.023  25.673  1.00  0.00     0.055 A 
BRANCH  14  19
ATOM     19  O   UNL A   1      49.290  28.113  22.127  1.00  0.00    -0.494 OA
BRANCH  19  20
ATOM     20  C   UNL A   1      49.200  27.220  21.011  1.00  0.00     0.226 C 
ATOM     21  C   UNL A   1      50.253  27.523  19.959  1.00  0.00     0.049 C 
ENDBRANCH  19  20
ENDBRANCH  14  19
BRANCH  17  22
ATOM     22  O   UNL A   1      52.083  26.609  25.607  1.00  0.00    -0.494 OA
BRANCH  22  23
ATOM     23  C   UNL A   1      52.516  25.388  26.216  1.00  0.00     0.226 C 
ATOM     24  C   UNL A   1      53.190  24.473  25.205  1.00  0.00     0.049 C 
ENDBRANCH  22  23
ENDBRANCH  17  22
ENDBRANCH   8  13
ENDBRANCH   5   7
ENDBRANCH   3   5
ENDBRANCH   2   3
ENDBRANCH   1   2
BRANCH   1  25
ATOM     25  C   UNL A   1      40.321  20.617  26.356  1.00  0.00     0.275 C 
BRANCH  25  26
ATOM     26  O   UNL A   1      40.097  21.869  27.024  1.00  0.00    -0.458 OA
BRANCH  26  27
ATOM     27  C   UNL A   1      39.227  22.705  26.407  1.00  0.00     0.338 C 
ATOM     28  O   UNL A   1      38.322  22.407  25.651  1.00  0.00    -0.246 OA
BRANCH  27  29
ATOM     29  C   UNL A   1      39.465  24.079  26.871  1.00  0.00     0.060 A 
ATOM     30  C   UNL A   1      40.036  24.985  25.978  1.00  0.00     0.016 A 
ATOM     31  C   UNL A   1      39.219  24.444  28.194  1.00  0.00     0.016 A 
ATOM     32  C   UNL A   1      40.399  26.258  26.408  1.00  0.00     0.010 A 
ATOM     33  C   UNL A   1      39.563  25.731  28.621  1.00  0.00     0.010 A 
ATOM     34  C   UNL A   1      40.178  26.637  27.738  1.00  0.00    -0.014 A 
BRANCH  34  35
ATOM     35  C   UNL A   1      40.628  27.969  28.206  1.00  0.00     0.031 A 
ATOM     36  C   UNL A   1      42.089  28.318  28.185  1.00  0.00     0.074 A 
ATOM     37  C   UNL A   1      39.723  28.864  28.647  1.00  0.00     0.049 A 
ATOM     38  N   UNL A   1      42.681  29.412  28.589  1.00  0.00    -0.248 NA
ATOM     39  C   UNL A   1      43.006  27.304  27.641  1.00  0.00     0.031 C 
ATOM     40  C   UNL A   1      38.279  28.639  28.717  1.00  0.00     0.029 A 
ATOM     41  N   UNL A   1      39.888  30.135  29.138  1.00  0.00    -0.354 N 
ATOM     42  C   UNL A   1      44.040  29.205  28.389  1.00  0.00     0.074 A 
ATOM     43  C   UNL A   1      44.187  27.879  27.827  1.00  0.00     0.031 C 
ATOM     44  C   UNL A   1      37.691  29.729  29.234  1.00  0.00     0.029 A 
ATOM     45  C   UNL A   1      38.716  30.717  29.559  1.00  0.00     0.049 A 
ATOM     46  H   UNL A   1      40.762  30.587  29.184  1.00  0.00     0.167 HD
ATOM     47  C   UNL A   1      45.071  30.048  28.635  1.00  0.00     0.034 A 
ATOM     48  C   UNL A   1      38.495  31.905  30.156  1.00  0.00     0.034 A 
ATOM     49  C   UNL A   1      44.920  31.382  29.151  1.00  0.00     0.049 A 
ATOM     50  C   UNL A   1      39.658  32.826  30.407  1.00  0.00     0.074 A 
ATOM     51  C   UNL A   1      45.900  32.330  29.386  1.00  0.00     0.029 A 
ATOM     52  N   UNL A   1      43.711  31.959  29.511  1.00  0.00    -0.354 N 
ATOM     53  N   UNL A   1      40.923  32.657  30.108  1.00  0.00    -0.248 NA
ATOM     54  C   UNL A   1      39.360  34.114  31.050  1.00  0.00     0.031 C 
ATOM     55  C   UNL A   1      45.285  33.478  29.899  1.00  0.00     0.029 A 
ATOM     56  C   UNL A   1      43.920  33.247  29.973  1.00  0.00     0.049 A 
ATOM     57  H   UNL A   1      42.834  31.517  29.449  1.00  0.00     0.167 HD
ATOM     58  C   UNL A   1      41.568  33.823  30.504  1.00  0.00     0.074 A 
ATOM     59  C   UNL A   1      40.549  34.703  31.039  1.00  0.00     0.031 C 
ATOM     60  C   UNL A   1      42.887  34.131  30.450  1.00  0.00     0.034 A 
BRANCH  47  61
ATOM     61  C   UNL A   1      46.459  29.567  28.312  1.00  0.00     0.023 A 
ATOM     62  C   UNL A   1      46.998  29.813  27.033  1.00  0.00     0.012 A 
ATOM     63  C   UNL A   1      47.251  28.926  29.284  1.00  0.00     0.148 A 
ATOM     64  C   UNL A   1      48.295  29.408  26.720  1.00  0.00     0.002 A 
ATOM     65  C   UNL A   1      48.555  28.556  28.977  1.00  0.00     0.091 A 
ATOM     66  F   UNL A   1      46.710  28.677  30.487  1.00  0.00    -0.205 F 
ATOM     67  C   UNL A   1      49.076  28.790  27.694  1.00  0.00     0.022 A 
BRANCH  65  68
ATOM     68  S   UNL A   1      49.657  27.815  30.185  1.00  0.00     0.127 S 
ATOM     69  O   UNL A   1      50.085  28.985  30.951  1.00  0.00    -0.237 OA
ATOM     70  O   UNL A   1      48.765  26.907  30.907  1.00  0.00    -0.237 OA
ATOM     71  O   UNL A   1      50.702  27.150  29.417  1.00  0.00    -0.744 OA
ENDBRANCH  65  68
ENDBRANCH  47  61
BRANCH  48  72
ATOM     72  C   UNL A   1      37.106  32.306  30.515  1.00  0.00     0.023 A 
ATOM     73  C   UNL A   1      36.664  32.151  31.843  1.00  0.00     0.012 A 
ATOM     74  C   UNL A   1      36.237  32.872  29.563  1.00  0.00     0.148 A 
ATOM     75  C   UNL A   1      35.373  32.534  32.210  1.00  0.00     0.002 A 
ATOM     76  C   UNL A   1      34.972  33.301  29.949  1.00  0.00     0.091 A 
ATOM     77  F   UNL A   1      36.666  32.990  28.298  1.00  0.00    -0.205 F 
ATOM     78  C   UNL A   1      34.532  33.120  31.268  1.00  0.00     0.022 A 
BRANCH  76  79
ATOM     79  S   UNL A   1      33.885  34.187  28.825  1.00  0.00     0.127 S 
ATOM     80  O   UNL A   1      32.833  34.649  29.726  1.00  0.00    -0.237 OA
ATOM     81  O   UNL A   1      34.763  35.241  28.313  1.00  0.00    -0.237 OA
ATOM     82  O   UNL A   1      33.485  33.208  27.823  1.00  0.00    -0.744 OA
ENDBRANCH  76  79
ENDBRANCH  48  72
BRANCH  60  83
ATOM     83  C   UNL A   1      43.309  35.481  30.967  1.00  0.00     0.023 A 
ATOM     84  C   UNL A   1      43.641  35.629  32.327  1.00  0.00     0.012 A 
ATOM     85  C   UNL A   1      43.446  36.580  30.097  1.00  0.00     0.148 A 
ATOM     86  C   UNL A   1      44.077  36.856  32.822  1.00  0.00     0.002 A 
ATOM     87  C   UNL A   1      43.923  37.791  30.589  1.00  0.00     0.091 A 
ATOM     88  F   UNL A   1      43.104  36.428  28.810  1.00  0.00    -0.205 F 
ATOM     89  C   UNL A   1      44.229  37.934  31.951  1.00  0.00     0.022 A 
BRANCH  87  90
ATOM     90  S   UNL A   1      44.228  39.200  29.516  1.00  0.00     0.127 S 
ATOM     91  O   UNL A   1      44.532  40.252  30.482  1.00  0.00    -0.237 OA
ATOM     92  O   UNL A   1      45.373  38.751  28.723  1.00  0.00    -0.237 OA
ATOM     93  O   UNL A   1      43.003  39.381  28.748  1.00  0.00    -0.744 OA
ENDBRANCH  87  90
ENDBRANCH  60  83
ENDBRANCH  34  35
ENDBRANCH  27  29
ENDBRANCH  26  27
ENDBRANCH  25  26
ENDBRANCH   1  25
TORSDOF 20
ENDMDL
MODEL 2
REMARK VINA RESULT:      -9.1      2.168      4.501
REMARK SMILES CCOc1cc(OCC)cc(-c2ccc([C@@H](C)C(=O)OCCOC(=O)c3ccc(-c4c5nc(c(-c6cccc(S(=O)(=O)[O-])c6F)c6ccc([nH]6)c(-c6cccc(S(=O)(=O)[O-])c6F)c6nc(c(-c7cccc(S(=O)(=O)[O-])c7F)c7ccc4[nH]7)C=C6)C=C5)cc3)cc2)c1
REMARK SMILES IDX 21 1 20 2 18 3 19 4 16 5 17 6 15 7 12 8 13 9 90 10 14 11
REMARK SMILES IDX 89 12 11 13 4 14 5 15 91 16 6 17 10 18 3 19 2 20 1 21 7 22
REMARK SMILES IDX 8 23 9 24 22 25 23 26 24 27 25 28 26 29 27 30 88 31 28 32
REMARK SMILES IDX 87 33 29 34 30 35 31 36 81 37 32 38 86 39 80 40 82 41 33 42
REMARK SMILES IDX 85 43 79 44 78 45 34 47 66 48 46 49 65 50 47 51 50 52 64 53
REMARK SMILES IDX 83 54 48 55 49 56 63 58 84 59 51 60 35 61 36 62 44 63 37 64
REMARK SMILES IDX 39 65 45 66 38 67 40 68 41 69 42 70 43 71 67 72 68 73 76 74
REMARK SMILES IDX 69 75 71 76 77 77 70 78 72 79 73 80 74 81 75 82 52 83 53 84
REMARK SMILES IDX 61 85 54 86 56 87 62 88 55 89 57 90 58 91 59 92 60 93
REMARK H PARENT 82 46 50 57
REMARK Flexibility Score: inf
ROOT
ATOM      1  C   UNL A   1      42.145  20.549  26.360  1.00  0.00     0.274 C 
ENDROOT
BRANCH   1   2
ATOM      2  O   UNL A   1      42.708  21.818  26.743  1.00  0.00    -0.462 OA
BRANCH   2   3
ATOM      3  C   UNL A   1      43.266  22.565  25.754  1.00  0.00     0.313 C 
ATOM      4  O   UNL A   1      42.809  22.657  24.619  1.00  0.00    -0.252 OA
BRANCH   3   5
ATOM      5  C   UNL A   1      44.573  23.238  26.158  1.00  0.00     0.126 C 
ATOM      6  C   UNL A   1      45.747  22.304  25.868  1.00  0.00     0.025 C 
BRANCH   5   7
ATOM      7  C   UNL A   1      44.628  23.798  27.570  1.00  0.00    -0.034 A 
ATOM      8  C   UNL A   1      44.805  24.786  30.224  1.00  0.00    -0.018 A 
ATOM      9  C   UNL A   1      43.643  24.148  29.762  1.00  0.00     0.009 A 
ATOM     10  C   UNL A   1      45.866  24.953  29.328  1.00  0.00     0.009 A 
ATOM     11  C   UNL A   1      43.557  23.655  28.460  1.00  0.00     0.005 A 
ATOM     12  C   UNL A   1      45.782  24.458  28.023  1.00  0.00     0.005 A 
BRANCH   8  13
ATOM     13  C   UNL A   1      44.919  25.195  31.632  1.00  0.00    -0.011 A 
ATOM     14  C   UNL A   1      45.645  26.722  33.368  1.00  0.00     0.123 A 
ATOM     15  C   UNL A   1      45.102  25.888  34.347  1.00  0.00     0.092 A 
ATOM     16  C   UNL A   1      45.574  26.369  32.020  1.00  0.00     0.055 A 
ATOM     17  C   UNL A   1      44.469  24.700  33.984  1.00  0.00     0.123 A 
ATOM     18  C   UNL A   1      44.379  24.370  32.633  1.00  0.00     0.055 A 
BRANCH  14  19
ATOM     19  O   UNL A   1      46.354  27.816  33.784  1.00  0.00    -0.494 OA
BRANCH  19  20
ATOM     20  C   UNL A   1      47.348  27.518  34.770  1.00  0.00     0.226 C 
ATOM     21  C   UNL A   1      48.642  27.033  34.139  1.00  0.00     0.049 C 
ENDBRANCH  19  20
ENDBRANCH  14  19
BRANCH  17  22
ATOM     22  O   UNL A   1      43.961  23.951  35.010  1.00  0.00    -0.494 OA
BRANCH  22  23
ATOM     23  C   UNL A   1      42.551  23.707  35.011  1.00  0.00     0.226 C 
ATOM     24  C   UNL A   1      41.846  24.534  36.076  1.00  0.00     0.049 C 
ENDBRANCH  22  23
ENDBRANCH  17  22
ENDBRANCH   8  13
ENDBRANCH   5   7
ENDBRANCH   3   5
ENDBRANCH   2   3
ENDBRANCH   1   2
BRANCH   1  25
ATOM     25  C   UNL A   1      40.625  20.553  26.534  1.00  0.00     0.275 C 
BRANCH  25  26
ATOM     26  O   UNL A   1      40.196  21.742  27.218  1.00  0.00    -0.458 OA
BRANCH  26  27
ATOM     27  C   UNL A   1      39.410  22.573  26.492  1.00  0.00     0.338 C 
ATOM     28  O   UNL A   1      38.582  22.267  25.654  1.00  0.00    -0.246 OA
BRANCH  27  29
ATOM     29  C   UNL A   1      39.625  23.956  26.940  1.00  0.00     0.060 A 
ATOM     30  C   UNL A   1      40.174  24.863  26.035  1.00  0.00     0.016 A 
ATOM     31  C   UNL A   1      39.380  24.330  28.260  1.00  0.00     0.016 A 
ATOM     32  C   UNL A   1      40.516  26.147  26.450  1.00  0.00     0.010 A 
ATOM     33  C   UNL A   1      39.702  25.627  28.673  1.00  0.00     0.010 A 
ATOM     34  C   UNL A   1      40.295  26.535  27.777  1.00  0.00    -0.014 A 
BRANCH  34  35
ATOM     35  C   UNL A   1      40.722  27.880  28.230  1.00  0.00     0.031 A 
ATOM     36  C   UNL A   1      42.179  28.251  28.210  1.00  0.00     0.074 A 
ATOM     37  C   UNL A   1      39.803  28.767  28.655  1.00  0.00     0.049 A 
ATOM     38  N   UNL A   1      42.752  29.360  28.602  1.00  0.00    -0.248 NA
ATOM     39  C   UNL A   1      43.113  27.244  27.684  1.00  0.00     0.031 C 
ATOM     40  C   UNL A   1      38.362  28.521  28.721  1.00  0.00     0.029 A 
ATOM     41  N   UNL A   1      39.946  30.047  29.129  1.00  0.00    -0.354 N 
ATOM     42  C   UNL A   1      44.115  29.170  28.411  1.00  0.00     0.074 A 
ATOM     43  C   UNL A   1      44.284  27.839  27.868  1.00  0.00     0.031 C 
ATOM     44  C   UNL A   1      37.755  29.609  29.220  1.00  0.00     0.029 A 
ATOM     45  C   UNL A   1      38.763  30.617  29.537  1.00  0.00     0.049 A 
ATOM     46  H   UNL A   1      40.813  30.512  29.173  1.00  0.00     0.167 HD
ATOM     47  C   UNL A   1      45.132  30.032  28.649  1.00  0.00     0.034 A 
ATOM     48  C   UNL A   1      38.522  31.809  30.116  1.00  0.00     0.034 A 
ATOM     49  C   UNL A   1      44.958  31.370  29.147  1.00  0.00     0.049 A 
ATOM     50  C   UNL A   1      39.669  32.751  30.360  1.00  0.00     0.074 A 
ATOM     51  C   UNL A   1      45.922  32.336  29.373  1.00  0.00     0.029 A 
ATOM     52  N   UNL A   1      43.739  31.934  29.494  1.00  0.00    -0.354 N 
ATOM     53  N   UNL A   1      40.938  32.597  30.069  1.00  0.00    -0.248 NA
ATOM     54  C   UNL A   1      39.349  34.043  30.985  1.00  0.00     0.031 C 
ATOM     55  C   UNL A   1      45.288  33.481  29.868  1.00  0.00     0.029 A 
ATOM     56  C   UNL A   1      43.926  33.231  29.939  1.00  0.00     0.049 A 
ATOM     57  H   UNL A   1      42.869  31.478  29.434  1.00  0.00     0.167 HD
ATOM     58  C   UNL A   1      41.564  33.778  30.452  1.00  0.00     0.074 A 
ATOM     59  C   UNL A   1      40.528  34.650  30.971  1.00  0.00     0.031 C 
ATOM     60  C   UNL A   1      42.878  34.106  30.400  1.00  0.00     0.034 A 
BRANCH  47  61
ATOM     61  C   UNL A   1      46.529  29.567  28.339  1.00  0.00     0.023 A 
ATOM     62  C   UNL A   1      47.062  29.786  27.053  1.00  0.00     0.012 A 
ATOM     63  C   UNL A   1      47.332  28.970  29.329  1.00  0.00     0.148 A 
ATOM     64  C   UNL A   1      48.366  29.396  26.751  1.00  0.00     0.002 A 
ATOM     65  C   UNL A   1      48.643  28.616  29.031  1.00  0.00     0.091 A 
ATOM     66  F   UNL A   1      46.797  28.747  30.539  1.00  0.00    -0.205 F 
ATOM     67  C   UNL A   1      49.159  28.822  27.741  1.00  0.00     0.022 A 
BRANCH  65  68
ATOM     68  S   UNL A   1      49.760  27.931  30.260  1.00  0.00     0.127 S 
ATOM     69  O   UNL A   1      49.702  28.947  31.310  1.00  0.00    -0.237 OA
ATOM     70  O   UNL A   1      49.111  26.665  30.600  1.00  0.00    -0.237 OA
ATOM     71  O   UNL A   1      51.048  27.790  29.593  1.00  0.00    -0.744 OA
ENDBRANCH  65  68
ENDBRANCH  47  61
BRANCH  48  72
ATOM     72  C   UNL A   1      37.125  32.194  30.464  1.00  0.00     0.023 A 
ATOM     73  C   UNL A   1      36.658  31.988  31.776  1.00  0.00     0.012 A 
ATOM     74  C   UNL A   1      36.273  32.794  29.518  1.00  0.00     0.148 A 
ATOM     75  C   UNL A   1      35.359  32.354  32.133  1.00  0.00     0.002 A 
ATOM     76  C   UNL A   1      34.999  33.206  29.895  1.00  0.00     0.091 A 
ATOM     77  F   UNL A   1      36.726  32.960  28.266  1.00  0.00    -0.205 F 
ATOM     78  C   UNL A   1      34.535  32.974  31.198  1.00  0.00     0.022 A 
BRANCH  76  79
ATOM     79  S   UNL A   1      33.932  34.132  28.786  1.00  0.00     0.127 S 
ATOM     80  O   UNL A   1      32.883  34.592  29.691  1.00  0.00    -0.237 OA
ATOM     81  O   UNL A   1      34.829  35.182  28.299  1.00  0.00    -0.237 OA
ATOM     82  O   UNL A   1      33.522  33.180  27.761  1.00  0.00    -0.744 OA
ENDBRANCH  76  79
ENDBRANCH  48  72
BRANCH  60  83
ATOM     83  C   UNL A   1      43.277  35.468  30.900  1.00  0.00     0.023 A 
ATOM     84  C   UNL A   1      43.585  35.643  32.263  1.00  0.00     0.012 A 
ATOM     85  C   UNL A   1      43.416  36.554  30.014  1.00  0.00     0.148 A 
ATOM     86  C   UNL A   1      44.001  36.883  32.744  1.00  0.00     0.002 A 
ATOM     87  C   UNL A   1      43.872  37.779  30.493  1.00  0.00     0.091 A 
ATOM     88  F   UNL A   1      43.096  36.376  28.725  1.00  0.00    -0.205 F 
ATOM     89  C   UNL A   1      44.155  37.948  31.857  1.00  0.00     0.022 A 
BRANCH  87  90
ATOM     90  S   UNL A   1      44.179  39.172  29.402  1.00  0.00     0.127 S 
ATOM     91  O   UNL A   1      45.185  38.626  28.494  1.00  0.00    -0.237 OA
ATOM     92  O   UNL A   1      42.866  39.394  28.794  1.00  0.00    -0.237 OA
ATOM     93  O   UNL A   1      44.629  40.256  30.266  1.00  0.00    -0.744 OA
ENDBRANCH  87  90
ENDBRANCH  60  83
ENDBRANCH  34  35
ENDBRANCH  27  29
ENDBRANCH  26  27
ENDBRANCH  25  26
ENDBRANCH   1  25
TORSDOF 20
ENDMDL
MODEL 3
REMARK VINA RESULT:      -8.9      4.242      9.658
REMARK SMILES CCOc1cc(OCC)cc(-c2ccc([C@@H](C)C(=O)OCCOC(=O)c3ccc(-c4c5nc(c(-c6cccc(S(=O)(=O)[O-])c6F)c6ccc([nH]6)c(-c6cccc(S(=O)(=O)[O-])c6F)c6nc(c(-c7cccc(S(=O)(=O)[O-])c7F)c7ccc4[nH]7)C=C6)C=C5)cc3)cc2)c1
REMARK SMILES IDX 21 1 20 2 18 3 19 4 16 5 17 6 15 7 12 8 13 9 90 10 14 11
REMARK SMILES IDX 89 12 11 13 4 14 5 15 91 16 6 17 10 18 3 19 2 20 1 21 7 22
REMARK SMILES IDX 8 23 9 24 22 25 23 26 24 27 25 28 26 29 27 30 88 31 28 32
REMARK SMILES IDX 87 33 29 34 30 35 31 36 81 37 32 38 86 39 80 40 82 41 33 42
REMARK SMILES IDX 85 43 79 44 78 45 34 47 66 48 46 49 65 50 47 51 50 52 64 53
REMARK SMILES IDX 83 54 48 55 49 56 63 58 84 59 51 60 35 61 36 62 44 63 37 64
REMARK SMILES IDX 39 65 45 66 38 67 40 68 41 69 42 70 43 71 67 72 68 73 76 74
REMARK SMILES IDX 69 75 71 76 77 77 70 78 72 79 73 80 74 81 75 82 52 83 53 84
REMARK SMILES IDX 61 85 54 86 56 87 62 88 55 89 57 90 58 91 59 92 60 93
REMARK H PARENT 82 46 50 57
REMARK Flexibility Score: inf
ROOT
ATOM      1  C   UNL A   1      52.587  27.544  24.279  1.00  0.00     0.274 C 
ENDROOT
BRANCH   1   2
ATOM      2  O   UNL A   1      51.366  26.888  23.889  1.00  0.00    -0.462 OA
BRANCH   2   3
ATOM      3  C   UNL A   1      50.565  27.552  23.014  1.00  0.00     0.313 C 
ATOM      4  O   UNL A   1      50.763  28.701  22.633  1.00  0.00    -0.252 OA
BRANCH   3   5
ATOM      5  C   UNL A   1      49.334  26.759  22.587  1.00  0.00     0.126 C 
ATOM      6  C   UNL A   1      48.952  27.130  21.154  1.00  0.00     0.025 C 
BRANCH   5   7
ATOM      7  C   UNL A   1      48.140  26.820  23.527  1.00  0.00    -0.034 A 
ATOM      8  C   UNL A   1      45.960  27.000  25.334  1.00  0.00    -0.018 A 
ATOM      9  C   UNL A   1      46.632  25.785  25.124  1.00  0.00     0.009 A 
ATOM     10  C   UNL A   1      46.374  28.117  24.601  1.00  0.00     0.009 A 
ATOM     11  C   UNL A   1      47.709  25.697  24.241  1.00  0.00     0.005 A 
ATOM     12  C   UNL A   1      47.455  28.031  23.717  1.00  0.00     0.005 A 
BRANCH   8  13
ATOM     13  C   UNL A   1      44.904  27.099  26.352  1.00  0.00    -0.011 A 
ATOM     14  C   UNL A   1      43.768  26.316  28.344  1.00  0.00     0.123 A 
ATOM     15  C   UNL A   1      42.844  27.358  28.242  1.00  0.00     0.092 A 
ATOM     16  C   UNL A   1      44.779  26.174  27.394  1.00  0.00     0.055 A 
ATOM     17  C   UNL A   1      42.934  28.275  27.196  1.00  0.00     0.123 A 
ATOM     18  C   UNL A   1      43.964  28.141  26.268  1.00  0.00     0.055 A 
BRANCH  14  19
ATOM     19  O   UNL A   1      43.567  25.380  29.322  1.00  0.00    -0.494 OA
BRANCH  19  20
ATOM     20  C   UNL A   1      43.681  24.030  28.858  1.00  0.00     0.226 C 
ATOM     21  C   UNL A   1      44.139  23.091  29.962  1.00  0.00     0.049 C 
ENDBRANCH  19  20
ENDBRANCH  14  19
BRANCH  17  22
ATOM     22  O   UNL A   1      41.990  29.267  27.182  1.00  0.00    -0.494 OA
BRANCH  22  23
ATOM     23  C   UNL A   1      40.625  28.873  27.013  1.00  0.00     0.226 C 
ATOM     24  C   UNL A   1      39.769  29.322  28.188  1.00  0.00     0.049 C 
ENDBRANCH  22  23
ENDBRANCH  17  22
ENDBRANCH   8  13
ENDBRANCH   5   7
ENDBRANCH   3   5
ENDBRANCH   2   3
ENDBRANCH   1   2
BRANCH   1  25
ATOM     25  C   UNL A   1      52.444  28.183  25.661  1.00  0.00     0.275 C 
BRANCH  25  26
ATOM     26  O   UNL A   1      53.050  27.357  26.668  1.00  0.00    -0.458 OA
BRANCH  26  27
ATOM     27  C   UNL A   1      52.403  26.195  26.926  1.00  0.00     0.338 C 
ATOM     28  O   UNL A   1      52.786  25.064  26.690  1.00  0.00    -0.246 OA
BRANCH  27  29
ATOM     29  C   UNL A   1      51.162  26.485  27.658  1.00  0.00     0.060 A 
ATOM     30  C   UNL A   1      49.961  26.012  27.130  1.00  0.00     0.016 A 
ATOM     31  C   UNL A   1      51.169  27.292  28.794  1.00  0.00     0.016 A 
ATOM     32  C   UNL A   1      48.750  26.370  27.713  1.00  0.00     0.010 A 
ATOM     33  C   UNL A   1      49.953  27.634  29.395  1.00  0.00     0.010 A 
ATOM     34  C   UNL A   1      48.735  27.196  28.845  1.00  0.00    -0.014 A 
BRANCH  34  35
ATOM     35  C   UNL A   1      47.440  27.628  29.422  1.00  0.00     0.031 A 
ATOM     36  C   UNL A   1      46.773  28.877  28.919  1.00  0.00     0.074 A 
ATOM     37  C   UNL A   1      46.864  26.896  30.394  1.00  0.00     0.049 A 
ATOM     38  N   UNL A   1      45.663  29.438  29.323  1.00  0.00    -0.248 NA
ATOM     39  C   UNL A   1      47.443  29.591  27.820  1.00  0.00     0.031 C 
ATOM     40  C   UNL A   1      47.416  25.667  30.964  1.00  0.00     0.029 A 
ATOM     41  N   UNL A   1      45.695  27.091  31.087  1.00  0.00    -0.354 N 
ATOM     42  C   UNL A   1      45.521  30.591  28.560  1.00  0.00     0.074 A 
ATOM     43  C   UNL A   1      46.660  30.650  27.668  1.00  0.00     0.031 C 
ATOM     44  C   UNL A   1      46.595  25.225  31.930  1.00  0.00     0.029 A 
ATOM     45  C   UNL A   1      45.475  26.152  32.067  1.00  0.00     0.049 A 
ATOM     46  H   UNL A   1      45.074  27.832  30.900  1.00  0.00     0.167 HD
ATOM     47  C   UNL A   1      44.525  31.508  28.588  1.00  0.00     0.034 A 
ATOM     48  C   UNL A   1      44.492  26.060  32.984  1.00  0.00     0.034 A 
ATOM     49  C   UNL A   1      43.372  31.424  29.444  1.00  0.00     0.049 A 
ATOM     50  C   UNL A   1      43.392  27.087  32.985  1.00  0.00     0.074 A 
ATOM     51  C   UNL A   1      42.285  32.277  29.509  1.00  0.00     0.029 A 
ATOM     52  N   UNL A   1      43.154  30.427  30.383  1.00  0.00    -0.354 N 
ATOM     53  N   UNL A   1      43.218  28.108  32.181  1.00  0.00    -0.248 NA
ATOM     54  C   UNL A   1      42.339  26.933  33.999  1.00  0.00     0.031 C 
ATOM     55  C   UNL A   1      41.414  31.802  30.496  1.00  0.00     0.029 A 
ATOM     56  C   UNL A   1      41.954  30.646  31.038  1.00  0.00     0.049 A 
ATOM     57  H   UNL A   1      43.764  29.675  30.560  1.00  0.00     0.167 HD
ATOM     58  C   UNL A   1      42.025  28.704  32.576  1.00  0.00     0.074 A 
ATOM     59  C   UNL A   1      41.505  27.912  33.673  1.00  0.00     0.031 C 
ATOM     60  C   UNL A   1      41.424  29.817  32.090  1.00  0.00     0.034 A 
BRANCH  47  61
ATOM     61  C   UNL A   1      44.617  32.669  27.636  1.00  0.00     0.023 A 
ATOM     62  C   UNL A   1      44.143  32.522  26.317  1.00  0.00     0.012 A 
ATOM     63  C   UNL A   1      45.116  33.916  28.058  1.00  0.00     0.148 A 
ATOM     64  C   UNL A   1      44.186  33.593  25.425  1.00  0.00     0.002 A 
ATOM     65  C   UNL A   1      45.123  34.990  27.174  1.00  0.00     0.091 A 
ATOM     66  F   UNL A   1      45.586  34.028  29.309  1.00  0.00    -0.205 F 
ATOM     67  C   UNL A   1      44.664  34.828  25.856  1.00  0.00     0.022 A 
BRANCH  65  68
ATOM     68  S   UNL A   1      45.659  36.634  27.658  1.00  0.00     0.127 S 
ATOM     69  O   UNL A   1      47.104  36.449  27.776  1.00  0.00    -0.237 OA
ATOM     70  O   UNL A   1      45.239  37.448  26.517  1.00  0.00    -0.237 OA
ATOM     71  O   UNL A   1      44.960  36.931  28.901  1.00  0.00    -0.744 OA
ENDBRANCH  65  68
ENDBRANCH  47  61
BRANCH  48  72
ATOM     72  C   UNL A   1      44.483  24.924  33.948  1.00  0.00     0.023 A 
ATOM     73  C   UNL A   1      43.972  23.677  33.542  1.00  0.00     0.012 A 
ATOM     74  C   UNL A   1      45.012  25.061  35.247  1.00  0.00     0.148 A 
ATOM     75  C   UNL A   1      43.968  22.592  34.421  1.00  0.00     0.002 A 
ATOM     76  C   UNL A   1      45.054  23.961  36.096  1.00  0.00     0.091 A 
ATOM     77  F   UNL A   1      45.472  26.263  35.625  1.00  0.00    -0.205 F 
ATOM     78  C   UNL A   1      44.519  22.729  35.692  1.00  0.00     0.022 A 
BRANCH  76  79
ATOM     79  S   UNL A   1      45.870  24.027  37.696  1.00  0.00     0.127 S 
ATOM     80  O   UNL A   1      47.107  24.731  37.374  1.00  0.00    -0.237 OA
ATOM     81  O   UNL A   1      44.915  24.795  38.498  1.00  0.00    -0.237 OA
ATOM     82  O   UNL A   1      46.014  22.638  38.113  1.00  0.00    -0.744 OA
ENDBRANCH  76  79
ENDBRANCH  48  72
BRANCH  60  83
ATOM     83  C   UNL A   1      40.127  30.242  32.725  1.00  0.00     0.023 A 
ATOM     84  C   UNL A   1      38.909  29.770  32.197  1.00  0.00     0.012 A 
ATOM     85  C   UNL A   1      40.115  31.045  33.882  1.00  0.00     0.148 A 
ATOM     86  C   UNL A   1      37.697  30.112  32.794  1.00  0.00     0.002 A 
ATOM     87  C   UNL A   1      38.904  31.347  34.497  1.00  0.00     0.091 A 
ATOM     88  F   UNL A   1      41.281  31.504  34.358  1.00  0.00    -0.205 F 
ATOM     89  C   UNL A   1      37.695  30.890  33.950  1.00  0.00     0.022 A 
BRANCH  87  90
ATOM     90  S   UNL A   1      38.823  32.271  36.036  1.00  0.00     0.127 S 
ATOM     91  O   UNL A   1      39.345  33.573  35.633  1.00  0.00    -0.237 OA
ATOM     92  O   UNL A   1      37.391  32.255  36.339  1.00  0.00    -0.237 OA
ATOM     93  O   UNL A   1      39.642  31.527  36.985  1.00  0.00    -0.744 OA
ENDBRANCH  87  90
ENDBRANCH  60  83
ENDBRANCH  34  35
ENDBRANCH  27  29
ENDBRANCH  26  27
ENDBRANCH  25  26
ENDBRANCH   1  25
TORSDOF 20
ENDMDL
