MODEL 1
REMARK VINA RESULT:     -12.3      0.000      0.000
REMARK SMILES Cc1ccnc(C(=O)c2[nH]c3cc(F)ccc3c2CC(=O)OCCOC(=O)c2ccc(-c3c4nc(c(-c5cccc(S(=O)(=O)[O-])c5F)c5ccc([nH]5)c(-c5cccc(S(=O)(=O)[O-])c5F)c5nc(c(-c6cccc(S(=O)(=O)[O-])c6F)c6ccc3[nH]6)C=C5)C=C4)cc2)c1
REMARK SMILES IDX 23 1 22 2 20 3 21 4 19 5 18 6 9 7 10 8 11 9 17 11 12 12
REMARK SMILES IDX 16 13 13 14 15 15 14 16 7 17 8 18 6 19 1 20 2 21 3 22 91 23
REMARK SMILES IDX 4 24 5 25 24 26 25 27 26 28 27 29 28 30 29 31 90 32 30 33
REMARK SMILES IDX 89 34 31 35 32 36 33 37 83 38 34 39 88 40 82 41 84 42 35 43
REMARK SMILES IDX 87 44 81 45 80 46 36 48 68 49 48 50 67 51 49 52 52 53 66 54
REMARK SMILES IDX 85 55 50 56 51 57 65 59 86 60 53 61 37 62 38 63 46 64 39 65
REMARK SMILES IDX 41 66 47 67 40 68 42 69 43 70 44 71 45 72 69 73 70 74 78 75
REMARK SMILES IDX 71 76 73 77 79 78 72 79 74 80 75 81 76 82 77 83 54 84 55 85
REMARK SMILES IDX 63 86 56 87 58 88 64 89 57 90 59 91 60 92 61 93 62 94
REMARK H PARENT 10 10 84 47 52 58
REMARK Flexibility Score: inf
ROOT
ATOM      1  C   UNL A   1      35.685  22.212  24.014  1.00  0.00     0.274 C 
ENDROOT
BRANCH   1   2
ATOM      2  O   UNL A   1      35.601  23.350  23.126  1.00  0.00    -0.462 OA
BRANCH   2   3
ATOM      3  C   UNL A   1      34.776  24.353  23.514  1.00  0.00     0.310 C 
ATOM      4  O   UNL A   1      33.996  24.928  22.756  1.00  0.00    -0.252 OA
BRANCH   3   5
ATOM      5  C   UNL A   1      34.758  24.636  25.000  1.00  0.00     0.161 C 
BRANCH   5   6
ATOM      6  C   UNL A   1      33.553  25.268  25.627  1.00  0.00     0.000 A 
ATOM      7  C   UNL A   1      32.420  24.646  26.151  1.00  0.00     0.093 A 
ATOM      8  N   UNL A   1      31.556  25.639  26.541  1.00  0.00    -0.351 N 
ATOM      9  C   UNL A   1      32.019  26.871  26.169  1.00  0.00     0.049 A 
ATOM     10  H   UNL A   1      30.712  25.486  27.024  1.00  0.00     0.167 HD
ATOM     11  C   UNL A   1      33.301  26.685  25.656  1.00  0.00     0.004 A 
ATOM     12  C   UNL A   1      31.404  28.123  26.258  1.00  0.00     0.066 A 
ATOM     13  C   UNL A   1      34.030  27.825  25.247  1.00  0.00     0.013 A 
ATOM     14  C   UNL A   1      32.141  29.222  25.826  1.00  0.00     0.125 A 
ATOM     15  C   UNL A   1      33.436  29.091  25.341  1.00  0.00     0.040 A 
ATOM     16  F   UNL A   1      31.583  30.439  25.884  1.00  0.00    -0.207 F 
BRANCH   7  17
ATOM     17  C   UNL A   1      32.046  23.259  26.399  1.00  0.00     0.227 C 
ATOM     18  O   UNL A   1      31.560  22.948  27.487  1.00  0.00    -0.285 OA
BRANCH  17  19
ATOM     19  C   UNL A   1      31.964  22.280  25.248  1.00  0.00     0.113 A 
ATOM     20  C   UNL A   1      33.187  18.818  24.269  1.00  0.00     0.044 C 
ATOM     21  C   UNL A   1      32.582  20.190  24.220  1.00  0.00    -0.047 A 
ATOM     22  C   UNL A   1      32.231  20.739  22.986  1.00  0.00     0.023 A 
ATOM     23  C   UNL A   1      32.423  20.968  25.376  1.00  0.00     0.036 A 
ATOM     24  C   UNL A   1      31.753  22.036  22.952  1.00  0.00     0.112 A 
ATOM     25  N   UNL A   1      31.627  22.817  24.044  1.00  0.00    -0.253 NA
ENDBRANCH  17  19
ENDBRANCH   7  17
ENDBRANCH   5   6
ENDBRANCH   3   5
ENDBRANCH   2   3
ENDBRANCH   1   2
BRANCH   1  26
ATOM     26  C   UNL A   1      37.139  21.779  24.256  1.00  0.00     0.275 C 
BRANCH  26  27
ATOM     27  O   UNL A   1      37.386  21.364  25.617  1.00  0.00    -0.458 OA
BRANCH  27  28
ATOM     28  C   UNL A   1      38.698  21.257  25.909  1.00  0.00     0.338 C 
ATOM     29  O   UNL A   1      39.443  20.352  25.559  1.00  0.00    -0.246 OA
BRANCH  28  30
ATOM     30  C   UNL A   1      39.253  22.417  26.601  1.00  0.00     0.060 A 
ATOM     31  C   UNL A   1      38.810  23.671  26.182  1.00  0.00     0.016 A 
ATOM     32  C   UNL A   1      40.377  22.294  27.418  1.00  0.00     0.016 A 
ATOM     33  C   UNL A   1      39.544  24.804  26.500  1.00  0.00     0.010 A 
ATOM     34  C   UNL A   1      41.066  23.448  27.809  1.00  0.00     0.010 A 
ATOM     35  C   UNL A   1      40.674  24.707  27.324  1.00  0.00    -0.014 A 
BRANCH  35  36
ATOM     36  C   UNL A   1      41.370  25.960  27.708  1.00  0.00     0.031 A 
ATOM     37  C   UNL A   1      42.790  26.232  27.305  1.00  0.00     0.074 A 
ATOM     38  C   UNL A   1      40.663  26.891  28.376  1.00  0.00     0.049 A 
ATOM     39  N   UNL A   1      43.486  27.331  27.451  1.00  0.00    -0.248 NA
ATOM     40  C   UNL A   1      43.524  25.144  26.643  1.00  0.00     0.031 C 
ATOM     41  C   UNL A   1      39.278  26.727  28.826  1.00  0.00     0.029 A 
ATOM     42  N   UNL A   1      40.998  28.156  28.780  1.00  0.00    -0.354 N 
ATOM     43  C   UNL A   1      44.734  27.072  26.899  1.00  0.00     0.074 A 
ATOM     44  C   UNL A   1      44.709  25.703  26.428  1.00  0.00     0.031 C 
ATOM     45  C   UNL A   1      38.875  27.856  29.425  1.00  0.00     0.029 A 
ATOM     46  C   UNL A   1      39.983  28.804  29.440  1.00  0.00     0.049 A 
ATOM     47  H   UNL A   1      41.880  28.561  28.613  1.00  0.00     0.167 HD
ATOM     48  C   UNL A   1      45.793  27.907  26.778  1.00  0.00     0.034 A 
ATOM     49  C   UNL A   1      39.948  30.024  30.009  1.00  0.00     0.034 A 
ATOM     50  C   UNL A   1      45.821  29.260  27.268  1.00  0.00     0.049 A 
ATOM     51  C   UNL A   1      41.159  30.902  29.910  1.00  0.00     0.074 A 
ATOM     52  C   UNL A   1      46.848  30.184  27.189  1.00  0.00     0.029 A 
ATOM     53  N   UNL A   1      44.781  29.878  27.946  1.00  0.00    -0.354 N 
ATOM     54  N   UNL A   1      42.283  30.685  29.272  1.00  0.00    -0.248 NA
ATOM     55  C   UNL A   1      41.090  32.201  30.592  1.00  0.00     0.031 C 
ATOM     56  C   UNL A   1      46.434  31.357  27.833  1.00  0.00     0.029 A 
ATOM     57  C   UNL A   1      45.147  31.164  28.307  1.00  0.00     0.049 A 
ATOM     58  H   UNL A   1      43.910  29.462  28.142  1.00  0.00     0.167 HD
ATOM     59  C   UNL A   1      43.054  31.823  29.466  1.00  0.00     0.074 A 
ATOM     60  C   UNL A   1      42.252  32.742  30.249  1.00  0.00     0.031 C 
ATOM     61  C   UNL A   1      44.322  32.076  29.058  1.00  0.00     0.034 A 
BRANCH  48  62
ATOM     62  C   UNL A   1      47.003  27.399  26.041  1.00  0.00     0.023 A 
ATOM     63  C   UNL A   1      47.100  27.636  24.654  1.00  0.00     0.012 A 
ATOM     64  C   UNL A   1      48.066  26.769  26.713  1.00  0.00     0.148 A 
ATOM     65  C   UNL A   1      48.235  27.243  23.945  1.00  0.00     0.002 A 
ATOM     66  C   UNL A   1      49.205  26.401  26.004  1.00  0.00     0.091 A 
ATOM     67  F   UNL A   1      47.941  26.536  28.028  1.00  0.00    -0.205 F 
ATOM     68  C   UNL A   1      49.289  26.635  24.622  1.00  0.00     0.022 A 
BRANCH  66  69
ATOM     69  S   UNL A   1      50.636  25.648  26.785  1.00  0.00     0.127 S 
ATOM     70  O   UNL A   1      51.036  26.690  27.728  1.00  0.00    -0.237 OA
ATOM     71  O   UNL A   1      50.057  24.454  27.403  1.00  0.00    -0.237 OA
ATOM     72  O   UNL A   1      51.584  25.379  25.712  1.00  0.00    -0.744 OA
ENDBRANCH  66  69
ENDBRANCH  48  62
BRANCH  49  73
ATOM     73  C   UNL A   1      38.704  30.481  30.685  1.00  0.00     0.023 A 
ATOM     74  C   UNL A   1      38.577  30.340  32.079  1.00  0.00     0.012 A 
ATOM     75  C   UNL A   1      37.674  31.114  29.963  1.00  0.00     0.148 A 
ATOM     76  C   UNL A   1      37.440  30.811  32.738  1.00  0.00     0.002 A 
ATOM     77  C   UNL A   1      36.573  31.635  30.633  1.00  0.00     0.091 A 
ATOM     78  F   UNL A   1      37.794  31.218  28.630  1.00  0.00    -0.205 F 
ATOM     79  C   UNL A   1      36.445  31.472  32.019  1.00  0.00     0.022 A 
BRANCH  77  80
ATOM     80  S   UNL A   1      35.361  32.630  29.761  1.00  0.00     0.127 S 
ATOM     81  O   UNL A   1      34.384  32.912  30.808  1.00  0.00    -0.237 OA
ATOM     82  O   UNL A   1      36.146  33.786  29.326  1.00  0.00    -0.237 OA
ATOM     83  O   UNL A   1      34.913  31.777  28.666  1.00  0.00    -0.744 OA
ENDBRANCH  77  80
ENDBRANCH  49  73
BRANCH  61  84
ATOM     84  C   UNL A   1      44.919  33.393  29.469  1.00  0.00     0.023 A 
ATOM     85  C   UNL A   1      45.680  33.461  30.653  1.00  0.00     0.012 A 
ATOM     86  C   UNL A   1      44.762  34.546  28.680  1.00  0.00     0.148 A 
ATOM     87  C   UNL A   1      46.247  34.666  31.062  1.00  0.00     0.002 A 
ATOM     88  C   UNL A   1      45.363  35.737  29.074  1.00  0.00     0.091 A 
ATOM     89  F   UNL A   1      44.013  34.473  27.570  1.00  0.00    -0.205 F 
ATOM     90  C   UNL A   1      46.098  35.802  30.269  1.00  0.00     0.022 A 
BRANCH  88  91
ATOM     91  S   UNL A   1      45.269  37.208  28.049  1.00  0.00     0.127 S 
ATOM     92  O   UNL A   1      45.863  36.744  26.797  1.00  0.00    -0.237 OA
ATOM     93  O   UNL A   1      43.829  37.465  27.980  1.00  0.00    -0.237 OA
ATOM     94  O   UNL A   1      46.018  38.224  28.777  1.00  0.00    -0.744 OA
ENDBRANCH  88  91
ENDBRANCH  61  84
ENDBRANCH  35  36
ENDBRANCH  28  30
ENDBRANCH  27  28
ENDBRANCH  26  27
ENDBRANCH   1  26
TORSDOF 17
ENDMDL
MODEL 2
REMARK VINA RESULT:     -12.2      4.919      9.993
REMARK SMILES Cc1ccnc(C(=O)c2[nH]c3cc(F)ccc3c2CC(=O)OCCOC(=O)c2ccc(-c3c4nc(c(-c5cccc(S(=O)(=O)[O-])c5F)c5ccc([nH]5)c(-c5cccc(S(=O)(=O)[O-])c5F)c5nc(c(-c6cccc(S(=O)(=O)[O-])c6F)c6ccc3[nH]6)C=C5)C=C4)cc2)c1
REMARK SMILES IDX 23 1 22 2 20 3 21 4 19 5 18 6 9 7 10 8 11 9 17 11 12 12
REMARK SMILES IDX 16 13 13 14 15 15 14 16 7 17 8 18 6 19 1 20 2 21 3 22 91 23
REMARK SMILES IDX 4 24 5 25 24 26 25 27 26 28 27 29 28 30 29 31 90 32 30 33
REMARK SMILES IDX 89 34 31 35 32 36 33 37 83 38 34 39 88 40 82 41 84 42 35 43
REMARK SMILES IDX 87 44 81 45 80 46 36 48 68 49 48 50 67 51 49 52 52 53 66 54
REMARK SMILES IDX 85 55 50 56 51 57 65 59 86 60 53 61 37 62 38 63 46 64 39 65
REMARK SMILES IDX 41 66 47 67 40 68 42 69 43 70 44 71 45 72 69 73 70 74 78 75
REMARK SMILES IDX 71 76 73 77 79 78 72 79 74 80 75 81 76 82 77 83 54 84 55 85
REMARK SMILES IDX 63 86 56 87 58 88 64 89 57 90 59 91 60 92 61 93 62 94
REMARK H PARENT 10 10 84 47 52 58
REMARK Flexibility Score: inf
ROOT
ATOM      1  C   UNL A   1      31.627  28.776  27.141  1.00  0.00     0.274 C 
ENDROOT
BRANCH   1   2
ATOM      2  O   UNL A   1      32.406  28.105  26.125  1.00  0.00    -0.462 OA
BRANCH   2   3
ATOM      3  C   UNL A   1      32.699  26.802  26.358  1.00  0.00     0.310 C 
ATOM      4  O   UNL A   1      31.915  26.007  26.874  1.00  0.00    -0.252 OA
BRANCH   3   5
ATOM      5  C   UNL A   1      34.025  26.329  25.803  1.00  0.00     0.161 C 
BRANCH   5   6
ATOM      6  C   UNL A   1      34.061  25.225  24.792  1.00  0.00     0.000 A 
ATOM      7  C   UNL A   1      33.645  25.253  23.461  1.00  0.00     0.093 A 
ATOM      8  N   UNL A   1      33.802  23.983  22.961  1.00  0.00    -0.351 N 
ATOM      9  C   UNL A   1      34.173  23.107  23.943  1.00  0.00     0.049 A 
ATOM     10  H   UNL A   1      33.666  23.735  22.018  1.00  0.00     0.167 HD
ATOM     11  C   UNL A   1      34.412  23.861  25.091  1.00  0.00     0.004 A 
ATOM     12  C   UNL A   1      34.318  21.717  23.896  1.00  0.00     0.066 A 
ATOM     13  C   UNL A   1      34.868  23.190  26.248  1.00  0.00     0.013 A 
ATOM     14  C   UNL A   1      34.747  21.087  25.060  1.00  0.00     0.125 A 
ATOM     15  C   UNL A   1      35.034  21.799  26.216  1.00  0.00     0.040 A 
ATOM     16  F   UNL A   1      34.889  19.754  25.059  1.00  0.00    -0.207 F 
BRANCH   7  17
ATOM     17  C   UNL A   1      33.176  26.302  22.565  1.00  0.00     0.227 C 
ATOM     18  O   UNL A   1      33.602  26.347  21.410  1.00  0.00    -0.285 OA
BRANCH  17  19
ATOM     19  C   UNL A   1      31.966  27.131  22.938  1.00  0.00     0.113 A 
ATOM     20  C   UNL A   1      28.311  26.700  23.882  1.00  0.00     0.044 C 
ATOM     21  C   UNL A   1      29.627  27.304  23.490  1.00  0.00    -0.047 A 
ATOM     22  C   UNL A   1      29.679  28.647  23.115  1.00  0.00     0.023 A 
ATOM     23  C   UNL A   1      30.799  26.537  23.422  1.00  0.00     0.036 A 
ATOM     24  C   UNL A   1      30.884  29.165  22.677  1.00  0.00     0.112 A 
ATOM     25  N   UNL A   1      32.015  28.440  22.566  1.00  0.00    -0.253 NA
ENDBRANCH  17  19
ENDBRANCH   7  17
ENDBRANCH   5   6
ENDBRANCH   3   5
ENDBRANCH   2   3
ENDBRANCH   1   2
BRANCH   1  26
ATOM     26  C   UNL A   1      31.574  30.295  26.913  1.00  0.00     0.275 C 
BRANCH  26  27
ATOM     27  O   UNL A   1      32.807  30.830  26.384  1.00  0.00    -0.458 OA
BRANCH  27  28
ATOM     28  C   UNL A   1      33.371  31.755  27.185  1.00  0.00     0.338 C 
ATOM     29  O   UNL A   1      32.822  32.754  27.630  1.00  0.00    -0.246 OA
BRANCH  28  30
ATOM     30  C   UNL A   1      34.719  31.418  27.632  1.00  0.00     0.060 A 
ATOM     31  C   UNL A   1      34.952  30.089  27.985  1.00  0.00     0.016 A 
ATOM     32  C   UNL A   1      35.632  32.417  27.973  1.00  0.00     0.016 A 
ATOM     33  C   UNL A   1      36.052  29.764  28.764  1.00  0.00     0.010 A 
ATOM     34  C   UNL A   1      36.786  32.072  28.686  1.00  0.00     0.010 A 
ATOM     35  C   UNL A   1      36.986  30.749  29.116  1.00  0.00    -0.014 A 
BRANCH  35  36
ATOM     36  C   UNL A   1      38.192  30.332  29.873  1.00  0.00     0.031 A 
ATOM     37  C   UNL A   1      38.456  30.814  31.269  1.00  0.00     0.074 A 
ATOM     38  C   UNL A   1      39.019  29.440  29.294  1.00  0.00     0.049 A 
ATOM     39  N   UNL A   1      39.391  30.435  32.103  1.00  0.00    -0.248 NA
ATOM     40  C   UNL A   1      37.553  31.840  31.812  1.00  0.00     0.031 C 
ATOM     41  C   UNL A   1      38.863  28.913  27.936  1.00  0.00     0.029 A 
ATOM     42  N   UNL A   1      40.140  28.813  29.770  1.00  0.00    -0.354 N 
ATOM     43  C   UNL A   1      39.191  31.170  33.265  1.00  0.00     0.074 A 
ATOM     44  C   UNL A   1      38.053  32.032  33.026  1.00  0.00     0.031 C 
ATOM     45  C   UNL A   1      39.838  28.026  27.696  1.00  0.00     0.029 A 
ATOM     46  C   UNL A   1      40.711  27.955  28.861  1.00  0.00     0.049 A 
ATOM     47  H   UNL A   1      40.501  28.962  30.674  1.00  0.00     0.167 HD
ATOM     48  C   UNL A   1      39.881  31.113  34.429  1.00  0.00     0.034 A 
ATOM     49  C   UNL A   1      41.823  27.202  28.950  1.00  0.00     0.034 A 
ATOM     50  C   UNL A   1      41.026  30.269  34.654  1.00  0.00     0.049 A 
ATOM     51  C   UNL A   1      42.600  27.207  30.232  1.00  0.00     0.074 A 
ATOM     52  C   UNL A   1      41.788  30.140  35.802  1.00  0.00     0.029 A 
ATOM     53  N   UNL A   1      41.586  29.426  33.707  1.00  0.00    -0.354 N 
ATOM     54  N   UNL A   1      42.319  27.811  31.362  1.00  0.00    -0.248 NA
ATOM     55  C   UNL A   1      43.833  26.411  30.261  1.00  0.00     0.031 C 
ATOM     56  C   UNL A   1      42.819  29.228  35.543  1.00  0.00     0.029 A 
ATOM     57  C   UNL A   1      42.695  28.786  34.237  1.00  0.00     0.049 A 
ATOM     58  H   UNL A   1      41.246  29.301  32.792  1.00  0.00     0.167 HD
ATOM     59  C   UNL A   1      43.336  27.461  32.240  1.00  0.00     0.074 A 
ATOM     60  C   UNL A   1      44.218  26.562  31.521  1.00  0.00     0.031 C 
ATOM     61  C   UNL A   1      43.540  27.869  33.517  1.00  0.00     0.034 A 
BRANCH  48  62
ATOM     62  C   UNL A   1      39.387  31.952  35.576  1.00  0.00     0.023 A 
ATOM     63  C   UNL A   1      38.509  31.369  36.513  1.00  0.00     0.012 A 
ATOM     64  C   UNL A   1      39.841  33.268  35.776  1.00  0.00     0.148 A 
ATOM     65  C   UNL A   1      38.081  32.090  37.628  1.00  0.00     0.002 A 
ATOM     66  C   UNL A   1      39.428  33.973  36.903  1.00  0.00     0.091 A 
ATOM     67  F   UNL A   1      40.659  33.807  34.861  1.00  0.00    -0.205 F 
ATOM     68  C   UNL A   1      38.548  33.386  37.827  1.00  0.00     0.022 A 
BRANCH  66  69
ATOM     69  S   UNL A   1      40.003  35.634  37.275  1.00  0.00     0.127 S 
ATOM     70  O   UNL A   1      39.261  35.932  38.499  1.00  0.00    -0.237 OA
ATOM     71  O   UNL A   1      41.439  35.428  37.467  1.00  0.00    -0.237 OA
ATOM     72  O   UNL A   1      39.653  36.447  36.119  1.00  0.00    -0.744 OA
ENDBRANCH  66  69
ENDBRANCH  48  62
BRANCH  49  73
ATOM     73  C   UNL A   1      42.231  26.361  27.792  1.00  0.00     0.023 A 
ATOM     74  C   UNL A   1      43.144  26.869  26.850  1.00  0.00     0.012 A 
ATOM     75  C   UNL A   1      41.770  25.038  27.656  1.00  0.00     0.148 A 
ATOM     76  C   UNL A   1      43.580  26.077  25.786  1.00  0.00     0.002 A 
ATOM     77  C   UNL A   1      42.255  24.235  26.630  1.00  0.00     0.091 A 
ATOM     78  F   UNL A   1      40.879  24.573  28.545  1.00  0.00    -0.205 F 
ATOM     79  C   UNL A   1      43.149  24.755  25.684  1.00  0.00     0.022 A 
BRANCH  77  80
ATOM     80  S   UNL A   1      41.846  22.488  26.568  1.00  0.00     0.127 S 
ATOM     81  O   UNL A   1      40.390  22.518  26.467  1.00  0.00    -0.237 OA
ATOM     82  O   UNL A   1      42.537  22.037  25.360  1.00  0.00    -0.237 OA
ATOM     83  O   UNL A   1      42.400  21.943  27.802  1.00  0.00    -0.744 OA
ENDBRANCH  77  80
ENDBRANCH  49  73
BRANCH  61  84
ATOM     84  C   UNL A   1      44.773  27.355  34.206  1.00  0.00     0.023 A 
ATOM     85  C   UNL A   1      45.958  28.114  34.147  1.00  0.00     0.012 A 
ATOM     86  C   UNL A   1      44.758  26.153  34.935  1.00  0.00     0.148 A 
ATOM     87  C   UNL A   1      47.119  27.667  34.775  1.00  0.00     0.002 A 
ATOM     88  C   UNL A   1      45.909  25.731  35.592  1.00  0.00     0.091 A 
ATOM     89  F   UNL A   1      43.630  25.427  34.960  1.00  0.00    -0.205 F 
ATOM     90  C   UNL A   1      47.093  26.481  35.506  1.00  0.00     0.022 A 
BRANCH  88  91
ATOM     91  S   UNL A   1      45.906  24.254  36.611  1.00  0.00     0.127 S 
ATOM     92  O   UNL A   1      45.863  23.192  35.608  1.00  0.00    -0.237 OA
ATOM     93  O   UNL A   1      47.176  24.355  37.335  1.00  0.00    -0.237 OA
ATOM     94  O   UNL A   1      44.729  24.383  37.460  1.00  0.00    -0.744 OA
ENDBRANCH  88  91
ENDBRANCH  61  84
ENDBRANCH  35  36
ENDBRANCH  28  30
ENDBRANCH  27  28
ENDBRANCH  26  27
ENDBRANCH   1  26
TORSDOF 17
ENDMDL
MODEL 3
REMARK VINA RESULT:     -12.2      5.071      9.847
REMARK SMILES Cc1ccnc(C(=O)c2[nH]c3cc(F)ccc3c2CC(=O)OCCOC(=O)c2ccc(-c3c4nc(c(-c5cccc(S(=O)(=O)[O-])c5F)c5ccc([nH]5)c(-c5cccc(S(=O)(=O)[O-])c5F)c5nc(c(-c6cccc(S(=O)(=O)[O-])c6F)c6ccc3[nH]6)C=C5)C=C4)cc2)c1
REMARK SMILES IDX 23 1 22 2 20 3 21 4 19 5 18 6 9 7 10 8 11 9 17 11 12 12
REMARK SMILES IDX 16 13 13 14 15 15 14 16 7 17 8 18 6 19 1 20 2 21 3 22 91 23
REMARK SMILES IDX 4 24 5 25 24 26 25 27 26 28 27 29 28 30 29 31 90 32 30 33
REMARK SMILES IDX 89 34 31 35 32 36 33 37 83 38 34 39 88 40 82 41 84 42 35 43
REMARK SMILES IDX 87 44 81 45 80 46 36 48 68 49 48 50 67 51 49 52 52 53 66 54
REMARK SMILES IDX 85 55 50 56 51 57 65 59 86 60 53 61 37 62 38 63 46 64 39 65
REMARK SMILES IDX 41 66 47 67 40 68 42 69 43 70 44 71 45 72 69 73 70 74 78 75
REMARK SMILES IDX 71 76 73 77 79 78 72 79 74 80 75 81 76 82 77 83 54 84 55 85
REMARK SMILES IDX 63 86 56 87 58 88 64 89 57 90 59 91 60 92 61 93 62 94
REMARK H PARENT 10 10 84 47 52 58
REMARK Flexibility Score: inf
ROOT
ATOM      1  C   UNL A   1      31.865  28.391  27.466  1.00  0.00     0.274 C 
ENDROOT
BRANCH   1   2
ATOM      2  O   UNL A   1      30.773  27.565  27.002  1.00  0.00    -0.462 OA
BRANCH   2   3
ATOM      3  C   UNL A   1      31.118  26.431  26.343  1.00  0.00     0.310 C 
ATOM      4  O   UNL A   1      31.783  25.526  26.844  1.00  0.00    -0.252 OA
BRANCH   3   5
ATOM      5  C   UNL A   1      30.501  26.268  24.971  1.00  0.00     0.161 C 
BRANCH   5   6
ATOM      6  C   UNL A   1      30.764  27.287  23.907  1.00  0.00     0.000 A 
ATOM      7  C   UNL A   1      31.992  27.759  23.441  1.00  0.00     0.093 A 
ATOM      8  N   UNL A   1      31.724  28.742  22.519  1.00  0.00    -0.351 N 
ATOM      9  C   UNL A   1      30.386  29.021  22.467  1.00  0.00     0.049 A 
ATOM     10  H   UNL A   1      32.406  29.188  21.967  1.00  0.00     0.167 HD
ATOM     11  C   UNL A   1      29.745  28.081  23.272  1.00  0.00     0.004 A 
ATOM     12  C   UNL A   1      29.706  30.021  21.767  1.00  0.00     0.066 A 
ATOM     13  C   UNL A   1      28.333  28.117  23.346  1.00  0.00     0.013 A 
ATOM     14  C   UNL A   1      28.319  30.040  21.880  1.00  0.00     0.125 A 
ATOM     15  C   UNL A   1      27.633  29.103  22.640  1.00  0.00     0.040 A 
ATOM     16  F   UNL A   1      27.631  30.991  21.232  1.00  0.00    -0.207 F 
BRANCH   7  17
ATOM     17  C   UNL A   1      33.380  27.390  23.682  1.00  0.00     0.227 C 
ATOM     18  O   UNL A   1      34.174  28.243  24.078  1.00  0.00    -0.285 OA
BRANCH  17  19
ATOM     19  C   UNL A   1      33.775  25.929  23.747  1.00  0.00     0.113 A 
ATOM     20  C   UNL A   1      32.827  22.580  22.221  1.00  0.00     0.044 C 
ATOM     21  C   UNL A   1      33.444  23.633  23.094  1.00  0.00    -0.047 A 
ATOM     22  C   UNL A   1      34.146  23.250  24.237  1.00  0.00     0.023 A 
ATOM     23  C   UNL A   1      33.275  25.001  22.832  1.00  0.00     0.036 A 
ATOM     24  C   UNL A   1      34.636  24.236  25.074  1.00  0.00     0.112 A 
ATOM     25  N   UNL A   1      34.454  25.554  24.865  1.00  0.00    -0.253 NA
ENDBRANCH  17  19
ENDBRANCH   7  17
ENDBRANCH   5   6
ENDBRANCH   3   5
ENDBRANCH   2   3
ENDBRANCH   1   2
BRANCH   1  26
ATOM     26  C   UNL A   1      31.931  29.729  26.712  1.00  0.00     0.275 C 
BRANCH  26  27
ATOM     27  O   UNL A   1      33.280  30.123  26.378  1.00  0.00    -0.458 OA
BRANCH  27  28
ATOM     28  C   UNL A   1      33.754  31.109  27.165  1.00  0.00     0.338 C 
ATOM     29  O   UNL A   1      33.134  32.096  27.536  1.00  0.00    -0.246 OA
BRANCH  28  30
ATOM     30  C   UNL A   1      35.092  30.861  27.694  1.00  0.00     0.060 A 
ATOM     31  C   UNL A   1      35.335  29.593  28.222  1.00  0.00     0.016 A 
ATOM     32  C   UNL A   1      35.975  31.914  27.933  1.00  0.00     0.016 A 
ATOM     33  C   UNL A   1      36.413  29.393  29.071  1.00  0.00     0.010 A 
ATOM     34  C   UNL A   1      37.110  31.687  28.721  1.00  0.00     0.010 A 
ATOM     35  C   UNL A   1      37.317  30.435  29.323  1.00  0.00    -0.014 A 
BRANCH  35  36
ATOM     36  C   UNL A   1      38.504  30.143  30.166  1.00  0.00     0.031 A 
ATOM     37  C   UNL A   1      38.668  30.736  31.534  1.00  0.00     0.074 A 
ATOM     38  C   UNL A   1      39.407  29.263  29.694  1.00  0.00     0.049 A 
ATOM     39  N   UNL A   1      39.578  30.473  32.437  1.00  0.00    -0.248 NA
ATOM     40  C   UNL A   1      37.682  31.744  31.956  1.00  0.00     0.031 C 
ATOM     41  C   UNL A   1      39.352  28.633  28.373  1.00  0.00     0.029 A 
ATOM     42  N   UNL A   1      40.535  28.738  30.268  1.00  0.00    -0.354 N 
ATOM     43  C   UNL A   1      39.277  31.275  33.531  1.00  0.00     0.074 A 
ATOM     44  C   UNL A   1      38.107  32.050  33.176  1.00  0.00     0.031 C 
ATOM     45  C   UNL A   1      40.385  27.791  28.244  1.00  0.00     0.029 A 
ATOM     46  C   UNL A   1      41.199  27.853  29.453  1.00  0.00     0.049 A 
ATOM     47  H   UNL A   1      40.839  28.971  31.175  1.00  0.00     0.167 HD
ATOM     48  C   UNL A   1      39.908  31.340  34.729  1.00  0.00     0.034 A 
ATOM     49  C   UNL A   1      42.345  27.175  29.649  1.00  0.00     0.034 A 
ATOM     50  C   UNL A   1      41.083  30.583  35.069  1.00  0.00     0.049 A 
ATOM     51  C   UNL A   1      43.052  27.315  30.964  1.00  0.00     0.074 A 
ATOM     52  C   UNL A   1      41.791  30.580  36.259  1.00  0.00     0.029 A 
ATOM     53  N   UNL A   1      41.738  29.710  34.215  1.00  0.00    -0.354 N 
ATOM     54  N   UNL A   1      42.680  27.980  32.031  1.00  0.00    -0.248 NA
ATOM     55  C   UNL A   1      44.324  26.597  31.109  1.00  0.00     0.031 C 
ATOM     56  C   UNL A   1      42.883  29.715  36.117  1.00  0.00     0.029 A 
ATOM     57  C   UNL A   1      42.851  29.175  34.842  1.00  0.00     0.049 A 
ATOM     58  H   UNL A   1      41.453  29.501  33.295  1.00  0.00     0.167 HD
ATOM     59  C   UNL A   1      43.668  27.753  32.980  1.00  0.00     0.074 A 
ATOM     60  C   UNL A   1      44.634  26.859  32.372  1.00  0.00     0.031 C 
ATOM     61  C   UNL A   1      43.782  28.261  34.232  1.00  0.00     0.034 A 
BRANCH  48  62
ATOM     62  C   UNL A   1      39.308  32.227  35.786  1.00  0.00     0.023 A 
ATOM     63  C   UNL A   1      38.270  31.716  36.591  1.00  0.00     0.012 A 
ATOM     64  C   UNL A   1      39.812  33.516  36.039  1.00  0.00     0.148 A 
ATOM     65  C   UNL A   1      37.734  32.480  37.628  1.00  0.00     0.002 A 
ATOM     66  C   UNL A   1      39.288  34.264  37.089  1.00  0.00     0.091 A 
ATOM     67  F   UNL A   1      40.785  33.988  35.247  1.00  0.00    -0.205 F 
ATOM     68  C   UNL A   1      38.250  33.748  37.881  1.00  0.00     0.022 A 
BRANCH  66  69
ATOM     69  S   UNL A   1      39.908  35.892  37.528  1.00  0.00     0.127 S 
ATOM     70  O   UNL A   1      39.083  36.215  38.691  1.00  0.00    -0.237 OA
ATOM     71  O   UNL A   1      41.312  35.616  37.832  1.00  0.00    -0.237 OA
ATOM     72  O   UNL A   1      39.692  36.731  36.357  1.00  0.00    -0.744 OA
ENDBRANCH  66  69
ENDBRANCH  48  62
BRANCH  49  73
ATOM     73  C   UNL A   1      42.859  26.280  28.577  1.00  0.00     0.023 A 
ATOM     74  C   UNL A   1      42.227  25.045  28.339  1.00  0.00     0.012 A 
ATOM     75  C   UNL A   1      43.927  26.675  27.750  1.00  0.00     0.148 A 
ATOM     76  C   UNL A   1      42.661  24.215  27.304  1.00  0.00     0.002 A 
ATOM     77  C   UNL A   1      44.314  25.872  26.683  1.00  0.00     0.091 A 
ATOM     78  F   UNL A   1      44.538  27.842  28.004  1.00  0.00    -0.205 F 
ATOM     79  C   UNL A   1      43.693  24.635  26.465  1.00  0.00     0.022 A 
BRANCH  77  80
ATOM     80  S   UNL A   1      45.524  26.458  25.493  1.00  0.00     0.127 S 
ATOM     81  O   UNL A   1      45.625  25.325  24.578  1.00  0.00    -0.237 OA
ATOM     82  O   UNL A   1      44.877  27.645  24.933  1.00  0.00    -0.237 OA
ATOM     83  O   UNL A   1      46.705  26.754  26.295  1.00  0.00    -0.744 OA
ENDBRANCH  77  80
ENDBRANCH  49  73
BRANCH  61  84
ATOM     84  C   UNL A   1      45.004  27.870  35.016  1.00  0.00     0.023 A 
ATOM     85  C   UNL A   1      46.154  28.680  34.941  1.00  0.00     0.012 A 
ATOM     86  C   UNL A   1      45.010  26.735  35.845  1.00  0.00     0.148 A 
ATOM     87  C   UNL A   1      47.304  28.346  35.655  1.00  0.00     0.002 A 
ATOM     88  C   UNL A   1      46.147  26.429  36.585  1.00  0.00     0.091 A 
ATOM     89  F   UNL A   1      43.917  25.958  35.886  1.00  0.00    -0.205 F 
ATOM     90  C   UNL A   1      47.299  27.227  36.485  1.00  0.00     0.022 A 
BRANCH  88  91
ATOM     91  S   UNL A   1      46.166  25.045  37.729  1.00  0.00     0.127 S 
ATOM     92  O   UNL A   1      47.505  25.145  38.305  1.00  0.00    -0.237 OA
ATOM     93  O   UNL A   1      45.079  25.373  38.654  1.00  0.00    -0.237 OA
ATOM     94  O   UNL A   1      45.908  23.871  36.904  1.00  0.00    -0.744 OA
ENDBRANCH  88  91
ENDBRANCH  61  84
ENDBRANCH  35  36
ENDBRANCH  28  30
ENDBRANCH  27  28
ENDBRANCH  26  27
ENDBRANCH   1  26
TORSDOF 17
ENDMDL
