MODEL 1
REMARK VINA RESULT:     -12.0      0.000      0.000
REMARK SMILES CC(C)=CC(=O)N1[C@H](C(=O)OCCOC(=O)c2ccc(-c3c4nc(c(-c5cccc(S(=O)(=O)[O-])c5F)c5ccc([nH]5)c(-c5cccc(S(=O)(=O)[O-])c5F)c5nc(c(-c6cccc(S(=O)(=O)[O-])c6F)c6ccc3[nH]6)C=C5)C=C4)cc2)COC12CCCCC2
REMARK SMILES IDX 13 1 12 2 11 3 9 4 10 5 8 6 7 7 82 8 80 9 81 10 83 11 87 12
REMARK SMILES IDX 84 13 86 14 85 15 5 16 6 17 4 18 1 19 2 20 3 21 14 22 15 23
REMARK SMILES IDX 16 24 17 25 18 26 79 27 19 28 78 29 20 30 21 31 22 32 72 33
REMARK SMILES IDX 23 34 77 35 71 36 73 37 24 38 76 39 70 40 69 41 25 43 57 44
REMARK SMILES IDX 37 45 56 46 38 47 41 48 55 49 74 50 39 51 40 52 54 54 75 55
REMARK SMILES IDX 42 56 26 57 27 58 35 59 28 60 30 61 36 62 29 63 31 64 32 65
REMARK SMILES IDX 33 66 34 67 58 68 59 69 67 70 60 71 62 72 68 73 61 74 63 75
REMARK SMILES IDX 64 76 65 77 66 78 43 79 44 80 52 81 45 82 47 83 53 84 46 85
REMARK SMILES IDX 48 86 49 87 50 88 51 89
REMARK H PARENT 73 42 41 53
REMARK Flexibility Score: inf
ROOT
ATOM      1  C   UNL A   1      31.710  29.415  25.300  1.00  0.00     0.275 C 
ENDROOT
BRANCH   1   2
ATOM      2  C   UNL A   1      31.848  28.112  24.521  1.00  0.00     0.274 C 
BRANCH   2   3
ATOM      3  O   UNL A   1      32.636  27.145  25.252  1.00  0.00    -0.460 OA
BRANCH   3   4
ATOM      4  C   UNL A   1      31.949  26.040  25.643  1.00  0.00     0.331 C 
ATOM      5  O   UNL A   1      31.548  25.850  26.791  1.00  0.00    -0.250 OA
BRANCH   4   6
ATOM      6  C   UNL A   1      31.900  24.908  24.620  1.00  0.00     0.224 C 
ATOM      7  N   UNL A   1      32.974  24.003  24.254  1.00  0.00    -0.294 N 
ATOM      8  C   UNL A   1      32.526  22.622  24.224  1.00  0.00     0.144 C 
ATOM      9  C   UNL A   1      30.853  23.949  25.152  1.00  0.00     0.200 C 
ATOM     10  O   UNL A   1      31.114  22.685  24.536  1.00  0.00    -0.353 OA
ATOM     11  C   UNL A   1      32.620  21.901  22.870  1.00  0.00     0.059 C 
ATOM     12  C   UNL A   1      33.239  21.812  25.325  1.00  0.00     0.059 C 
ATOM     13  C   UNL A   1      32.138  20.453  22.942  1.00  0.00     0.005 C 
ATOM     14  C   UNL A   1      32.786  20.353  25.372  1.00  0.00     0.005 C 
ATOM     15  C   UNL A   1      32.906  19.681  24.008  1.00  0.00     0.000 C 
BRANCH   7  16
ATOM     16  C   UNL A   1      34.207  24.489  23.928  1.00  0.00     0.249 C 
ATOM     17  O   UNL A   1      34.417  24.990  22.829  1.00  0.00    -0.270 OA
BRANCH  16  18
ATOM     18  C   UNL A   1      35.314  24.451  24.915  1.00  0.00     0.070 C 
ATOM     19  C   UNL A   1      36.641  22.529  23.893  1.00  0.00     0.039 C 
ATOM     20  C   UNL A   1      36.378  23.619  24.896  1.00  0.00    -0.071 C 
ATOM     21  C   UNL A   1      37.471  23.741  25.930  1.00  0.00     0.039 C 
ENDBRANCH  16  18
ENDBRANCH   7  16
ENDBRANCH   4   6
ENDBRANCH   3   4
ENDBRANCH   2   3
ENDBRANCH   1   2
BRANCH   1  22
ATOM     22  O   UNL A   1      33.014  29.894  25.652  1.00  0.00    -0.458 OA
BRANCH  22  23
ATOM     23  C   UNL A   1      33.032  30.818  26.644  1.00  0.00     0.338 C 
ATOM     24  O   UNL A   1      32.169  31.648  26.878  1.00  0.00    -0.246 OA
BRANCH  23  25
ATOM     25  C   UNL A   1      34.305  30.725  27.394  1.00  0.00     0.060 A 
ATOM     26  C   UNL A   1      35.114  31.845  27.625  1.00  0.00     0.016 A 
ATOM     27  C   UNL A   1      34.728  29.463  27.810  1.00  0.00     0.016 A 
ATOM     28  C   UNL A   1      36.372  31.693  28.207  1.00  0.00     0.010 A 
ATOM     29  C   UNL A   1      35.943  29.329  28.478  1.00  0.00     0.010 A 
ATOM     30  C   UNL A   1      36.787  30.436  28.664  1.00  0.00    -0.014 A 
BRANCH  30  31
ATOM     31  C   UNL A   1      38.077  30.249  29.375  1.00  0.00     0.031 A 
ATOM     32  C   UNL A   1      39.110  29.307  28.821  1.00  0.00     0.074 A 
ATOM     33  C   UNL A   1      38.262  30.825  30.578  1.00  0.00     0.049 A 
ATOM     34  N   UNL A   1      40.160  28.795  29.408  1.00  0.00    -0.248 NA
ATOM     35  C   UNL A   1      38.924  28.863  27.429  1.00  0.00     0.031 C 
ATOM     36  C   UNL A   1      37.331  31.751  31.227  1.00  0.00     0.029 A 
ATOM     37  N   UNL A   1      39.272  30.672  31.496  1.00  0.00    -0.354 N 
ATOM     38  C   UNL A   1      40.713  27.909  28.492  1.00  0.00     0.074 A 
ATOM     39  C   UNL A   1      39.894  27.967  27.300  1.00  0.00     0.031 C 
ATOM     40  C   UNL A   1      37.797  32.064  32.443  1.00  0.00     0.029 A 
ATOM     41  C   UNL A   1      39.018  31.308  32.691  1.00  0.00     0.049 A 
ATOM     42  H   UNL A   1      40.094  30.160  31.319  1.00  0.00     0.167 HD
ATOM     43  C   UNL A   1      41.805  27.121  28.635  1.00  0.00     0.034 A 
ATOM     44  C   UNL A   1      39.659  31.245  33.874  1.00  0.00     0.034 A 
ATOM     45  C   UNL A   1      42.647  27.117  29.801  1.00  0.00     0.049 A 
ATOM     46  C   UNL A   1      40.877  30.377  33.999  1.00  0.00     0.074 A 
ATOM     47  C   UNL A   1      43.823  26.419  30.010  1.00  0.00     0.029 A 
ATOM     48  N   UNL A   1      42.404  27.845  30.957  1.00  0.00    -0.354 N 
ATOM     49  N   UNL A   1      41.447  29.619  33.093  1.00  0.00    -0.248 NA
ATOM     50  C   UNL A   1      41.554  30.366  35.305  1.00  0.00     0.031 C 
ATOM     51  C   UNL A   1      44.285  26.714  31.297  1.00  0.00     0.029 A 
ATOM     52  C   UNL A   1      43.404  27.608  31.885  1.00  0.00     0.049 A 
ATOM     53  H   UNL A   1      41.634  28.443  31.096  1.00  0.00     0.167 HD
ATOM     54  C   UNL A   1      42.561  29.062  33.707  1.00  0.00     0.074 A 
ATOM     55  C   UNL A   1      42.599  29.586  35.058  1.00  0.00     0.031 C 
ATOM     56  C   UNL A   1      43.460  28.183  33.204  1.00  0.00     0.034 A 
BRANCH  43  57
ATOM     57  C   UNL A   1      42.179  26.217  27.491  1.00  0.00     0.023 A 
ATOM     58  C   UNL A   1      42.971  26.715  26.438  1.00  0.00     0.012 A 
ATOM     59  C   UNL A   1      41.809  24.857  27.495  1.00  0.00     0.148 A 
ATOM     60  C   UNL A   1      43.369  25.882  25.394  1.00  0.00     0.002 A 
ATOM     61  C   UNL A   1      42.242  24.023  26.471  1.00  0.00     0.091 A 
ATOM     62  F   UNL A   1      41.035  24.407  28.492  1.00  0.00    -0.205 F 
ATOM     63  C   UNL A   1      43.014  24.535  25.415  1.00  0.00     0.022 A 
BRANCH  61  64
ATOM     64  S   UNL A   1      41.901  22.259  26.455  1.00  0.00     0.127 S 
ATOM     65  O   UNL A   1      42.689  21.815  25.306  1.00  0.00    -0.237 OA
ATOM     66  O   UNL A   1      42.423  21.829  27.754  1.00  0.00    -0.237 OA
ATOM     67  O   UNL A   1      40.457  22.135  26.315  1.00  0.00    -0.744 OA
ENDBRANCH  61  64
ENDBRANCH  43  57
BRANCH  44  68
ATOM     68  C   UNL A   1      39.159  32.051  35.022  1.00  0.00     0.023 A 
ATOM     69  C   UNL A   1      38.212  31.488  35.897  1.00  0.00     0.012 A 
ATOM     70  C   UNL A   1      39.665  33.339  35.293  1.00  0.00     0.148 A 
ATOM     71  C   UNL A   1      37.763  32.197  37.011  1.00  0.00     0.002 A 
ATOM     72  C   UNL A   1      39.258  34.017  36.436  1.00  0.00     0.091 A 
ATOM     73  F   UNL A   1      40.554  33.866  34.438  1.00  0.00    -0.205 F 
ATOM     74  C   UNL A   1      38.295  33.453  37.288  1.00  0.00     0.022 A 
BRANCH  72  75
ATOM     75  S   UNL A   1      40.002  35.571  36.945  1.00  0.00     0.127 S 
ATOM     76  O   UNL A   1      39.653  36.448  35.830  1.00  0.00    -0.237 OA
ATOM     77  O   UNL A   1      39.294  35.852  38.195  1.00  0.00    -0.237 OA
ATOM     78  O   UNL A   1      41.420  35.286  37.114  1.00  0.00    -0.744 OA
ENDBRANCH  72  75
ENDBRANCH  44  68
BRANCH  56  79
ATOM     79  C   UNL A   1      44.588  27.748  34.101  1.00  0.00     0.023 A 
ATOM     80  C   UNL A   1      45.756  28.531  34.180  1.00  0.00     0.012 A 
ATOM     81  C   UNL A   1      44.455  26.615  34.926  1.00  0.00     0.148 A 
ATOM     82  C   UNL A   1      46.784  28.181  35.054  1.00  0.00     0.002 A 
ATOM     83  C   UNL A   1      45.464  26.296  35.825  1.00  0.00     0.091 A 
ATOM     84  F   UNL A   1      43.343  25.873  34.819  1.00  0.00    -0.205 F 
ATOM     85  C   UNL A   1      46.634  27.073  35.884  1.00  0.00     0.022 A 
BRANCH  83  86
ATOM     86  S   UNL A   1      45.318  24.941  36.996  1.00  0.00     0.127 S 
ATOM     87  O   UNL A   1      46.477  25.166  37.858  1.00  0.00    -0.237 OA
ATOM     88  O   UNL A   1      44.026  25.211  37.627  1.00  0.00    -0.237 OA
ATOM     89  O   UNL A   1      45.358  23.720  36.202  1.00  0.00    -0.744 OA
ENDBRANCH  83  86
ENDBRANCH  56  79
ENDBRANCH  30  31
ENDBRANCH  23  25
ENDBRANCH  22  23
ENDBRANCH   1  22
TORSDOF 16
ENDMDL
MODEL 2
REMARK VINA RESULT:     -11.9      4.752      9.805
REMARK SMILES CC(C)=CC(=O)N1[C@H](C(=O)OCCOC(=O)c2ccc(-c3c4nc(c(-c5cccc(S(=O)(=O)[O-])c5F)c5ccc([nH]5)c(-c5cccc(S(=O)(=O)[O-])c5F)c5nc(c(-c6cccc(S(=O)(=O)[O-])c6F)c6ccc3[nH]6)C=C5)C=C4)cc2)COC12CCCCC2
REMARK SMILES IDX 13 1 12 2 11 3 9 4 10 5 8 6 7 7 82 8 80 9 81 10 83 11 87 12
REMARK SMILES IDX 84 13 86 14 85 15 5 16 6 17 4 18 1 19 2 20 3 21 14 22 15 23
REMARK SMILES IDX 16 24 17 25 18 26 79 27 19 28 78 29 20 30 21 31 22 32 72 33
REMARK SMILES IDX 23 34 77 35 71 36 73 37 24 38 76 39 70 40 69 41 25 43 57 44
REMARK SMILES IDX 37 45 56 46 38 47 41 48 55 49 74 50 39 51 40 52 54 54 75 55
REMARK SMILES IDX 42 56 26 57 27 58 35 59 28 60 30 61 36 62 29 63 31 64 32 65
REMARK SMILES IDX 33 66 34 67 58 68 59 69 67 70 60 71 62 72 68 73 61 74 63 75
REMARK SMILES IDX 64 76 65 77 66 78 43 79 44 80 52 81 45 82 47 83 53 84 46 85
REMARK SMILES IDX 48 86 49 87 50 88 51 89
REMARK H PARENT 73 42 41 53
REMARK Flexibility Score: inf
ROOT
ATOM      1  C   UNL A   1      35.798  20.848  25.245  1.00  0.00     0.275 C 
ENDROOT
BRANCH   1   2
ATOM      2  C   UNL A   1      34.546  21.569  24.758  1.00  0.00     0.274 C 
BRANCH   2   3
ATOM      3  O   UNL A   1      34.720  23.004  24.795  1.00  0.00    -0.460 OA
BRANCH   3   4
ATOM      4  C   UNL A   1      34.198  23.661  23.727  1.00  0.00     0.331 C 
ATOM      5  O   UNL A   1      34.860  24.035  22.759  1.00  0.00    -0.250 OA
BRANCH   4   6
ATOM      6  C   UNL A   1      32.756  24.134  23.894  1.00  0.00     0.224 C 
ATOM      7  N   UNL A   1      32.291  25.323  24.583  1.00  0.00    -0.294 N 
ATOM      8  C   UNL A   1      31.320  26.058  23.792  1.00  0.00     0.144 C 
ATOM      9  C   UNL A   1      32.262  24.379  22.482  1.00  0.00     0.200 C 
ATOM     10  O   UNL A   1      31.144  25.265  22.594  1.00  0.00    -0.353 OA
ATOM     11  C   UNL A   1      29.916  26.208  24.400  1.00  0.00     0.059 C 
ATOM     12  C   UNL A   1      31.893  27.432  23.395  1.00  0.00     0.059 C 
ATOM     13  C   UNL A   1      28.971  27.003  23.501  1.00  0.00     0.005 C 
ATOM     14  C   UNL A   1      30.932  28.245  22.529  1.00  0.00     0.005 C 
ATOM     15  C   UNL A   1      29.558  28.372  23.178  1.00  0.00     0.000 C 
BRANCH   7  16
ATOM     16  C   UNL A   1      32.721  25.601  25.848  1.00  0.00     0.249 C 
ATOM     17  O   UNL A   1      32.386  24.900  26.797  1.00  0.00    -0.270 OA
BRANCH  16  18
ATOM     18  C   UNL A   1      33.634  26.744  26.096  1.00  0.00     0.070 C 
ATOM     19  C   UNL A   1      31.944  28.330  27.160  1.00  0.00     0.039 C 
ATOM     20  C   UNL A   1      33.309  27.919  26.679  1.00  0.00    -0.071 C 
ATOM     21  C   UNL A   1      34.362  28.970  26.935  1.00  0.00     0.039 C 
ENDBRANCH  16  18
ENDBRANCH   7  16
ENDBRANCH   4   6
ENDBRANCH   3   4
ENDBRANCH   2   3
ENDBRANCH   1   2
BRANCH   1  22
ATOM     22  O   UNL A   1      36.727  21.811  25.757  1.00  0.00    -0.458 OA
BRANCH  22  23
ATOM     23  C   UNL A   1      38.026  21.423  25.721  1.00  0.00     0.338 C 
ATOM     24  O   UNL A   1      38.448  20.330  25.381  1.00  0.00    -0.246 OA
BRANCH  23  25
ATOM     25  C   UNL A   1      38.891  22.516  26.222  1.00  0.00     0.060 A 
ATOM     26  C   UNL A   1      40.039  22.264  26.984  1.00  0.00     0.016 A 
ATOM     27  C   UNL A   1      38.491  23.829  25.979  1.00  0.00     0.016 A 
ATOM     28  C   UNL A   1      40.744  23.320  27.559  1.00  0.00     0.010 A 
ATOM     29  C   UNL A   1      39.254  24.885  26.474  1.00  0.00     0.010 A 
ATOM     30  C   UNL A   1      40.374  24.642  27.286  1.00  0.00    -0.014 A 
BRANCH  30  31
ATOM     31  C   UNL A   1      41.155  25.796  27.801  1.00  0.00     0.031 A 
ATOM     32  C   UNL A   1      40.472  26.870  28.601  1.00  0.00     0.074 A 
ATOM     33  C   UNL A   1      42.445  25.938  27.437  1.00  0.00     0.049 A 
ATOM     34  N   UNL A   1      40.893  28.070  28.900  1.00  0.00    -0.248 NA
ATOM     35  C   UNL A   1      39.125  26.560  29.112  1.00  0.00     0.031 C 
ATOM     36  C   UNL A   1      43.217  24.971  26.654  1.00  0.00     0.029 A 
ATOM     37  N   UNL A   1      43.317  26.981  27.631  1.00  0.00    -0.354 N 
ATOM     38  C   UNL A   1      39.839  28.689  29.560  1.00  0.00     0.074 A 
ATOM     39  C   UNL A   1      38.763  27.723  29.638  1.00  0.00     0.031 C 
ATOM     40  C   UNL A   1      44.436  25.472  26.414  1.00  0.00     0.029 A 
ATOM     41  C   UNL A   1      44.508  26.823  26.959  1.00  0.00     0.049 A 
ATOM     42  H   UNL A   1      43.112  27.763  28.193  1.00  0.00     0.167 HD
ATOM     43  C   UNL A   1      39.777  29.947  30.057  1.00  0.00     0.034 A 
ATOM     44  C   UNL A   1      45.522  27.684  26.751  1.00  0.00     0.034 A 
ATOM     45  C   UNL A   1      40.874  30.877  30.030  1.00  0.00     0.049 A 
ATOM     46  C   UNL A   1      45.435  29.067  27.329  1.00  0.00     0.074 A 
ATOM     47  C   UNL A   1      40.939  32.145  30.582  1.00  0.00     0.029 A 
ATOM     48  N   UNL A   1      42.096  30.643  29.418  1.00  0.00    -0.354 N 
ATOM     49  N   UNL A   1      44.472  29.606  28.037  1.00  0.00    -0.248 NA
ATOM     50  C   UNL A   1      46.581  29.959  27.094  1.00  0.00     0.031 C 
ATOM     51  C   UNL A   1      42.198  32.683  30.292  1.00  0.00     0.029 A 
ATOM     52  C   UNL A   1      42.921  31.745  29.572  1.00  0.00     0.049 A 
ATOM     53  H   UNL A   1      42.341  29.816  28.944  1.00  0.00     0.167 HD
ATOM     54  C   UNL A   1      44.903  30.887  28.355  1.00  0.00     0.074 A 
ATOM     55  C   UNL A   1      46.225  31.038  27.780  1.00  0.00     0.031 C 
ATOM     56  C   UNL A   1      44.257  31.857  29.045  1.00  0.00     0.034 A 
BRANCH  43  57
ATOM     57  C   UNL A   1      38.492  30.388  30.706  1.00  0.00     0.023 A 
ATOM     58  C   UNL A   1      38.266  30.107  32.068  1.00  0.00     0.012 A 
ATOM     59  C   UNL A   1      37.544  31.144  29.989  1.00  0.00     0.148 A 
ATOM     60  C   UNL A   1      37.105  30.549  32.700  1.00  0.00     0.002 A 
ATOM     61  C   UNL A   1      36.407  31.615  30.636  1.00  0.00     0.091 A 
ATOM     62  F   UNL A   1      37.764  31.380  28.688  1.00  0.00    -0.205 F 
ATOM     63  C   UNL A   1      36.182  31.312  31.989  1.00  0.00     0.022 A 
BRANCH  61  64
ATOM     64  S   UNL A   1      35.201  32.670  29.822  1.00  0.00     0.127 S 
ATOM     65  O   UNL A   1      36.043  33.762  29.337  1.00  0.00    -0.237 OA
ATOM     66  O   UNL A   1      34.679  31.792  28.772  1.00  0.00    -0.237 OA
ATOM     67  O   UNL A   1      34.231  33.028  30.846  1.00  0.00    -0.744 OA
ENDBRANCH  61  64
ENDBRANCH  43  57
BRANCH  44  68
ATOM     68  C   UNL A   1      46.712  27.242  25.974  1.00  0.00     0.023 A 
ATOM     69  C   UNL A   1      46.770  27.509  24.593  1.00  0.00     0.012 A 
ATOM     70  C   UNL A   1      47.814  26.624  26.601  1.00  0.00     0.148 A 
ATOM     71  C   UNL A   1      47.893  27.154  23.847  1.00  0.00     0.002 A 
ATOM     72  C   UNL A   1      48.953  26.326  25.864  1.00  0.00     0.091 A 
ATOM     73  F   UNL A   1      47.733  26.362  27.913  1.00  0.00    -0.205 F 
ATOM     74  C   UNL A   1      48.988  26.577  24.483  1.00  0.00     0.022 A 
BRANCH  72  75
ATOM     75  S   UNL A   1      50.460  25.719  26.630  1.00  0.00     0.127 S 
ATOM     76  O   UNL A   1      50.004  24.474  27.242  1.00  0.00    -0.237 OA
ATOM     77  O   UNL A   1      51.344  25.551  25.476  1.00  0.00    -0.237 OA
ATOM     78  O   UNL A   1      50.877  26.767  27.552  1.00  0.00    -0.744 OA
ENDBRANCH  72  75
ENDBRANCH  44  68
BRANCH  56  79
ATOM     79  C   UNL A   1      44.974  33.163  29.251  1.00  0.00     0.023 A 
ATOM     80  C   UNL A   1      45.818  33.326  30.367  1.00  0.00     0.012 A 
ATOM     81  C   UNL A   1      44.880  34.195  28.296  1.00  0.00     0.148 A 
ATOM     82  C   UNL A   1      46.543  34.504  30.541  1.00  0.00     0.002 A 
ATOM     83  C   UNL A   1      45.637  35.348  28.454  1.00  0.00     0.091 A 
ATOM     84  F   UNL A   1      44.055  34.026  27.253  1.00  0.00    -0.205 F 
ATOM     85  C   UNL A   1      46.462  35.509  29.579  1.00  0.00     0.022 A 
BRANCH  83  86
ATOM     86  S   UNL A   1      45.667  36.655  27.221  1.00  0.00     0.127 S 
ATOM     87  O   UNL A   1      46.406  36.020  26.131  1.00  0.00    -0.237 OA
ATOM     88  O   UNL A   1      44.244  36.863  26.952  1.00  0.00    -0.237 OA
ATOM     89  O   UNL A   1      46.333  37.787  27.852  1.00  0.00    -0.744 OA
ENDBRANCH  83  86
ENDBRANCH  56  79
ENDBRANCH  30  31
ENDBRANCH  23  25
ENDBRANCH  22  23
ENDBRANCH   1  22
TORSDOF 16
ENDMDL
MODEL 3
REMARK VINA RESULT:     -11.8      4.756      9.784
REMARK SMILES CC(C)=CC(=O)N1[C@H](C(=O)OCCOC(=O)c2ccc(-c3c4nc(c(-c5cccc(S(=O)(=O)[O-])c5F)c5ccc([nH]5)c(-c5cccc(S(=O)(=O)[O-])c5F)c5nc(c(-c6cccc(S(=O)(=O)[O-])c6F)c6ccc3[nH]6)C=C5)C=C4)cc2)COC12CCCCC2
REMARK SMILES IDX 13 1 12 2 11 3 9 4 10 5 8 6 7 7 82 8 80 9 81 10 83 11 87 12
REMARK SMILES IDX 84 13 86 14 85 15 5 16 6 17 4 18 1 19 2 20 3 21 14 22 15 23
REMARK SMILES IDX 16 24 17 25 18 26 79 27 19 28 78 29 20 30 21 31 22 32 72 33
REMARK SMILES IDX 23 34 77 35 71 36 73 37 24 38 76 39 70 40 69 41 25 43 57 44
REMARK SMILES IDX 37 45 56 46 38 47 41 48 55 49 74 50 39 51 40 52 54 54 75 55
REMARK SMILES IDX 42 56 26 57 27 58 35 59 28 60 30 61 36 62 29 63 31 64 32 65
REMARK SMILES IDX 33 66 34 67 58 68 59 69 67 70 60 71 62 72 68 73 61 74 63 75
REMARK SMILES IDX 64 76 65 77 66 78 43 79 44 80 52 81 45 82 47 83 53 84 46 85
REMARK SMILES IDX 48 86 49 87 50 88 51 89
REMARK H PARENT 73 42 41 53
REMARK Flexibility Score: inf
ROOT
ATOM      1  C   UNL A   1      36.125  20.921  24.782  1.00  0.00     0.275 C 
ENDROOT
BRANCH   1   2
ATOM      2  C   UNL A   1      34.790  20.541  25.413  1.00  0.00     0.274 C 
BRANCH   2   3
ATOM      3  O   UNL A   1      33.681  20.981  24.597  1.00  0.00    -0.460 OA
BRANCH   3   4
ATOM      4  C   UNL A   1      32.681  21.591  25.287  1.00  0.00     0.331 C 
ATOM      5  O   UNL A   1      31.526  21.170  25.338  1.00  0.00    -0.250 OA
BRANCH   4   6
ATOM      6  C   UNL A   1      33.012  22.983  25.819  1.00  0.00     0.224 C 
ATOM      7  N   UNL A   1      33.133  24.212  25.058  1.00  0.00    -0.294 N 
ATOM      8  C   UNL A   1      32.410  25.305  25.685  1.00  0.00     0.144 C 
ATOM      9  C   UNL A   1      31.879  23.314  26.770  1.00  0.00     0.200 C 
ATOM     10  O   UNL A   1      31.866  24.739  26.901  1.00  0.00    -0.353 OA
ATOM     11  C   UNL A   1      33.249  26.514  26.129  1.00  0.00     0.059 C 
ATOM     12  C   UNL A   1      31.242  25.751  24.784  1.00  0.00     0.059 C 
ATOM     13  C   UNL A   1      32.400  27.613  26.766  1.00  0.00     0.005 C 
ATOM     14  C   UNL A   1      30.416  26.879  25.402  1.00  0.00     0.005 C 
ATOM     15  C   UNL A   1      31.292  28.056  25.818  1.00  0.00     0.000 C 
BRANCH   7  16
ATOM     16  C   UNL A   1      33.908  24.258  23.936  1.00  0.00     0.249 C 
ATOM     17  O   UNL A   1      35.126  24.143  24.005  1.00  0.00    -0.270 OA
BRANCH  16  18
ATOM     18  C   UNL A   1      33.284  24.416  22.598  1.00  0.00     0.070 C 
ATOM     19  C   UNL A   1      33.589  26.935  22.354  1.00  0.00     0.039 C 
ATOM     20  C   UNL A   1      33.160  25.566  21.902  1.00  0.00    -0.071 C 
ATOM     21  C   UNL A   1      32.565  25.566  20.514  1.00  0.00     0.039 C 
ENDBRANCH  16  18
ENDBRANCH   7  16
ENDBRANCH   4   6
ENDBRANCH   3   4
ENDBRANCH   2   3
ENDBRANCH   1   2
BRANCH   1  22
ATOM     22  O   UNL A   1      36.932  21.593  25.756  1.00  0.00    -0.458 OA
BRANCH  22  23
ATOM     23  C   UNL A   1      38.232  21.207  25.782  1.00  0.00     0.338 C 
ATOM     24  O   UNL A   1      38.667  20.105  25.494  1.00  0.00    -0.246 OA
BRANCH  23  25
ATOM     25  C   UNL A   1      39.076  22.317  26.281  1.00  0.00     0.060 A 
ATOM     26  C   UNL A   1      40.197  22.091  27.090  1.00  0.00     0.016 A 
ATOM     27  C   UNL A   1      38.682  23.621  25.985  1.00  0.00     0.016 A 
ATOM     28  C   UNL A   1      40.879  23.166  27.657  1.00  0.00     0.010 A 
ATOM     29  C   UNL A   1      39.425  24.693  26.475  1.00  0.00     0.010 A 
ATOM     30  C   UNL A   1      40.516  24.479  27.333  1.00  0.00    -0.014 A 
BRANCH  30  31
ATOM     31  C   UNL A   1      41.276  25.649  27.840  1.00  0.00     0.031 A 
ATOM     32  C   UNL A   1      40.570  26.723  28.621  1.00  0.00     0.074 A 
ATOM     33  C   UNL A   1      42.567  25.806  27.486  1.00  0.00     0.049 A 
ATOM     34  N   UNL A   1      40.971  27.933  28.909  1.00  0.00    -0.248 NA
ATOM     35  C   UNL A   1      39.224  26.400  29.124  1.00  0.00     0.031 C 
ATOM     36  C   UNL A   1      43.360  24.841  26.722  1.00  0.00     0.029 A 
ATOM     37  N   UNL A   1      43.422  26.863  27.675  1.00  0.00    -0.354 N 
ATOM     38  C   UNL A   1      39.903  28.544  29.552  1.00  0.00     0.074 A 
ATOM     39  C   UNL A   1      38.840  27.564  29.632  1.00  0.00     0.031 C 
ATOM     40  C   UNL A   1      44.574  25.356  26.487  1.00  0.00     0.029 A 
ATOM     41  C   UNL A   1      44.622  26.714  27.015  1.00  0.00     0.049 A 
ATOM     42  H   UNL A   1      43.201  27.649  28.225  1.00  0.00     0.167 HD
ATOM     43  C   UNL A   1      39.819  29.807  30.033  1.00  0.00     0.034 A 
ATOM     44  C   UNL A   1      45.625  27.587  26.806  1.00  0.00     0.034 A 
ATOM     45  C   UNL A   1      40.902  30.753  30.004  1.00  0.00     0.049 A 
ATOM     46  C   UNL A   1      45.513  28.976  27.365  1.00  0.00     0.074 A 
ATOM     47  C   UNL A   1      40.945  32.028  30.541  1.00  0.00     0.029 A 
ATOM     48  N   UNL A   1      42.133  30.529  29.406  1.00  0.00    -0.354 N 
ATOM     49  N   UNL A   1      44.536  29.509  28.058  1.00  0.00    -0.248 NA
ATOM     50  C   UNL A   1      46.648  29.881  27.130  1.00  0.00     0.031 C 
ATOM     51  C   UNL A   1      42.199  32.580  30.255  1.00  0.00     0.029 A 
ATOM     52  C   UNL A   1      42.941  31.644  29.554  1.00  0.00     0.049 A 
ATOM     53  H   UNL A   1      42.395  29.699  28.944  1.00  0.00     0.167 HD
ATOM     54  C   UNL A   1      44.946  30.800  28.364  1.00  0.00     0.074 A 
ATOM     55  C   UNL A   1      46.271  30.963  27.800  1.00  0.00     0.031 C 
ATOM     56  C   UNL A   1      44.280  31.769  29.037  1.00  0.00     0.034 A 
BRANCH  43  57
ATOM     57  C   UNL A   1      38.522  30.238  30.665  1.00  0.00     0.023 A 
ATOM     58  C   UNL A   1      38.285  29.964  32.027  1.00  0.00     0.012 A 
ATOM     59  C   UNL A   1      37.573  30.978  29.933  1.00  0.00     0.148 A 
ATOM     60  C   UNL A   1      37.111  30.397  32.643  1.00  0.00     0.002 A 
ATOM     61  C   UNL A   1      36.424  31.440  30.564  1.00  0.00     0.091 A 
ATOM     62  F   UNL A   1      37.804  31.208  28.633  1.00  0.00    -0.205 F 
ATOM     63  C   UNL A   1      36.188  31.143  31.916  1.00  0.00     0.022 A 
BRANCH  61  64
ATOM     64  S   UNL A   1      35.215  32.475  29.730  1.00  0.00     0.127 S 
ATOM     65  O   UNL A   1      36.047  33.579  29.255  1.00  0.00    -0.237 OA
ATOM     66  O   UNL A   1      34.721  31.588  28.675  1.00  0.00    -0.237 OA
ATOM     67  O   UNL A   1      34.224  32.822  30.739  1.00  0.00    -0.744 OA
ENDBRANCH  61  64
ENDBRANCH  43  57
BRANCH  44  68
ATOM     68  C   UNL A   1      46.828  27.152  26.044  1.00  0.00     0.023 A 
ATOM     69  C   UNL A   1      46.905  27.425  24.666  1.00  0.00     0.012 A 
ATOM     70  C   UNL A   1      47.923  26.537  26.686  1.00  0.00     0.148 A 
ATOM     71  C   UNL A   1      48.041  27.078  23.935  1.00  0.00     0.002 A 
ATOM     72  C   UNL A   1      49.074  26.246  25.964  1.00  0.00     0.091 A 
ATOM     73  F   UNL A   1      47.824  26.269  27.995  1.00  0.00    -0.205 F 
ATOM     74  C   UNL A   1      49.129  26.502  24.585  1.00  0.00     0.022 A 
BRANCH  72  75
ATOM     75  S   UNL A   1      50.572  25.642  26.750  1.00  0.00     0.127 S 
ATOM     76  O   UNL A   1      50.096  24.425  27.404  1.00  0.00    -0.237 OA
ATOM     77  O   UNL A   1      51.452  25.421  25.602  1.00  0.00    -0.237 OA
ATOM     78  O   UNL A   1      51.006  26.714  27.636  1.00  0.00    -0.744 OA
ENDBRANCH  72  75
ENDBRANCH  44  68
BRANCH  56  79
ATOM     79  C   UNL A   1      44.977  33.088  29.234  1.00  0.00     0.023 A 
ATOM     80  C   UNL A   1      45.820  33.271  30.347  1.00  0.00     0.012 A 
ATOM     81  C   UNL A   1      44.865  34.112  28.272  1.00  0.00     0.148 A 
ATOM     82  C   UNL A   1      46.526  34.462  30.511  1.00  0.00     0.002 A 
ATOM     83  C   UNL A   1      45.603  35.278  28.421  1.00  0.00     0.091 A 
ATOM     84  F   UNL A   1      44.040  33.923  27.232  1.00  0.00    -0.205 F 
ATOM     85  C   UNL A   1      46.428  35.459  29.544  1.00  0.00     0.022 A 
BRANCH  83  86
ATOM     86  S   UNL A   1      45.609  36.577  27.180  1.00  0.00     0.127 S 
ATOM     87  O   UNL A   1      46.418  37.607  27.830  1.00  0.00    -0.237 OA
ATOM     88  O   UNL A   1      46.256  35.921  26.043  1.00  0.00    -0.237 OA
ATOM     89  O   UNL A   1      44.212  36.928  26.959  1.00  0.00    -0.744 OA
ENDBRANCH  83  86
ENDBRANCH  56  79
ENDBRANCH  30  31
ENDBRANCH  23  25
ENDBRANCH  22  23
ENDBRANCH   1  22
TORSDOF 16
ENDMDL
