MODEL 1
REMARK VINA RESULT:     -12.0      0.000      0.000
REMARK SMILES NS(=O)(=O)c1ccc(/N=C/c2ccc(O)c(C(=O)OCCOC(=O)c3ccc(-c4c5nc(c(-c6cccc(S(=O)(=O)[O-])c6F)c6ccc([nH]6)c(-c6cccc(S(=O)(=O)[O-])c6F)c6nc(c(-c7cccc(S(=O)(=O)[O-])c7F)c7ccc4[nH]7)C=C6)C=C5)cc3)c2)cc1
REMARK SMILES IDX 20 1 19 2 17 3 18 4 16 5 11 6 12 7 88 8 13 9 14 10 10 11
REMARK SMILES IDX 9 12 8 13 5 14 6 15 90 16 7 17 89 18 2 19 3 20 4 21 1 22
REMARK SMILES IDX 15 25 21 27 22 28 23 29 24 30 25 31 26 32 87 33 27 34 86 35
REMARK SMILES IDX 28 36 29 37 30 38 80 39 31 40 85 41 79 42 81 43 32 44 84 45
REMARK SMILES IDX 78 46 77 47 33 49 65 50 45 51 64 52 46 53 49 54 63 55 82 56
REMARK SMILES IDX 47 57 48 58 62 60 83 61 50 62 34 63 35 64 43 65 36 66 38 67
REMARK SMILES IDX 44 68 37 69 39 70 40 71 41 72 42 73 66 74 67 75 75 76 68 77
REMARK SMILES IDX 70 78 76 79 69 80 71 81 72 82 73 83 74 84 51 85 52 86 60 87
REMARK SMILES IDX 53 88 55 89 61 90 54 91 56 92 57 93 58 94 59 95
REMARK H PARENT 1 23 1 24 15 26 81 48 49 59
REMARK Flexibility Score: inf
ROOT
ATOM      1  C   UNL A   1      38.299  21.117  25.449  1.00  0.00     0.275 C 
ENDROOT
BRANCH   1   2
ATOM      2  O   UNL A   1      36.879  20.921  25.288  1.00  0.00    -0.458 OA
BRANCH   2   3
ATOM      3  C   UNL A   1      36.255  21.741  24.409  1.00  0.00     0.342 C 
ATOM      4  O   UNL A   1      36.762  22.304  23.449  1.00  0.00    -0.246 OA
BRANCH   3   5
ATOM      5  C   UNL A   1      34.796  21.801  24.661  1.00  0.00     0.102 A 
ATOM      6  C   UNL A   1      32.727  23.019  24.961  1.00  0.00    -0.006 A 
ATOM      7  C   UNL A   1      32.073  21.844  25.344  1.00  0.00     0.013 A 
ATOM      8  C   UNL A   1      34.094  23.012  24.651  1.00  0.00     0.029 A 
ATOM      9  C   UNL A   1      32.763  20.635  25.314  1.00  0.00     0.048 A 
ATOM     10  C   UNL A   1      34.102  20.611  24.929  1.00  0.00     0.130 A 
BRANCH   6  11
ATOM     11  C   UNL A   1      31.908  24.233  24.773  1.00  0.00     0.119 C 
ATOM     12  N   UNL A   1      31.805  24.779  23.607  1.00  0.00    -0.256 NA
BRANCH  12  13
ATOM     13  C   UNL A   1      30.916  25.839  23.375  1.00  0.00     0.063 A 
ATOM     14  C   UNL A   1      29.348  28.111  22.863  1.00  0.00     0.082 A 
ATOM     15  C   UNL A   1      30.598  27.986  22.258  1.00  0.00     0.024 A 
ATOM     16  C   UNL A   1      28.862  27.100  23.698  1.00  0.00     0.024 A 
ATOM     17  C   UNL A   1      31.369  26.851  22.518  1.00  0.00     0.030 A 
ATOM     18  C   UNL A   1      29.652  25.973  23.958  1.00  0.00     0.030 A 
BRANCH  14  19
ATOM     19  S   UNL A   1      28.357  29.556  22.635  1.00  0.00     0.238 S 
ATOM     20  O   UNL A   1      28.283  29.839  21.223  1.00  0.00    -0.207 OA
ATOM     21  O   UNL A   1      28.751  30.545  23.611  1.00  0.00    -0.207 OA
BRANCH  19  22
ATOM     22  N   UNL A   1      26.803  29.091  23.080  1.00  0.00    -0.225 NA
ATOM     23  H   UNL A   1      26.475  28.358  22.451  1.00  0.00     0.137 HD
ATOM     24  H   UNL A   1      26.177  29.895  23.020  1.00  0.00     0.137 HD
ENDBRANCH  19  22
ENDBRANCH  14  19
ENDBRANCH  12  13
ENDBRANCH   6  11
BRANCH  10  25
ATOM     25  O   UNL A   1      34.677  19.371  24.867  1.00  0.00    -0.507 OA
ATOM     26  H   UNL A   1      35.161  19.041  25.599  1.00  0.00     0.293 HD
ENDBRANCH  10  25
ENDBRANCH   3   5
ENDBRANCH   2   3
ENDBRANCH   1   2
BRANCH   1  27
ATOM     27  C   UNL A   1      39.045  19.780  25.451  1.00  0.00     0.275 C 
BRANCH  27  28
ATOM     28  O   UNL A   1      39.855  19.645  26.633  1.00  0.00    -0.458 OA
BRANCH  28  29
ATOM     29  C   UNL A   1      41.186  19.823  26.454  1.00  0.00     0.338 C 
ATOM     30  O   UNL A   1      41.975  19.036  25.958  1.00  0.00    -0.246 OA
BRANCH  29  31
ATOM     31  C   UNL A   1      41.522  21.222  26.770  1.00  0.00     0.060 A 
ATOM     32  C   UNL A   1      41.652  22.099  25.692  1.00  0.00     0.016 A 
ATOM     33  C   UNL A   1      41.708  21.677  28.076  1.00  0.00     0.016 A 
ATOM     34  C   UNL A   1      41.907  23.449  25.907  1.00  0.00     0.010 A 
ATOM     35  C   UNL A   1      42.004  23.029  28.291  1.00  0.00     0.010 A 
ATOM     36  C   UNL A   1      42.095  23.923  27.210  1.00  0.00    -0.014 A 
BRANCH  36  37
ATOM     37  C   UNL A   1      42.451  25.344  27.428  1.00  0.00     0.031 A 
ATOM     38  C   UNL A   1      43.802  25.838  27.007  1.00  0.00     0.074 A 
ATOM     39  C   UNL A   1      41.566  26.188  27.990  1.00  0.00     0.049 A 
ATOM     40  N   UNL A   1      44.335  27.022  27.161  1.00  0.00    -0.248 NA
ATOM     41  C   UNL A   1      44.667  24.870  26.312  1.00  0.00     0.031 C 
ATOM     42  C   UNL A   1      40.203  25.838  28.390  1.00  0.00     0.029 A 
ATOM     43  N   UNL A   1      41.691  27.509  28.338  1.00  0.00    -0.354 N 
ATOM     44  C   UNL A   1      45.608  26.937  26.614  1.00  0.00     0.074 A 
ATOM     45  C   UNL A   1      45.767  25.586  26.118  1.00  0.00     0.031 C 
ATOM     46  C   UNL A   1      39.625  26.913  28.952  1.00  0.00     0.029 A 
ATOM     47  C   UNL A   1      40.587  28.013  28.985  1.00  0.00     0.049 A 
ATOM     48  H   UNL A   1      42.493  28.046  28.143  1.00  0.00     0.167 HD
ATOM     49  C   UNL A   1      46.555  27.900  26.525  1.00  0.00     0.034 A 
ATOM     50  C   UNL A   1      40.389  29.214  29.564  1.00  0.00     0.034 A 
ATOM     51  C   UNL A   1      46.389  29.245  27.007  1.00  0.00     0.049 A 
ATOM     52  C   UNL A   1      41.493  30.240  29.525  1.00  0.00     0.074 A 
ATOM     53  C   UNL A   1      47.281  30.301  26.932  1.00  0.00     0.029 A 
ATOM     54  N   UNL A   1      45.265  29.717  27.666  1.00  0.00    -0.354 N 
ATOM     55  N   UNL A   1      42.656  30.180  28.921  1.00  0.00    -0.248 NA
ATOM     56  C   UNL A   1      41.251  31.504  30.236  1.00  0.00     0.031 C 
ATOM     57  C   UNL A   1      46.707  31.403  27.574  1.00  0.00     0.029 A 
ATOM     58  C   UNL A   1      45.448  31.040  28.028  1.00  0.00     0.049 A 
ATOM     59  H   UNL A   1      44.455  29.188  27.850  1.00  0.00     0.167 HD
ATOM     60  C   UNL A   1      43.271  31.407  29.153  1.00  0.00     0.074 A 
ATOM     61  C   UNL A   1      42.343  32.196  29.937  1.00  0.00     0.031 C 
ATOM     62  C   UNL A   1      44.497  31.834  28.764  1.00  0.00     0.034 A 
BRANCH  49  63
ATOM     63  C   UNL A   1      47.860  27.527  25.877  1.00  0.00     0.023 A 
ATOM     64  C   UNL A   1      48.916  27.029  26.668  1.00  0.00     0.012 A 
ATOM     65  C   UNL A   1      48.031  27.640  24.484  1.00  0.00     0.148 A 
ATOM     66  C   UNL A   1      50.133  26.679  26.085  1.00  0.00     0.002 A 
ATOM     67  C   UNL A   1      49.234  27.255  23.906  1.00  0.00     0.091 A 
ATOM     68  F   UNL A   1      47.026  28.144  23.754  1.00  0.00    -0.205 F 
ATOM     69  C   UNL A   1      50.289  26.783  24.705  1.00  0.00     0.022 A 
BRANCH  67  70
ATOM     70  S   UNL A   1      49.500  27.293  22.130  1.00  0.00     0.127 S 
ATOM     71  O   UNL A   1      50.874  26.803  22.028  1.00  0.00    -0.237 OA
ATOM     72  O   UNL A   1      48.484  26.360  21.643  1.00  0.00    -0.237 OA
ATOM     73  O   UNL A   1      49.292  28.676  21.727  1.00  0.00    -0.744 OA
ENDBRANCH  67  70
ENDBRANCH  49  63
BRANCH  50  74
ATOM     74  C   UNL A   1      39.086  29.525  30.218  1.00  0.00     0.023 A 
ATOM     75  C   UNL A   1      38.814  29.007  31.498  1.00  0.00     0.012 A 
ATOM     76  C   UNL A   1      38.120  30.333  29.586  1.00  0.00     0.148 A 
ATOM     77  C   UNL A   1      37.597  29.268  32.128  1.00  0.00     0.002 A 
ATOM     78  C   UNL A   1      36.931  30.632  30.240  1.00  0.00     0.091 A 
ATOM     79  F   UNL A   1      38.386  30.797  28.356  1.00  0.00    -0.205 F 
ATOM     80  C   UNL A   1      36.661  30.088  31.505  1.00  0.00     0.022 A 
BRANCH  78  81
ATOM     81  S   UNL A   1      35.717  31.771  29.564  1.00  0.00     0.127 S 
ATOM     82  O   UNL A   1      35.104  30.966  28.511  1.00  0.00    -0.237 OA
ATOM     83  O   UNL A   1      34.860  32.023  30.724  1.00  0.00    -0.237 OA
ATOM     84  O   UNL A   1      36.473  32.931  29.113  1.00  0.00    -0.744 OA
ENDBRANCH  78  81
ENDBRANCH  50  74
BRANCH  62  85
ATOM     85  C   UNL A   1      44.913  33.229  29.156  1.00  0.00     0.023 A 
ATOM     86  C   UNL A   1      45.534  33.447  30.401  1.00  0.00     0.012 A 
ATOM     87  C   UNL A   1      44.773  34.304  28.255  1.00  0.00     0.148 A 
ATOM     88  C   UNL A   1      45.991  34.716  30.753  1.00  0.00     0.002 A 
ATOM     89  C   UNL A   1      45.272  35.556  28.594  1.00  0.00     0.091 A 
ATOM     90  F   UNL A   1      44.164  34.079  27.081  1.00  0.00    -0.205 F 
ATOM     91  C   UNL A   1      45.872  35.767  29.846  1.00  0.00     0.022 A 
BRANCH  89  92
ATOM     92  S   UNL A   1      45.250  36.946  27.455  1.00  0.00     0.127 S 
ATOM     93  O   UNL A   1      43.819  37.103  27.201  1.00  0.00    -0.237 OA
ATOM     94  O   UNL A   1      45.849  38.014  28.258  1.00  0.00    -0.237 OA
ATOM     95  O   UNL A   1      46.046  36.537  26.305  1.00  0.00    -0.744 OA
ENDBRANCH  89  92
ENDBRANCH  62  85
ENDBRANCH  36  37
ENDBRANCH  29  31
ENDBRANCH  28  29
ENDBRANCH  27  28
ENDBRANCH   1  27
TORSDOF 19
ENDMDL
MODEL 2
REMARK VINA RESULT:     -12.0      1.312      7.636
REMARK SMILES NS(=O)(=O)c1ccc(/N=C/c2ccc(O)c(C(=O)OCCOC(=O)c3ccc(-c4c5nc(c(-c6cccc(S(=O)(=O)[O-])c6F)c6ccc([nH]6)c(-c6cccc(S(=O)(=O)[O-])c6F)c6nc(c(-c7cccc(S(=O)(=O)[O-])c7F)c7ccc4[nH]7)C=C6)C=C5)cc3)c2)cc1
REMARK SMILES IDX 20 1 19 2 17 3 18 4 16 5 11 6 12 7 88 8 13 9 14 10 10 11
REMARK SMILES IDX 9 12 8 13 5 14 6 15 90 16 7 17 89 18 2 19 3 20 4 21 1 22
REMARK SMILES IDX 15 25 21 27 22 28 23 29 24 30 25 31 26 32 87 33 27 34 86 35
REMARK SMILES IDX 28 36 29 37 30 38 80 39 31 40 85 41 79 42 81 43 32 44 84 45
REMARK SMILES IDX 78 46 77 47 33 49 65 50 45 51 64 52 46 53 49 54 63 55 82 56
REMARK SMILES IDX 47 57 48 58 62 60 83 61 50 62 34 63 35 64 43 65 36 66 38 67
REMARK SMILES IDX 44 68 37 69 39 70 40 71 41 72 42 73 66 74 67 75 75 76 68 77
REMARK SMILES IDX 70 78 76 79 69 80 71 81 72 82 73 83 74 84 51 85 52 86 60 87
REMARK SMILES IDX 53 88 55 89 61 90 54 91 56 92 57 93 58 94 59 95
REMARK H PARENT 1 23 1 24 15 26 81 48 49 59
REMARK Flexibility Score: inf
ROOT
ATOM      1  C   UNL A   1      36.866  21.133  24.535  1.00  0.00     0.275 C 
ENDROOT
BRANCH   1   2
ATOM      2  O   UNL A   1      36.063  21.596  25.640  1.00  0.00    -0.458 OA
BRANCH   2   3
ATOM      3  C   UNL A   1      35.816  22.927  25.687  1.00  0.00     0.342 C 
ATOM      4  O   UNL A   1      36.575  23.823  25.344  1.00  0.00    -0.246 OA
BRANCH   3   5
ATOM      5  C   UNL A   1      34.422  23.208  26.100  1.00  0.00     0.102 A 
ATOM      6  C   UNL A   1      32.369  24.484  25.971  1.00  0.00    -0.006 A 
ATOM      7  C   UNL A   1      31.858  23.805  27.080  1.00  0.00     0.013 A 
ATOM      8  C   UNL A   1      33.661  24.216  25.496  1.00  0.00     0.029 A 
ATOM      9  C   UNL A   1      32.600  22.776  27.655  1.00  0.00     0.048 A 
ATOM     10  C   UNL A   1      33.852  22.451  27.136  1.00  0.00     0.130 A 
BRANCH   6  11
ATOM     11  C   UNL A   1      31.463  25.396  25.244  1.00  0.00     0.119 C 
ATOM     12  N   UNL A   1      31.602  26.675  25.345  1.00  0.00    -0.256 NA
BRANCH  12  13
ATOM     13  C   UNL A   1      30.854  27.555  24.549  1.00  0.00     0.063 A 
ATOM     14  C   UNL A   1      29.385  29.495  23.148  1.00  0.00     0.082 A 
ATOM     15  C   UNL A   1      30.367  29.894  24.052  1.00  0.00     0.024 A 
ATOM     16  C   UNL A   1      29.149  28.136  22.916  1.00  0.00     0.024 A 
ATOM     17  C   UNL A   1      31.093  28.922  24.743  1.00  0.00     0.030 A 
ATOM     18  C   UNL A   1      29.876  27.172  23.624  1.00  0.00     0.030 A 
BRANCH  14  19
ATOM     19  S   UNL A   1      28.380  30.675  22.300  1.00  0.00     0.238 S 
ATOM     20  O   UNL A   1      27.379  31.163  23.217  1.00  0.00    -0.207 OA
ATOM     21  O   UNL A   1      28.055  30.151  20.994  1.00  0.00    -0.207 OA
BRANCH  19  22
ATOM     22  N   UNL A   1      29.397  31.983  22.010  1.00  0.00    -0.225 NA
ATOM     23  H   UNL A   1      30.136  32.000  22.713  1.00  0.00     0.137 HD
ATOM     24  H   UNL A   1      28.860  32.849  22.061  1.00  0.00     0.137 HD
ENDBRANCH  19  22
ENDBRANCH  14  19
ENDBRANCH  12  13
ENDBRANCH   6  11
BRANCH  10  25
ATOM     25  O   UNL A   1      34.477  21.385  27.723  1.00  0.00    -0.507 OA
ATOM     26  H   UNL A   1      35.194  21.526  28.310  1.00  0.00     0.293 HD
ENDBRANCH  10  25
ENDBRANCH   3   5
ENDBRANCH   2   3
ENDBRANCH   1   2
BRANCH   1  27
ATOM     27  C   UNL A   1      38.162  20.484  25.027  1.00  0.00     0.275 C 
BRANCH  27  28
ATOM     28  O   UNL A   1      38.640  21.130  26.221  1.00  0.00    -0.458 OA
BRANCH  28  29
ATOM     29  C   UNL A   1      39.948  20.933  26.511  1.00  0.00     0.338 C 
ATOM     30  O   UNL A   1      40.605  19.926  26.307  1.00  0.00    -0.246 OA
BRANCH  29  31
ATOM     31  C   UNL A   1      40.535  22.215  26.937  1.00  0.00     0.060 A 
ATOM     32  C   UNL A   1      40.216  23.340  26.176  1.00  0.00     0.016 A 
ATOM     33  C   UNL A   1      41.375  22.328  28.045  1.00  0.00     0.016 A 
ATOM     34  C   UNL A   1      40.680  24.598  26.547  1.00  0.00     0.010 A 
ATOM     35  C   UNL A   1      41.876  23.588  28.396  1.00  0.00     0.010 A 
ATOM     36  C   UNL A   1      41.522  24.730  27.656  1.00  0.00    -0.014 A 
BRANCH  36  37
ATOM     37  C   UNL A   1      42.082  26.058  27.996  1.00  0.00     0.031 A 
ATOM     38  C   UNL A   1      41.215  27.069  28.685  1.00  0.00     0.074 A 
ATOM     39  C   UNL A   1      43.361  26.352  27.699  1.00  0.00     0.049 A 
ATOM     40  N   UNL A   1      41.487  28.305  29.015  1.00  0.00    -0.248 NA
ATOM     41  C   UNL A   1      39.862  26.627  29.060  1.00  0.00     0.031 C 
ATOM     42  C   UNL A   1      44.316  25.434  27.081  1.00  0.00     0.029 A 
ATOM     43  N   UNL A   1      44.069  27.517  27.861  1.00  0.00    -0.354 N 
ATOM     44  C   UNL A   1      40.334  28.801  29.606  1.00  0.00     0.074 A 
ATOM     45  C   UNL A   1      39.358  27.731  29.595  1.00  0.00     0.031 C 
ATOM     46  C   UNL A   1      45.481  26.078  26.894  1.00  0.00     0.029 A 
ATOM     47  C   UNL A   1      45.341  27.462  27.343  1.00  0.00     0.049 A 
ATOM     48  H   UNL A   1      43.702  28.315  28.307  1.00  0.00     0.167 HD
ATOM     49  C   UNL A   1      40.110  30.033  30.118  1.00  0.00     0.034 A 
ATOM     50  C   UNL A   1      46.274  28.427  27.219  1.00  0.00     0.034 A 
ATOM     51  C   UNL A   1      41.085  31.090  30.140  1.00  0.00     0.049 A 
ATOM     52  C   UNL A   1      45.968  29.815  27.723  1.00  0.00     0.074 A 
ATOM     53  C   UNL A   1      40.962  32.363  30.668  1.00  0.00     0.029 A 
ATOM     54  N   UNL A   1      42.357  31.004  29.596  1.00  0.00    -0.354 N 
ATOM     55  N   UNL A   1      44.909  30.246  28.365  1.00  0.00    -0.248 NA
ATOM     56  C   UNL A   1      46.991  30.846  27.495  1.00  0.00     0.031 C 
ATOM     57  C   UNL A   1      42.150  33.057  30.416  1.00  0.00     0.029 A 
ATOM     58  C   UNL A   1      43.022  32.208  29.752  1.00  0.00     0.049 A 
ATOM     59  H   UNL A   1      42.733  30.204  29.164  1.00  0.00     0.167 HD
ATOM     60  C   UNL A   1      45.151  31.587  28.645  1.00  0.00     0.074 A 
ATOM     61  C   UNL A   1      46.465  31.892  28.119  1.00  0.00     0.031 C 
ATOM     62  C   UNL A   1      44.351  32.487  29.269  1.00  0.00     0.034 A 
BRANCH  49  63
ATOM     63  C   UNL A   1      38.750  30.302  30.702  1.00  0.00     0.023 A 
ATOM     64  C   UNL A   1      38.433  29.815  31.987  1.00  0.00     0.012 A 
ATOM     65  C   UNL A   1      37.798  31.059  29.994  1.00  0.00     0.148 A 
ATOM     66  C   UNL A   1      37.177  30.052  32.544  1.00  0.00     0.002 A 
ATOM     67  C   UNL A   1      36.563  31.323  30.571  1.00  0.00     0.091 A 
ATOM     68  F   UNL A   1      38.108  31.487  28.762  1.00  0.00    -0.205 F 
ATOM     69  C   UNL A   1      36.247  30.813  31.841  1.00  0.00     0.022 A 
BRANCH  67  70
ATOM     70  S   UNL A   1      35.328  32.350  29.766  1.00  0.00     0.127 S 
ATOM     71  O   UNL A   1      34.333  32.501  30.827  1.00  0.00    -0.237 OA
ATOM     72  O   UNL A   1      36.083  33.566  29.462  1.00  0.00    -0.237 OA
ATOM     73  O   UNL A   1      34.892  31.602  28.596  1.00  0.00    -0.744 OA
ENDBRANCH  67  70
ENDBRANCH  49  63
BRANCH  50  74
ATOM     74  C   UNL A   1      47.598  28.116  26.608  1.00  0.00     0.023 A 
ATOM     75  C   UNL A   1      48.730  28.002  27.436  1.00  0.00     0.012 A 
ATOM     76  C   UNL A   1      47.742  27.927  25.219  1.00  0.00     0.148 A 
ATOM     77  C   UNL A   1      49.986  27.728  26.892  1.00  0.00     0.002 A 
ATOM     78  C   UNL A   1      48.984  27.603  24.689  1.00  0.00     0.091 A 
ATOM     79  F   UNL A   1      46.656  28.064  24.444  1.00  0.00    -0.205 F 
ATOM     80  C   UNL A   1      50.111  27.518  25.521  1.00  0.00     0.022 A 
BRANCH  78  81
ATOM     81  S   UNL A   1      49.219  27.203  22.953  1.00  0.00     0.127 S 
ATOM     82  O   UNL A   1      48.782  28.435  22.300  1.00  0.00    -0.237 OA
ATOM     83  O   UNL A   1      50.660  26.952  22.893  1.00  0.00    -0.237 OA
ATOM     84  O   UNL A   1      48.394  26.029  22.704  1.00  0.00    -0.744 OA
ENDBRANCH  78  81
ENDBRANCH  50  74
BRANCH  62  85
ATOM     85  C   UNL A   1      44.873  33.890  29.444  1.00  0.00     0.023 A 
ATOM     86  C   UNL A   1      45.600  34.223  30.603  1.00  0.00     0.012 A 
ATOM     87  C   UNL A   1      44.724  34.848  28.421  1.00  0.00     0.148 A 
ATOM     88  C   UNL A   1      46.153  35.494  30.753  1.00  0.00     0.002 A 
ATOM     89  C   UNL A   1      45.318  36.098  28.556  1.00  0.00     0.091 A 
ATOM     90  F   UNL A   1      44.015  34.516  27.332  1.00  0.00    -0.205 F 
ATOM     91  C   UNL A   1      46.024  36.427  29.725  1.00  0.00     0.022 A 
BRANCH  89  92
ATOM     92  S   UNL A   1      45.287  37.330  27.248  1.00  0.00     0.127 S 
ATOM     93  O   UNL A   1      46.113  36.697  26.222  1.00  0.00    -0.237 OA
ATOM     94  O   UNL A   1      43.861  37.403  26.925  1.00  0.00    -0.237 OA
ATOM     95  O   UNL A   1      45.838  38.547  27.828  1.00  0.00    -0.744 OA
ENDBRANCH  89  92
ENDBRANCH  62  85
ENDBRANCH  36  37
ENDBRANCH  29  31
ENDBRANCH  28  29
ENDBRANCH  27  28
ENDBRANCH   1  27
TORSDOF 19
ENDMDL
MODEL 3
REMARK VINA RESULT:     -12.0      1.842      7.795
REMARK SMILES NS(=O)(=O)c1ccc(/N=C/c2ccc(O)c(C(=O)OCCOC(=O)c3ccc(-c4c5nc(c(-c6cccc(S(=O)(=O)[O-])c6F)c6ccc([nH]6)c(-c6cccc(S(=O)(=O)[O-])c6F)c6nc(c(-c7cccc(S(=O)(=O)[O-])c7F)c7ccc4[nH]7)C=C6)C=C5)cc3)c2)cc1
REMARK SMILES IDX 20 1 19 2 17 3 18 4 16 5 11 6 12 7 88 8 13 9 14 10 10 11
REMARK SMILES IDX 9 12 8 13 5 14 6 15 90 16 7 17 89 18 2 19 3 20 4 21 1 22
REMARK SMILES IDX 15 25 21 27 22 28 23 29 24 30 25 31 26 32 87 33 27 34 86 35
REMARK SMILES IDX 28 36 29 37 30 38 80 39 31 40 85 41 79 42 81 43 32 44 84 45
REMARK SMILES IDX 78 46 77 47 33 49 65 50 45 51 64 52 46 53 49 54 63 55 82 56
REMARK SMILES IDX 47 57 48 58 62 60 83 61 50 62 34 63 35 64 43 65 36 66 38 67
REMARK SMILES IDX 44 68 37 69 39 70 40 71 41 72 42 73 66 74 67 75 75 76 68 77
REMARK SMILES IDX 70 78 76 79 69 80 71 81 72 82 73 83 74 84 51 85 52 86 60 87
REMARK SMILES IDX 53 88 55 89 61 90 54 91 56 92 57 93 58 94 59 95
REMARK H PARENT 1 23 1 24 15 26 81 48 49 59
REMARK Flexibility Score: inf
ROOT
ATOM      1  C   UNL A   1      35.029  21.047  24.882  1.00  0.00     0.275 C 
ENDROOT
BRANCH   1   2
ATOM      2  O   UNL A   1      34.424  22.081  24.079  1.00  0.00    -0.458 OA
BRANCH   2   3
ATOM      3  C   UNL A   1      33.169  21.838  23.634  1.00  0.00     0.342 C 
ATOM      4  O   UNL A   1      32.845  21.058  22.750  1.00  0.00    -0.246 OA
BRANCH   3   5
ATOM      5  C   UNL A   1      32.155  22.554  24.444  1.00  0.00     0.102 A 
ATOM      6  C   UNL A   1      30.900  24.538  25.031  1.00  0.00    -0.006 A 
ATOM      7  C   UNL A   1      30.372  23.891  26.152  1.00  0.00     0.013 A 
ATOM      8  C   UNL A   1      31.817  23.889  24.192  1.00  0.00     0.029 A 
ATOM      9  C   UNL A   1      30.678  22.552  26.378  1.00  0.00     0.048 A 
ATOM     10  C   UNL A   1      31.527  21.878  25.501  1.00  0.00     0.130 A 
BRANCH   6  11
ATOM     11  C   UNL A   1      30.367  25.873  24.692  1.00  0.00     0.119 C 
ATOM     12  N   UNL A   1      30.489  26.341  23.494  1.00  0.00    -0.256 NA
BRANCH  12  13
ATOM     13  C   UNL A   1      29.861  27.534  23.111  1.00  0.00     0.063 A 
ATOM     14  C   UNL A   1      28.839  30.041  22.365  1.00  0.00     0.082 A 
ATOM     15  C   UNL A   1      30.172  29.734  22.099  1.00  0.00     0.024 A 
ATOM     16  C   UNL A   1      28.004  29.099  22.974  1.00  0.00     0.024 A 
ATOM     17  C   UNL A   1      30.670  28.484  22.473  1.00  0.00     0.030 A 
ATOM     18  C   UNL A   1      28.520  27.854  23.354  1.00  0.00     0.030 A 
BRANCH  14  19
ATOM     19  S   UNL A   1      28.169  31.631  21.987  1.00  0.00     0.238 S 
ATOM     20  O   UNL A   1      27.213  31.978  23.011  1.00  0.00    -0.207 OA
ATOM     21  O   UNL A   1      27.856  31.678  20.578  1.00  0.00    -0.207 OA
BRANCH  19  22
ATOM     22  N   UNL A   1      29.450  32.702  22.190  1.00  0.00    -0.225 NA
ATOM     23  H   UNL A   1      30.062  32.363  22.933  1.00  0.00     0.137 HD
ATOM     24  H   UNL A   1      29.087  33.622  22.443  1.00  0.00     0.137 HD
ENDBRANCH  19  22
ENDBRANCH  14  19
ENDBRANCH  12  13
ENDBRANCH   6  11
BRANCH  10  25
ATOM     25  O   UNL A   1      31.717  20.549  25.767  1.00  0.00    -0.507 OA
ATOM     26  H   UNL A   1      30.982  19.969  25.812  1.00  0.00     0.293 HD
ENDBRANCH  10  25
ENDBRANCH   3   5
ENDBRANCH   2   3
ENDBRANCH   1   2
BRANCH   1  27
ATOM     27  C   UNL A   1      36.546  21.004  24.677  1.00  0.00     0.275 C 
BRANCH  27  28
ATOM     28  O   UNL A   1      37.229  21.687  25.744  1.00  0.00    -0.458 OA
BRANCH  28  29
ATOM     29  C   UNL A   1      38.495  21.273  25.990  1.00  0.00     0.338 C 
ATOM     30  O   UNL A   1      38.982  20.189  25.717  1.00  0.00    -0.246 OA
BRANCH  29  31
ATOM     31  C   UNL A   1      39.284  22.423  26.464  1.00  0.00     0.060 A 
ATOM     32  C   UNL A   1      38.890  23.686  26.020  1.00  0.00     0.016 A 
ATOM     33  C   UNL A   1      40.378  22.285  27.318  1.00  0.00     0.016 A 
ATOM     34  C   UNL A   1      39.543  24.828  26.471  1.00  0.00     0.010 A 
ATOM     35  C   UNL A   1      41.062  23.432  27.741  1.00  0.00     0.010 A 
ATOM     36  C   UNL A   1      40.642  24.709  27.329  1.00  0.00    -0.014 A 
BRANCH  36  37
ATOM     37  C   UNL A   1      41.387  25.922  27.737  1.00  0.00     0.031 A 
ATOM     38  C   UNL A   1      40.690  26.979  28.541  1.00  0.00     0.074 A 
ATOM     39  C   UNL A   1      42.681  26.070  27.399  1.00  0.00     0.049 A 
ATOM     40  N   UNL A   1      41.138  28.139  28.946  1.00  0.00    -0.248 NA
ATOM     41  C   UNL A   1      39.306  26.688  28.948  1.00  0.00     0.031 C 
ATOM     42  C   UNL A   1      43.480  25.087  26.669  1.00  0.00     0.029 A 
ATOM     43  N   UNL A   1      43.544  27.117  27.612  1.00  0.00    -0.354 N 
ATOM     44  C   UNL A   1      40.085  28.732  29.628  1.00  0.00     0.074 A 
ATOM     45  C   UNL A   1      38.976  27.803  29.587  1.00  0.00     0.031 C 
ATOM     46  C   UNL A   1      44.712  25.588  26.472  1.00  0.00     0.029 A 
ATOM     47  C   UNL A   1      44.776  26.937  27.029  1.00  0.00     0.049 A 
ATOM     48  H   UNL A   1      43.304  27.917  28.132  1.00  0.00     0.167 HD
ATOM     49  C   UNL A   1      40.047  29.939  30.240  1.00  0.00     0.034 A 
ATOM     50  C   UNL A   1      45.824  27.780  26.930  1.00  0.00     0.034 A 
ATOM     51  C   UNL A   1      41.155  30.855  30.291  1.00  0.00     0.049 A 
ATOM     52  C   UNL A   1      45.725  29.151  27.548  1.00  0.00     0.074 A 
ATOM     53  C   UNL A   1      41.224  32.087  30.916  1.00  0.00     0.029 A 
ATOM     54  N   UNL A   1      42.382  30.648  29.680  1.00  0.00    -0.354 N 
ATOM     55  N   UNL A   1      44.759  29.664  28.272  1.00  0.00    -0.248 NA
ATOM     56  C   UNL A   1      46.868  30.056  27.347  1.00  0.00     0.031 C 
ATOM     57  C   UNL A   1      42.483  32.639  30.658  1.00  0.00     0.029 A 
ATOM     58  C   UNL A   1      43.207  31.739  29.891  1.00  0.00     0.049 A 
ATOM     59  H   UNL A   1      42.631  29.842  29.172  1.00  0.00     0.167 HD
ATOM     60  C   UNL A   1      45.189  30.936  28.638  1.00  0.00     0.074 A 
ATOM     61  C   UNL A   1      46.510  31.109  28.070  1.00  0.00     0.031 C 
ATOM     62  C   UNL A   1      44.541  31.880  29.365  1.00  0.00     0.034 A 
BRANCH  49  63
ATOM     63  C   UNL A   1      38.760  30.334  30.909  1.00  0.00     0.023 A 
ATOM     64  C   UNL A   1      38.542  29.998  32.260  1.00  0.00     0.012 A 
ATOM     65  C   UNL A   1      37.780  31.064  30.210  1.00  0.00     0.148 A 
ATOM     66  C   UNL A   1      37.354  30.355  32.896  1.00  0.00     0.002 A 
ATOM     67  C   UNL A   1      36.614  31.448  30.861  1.00  0.00     0.091 A 
ATOM     68  F   UNL A   1      37.992  31.348  28.917  1.00  0.00    -0.205 F 
ATOM     69  C   UNL A   1      36.395  31.087  32.201  1.00  0.00     0.022 A 
BRANCH  67  70
ATOM     70  S   UNL A   1      35.354  32.449  30.063  1.00  0.00     0.127 S 
ATOM     71  O   UNL A   1      36.111  33.650  29.711  1.00  0.00    -0.237 OA
ATOM     72  O   UNL A   1      34.971  31.616  28.922  1.00  0.00    -0.237 OA
ATOM     73  O   UNL A   1      34.305  32.633  31.055  1.00  0.00    -0.744 OA
ENDBRANCH  67  70
ENDBRANCH  49  63
BRANCH  50  74
ATOM     74  C   UNL A   1      47.070  27.349  26.233  1.00  0.00     0.023 A 
ATOM     75  C   UNL A   1      47.234  27.646  24.867  1.00  0.00     0.012 A 
ATOM     76  C   UNL A   1      48.091  26.657  26.913  1.00  0.00     0.148 A 
ATOM     77  C   UNL A   1      48.381  27.242  24.184  1.00  0.00     0.002 A 
ATOM     78  C   UNL A   1      49.254  26.303  26.240  1.00  0.00     0.091 A 
ATOM     79  F   UNL A   1      47.906  26.362  28.207  1.00  0.00    -0.205 F 
ATOM     80  C   UNL A   1      49.395  26.580  24.871  1.00  0.00     0.022 A 
BRANCH  78  81
ATOM     81  S   UNL A   1      50.659  25.550  27.070  1.00  0.00     0.127 S 
ATOM     82  O   UNL A   1      50.072  24.321  27.598  1.00  0.00    -0.237 OA
ATOM     83  O   UNL A   1      51.597  25.359  25.962  1.00  0.00    -0.237 OA
ATOM     84  O   UNL A   1      51.095  26.521  28.064  1.00  0.00    -0.744 OA
ENDBRANCH  78  81
ENDBRANCH  50  74
BRANCH  62  85
ATOM     85  C   UNL A   1      45.252  33.185  29.616  1.00  0.00     0.023 A 
ATOM     86  C   UNL A   1      46.071  33.325  30.753  1.00  0.00     0.012 A 
ATOM     87  C   UNL A   1      45.183  34.236  28.679  1.00  0.00     0.148 A 
ATOM     88  C   UNL A   1      46.794  34.497  30.967  1.00  0.00     0.002 A 
ATOM     89  C   UNL A   1      45.943  35.384  28.875  1.00  0.00     0.091 A 
ATOM     90  F   UNL A   1      44.386  34.090  27.611  1.00  0.00    -0.205 F 
ATOM     91  C   UNL A   1      46.741  35.521  30.023  1.00  0.00     0.022 A 
BRANCH  89  92
ATOM     92  S   UNL A   1      46.013  36.715  27.670  1.00  0.00     0.127 S 
ATOM     93  O   UNL A   1      44.625  37.172  27.648  1.00  0.00    -0.237 OA
ATOM     94  O   UNL A   1      46.954  37.648  28.292  1.00  0.00    -0.237 OA
ATOM     95  O   UNL A   1      46.490  36.112  26.432  1.00  0.00    -0.744 OA
ENDBRANCH  89  92
ENDBRANCH  62  85
ENDBRANCH  36  37
ENDBRANCH  29  31
ENDBRANCH  28  29
ENDBRANCH  27  28
ENDBRANCH   1  27
TORSDOF 19
ENDMDL
