MODEL 1
REMARK VINA RESULT:     -13.9      0.000      0.000
REMARK SMILES Cc1cccc(-n2c(C)cc(/C=N\c3ccc(O)c(C(=O)OCCOC(=O)c4ccc(-c5c6nc(c(-c7cccc(S(=O)(=O)[O-])c7F)c7ccc([nH]7)c(-c7cccc(S(=O)(=O)[O-])c7F)c7nc(c(-c8cccc(S(=O)(=O)[O-])c8F)c8ccc5[nH]8)C=C7)C=C6)cc4)c3)c2C)c1
REMARK SMILES IDX 23 1 22 2 20 3 21 4 19 5 14 6 15 7 91 8 16 9 17 10 13 11
REMARK SMILES IDX 12 12 11 13 7 14 8 15 92 16 9 17 10 18 93 19 6 20 1 21 2 22
REMARK SMILES IDX 3 23 94 24 4 25 5 26 18 27 24 29 25 30 26 31 27 32 28 33
REMARK SMILES IDX 29 34 90 35 30 36 89 37 31 38 32 39 33 40 83 41 34 42 88 43
REMARK SMILES IDX 82 44 84 45 35 46 87 47 81 48 80 49 36 51 68 52 48 53 67 54
REMARK SMILES IDX 49 55 52 56 66 57 85 58 50 59 51 60 65 62 86 63 53 64 37 65
REMARK SMILES IDX 38 66 46 67 39 68 41 69 47 70 40 71 42 72 43 73 44 74 45 75
REMARK SMILES IDX 69 76 70 77 78 78 71 79 73 80 79 81 72 82 74 83 75 84 76 85
REMARK SMILES IDX 77 86 54 87 55 88 63 89 56 90 58 91 64 92 57 93 59 94 60 95
REMARK SMILES IDX 61 96 62 97
REMARK H PARENT 18 28 84 50 52 61
REMARK Flexibility Score: inf
ROOT
ATOM      1  C   UNL A   1      34.222  31.906  27.645  1.00  0.00     0.275 C 
ENDROOT
BRANCH   1   2
ATOM      2  O   UNL A   1      33.071  31.056  27.616  1.00  0.00    -0.458 OA
BRANCH   2   3
ATOM      3  C   UNL A   1      33.290  29.638  27.153  1.00  0.00     0.342 C 
ATOM      4  O   UNL A   1      34.439  29.440  27.649  1.00  0.00    -0.246 OA
BRANCH   3   5
ATOM      5  C   UNL A   1      31.924  28.412  26.008  1.00  0.00     0.103 A 
ATOM      6  C   UNL A   1      30.300  26.160  25.800  1.00  0.00     0.064 A 
ATOM      7  C   UNL A   1      29.774  26.508  24.588  1.00  0.00     0.032 A 
ATOM      8  C   UNL A   1      31.223  27.067  26.437  1.00  0.00     0.048 A 
ATOM      9  C   UNL A   1      30.279  27.647  23.987  1.00  0.00     0.049 A 
ATOM     10  C   UNL A   1      31.283  28.500  24.600  1.00  0.00     0.130 A 
BRANCH   6  11
ATOM     11  N   UNL A   1      29.920  24.997  26.483  1.00  0.00    -0.256 NA
ATOM     12  C   UNL A   1      30.588  23.877  26.547  1.00  0.00     0.121 C 
BRANCH  12  13
ATOM     13  C   UNL A   1      31.779  23.397  25.839  1.00  0.00     0.014 A 
ATOM     14  N   UNL A   1      33.853  22.696  25.276  1.00  0.00    -0.318 N 
ATOM     15  C   UNL A   1      33.226  23.030  24.090  1.00  0.00     0.021 A 
ATOM     16  C   UNL A   1      32.930  22.779  26.311  1.00  0.00     0.029 A 
ATOM     17  C   UNL A   1      33.888  22.874  22.765  1.00  0.00     0.065 C 
ATOM     18  C   UNL A   1      31.937  23.423  24.410  1.00  0.00     0.033 A 
ATOM     19  C   UNL A   1      33.261  22.314  27.678  1.00  0.00     0.065 C 
BRANCH  14  20
ATOM     20  C   UNL A   1      35.241  22.481  25.470  1.00  0.00     0.046 A 
ATOM     21  C   UNL A   1      37.758  19.695  24.870  1.00  0.00     0.044 C 
ATOM     22  C   UNL A   1      37.150  21.040  25.120  1.00  0.00    -0.049 A 
ATOM     23  C   UNL A   1      37.985  22.165  25.202  1.00  0.00     0.003 A 
ATOM     24  C   UNL A   1      35.764  21.201  25.252  1.00  0.00     0.030 A 
ATOM     25  C   UNL A   1      37.457  23.423  25.486  1.00  0.00     0.002 A 
ATOM     26  C   UNL A   1      36.086  23.578  25.644  1.00  0.00     0.026 A 
ENDBRANCH  14  20
ENDBRANCH  12  13
ENDBRANCH   6  11
BRANCH  10  27
ATOM     27  O   UNL A   1      31.568  29.453  23.603  1.00  0.00    -0.507 OA
ATOM     28  H   UNL A   1      30.877  29.968  23.237  1.00  0.00     0.293 HD
ENDBRANCH  10  27
ENDBRANCH   3   5
ENDBRANCH   2   3
ENDBRANCH   1   2
BRANCH   1  29
ATOM     29  C   UNL A   1      34.464  32.349  29.095  1.00  0.00     0.275 C 
BRANCH  29  30
ATOM     30  O   UNL A   1      35.730  33.022  29.369  1.00  0.00    -0.458 OA
BRANCH  30  31
ATOM     31  C   UNL A   1      36.817  32.333  29.836  1.00  0.00     0.338 C 
ATOM     32  O   UNL A   1      37.821  32.857  30.286  1.00  0.00    -0.246 OA
BRANCH  31  33
ATOM     33  C   UNL A   1      36.782  30.903  29.433  1.00  0.00     0.060 A 
ATOM     34  C   UNL A   1      36.945  29.755  30.820  1.00  0.00     0.016 A 
ATOM     35  C   UNL A   1      37.613  30.556  27.876  1.00  0.00     0.016 A 
ATOM     36  C   UNL A   1      38.054  28.279  30.668  1.00  0.00     0.010 A 
ATOM     37  C   UNL A   1      38.708  29.075  27.730  1.00  0.00     0.010 A 
ATOM     38  C   UNL A   1      38.954  27.977  29.147  1.00  0.00    -0.014 A 
BRANCH  38  39
ATOM     39  C   UNL A   1      40.335  27.457  29.193  1.00  0.00     0.031 A 
ATOM     40  C   UNL A   1      40.512  26.059  28.749  1.00  0.00     0.074 A 
ATOM     41  C   UNL A   1      41.405  28.274  29.427  1.00  0.00     0.049 A 
ATOM     42  N   UNL A   1      41.610  25.412  28.864  1.00  0.00    -0.248 NA
ATOM     43  C   UNL A   1      39.446  25.241  28.172  1.00  0.00     0.031 C 
ATOM     44  C   UNL A   1      42.809  28.060  29.048  1.00  0.00     0.029 A 
ATOM     45  N   UNL A   1      41.484  29.495  30.087  1.00  0.00    -0.354 N 
ATOM     46  C   UNL A   1      41.465  24.179  28.266  1.00  0.00     0.074 A 
ATOM     47  C   UNL A   1      40.097  24.123  27.837  1.00  0.00     0.031 C 
ATOM     48  C   UNL A   1      43.595  28.973  29.649  1.00  0.00     0.029 A 
ATOM     49  C   UNL A   1      42.776  29.738  30.568  1.00  0.00     0.049 A 
ATOM     50  H   UNL A   1      40.726  30.112  30.203  1.00  0.00     0.167 HD
ATOM     51  C   UNL A   1      42.570  23.398  28.161  1.00  0.00     0.034 A 
ATOM     52  C   UNL A   1      43.063  29.918  31.899  1.00  0.00     0.034 A 
ATOM     53  C   UNL A   1      43.681  24.049  28.874  1.00  0.00     0.049 A 
ATOM     54  C   UNL A   1      43.732  28.658  32.492  1.00  0.00     0.074 A 
ATOM     55  C   UNL A   1      44.676  24.930  28.486  1.00  0.00     0.029 A 
ATOM     56  N   UNL A   1      43.581  24.175  30.251  1.00  0.00    -0.354 N 
ATOM     57  N   UNL A   1      44.083  27.605  31.800  1.00  0.00    -0.248 NA
ATOM     58  C   UNL A   1      43.928  28.446  33.927  1.00  0.00     0.031 C 
ATOM     59  C   UNL A   1      45.163  25.587  29.658  1.00  0.00     0.029 A 
ATOM     60  C   UNL A   1      44.514  25.060  30.761  1.00  0.00     0.049 A 
ATOM     61  H   UNL A   1      42.924  23.692  30.801  1.00  0.00     0.167 HD
ATOM     62  C   UNL A   1      44.311  26.546  32.648  1.00  0.00     0.074 A 
ATOM     63  C   UNL A   1      44.150  27.124  33.972  1.00  0.00     0.031 C 
ATOM     64  C   UNL A   1      44.564  25.270  32.207  1.00  0.00     0.034 A 
BRANCH  51  65
ATOM     65  C   UNL A   1      42.743  22.183  27.269  1.00  0.00     0.023 A 
ATOM     66  C   UNL A   1      41.863  21.108  27.532  1.00  0.00     0.012 A 
ATOM     67  C   UNL A   1      43.711  21.957  26.257  1.00  0.00     0.148 A 
ATOM     68  C   UNL A   1      41.975  19.864  26.907  1.00  0.00     0.002 A 
ATOM     69  C   UNL A   1      43.841  20.700  25.646  1.00  0.00     0.091 A 
ATOM     70  F   UNL A   1      44.493  22.958  25.844  1.00  0.00    -0.205 F 
ATOM     71  C   UNL A   1      42.978  19.651  25.979  1.00  0.00     0.022 A 
BRANCH  69  72
ATOM     72  S   UNL A   1      45.132  20.299  24.448  1.00  0.00     0.127 S 
ATOM     73  O   UNL A   1      44.679  21.024  23.258  1.00  0.00    -0.237 OA
ATOM     74  O   UNL A   1      46.331  20.854  25.073  1.00  0.00    -0.237 OA
ATOM     75  O   UNL A   1      45.122  18.848  24.304  1.00  0.00    -0.744 OA
ENDBRANCH  69  72
ENDBRANCH  51  65
BRANCH  52  76
ATOM     76  C   UNL A   1      42.009  30.722  32.617  1.00  0.00     0.023 A 
ATOM     77  C   UNL A   1      40.961  30.006  33.249  1.00  0.00     0.012 A 
ATOM     78  C   UNL A   1      42.322  31.993  33.102  1.00  0.00     0.148 A 
ATOM     79  C   UNL A   1      40.494  30.413  34.504  1.00  0.00     0.002 A 
ATOM     80  C   UNL A   1      41.907  32.365  34.364  1.00  0.00     0.091 A 
ATOM     81  F   UNL A   1      43.106  32.821  32.409  1.00  0.00    -0.205 F 
ATOM     82  C   UNL A   1      41.018  31.566  35.090  1.00  0.00     0.022 A 
BRANCH  80  83
ATOM     83  S   UNL A   1      42.890  33.658  35.148  1.00  0.00     0.127 S 
ATOM     84  O   UNL A   1      42.561  34.837  34.352  1.00  0.00    -0.237 OA
ATOM     85  O   UNL A   1      42.360  33.686  36.507  1.00  0.00    -0.237 OA
ATOM     86  O   UNL A   1      44.252  33.163  34.988  1.00  0.00    -0.744 OA
ENDBRANCH  80  83
ENDBRANCH  52  76
BRANCH  64  87
ATOM     87  C   UNL A   1      44.880  24.085  33.124  1.00  0.00     0.023 A 
ATOM     88  C   UNL A   1      43.889  23.155  33.486  1.00  0.00     0.012 A 
ATOM     89  C   UNL A   1      46.141  23.908  33.758  1.00  0.00     0.148 A 
ATOM     90  C   UNL A   1      44.163  22.036  34.280  1.00  0.00     0.002 A 
ATOM     91  C   UNL A   1      46.406  22.824  34.586  1.00  0.00     0.091 A 
ATOM     92  F   UNL A   1      47.107  24.814  33.617  1.00  0.00    -0.205 F 
ATOM     93  C   UNL A   1      45.429  21.860  34.816  1.00  0.00     0.022 A 
BRANCH  91  94
ATOM     94  S   UNL A   1      47.970  22.647  35.458  1.00  0.00     0.127 S 
ATOM     95  O   UNL A   1      48.909  22.521  34.343  1.00  0.00    -0.237 OA
ATOM     96  O   UNL A   1      48.051  23.914  36.186  1.00  0.00    -0.237 OA
ATOM     97  O   UNL A   1      47.849  21.465  36.299  1.00  0.00    -0.744 OA
ENDBRANCH  91  94
ENDBRANCH  64  87
ENDBRANCH  38  39
ENDBRANCH  31  33
ENDBRANCH  30  31
ENDBRANCH  29  30
ENDBRANCH   1  29
TORSDOF 18
ENDMDL
MODEL 2
REMARK VINA RESULT:     -13.6      4.250     10.844
REMARK SMILES Cc1cccc(-n2c(C)cc(/C=N\c3ccc(O)c(C(=O)OCCOC(=O)c4ccc(-c5c6nc(c(-c7cccc(S(=O)(=O)[O-])c7F)c7ccc([nH]7)c(-c7cccc(S(=O)(=O)[O-])c7F)c7nc(c(-c8cccc(S(=O)(=O)[O-])c8F)c8ccc5[nH]8)C=C7)C=C6)cc4)c3)c2C)c1
REMARK SMILES IDX 23 1 22 2 20 3 21 4 19 5 14 6 15 7 91 8 16 9 17 10 13 11
REMARK SMILES IDX 12 12 11 13 7 14 8 15 92 16 9 17 10 18 93 19 6 20 1 21 2 22
REMARK SMILES IDX 3 23 94 24 4 25 5 26 18 27 24 29 25 30 26 31 27 32 28 33
REMARK SMILES IDX 29 34 90 35 30 36 89 37 31 38 32 39 33 40 83 41 34 42 88 43
REMARK SMILES IDX 82 44 84 45 35 46 87 47 81 48 80 49 36 51 68 52 48 53 67 54
REMARK SMILES IDX 49 55 52 56 66 57 85 58 50 59 51 60 65 62 86 63 53 64 37 65
REMARK SMILES IDX 38 66 46 67 39 68 41 69 47 70 40 71 42 72 43 73 44 74 45 75
REMARK SMILES IDX 69 76 70 77 78 78 71 79 73 80 79 81 72 82 74 83 75 84 76 85
REMARK SMILES IDX 77 86 54 87 55 88 63 89 56 90 58 91 64 92 57 93 59 94 60 95
REMARK SMILES IDX 61 96 62 97
REMARK H PARENT 18 28 84 50 52 61
REMARK Flexibility Score: inf
ROOT
ATOM      1  C   UNL A   1      39.486  21.866  26.556  1.00  0.00     0.275 C 
ENDROOT
BRANCH   1   2
ATOM      2  O   UNL A   1      38.626  21.772  25.417  1.00  0.00    -0.458 OA
BRANCH   2   3
ATOM      3  C   UNL A   1      37.453  22.719  25.375  1.00  0.00     0.342 C 
ATOM      4  O   UNL A   1      37.980  23.715  25.955  1.00  0.00    -0.246 OA
BRANCH   3   5
ATOM      5  C   UNL A   1      35.507  22.352  24.506  1.00  0.00     0.103 A 
ATOM      6  C   UNL A   1      33.571  22.934  22.590  1.00  0.00     0.064 A 
ATOM      7  C   UNL A   1      32.746  21.905  22.944  1.00  0.00     0.032 A 
ATOM      8  C   UNL A   1      34.833  23.073  23.277  1.00  0.00     0.048 A 
ATOM      9  C   UNL A   1      33.116  21.149  24.041  1.00  0.00     0.049 A 
ATOM     10  C   UNL A   1      34.346  21.364  24.785  1.00  0.00     0.130 A 
BRANCH   6  11
ATOM     11  N   UNL A   1      33.279  23.811  21.538  1.00  0.00    -0.256 NA
ATOM     12  C   UNL A   1      32.897  25.056  21.644  1.00  0.00     0.121 C 
BRANCH  12  13
ATOM     13  C   UNL A   1      32.484  25.867  22.794  1.00  0.00     0.014 A 
ATOM     14  N   UNL A   1      32.318  27.426  24.421  1.00  0.00    -0.318 N 
ATOM     15  C   UNL A   1      31.506  26.379  24.810  1.00  0.00     0.021 A 
ATOM     16  C   UNL A   1      32.789  27.177  23.138  1.00  0.00     0.029 A 
ATOM     17  C   UNL A   1      30.701  26.414  26.064  1.00  0.00     0.065 C 
ATOM     18  C   UNL A   1      31.560  25.428  23.804  1.00  0.00     0.033 A 
ATOM     19  C   UNL A   1      33.548  28.201  22.383  1.00  0.00     0.065 C 
BRANCH  14  20
ATOM     20  C   UNL A   1      32.766  28.499  25.233  1.00  0.00     0.046 A 
ATOM     21  C   UNL A   1      31.403  31.813  26.507  1.00  0.00     0.044 C 
ATOM     22  C   UNL A   1      32.227  30.572  26.354  1.00  0.00    -0.049 A 
ATOM     23  C   UNL A   1      33.257  30.317  27.272  1.00  0.00     0.003 A 
ATOM     24  C   UNL A   1      31.978  29.652  25.326  1.00  0.00     0.030 A 
ATOM     25  C   UNL A   1      34.077  29.199  27.128  1.00  0.00     0.002 A 
ATOM     26  C   UNL A   1      33.848  28.301  26.093  1.00  0.00     0.026 A 
ENDBRANCH  14  20
ENDBRANCH  12  13
ENDBRANCH   6  11
BRANCH  10  27
ATOM     27  O   UNL A   1      34.251  20.458  25.859  1.00  0.00    -0.507 OA
ATOM     28  H   UNL A   1      34.414  19.546  25.718  1.00  0.00     0.293 HD
ENDBRANCH  10  27
ENDBRANCH   3   5
ENDBRANCH   2   3
ENDBRANCH   1   2
BRANCH   1  29
ATOM     29  C   UNL A   1      40.933  21.643  26.094  1.00  0.00     0.275 C 
BRANCH  29  30
ATOM     30  O   UNL A   1      41.789  22.824  26.042  1.00  0.00    -0.458 OA
BRANCH  30  31
ATOM     31  C   UNL A   1      41.788  23.752  27.049  1.00  0.00     0.338 C 
ATOM     32  O   UNL A   1      42.389  23.624  28.101  1.00  0.00    -0.246 OA
BRANCH  31  33
ATOM     33  C   UNL A   1      40.720  24.769  26.865  1.00  0.00     0.060 A 
ATOM     34  C   UNL A   1      41.226  26.175  25.849  1.00  0.00     0.016 A 
ATOM     35  C   UNL A   1      39.696  25.032  28.320  1.00  0.00     0.016 A 
ATOM     36  C   UNL A   1      40.778  27.895  26.369  1.00  0.00     0.010 A 
ATOM     37  C   UNL A   1      39.243  26.750  28.825  1.00  0.00     0.010 A 
ATOM     38  C   UNL A   1      39.831  28.169  27.867  1.00  0.00    -0.014 A 
BRANCH  38  39
ATOM     39  C   UNL A   1      40.142  29.318  28.741  1.00  0.00     0.031 A 
ATOM     40  C   UNL A   1      39.050  30.296  28.930  1.00  0.00     0.074 A 
ATOM     41  C   UNL A   1      41.282  29.366  29.491  1.00  0.00     0.049 A 
ATOM     42  N   UNL A   1      39.198  31.415  29.532  1.00  0.00    -0.248 NA
ATOM     43  C   UNL A   1      37.693  30.121  28.413  1.00  0.00     0.031 C 
ATOM     44  C   UNL A   1      41.528  30.134  30.720  1.00  0.00     0.029 A 
ATOM     45  N   UNL A   1      42.511  28.740  29.310  1.00  0.00    -0.354 N 
ATOM     46  C   UNL A   1      37.972  32.038  29.622  1.00  0.00     0.074 A 
ATOM     47  C   UNL A   1      37.059  31.184  28.918  1.00  0.00     0.031 C 
ATOM     48  C   UNL A   1      42.837  30.097  31.035  1.00  0.00     0.029 A 
ATOM     49  C   UNL A   1      43.541  29.433  29.956  1.00  0.00     0.049 A 
ATOM     50  H   UNL A   1      42.641  27.914  28.792  1.00  0.00     0.167 HD
ATOM     51  C   UNL A   1      37.898  33.178  30.354  1.00  0.00     0.034 A 
ATOM     52  C   UNL A   1      44.625  29.960  29.296  1.00  0.00     0.034 A 
ATOM     53  C   UNL A   1      39.255  33.556  30.783  1.00  0.00     0.049 A 
ATOM     54  C   UNL A   1      44.495  31.493  29.163  1.00  0.00     0.074 A 
ATOM     55  C   UNL A   1      40.011  33.277  31.909  1.00  0.00     0.029 A 
ATOM     56  N   UNL A   1      40.162  33.933  29.805  1.00  0.00    -0.354 N 
ATOM     57  N   UNL A   1      43.544  32.210  29.703  1.00  0.00    -0.248 NA
ATOM     58  C   UNL A   1      45.355  32.306  28.301  1.00  0.00     0.031 C 
ATOM     59  C   UNL A   1      41.384  33.490  31.581  1.00  0.00     0.029 A 
ATOM     60  C   UNL A   1      41.460  33.961  30.282  1.00  0.00     0.049 A 
ATOM     61  H   UNL A   1      39.912  34.155  28.879  1.00  0.00     0.167 HD
ATOM     62  C   UNL A   1      43.508  33.454  29.117  1.00  0.00     0.074 A 
ATOM     63  C   UNL A   1      44.641  33.437  28.206  1.00  0.00     0.031 C 
ATOM     64  C   UNL A   1      42.530  34.382  29.379  1.00  0.00     0.034 A 
BRANCH  51  65
ATOM     65  C   UNL A   1      36.639  33.846  30.874  1.00  0.00     0.023 A 
ATOM     66  C   UNL A   1      36.479  33.827  32.279  1.00  0.00     0.012 A 
ATOM     67  C   UNL A   1      35.574  34.425  30.137  1.00  0.00     0.148 A 
ATOM     68  C   UNL A   1      35.316  34.265  32.917  1.00  0.00     0.002 A 
ATOM     69  C   UNL A   1      34.395  34.843  30.775  1.00  0.00     0.091 A 
ATOM     70  F   UNL A   1      35.696  34.613  28.820  1.00  0.00    -0.205 F 
ATOM     71  C   UNL A   1      34.264  34.755  32.164  1.00  0.00     0.022 A 
BRANCH  69  72
ATOM     72  S   UNL A   1      32.948  35.466  29.892  1.00  0.00     0.127 S 
ATOM     73  O   UNL A   1      32.657  34.366  28.970  1.00  0.00    -0.237 OA
ATOM     74  O   UNL A   1      31.967  35.630  30.963  1.00  0.00    -0.237 OA
ATOM     75  O   UNL A   1      33.365  36.700  29.237  1.00  0.00    -0.744 OA
ENDBRANCH  69  72
ENDBRANCH  51  65
BRANCH  52  76
ATOM     76  C   UNL A   1      45.123  29.063  28.191  1.00  0.00     0.023 A 
ATOM     77  C   UNL A   1      45.166  29.605  26.882  1.00  0.00     0.012 A 
ATOM     78  C   UNL A   1      45.986  28.009  28.494  1.00  0.00     0.148 A 
ATOM     79  C   UNL A   1      46.250  29.323  26.043  1.00  0.00     0.002 A 
ATOM     80  C   UNL A   1      47.086  27.773  27.694  1.00  0.00     0.091 A 
ATOM     81  F   UNL A   1      45.827  27.286  29.605  1.00  0.00    -0.205 F 
ATOM     82  C   UNL A   1      47.247  28.449  26.480  1.00  0.00     0.022 A 
BRANCH  80  83
ATOM     83  S   UNL A   1      48.450  26.911  28.497  1.00  0.00     0.127 S 
ATOM     84  O   UNL A   1      49.508  26.977  27.492  1.00  0.00    -0.237 OA
ATOM     85  O   UNL A   1      48.697  27.729  29.680  1.00  0.00    -0.237 OA
ATOM     86  O   UNL A   1      47.897  25.582  28.726  1.00  0.00    -0.744 OA
ENDBRANCH  80  83
ENDBRANCH  52  76
BRANCH  64  87
ATOM     87  C   UNL A   1      42.497  35.793  28.786  1.00  0.00     0.023 A 
ATOM     88  C   UNL A   1      41.993  36.034  27.495  1.00  0.00     0.012 A 
ATOM     89  C   UNL A   1      43.067  36.922  29.437  1.00  0.00     0.148 A 
ATOM     90  C   UNL A   1      41.904  37.320  26.952  1.00  0.00     0.002 A 
ATOM     91  C   UNL A   1      43.024  38.195  28.881  1.00  0.00     0.091 A 
ATOM     92  F   UNL A   1      43.715  36.787  30.593  1.00  0.00    -0.205 F 
ATOM     93  C   UNL A   1      42.404  38.406  27.653  1.00  0.00     0.022 A 
BRANCH  91  94
ATOM     94  S   UNL A   1      43.824  39.606  29.661  1.00  0.00     0.127 S 
ATOM     95  O   UNL A   1      45.183  39.099  29.852  1.00  0.00    -0.237 OA
ATOM     96  O   UNL A   1      43.693  40.633  28.628  1.00  0.00    -0.237 OA
ATOM     97  O   UNL A   1      43.089  39.876  30.888  1.00  0.00    -0.744 OA
ENDBRANCH  91  94
ENDBRANCH  64  87
ENDBRANCH  38  39
ENDBRANCH  31  33
ENDBRANCH  30  31
ENDBRANCH  29  30
ENDBRANCH   1  29
TORSDOF 18
ENDMDL
MODEL 3
REMARK VINA RESULT:     -13.1      3.695     10.346
REMARK SMILES Cc1cccc(-n2c(C)cc(/C=N\c3ccc(O)c(C(=O)OCCOC(=O)c4ccc(-c5c6nc(c(-c7cccc(S(=O)(=O)[O-])c7F)c7ccc([nH]7)c(-c7cccc(S(=O)(=O)[O-])c7F)c7nc(c(-c8cccc(S(=O)(=O)[O-])c8F)c8ccc5[nH]8)C=C7)C=C6)cc4)c3)c2C)c1
REMARK SMILES IDX 23 1 22 2 20 3 21 4 19 5 14 6 15 7 91 8 16 9 17 10 13 11
REMARK SMILES IDX 12 12 11 13 7 14 8 15 92 16 9 17 10 18 93 19 6 20 1 21 2 22
REMARK SMILES IDX 3 23 94 24 4 25 5 26 18 27 24 29 25 30 26 31 27 32 28 33
REMARK SMILES IDX 29 34 90 35 30 36 89 37 31 38 32 39 33 40 83 41 34 42 88 43
REMARK SMILES IDX 82 44 84 45 35 46 87 47 81 48 80 49 36 51 68 52 48 53 67 54
REMARK SMILES IDX 49 55 52 56 66 57 85 58 50 59 51 60 65 62 86 63 53 64 37 65
REMARK SMILES IDX 38 66 46 67 39 68 41 69 47 70 40 71 42 72 43 73 44 74 45 75
REMARK SMILES IDX 69 76 70 77 78 78 71 79 73 80 79 81 72 82 74 83 75 84 76 85
REMARK SMILES IDX 77 86 54 87 55 88 63 89 56 90 58 91 64 92 57 93 59 94 60 95
REMARK SMILES IDX 61 96 62 97
REMARK H PARENT 18 28 84 50 52 61
REMARK Flexibility Score: inf
ROOT
ATOM      1  C   UNL A   1      40.417  20.158  26.460  1.00  0.00     0.275 C 
ENDROOT
BRANCH   1   2
ATOM      2  O   UNL A   1      39.553  21.085  25.797  1.00  0.00    -0.458 OA
BRANCH   2   3
ATOM      3  C   UNL A   1      38.332  20.508  25.124  1.00  0.00     0.342 C 
ATOM      4  O   UNL A   1      38.685  19.291  25.080  1.00  0.00    -0.246 OA
BRANCH   3   5
ATOM      5  C   UNL A   1      36.555  21.573  24.504  1.00  0.00     0.103 A 
ATOM      6  C   UNL A   1      33.828  22.074  24.767  1.00  0.00     0.064 A 
ATOM      7  C   UNL A   1      33.817  23.115  23.882  1.00  0.00     0.032 A 
ATOM      8  C   UNL A   1      35.089  21.438  25.066  1.00  0.00     0.048 A 
ATOM      9  C   UNL A   1      35.000  23.394  23.222  1.00  0.00     0.049 A 
ATOM     10  C   UNL A   1      36.241  22.677  23.464  1.00  0.00     0.130 A 
BRANCH   6  11
ATOM     11  N   UNL A   1      32.682  21.651  25.452  1.00  0.00    -0.256 NA
ATOM     12  C   UNL A   1      31.625  22.369  25.719  1.00  0.00     0.121 C 
BRANCH  12  13
ATOM     13  C   UNL A   1      31.346  23.803  25.587  1.00  0.00     0.014 A 
ATOM     14  N   UNL A   1      30.932  25.886  24.814  1.00  0.00    -0.318 N 
ATOM     15  C   UNL A   1      31.304  26.035  26.137  1.00  0.00     0.021 A 
ATOM     16  C   UNL A   1      30.816  24.531  24.529  1.00  0.00     0.029 A 
ATOM     17  C   UNL A   1      31.346  27.363  26.811  1.00  0.00     0.065 C 
ATOM     18  C   UNL A   1      31.521  24.764  26.642  1.00  0.00     0.033 A 
ATOM     19  C   UNL A   1      30.266  24.060  23.237  1.00  0.00     0.065 C 
BRANCH  14  20
ATOM     20  C   UNL A   1      30.853  26.909  23.835  1.00  0.00     0.046 A 
ATOM     21  C   UNL A   1      28.256  29.375  22.557  1.00  0.00     0.044 C 
ATOM     22  C   UNL A   1      29.560  28.702  22.858  1.00  0.00    -0.049 A 
ATOM     23  C   UNL A   1      30.755  29.307  22.441  1.00  0.00     0.003 A 
ATOM     24  C   UNL A   1      29.611  27.493  23.565  1.00  0.00     0.030 A 
ATOM     25  C   UNL A   1      31.981  28.682  22.658  1.00  0.00     0.002 A 
ATOM     26  C   UNL A   1      32.030  27.470  23.335  1.00  0.00     0.026 A 
ENDBRANCH  14  20
ENDBRANCH  12  13
ENDBRANCH   6  11
BRANCH  10  27
ATOM     27  O   UNL A   1      37.129  23.214  22.511  1.00  0.00    -0.507 OA
ATOM     28  H   UNL A   1      37.949  22.792  22.345  1.00  0.00     0.293 HD
ENDBRANCH  10  27
ENDBRANCH   3   5
ENDBRANCH   2   3
ENDBRANCH   1   2
BRANCH   1  29
ATOM     29  C   UNL A   1      41.751  20.860  26.754  1.00  0.00     0.275 C 
BRANCH  29  30
ATOM     30  O   UNL A   1      42.087  22.001  25.908  1.00  0.00    -0.458 OA
BRANCH  30  31
ATOM     31  C   UNL A   1      42.443  23.209  26.448  1.00  0.00     0.338 C 
ATOM     32  O   UNL A   1      43.395  23.375  27.190  1.00  0.00    -0.246 OA
BRANCH  31  33
ATOM     33  C   UNL A   1      41.365  24.221  26.303  1.00  0.00     0.060 A 
ATOM     34  C   UNL A   1      41.930  25.787  25.600  1.00  0.00     0.016 A 
ATOM     35  C   UNL A   1      40.167  24.218  27.646  1.00  0.00     0.016 A 
ATOM     36  C   UNL A   1      41.355  27.387  26.334  1.00  0.00     0.010 A 
ATOM     37  C   UNL A   1      39.591  25.818  28.365  1.00  0.00     0.010 A 
ATOM     38  C   UNL A   1      40.230  27.388  27.730  1.00  0.00    -0.014 A 
BRANCH  38  39
ATOM     39  C   UNL A   1      40.390  28.382  28.811  1.00  0.00     0.031 A 
ATOM     40  C   UNL A   1      39.389  29.468  28.839  1.00  0.00     0.074 A 
ATOM     41  C   UNL A   1      41.271  28.194  29.838  1.00  0.00     0.049 A 
ATOM     42  N   UNL A   1      39.468  30.484  29.613  1.00  0.00    -0.248 NA
ATOM     43  C   UNL A   1      38.224  29.534  27.958  1.00  0.00     0.031 C 
ATOM     44  C   UNL A   1      41.232  28.782  31.184  1.00  0.00     0.029 A 
ATOM     45  N   UNL A   1      42.434  27.436  29.905  1.00  0.00    -0.354 N 
ATOM     46  C   UNL A   1      38.333  31.250  29.459  1.00  0.00     0.074 A 
ATOM     47  C   UNL A   1      37.578  30.608  28.422  1.00  0.00     0.031 C 
ATOM     48  C   UNL A   1      42.388  28.536  31.830  1.00  0.00     0.029 A 
ATOM     49  C   UNL A   1      43.302  27.909  30.896  1.00  0.00     0.049 A 
ATOM     50  H   UNL A   1      42.625  26.662  29.327  1.00  0.00     0.167 HD
ATOM     51  C   UNL A   1      38.165  32.301  30.301  1.00  0.00     0.034 A 
ATOM     52  C   UNL A   1      44.573  28.358  30.633  1.00  0.00     0.034 A 
ATOM     53  C   UNL A   1      39.375  32.446  31.127  1.00  0.00     0.049 A 
ATOM     54  C   UNL A   1      44.634  29.900  30.691  1.00  0.00     0.074 A 
ATOM     55  C   UNL A   1      39.750  31.946  32.363  1.00  0.00     0.029 A 
ATOM     56  N   UNL A   1      40.553  32.806  30.492  1.00  0.00    -0.354 N 
ATOM     57  N   UNL A   1      43.643  30.672  31.054  1.00  0.00    -0.248 NA
ATOM     58  C   UNL A   1      45.778  30.683  30.217  1.00  0.00     0.031 C 
ATOM     59  C   UNL A   1      41.175  32.010  32.449  1.00  0.00     0.029 A 
ATOM     60  C   UNL A   1      41.660  32.608  31.299  1.00  0.00     0.049 A 
ATOM     61  H   UNL A   1      40.598  33.160  29.576  1.00  0.00     0.167 HD
ATOM     62  C   UNL A   1      43.895  31.967  30.664  1.00  0.00     0.074 A 
ATOM     63  C   UNL A   1      45.232  31.902  30.098  1.00  0.00     0.031 C 
ATOM     64  C   UNL A   1      42.977  32.982  30.785  1.00  0.00     0.034 A 
BRANCH  51  65
ATOM     65  C   UNL A   1      36.880  33.068  30.555  1.00  0.00     0.023 A 
ATOM     66  C   UNL A   1      36.443  33.089  31.900  1.00  0.00     0.012 A 
ATOM     67  C   UNL A   1      36.029  33.706  29.617  1.00  0.00     0.148 A 
ATOM     68  C   UNL A   1      35.213  33.623  32.290  1.00  0.00     0.002 A 
ATOM     69  C   UNL A   1      34.781  34.221  30.004  1.00  0.00     0.091 A 
ATOM     70  F   UNL A   1      36.424  33.858  28.350  1.00  0.00    -0.205 F 
ATOM     71  C   UNL A   1      34.371  34.171  31.339  1.00  0.00     0.022 A 
BRANCH  69  72
ATOM     72  S   UNL A   1      33.588  34.927  28.846  1.00  0.00     0.127 S 
ATOM     73  O   UNL A   1      32.571  35.469  29.749  1.00  0.00    -0.237 OA
ATOM     74  O   UNL A   1      34.380  35.941  28.151  1.00  0.00    -0.237 OA
ATOM     75  O   UNL A   1      33.123  33.825  28.013  1.00  0.00    -0.744 OA
ENDBRANCH  69  72
ENDBRANCH  51  65
BRANCH  52  76
ATOM     76  C   UNL A   1      45.275  27.532  29.584  1.00  0.00     0.023 A 
ATOM     77  C   UNL A   1      44.984  27.819  28.227  1.00  0.00     0.012 A 
ATOM     78  C   UNL A   1      46.502  26.937  29.882  1.00  0.00     0.148 A 
ATOM     79  C   UNL A   1      46.011  27.815  27.276  1.00  0.00     0.002 A 
ATOM     80  C   UNL A   1      47.528  26.988  28.962  1.00  0.00     0.091 A 
ATOM     81  F   UNL A   1      46.737  26.408  31.085  1.00  0.00    -0.205 F 
ATOM     82  C   UNL A   1      47.304  27.457  27.663  1.00  0.00     0.022 A 
BRANCH  80  83
ATOM     83  S   UNL A   1      49.188  26.838  29.651  1.00  0.00     0.127 S 
ATOM     84  O   UNL A   1      49.173  27.812  30.739  1.00  0.00    -0.237 OA
ATOM     85  O   UNL A   1      49.229  25.448  30.093  1.00  0.00    -0.237 OA
ATOM     86  O   UNL A   1      50.036  27.189  28.518  1.00  0.00    -0.744 OA
ENDBRANCH  80  83
ENDBRANCH  52  76
BRANCH  64  87
ATOM     87  C   UNL A   1      43.249  34.442  30.414  1.00  0.00     0.023 A 
ATOM     88  C   UNL A   1      43.442  35.424  31.402  1.00  0.00     0.012 A 
ATOM     89  C   UNL A   1      43.212  34.924  29.076  1.00  0.00     0.148 A 
ATOM     90  C   UNL A   1      43.743  36.755  31.089  1.00  0.00     0.002 A 
ATOM     91  C   UNL A   1      43.464  36.254  28.762  1.00  0.00     0.091 A 
ATOM     92  F   UNL A   1      42.880  34.115  28.070  1.00  0.00    -0.205 F 
ATOM     93  C   UNL A   1      43.772  37.167  29.766  1.00  0.00     0.022 A 
BRANCH  91  94
ATOM     94  S   UNL A   1      43.328  36.881  27.081  1.00  0.00     0.127 S 
ATOM     95  O   UNL A   1      42.489  38.063  27.280  1.00  0.00    -0.237 OA
ATOM     96  O   UNL A   1      44.725  37.169  26.757  1.00  0.00    -0.237 OA
ATOM     97  O   UNL A   1      42.722  35.821  26.288  1.00  0.00    -0.744 OA
ENDBRANCH  91  94
ENDBRANCH  64  87
ENDBRANCH  38  39
ENDBRANCH  31  33
ENDBRANCH  30  31
ENDBRANCH  29  30
ENDBRANCH   1  29
TORSDOF 18
ENDMDL
