MODEL 1
REMARK VINA RESULT:     -10.5      0.000      0.000
REMARK SMILES CC[N@H+](CC(C)(C)C(=O)OCCOC(=O)c1ccc(-c2c3nc(c(-c4cccc(S(=O)(=O)[O-])c4F)c4ccc([nH]4)c(-c4cccc(S(=O)(=O)[O-])c4F)c4nc(c(-c5cccc(S(=O)(=O)[O-])c5F)c5ccc2[nH]5)C=C4)C=C3)cc1)[C@H]1CC[NH2+]C1
REMARK SMILES IDX 11 1 10 2 8 3 9 4 5 5 6 6 7 7 4 8 3 9 2 11 1 12 79 13 80 14
REMARK SMILES IDX 83 15 81 16 82 17 12 20 13 21 14 22 15 23 16 24 17 25 78 26
REMARK SMILES IDX 18 27 77 28 19 29 20 30 21 31 71 32 22 33 76 34 70 35 72 36
REMARK SMILES IDX 23 37 75 38 69 39 68 40 24 42 56 43 36 44 55 45 37 46 40 47
REMARK SMILES IDX 54 48 73 49 38 50 39 51 53 53 74 54 41 55 25 56 26 57 34 58
REMARK SMILES IDX 27 59 29 60 35 61 28 62 30 63 31 64 32 65 33 66 57 67 58 68
REMARK SMILES IDX 66 69 59 70 61 71 67 72 60 73 62 74 63 75 64 76 65 77 42 78
REMARK SMILES IDX 43 79 51 80 44 81 46 82 52 83 45 84 47 85 48 86 49 87 50 88
REMARK H PARENT 3 10 82 18 82 19 72 41 40 52
REMARK Flexibility Score: inf
ROOT
ATOM      1  C   UNL A   1      31.875  28.223  27.593  1.00  0.00     0.274 C 
ENDROOT
BRANCH   1   2
ATOM      2  O   UNL A   1      31.270  27.114  26.892  1.00  0.00    -0.461 OA
BRANCH   2   3
ATOM      3  C   UNL A   1      32.176  26.310  26.265  1.00  0.00     0.317 C 
ATOM      4  O   UNL A   1      33.350  26.624  26.182  1.00  0.00    -0.251 OA
BRANCH   3   5
ATOM      5  C   UNL A   1      31.584  25.017  25.696  1.00  0.00     0.111 C 
ATOM      6  C   UNL A   1      30.203  24.720  26.289  1.00  0.00     0.029 C 
ATOM      7  C   UNL A   1      32.546  23.871  26.096  1.00  0.00     0.029 C 
BRANCH   5   8
ATOM      8  C   UNL A   1      31.514  25.060  24.121  1.00  0.00     0.280 C 
BRANCH   8   9
ATOM      9  N   UNL A   1      32.520  25.802  23.291  1.00  0.00    -0.327 N 
ATOM     10  H   UNL A   1      33.279  26.064  23.920  1.00  0.00     0.348 HD
BRANCH   9  11
ATOM     11  C   UNL A   1      33.074  24.943  22.218  1.00  0.00     0.259 C 
ATOM     12  C   UNL A   1      33.736  23.617  22.578  1.00  0.00     0.071 C 
ENDBRANCH   9  11
BRANCH   9  13
ATOM     13  C   UNL A   1      31.955  27.061  22.715  1.00  0.00     0.245 C 
ATOM     14  C   UNL A   1      30.618  27.529  23.300  1.00  0.00     0.132 C 
ATOM     15  C   UNL A   1      32.821  28.342  22.738  1.00  0.00     0.326 C 
ATOM     16  C   UNL A   1      30.664  29.042  23.237  1.00  0.00     0.267 C 
ATOM     17  N   UNL A   1      32.072  29.357  23.498  1.00  0.00    -0.341 N 
ATOM     18  H   UNL A   1      32.279  29.286  24.494  1.00  0.00     0.346 HD
ATOM     19  H   UNL A   1      32.317  30.308  23.221  1.00  0.00     0.346 HD
ENDBRANCH   9  13
ENDBRANCH   8   9
ENDBRANCH   5   8
ENDBRANCH   3   5
ENDBRANCH   2   3
ENDBRANCH   1   2
BRANCH   1  20
ATOM     20  C   UNL A   1      31.727  29.602  26.913  1.00  0.00     0.275 C 
BRANCH  20  21
ATOM     21  O   UNL A   1      32.968  30.169  26.428  1.00  0.00    -0.458 OA
BRANCH  21  22
ATOM     22  C   UNL A   1      33.440  31.219  27.148  1.00  0.00     0.338 C 
ATOM     23  O   UNL A   1      32.771  32.181  27.507  1.00  0.00    -0.246 OA
BRANCH  22  24
ATOM     24  C   UNL A   1      34.836  31.015  27.632  1.00  0.00     0.060 A 
ATOM     25  C   UNL A   1      35.237  29.688  27.813  1.00  0.00     0.016 A 
ATOM     26  C   UNL A   1      35.741  32.041  27.932  1.00  0.00     0.016 A 
ATOM     27  C   UNL A   1      36.520  29.379  28.270  1.00  0.00     0.010 A 
ATOM     28  C   UNL A   1      37.030  31.728  28.428  1.00  0.00     0.010 A 
ATOM     29  C   UNL A   1      37.432  30.393  28.602  1.00  0.00    -0.014 A 
BRANCH  29  30
ATOM     30  C   UNL A   1      38.690  29.973  29.290  1.00  0.00     0.031 A 
ATOM     31  C   UNL A   1      38.824  30.299  30.755  1.00  0.00     0.074 A 
ATOM     32  C   UNL A   1      39.633  29.202  28.710  1.00  0.00     0.049 A 
ATOM     33  N   UNL A   1      39.688  29.860  31.632  1.00  0.00    -0.248 NA
ATOM     34  C   UNL A   1      37.835  31.244  31.298  1.00  0.00     0.031 C 
ATOM     35  C   UNL A   1      39.649  28.797  27.311  1.00  0.00     0.029 A 
ATOM     36  N   UNL A   1      40.731  28.565  29.250  1.00  0.00    -0.354 N 
ATOM     37  C   UNL A   1      39.373  30.503  32.822  1.00  0.00     0.074 A 
ATOM     38  C   UNL A   1      38.208  31.324  32.565  1.00  0.00     0.031 C 
ATOM     39  C   UNL A   1      40.640  27.906  27.122  1.00  0.00     0.029 A 
ATOM     40  C   UNL A   1      41.376  27.719  28.372  1.00  0.00     0.049 A 
ATOM     41  H   UNL A   1      41.028  28.702  30.180  1.00  0.00     0.167 HD
ATOM     42  C   UNL A   1      40.010  30.455  34.015  1.00  0.00     0.034 A 
ATOM     43  C   UNL A   1      42.427  26.887  28.556  1.00  0.00     0.034 A 
ATOM     44  C   UNL A   1      41.204  29.701  34.275  1.00  0.00     0.049 A 
ATOM     45  C   UNL A   1      43.112  26.840  29.905  1.00  0.00     0.074 A 
ATOM     46  C   UNL A   1      41.956  29.659  35.437  1.00  0.00     0.029 A 
ATOM     47  N   UNL A   1      41.837  28.878  33.360  1.00  0.00    -0.354 N 
ATOM     48  N   UNL A   1      42.769  27.413  31.032  1.00  0.00    -0.248 NA
ATOM     49  C   UNL A   1      44.341  26.031  30.003  1.00  0.00     0.031 C 
ATOM     50  C   UNL A   1      43.069  28.843  35.210  1.00  0.00     0.029 A 
ATOM     51  C   UNL A   1      42.974  28.328  33.927  1.00  0.00     0.049 A 
ATOM     52  H   UNL A   1      41.525  28.709  32.442  1.00  0.00     0.167 HD
ATOM     53  C   UNL A   1      43.724  27.023  31.970  1.00  0.00     0.074 A 
ATOM     54  C   UNL A   1      44.635  26.127  31.292  1.00  0.00     0.031 C 
ATOM     55  C   UNL A   1      43.853  27.398  33.267  1.00  0.00     0.034 A 
BRANCH  42  56
ATOM     56  C   UNL A   1      39.460  31.326  35.108  1.00  0.00     0.023 A 
ATOM     57  C   UNL A   1      38.506  30.817  36.012  1.00  0.00     0.012 A 
ATOM     58  C   UNL A   1      39.889  32.662  35.227  1.00  0.00     0.148 A 
ATOM     59  C   UNL A   1      37.958  31.640  36.993  1.00  0.00     0.002 A 
ATOM     60  C   UNL A   1      39.373  33.461  36.237  1.00  0.00     0.091 A 
ATOM     61  F   UNL A   1      40.774  33.130  34.336  1.00  0.00    -0.205 F 
ATOM     62  C   UNL A   1      38.396  32.958  37.111  1.00  0.00     0.022 A 
BRANCH  60  63
ATOM     63  S   UNL A   1      39.928  35.146  36.511  1.00  0.00     0.127 S 
ATOM     64  O   UNL A   1      39.295  35.460  37.791  1.00  0.00    -0.237 OA
ATOM     65  O   UNL A   1      41.381  34.981  36.571  1.00  0.00    -0.237 OA
ATOM     66  O   UNL A   1      39.449  35.919  35.374  1.00  0.00    -0.744 OA
ENDBRANCH  60  63
ENDBRANCH  42  56
BRANCH  43  67
ATOM     67  C   UNL A   1      42.926  26.002  27.453  1.00  0.00     0.023 A 
ATOM     68  C   UNL A   1      43.861  26.503  26.520  1.00  0.00     0.012 A 
ATOM     69  C   UNL A   1      42.443  24.691  27.282  1.00  0.00     0.148 A 
ATOM     70  C   UNL A   1      44.263  25.738  25.422  1.00  0.00     0.002 A 
ATOM     71  C   UNL A   1      42.907  23.907  26.232  1.00  0.00     0.091 A 
ATOM     72  F   UNL A   1      41.521  24.237  28.143  1.00  0.00    -0.205 F 
ATOM     73  C   UNL A   1      43.796  24.435  25.285  1.00  0.00     0.022 A 
BRANCH  71  74
ATOM     74  S   UNL A   1      42.474  22.170  26.076  1.00  0.00     0.127 S 
ATOM     75  O   UNL A   1      43.351  21.737  24.990  1.00  0.00    -0.237 OA
ATOM     76  O   UNL A   1      42.825  21.651  27.398  1.00  0.00    -0.237 OA
ATOM     77  O   UNL A   1      41.046  22.152  25.787  1.00  0.00    -0.744 OA
ENDBRANCH  71  74
ENDBRANCH  43  67
BRANCH  55  78
ATOM     78  C   UNL A   1      44.993  26.819  34.070  1.00  0.00     0.023 A 
ATOM     79  C   UNL A   1      46.239  27.476  34.115  1.00  0.00     0.012 A 
ATOM     80  C   UNL A   1      44.800  25.658  34.848  1.00  0.00     0.148 A 
ATOM     81  C   UNL A   1      47.285  26.965  34.886  1.00  0.00     0.002 A 
ATOM     82  C   UNL A   1      45.828  25.186  35.655  1.00  0.00     0.091 A 
ATOM     83  F   UNL A   1      43.615  25.035  34.783  1.00  0.00    -0.205 F 
ATOM     84  C   UNL A   1      47.076  25.830  35.664  1.00  0.00     0.022 A 
BRANCH  82  85
ATOM     85  S   UNL A   1      45.614  23.792  36.768  1.00  0.00     0.127 S 
ATOM     86  O   UNL A   1      46.990  23.524  37.178  1.00  0.00    -0.237 OA
ATOM     87  O   UNL A   1      44.764  24.358  37.817  1.00  0.00    -0.237 OA
ATOM     88  O   UNL A   1      44.979  22.744  35.978  1.00  0.00    -0.744 OA
ENDBRANCH  82  85
ENDBRANCH  55  78
ENDBRANCH  29  30
ENDBRANCH  22  24
ENDBRANCH  21  22
ENDBRANCH  20  21
ENDBRANCH   1  20
TORSDOF 18
ENDMDL
MODEL 2
REMARK VINA RESULT:     -10.4      5.348     10.276
REMARK SMILES CC[N@H+](CC(C)(C)C(=O)OCCOC(=O)c1ccc(-c2c3nc(c(-c4cccc(S(=O)(=O)[O-])c4F)c4ccc([nH]4)c(-c4cccc(S(=O)(=O)[O-])c4F)c4nc(c(-c5cccc(S(=O)(=O)[O-])c5F)c5ccc2[nH]5)C=C4)C=C3)cc1)[C@H]1CC[NH2+]C1
REMARK SMILES IDX 11 1 10 2 8 3 9 4 5 5 6 6 7 7 4 8 3 9 2 11 1 12 79 13 80 14
REMARK SMILES IDX 83 15 81 16 82 17 12 20 13 21 14 22 15 23 16 24 17 25 78 26
REMARK SMILES IDX 18 27 77 28 19 29 20 30 21 31 71 32 22 33 76 34 70 35 72 36
REMARK SMILES IDX 23 37 75 38 69 39 68 40 24 42 56 43 36 44 55 45 37 46 40 47
REMARK SMILES IDX 54 48 73 49 38 50 39 51 53 53 74 54 41 55 25 56 26 57 34 58
REMARK SMILES IDX 27 59 29 60 35 61 28 62 30 63 31 64 32 65 33 66 57 67 58 68
REMARK SMILES IDX 66 69 59 70 61 71 67 72 60 73 62 74 63 75 64 76 65 77 42 78
REMARK SMILES IDX 43 79 51 80 44 81 46 82 52 83 45 84 47 85 48 86 49 87 50 88
REMARK H PARENT 3 10 82 18 82 19 72 41 40 52
REMARK Flexibility Score: inf
ROOT
ATOM      1  C   UNL A   1      36.410  22.720  23.457  1.00  0.00     0.274 C 
ENDROOT
BRANCH   1   2
ATOM      2  O   UNL A   1      35.381  23.359  24.248  1.00  0.00    -0.461 OA
BRANCH   2   3
ATOM      3  C   UNL A   1      34.451  24.015  23.497  1.00  0.00     0.317 C 
ATOM      4  O   UNL A   1      34.345  23.814  22.301  1.00  0.00    -0.251 OA
BRANCH   3   5
ATOM      5  C   UNL A   1      33.585  24.999  24.288  1.00  0.00     0.111 C 
ATOM      6  C   UNL A   1      33.294  26.270  23.483  1.00  0.00     0.029 C 
ATOM      7  C   UNL A   1      34.392  25.393  25.549  1.00  0.00     0.029 C 
BRANCH   5   8
ATOM      8  C   UNL A   1      32.240  24.328  24.768  1.00  0.00     0.280 C 
BRANCH   8   9
ATOM      9  N   UNL A   1      31.982  23.984  26.205  1.00  0.00    -0.327 N 
ATOM     10  H   UNL A   1      32.620  24.554  26.759  1.00  0.00     0.348 HD
BRANCH   9  11
ATOM     11  C   UNL A   1      30.592  24.318  26.599  1.00  0.00     0.259 C 
ATOM     12  C   UNL A   1      29.825  25.388  25.829  1.00  0.00     0.071 C 
ENDBRANCH   9  11
BRANCH   9  13
ATOM     13  C   UNL A   1      32.280  22.550  26.504  1.00  0.00     0.245 C 
ATOM     14  C   UNL A   1      32.297  21.601  25.300  1.00  0.00     0.132 C 
ATOM     15  C   UNL A   1      33.590  22.202  27.249  1.00  0.00     0.326 C 
ATOM     16  C   UNL A   1      33.337  20.551  25.635  1.00  0.00     0.267 C 
ATOM     17  N   UNL A   1      34.358  21.301  26.375  1.00  0.00    -0.341 N 
ATOM     18  H   UNL A   1      34.949  21.834  25.736  1.00  0.00     0.346 HD
ATOM     19  H   UNL A   1      34.984  20.691  26.901  1.00  0.00     0.346 HD
ENDBRANCH   9  13
ENDBRANCH   8   9
ENDBRANCH   5   8
ENDBRANCH   3   5
ENDBRANCH   2   3
ENDBRANCH   1   2
BRANCH   1  20
ATOM     20  C   UNL A   1      37.067  21.478  24.097  1.00  0.00     0.275 C 
BRANCH  20  21
ATOM     21  O   UNL A   1      37.364  21.616  25.508  1.00  0.00    -0.458 OA
BRANCH  21  22
ATOM     22  C   UNL A   1      38.639  21.311  25.859  1.00  0.00     0.338 C 
ATOM     23  O   UNL A   1      39.240  20.299  25.515  1.00  0.00    -0.246 OA
BRANCH  22  24
ATOM     24  C   UNL A   1      39.332  22.425  26.571  1.00  0.00     0.060 A 
ATOM     25  C   UNL A   1      38.809  23.706  26.364  1.00  0.00     0.016 A 
ATOM     26  C   UNL A   1      40.456  22.279  27.392  1.00  0.00     0.016 A 
ATOM     27  C   UNL A   1      39.382  24.823  26.974  1.00  0.00     0.010 A 
ATOM     28  C   UNL A   1      41.058  23.417  27.982  1.00  0.00     0.010 A 
ATOM     29  C   UNL A   1      40.525  24.701  27.779  1.00  0.00    -0.014 A 
BRANCH  29  30
ATOM     30  C   UNL A   1      41.195  25.969  28.201  1.00  0.00     0.031 A 
ATOM     31  C   UNL A   1      42.552  26.266  27.620  1.00  0.00     0.074 A 
ATOM     32  C   UNL A   1      40.591  26.912  28.953  1.00  0.00     0.049 A 
ATOM     33  N   UNL A   1      43.241  27.377  27.635  1.00  0.00    -0.248 NA
ATOM     34  C   UNL A   1      43.211  25.154  26.917  1.00  0.00     0.031 C 
ATOM     35  C   UNL A   1      39.284  26.783  29.583  1.00  0.00     0.029 A 
ATOM     36  N   UNL A   1      40.977  28.202  29.257  1.00  0.00    -0.354 N 
ATOM     37  C   UNL A   1      44.431  27.088  26.980  1.00  0.00     0.074 A 
ATOM     38  C   UNL A   1      44.348  25.712  26.536  1.00  0.00     0.031 C 
ATOM     39  C   UNL A   1      38.931  27.968  30.113  1.00  0.00     0.029 A 
ATOM     40  C   UNL A   1      40.013  28.934  29.919  1.00  0.00     0.049 A 
ATOM     41  H   UNL A   1      41.862  28.567  29.023  1.00  0.00     0.167 HD
ATOM     42  C   UNL A   1      45.517  27.874  26.792  1.00  0.00     0.034 A 
ATOM     43  C   UNL A   1      39.999  30.229  30.311  1.00  0.00     0.034 A 
ATOM     44  C   UNL A   1      45.648  29.218  27.279  1.00  0.00     0.049 A 
ATOM     45  C   UNL A   1      41.221  31.091  30.075  1.00  0.00     0.074 A 
ATOM     46  C   UNL A   1      46.747  30.056  27.197  1.00  0.00     0.029 A 
ATOM     47  N   UNL A   1      44.664  29.914  27.960  1.00  0.00    -0.354 N 
ATOM     48  N   UNL A   1      42.315  30.818  29.407  1.00  0.00    -0.248 NA
ATOM     49  C   UNL A   1      41.206  32.445  30.658  1.00  0.00     0.031 C 
ATOM     50  C   UNL A   1      46.442  31.245  27.868  1.00  0.00     0.029 A 
ATOM     51  C   UNL A   1      45.132  31.169  28.311  1.00  0.00     0.049 A 
ATOM     52  H   UNL A   1      43.766  29.567  28.165  1.00  0.00     0.167 HD
ATOM     53  C   UNL A   1      43.105  31.964  29.476  1.00  0.00     0.074 A 
ATOM     54  C   UNL A   1      42.346  32.953  30.210  1.00  0.00     0.031 C 
ATOM     55  C   UNL A   1      44.358  32.169  29.000  1.00  0.00     0.034 A 
BRANCH  42  56
ATOM     56  C   UNL A   1      46.690  27.246  26.094  1.00  0.00     0.023 A 
ATOM     57  C   UNL A   1      47.447  26.245  26.734  1.00  0.00     0.012 A 
ATOM     58  C   UNL A   1      47.044  27.666  24.797  1.00  0.00     0.148 A 
ATOM     59  C   UNL A   1      48.566  25.701  26.107  1.00  0.00     0.002 A 
ATOM     60  C   UNL A   1      48.131  27.085  24.161  1.00  0.00     0.091 A 
ATOM     61  F   UNL A   1      46.326  28.642  24.224  1.00  0.00    -0.205 F 
ATOM     62  C   UNL A   1      48.903  26.114  24.819  1.00  0.00     0.022 A 
BRANCH  60  63
ATOM     63  S   UNL A   1      48.598  27.501  22.479  1.00  0.00     0.127 S 
ATOM     64  O   UNL A   1      49.859  28.211  22.691  1.00  0.00    -0.237 OA
ATOM     65  O   UNL A   1      48.737  26.179  21.866  1.00  0.00    -0.237 OA
ATOM     66  O   UNL A   1      47.511  28.309  21.945  1.00  0.00    -0.744 OA
ENDBRANCH  60  63
ENDBRANCH  42  56
BRANCH  43  67
ATOM     67  C   UNL A   1      38.797  30.833  30.972  1.00  0.00     0.023 A 
ATOM     68  C   UNL A   1      38.701  30.846  32.381  1.00  0.00     0.012 A 
ATOM     69  C   UNL A   1      37.720  31.342  30.221  1.00  0.00     0.148 A 
ATOM     70  C   UNL A   1      37.547  31.305  33.021  1.00  0.00     0.002 A 
ATOM     71  C   UNL A   1      36.607  31.871  30.866  1.00  0.00     0.091 A 
ATOM     72  F   UNL A   1      37.795  31.285  28.884  1.00  0.00    -0.205 F 
ATOM     73  C   UNL A   1      36.505  31.830  32.263  1.00  0.00     0.022 A 
BRANCH  71  74
ATOM     74  S   UNL A   1      35.294  32.706  29.968  1.00  0.00     0.127 S 
ATOM     75  O   UNL A   1      35.006  31.753  28.899  1.00  0.00    -0.237 OA
ATOM     76  O   UNL A   1      34.254  32.820  30.990  1.00  0.00    -0.237 OA
ATOM     77  O   UNL A   1      35.861  33.981  29.549  1.00  0.00    -0.744 OA
ENDBRANCH  71  74
ENDBRANCH  43  67
BRANCH  55  78
ATOM     78  C   UNL A   1      44.993  33.523  29.213  1.00  0.00     0.023 A 
ATOM     79  C   UNL A   1      45.751  33.780  30.373  1.00  0.00     0.012 A 
ATOM     80  C   UNL A   1      44.901  34.518  28.218  1.00  0.00     0.148 A 
ATOM     81  C   UNL A   1      46.372  35.017  30.558  1.00  0.00     0.002 A 
ATOM     82  C   UNL A   1      45.566  35.727  28.384  1.00  0.00     0.091 A 
ATOM     83  F   UNL A   1      44.164  34.267  27.127  1.00  0.00    -0.205 F 
ATOM     84  C   UNL A   1      46.289  35.984  29.560  1.00  0.00     0.022 A 
BRANCH  82  85
ATOM     85  S   UNL A   1      45.601  36.989  27.105  1.00  0.00     0.127 S 
ATOM     86  O   UNL A   1      46.238  36.276  26.001  1.00  0.00    -0.237 OA
ATOM     87  O   UNL A   1      44.179  37.272  26.908  1.00  0.00    -0.237 OA
ATOM     88  O   UNL A   1      46.366  38.099  27.660  1.00  0.00    -0.744 OA
ENDBRANCH  82  85
ENDBRANCH  55  78
ENDBRANCH  29  30
ENDBRANCH  22  24
ENDBRANCH  21  22
ENDBRANCH  20  21
ENDBRANCH   1  20
TORSDOF 18
ENDMDL
MODEL 3
REMARK VINA RESULT:     -10.4      1.143      2.301
REMARK SMILES CC[N@H+](CC(C)(C)C(=O)OCCOC(=O)c1ccc(-c2c3nc(c(-c4cccc(S(=O)(=O)[O-])c4F)c4ccc([nH]4)c(-c4cccc(S(=O)(=O)[O-])c4F)c4nc(c(-c5cccc(S(=O)(=O)[O-])c5F)c5ccc2[nH]5)C=C4)C=C3)cc1)[C@H]1CC[NH2+]C1
REMARK SMILES IDX 11 1 10 2 8 3 9 4 5 5 6 6 7 7 4 8 3 9 2 11 1 12 79 13 80 14
REMARK SMILES IDX 83 15 81 16 82 17 12 20 13 21 14 22 15 23 16 24 17 25 78 26
REMARK SMILES IDX 18 27 77 28 19 29 20 30 21 31 71 32 22 33 76 34 70 35 72 36
REMARK SMILES IDX 23 37 75 38 69 39 68 40 24 42 56 43 36 44 55 45 37 46 40 47
REMARK SMILES IDX 54 48 73 49 38 50 39 51 53 53 74 54 41 55 25 56 26 57 34 58
REMARK SMILES IDX 27 59 29 60 35 61 28 62 30 63 31 64 32 65 33 66 57 67 58 68
REMARK SMILES IDX 66 69 59 70 61 71 67 72 60 73 62 74 63 75 64 76 65 77 42 78
REMARK SMILES IDX 43 79 51 80 44 81 46 82 52 83 45 84 47 85 48 86 49 87 50 88
REMARK H PARENT 3 10 82 18 82 19 72 41 40 52
REMARK Flexibility Score: inf
ROOT
ATOM      1  C   UNL A   1      32.449  29.298  24.766  1.00  0.00     0.274 C 
ENDROOT
BRANCH   1   2
ATOM      2  O   UNL A   1      31.915  27.955  24.732  1.00  0.00    -0.461 OA
BRANCH   2   3
ATOM      3  C   UNL A   1      32.874  26.989  24.820  1.00  0.00     0.317 C 
ATOM      4  O   UNL A   1      33.609  26.912  25.788  1.00  0.00    -0.251 OA
BRANCH   3   5
ATOM      5  C   UNL A   1      32.929  26.044  23.616  1.00  0.00     0.111 C 
ATOM      6  C   UNL A   1      33.384  26.772  22.347  1.00  0.00     0.029 C 
ATOM      7  C   UNL A   1      31.488  25.523  23.390  1.00  0.00     0.029 C 
BRANCH   5   8
ATOM      8  C   UNL A   1      33.853  24.798  23.902  1.00  0.00     0.280 C 
BRANCH   8   9
ATOM      9  N   UNL A   1      33.330  23.535  24.518  1.00  0.00    -0.327 N 
ATOM     10  H   UNL A   1      32.317  23.641  24.584  1.00  0.00     0.348 HD
BRANCH   9  11
ATOM     11  C   UNL A   1      33.623  22.357  23.667  1.00  0.00     0.259 C 
ATOM     12  C   UNL A   1      32.552  21.291  23.457  1.00  0.00     0.071 C 
ENDBRANCH   9  11
BRANCH   9  13
ATOM     13  C   UNL A   1      33.854  23.323  25.902  1.00  0.00     0.245 C 
ATOM     14  C   UNL A   1      32.800  23.150  27.002  1.00  0.00     0.132 C 
ATOM     15  C   UNL A   1      34.828  22.149  26.157  1.00  0.00     0.326 C 
ATOM     16  C   UNL A   1      33.423  22.200  28.004  1.00  0.00     0.267 C 
ATOM     17  N   UNL A   1      34.206  21.282  27.171  1.00  0.00    -0.341 N 
ATOM     18  H   UNL A   1      33.601  20.589  26.730  1.00  0.00     0.346 HD
ATOM     19  H   UNL A   1      34.896  20.759  27.710  1.00  0.00     0.346 HD
ENDBRANCH   9  13
ENDBRANCH   8   9
ENDBRANCH   5   8
ENDBRANCH   3   5
ENDBRANCH   2   3
ENDBRANCH   1   2
BRANCH   1  20
ATOM     20  C   UNL A   1      31.784  30.253  25.782  1.00  0.00     0.275 C 
BRANCH  20  21
ATOM     21  O   UNL A   1      32.447  30.317  27.068  1.00  0.00    -0.458 OA
BRANCH  21  22
ATOM     22  C   UNL A   1      33.124  31.469  27.308  1.00  0.00     0.338 C 
ATOM     23  O   UNL A   1      32.626  32.589  27.309  1.00  0.00    -0.246 OA
BRANCH  22  24
ATOM     24  C   UNL A   1      34.527  31.239  27.761  1.00  0.00     0.060 A 
ATOM     25  C   UNL A   1      34.892  29.907  27.983  1.00  0.00     0.016 A 
ATOM     26  C   UNL A   1      35.472  32.246  27.994  1.00  0.00     0.016 A 
ATOM     27  C   UNL A   1      36.177  29.576  28.415  1.00  0.00     0.010 A 
ATOM     28  C   UNL A   1      36.765  31.912  28.466  1.00  0.00     0.010 A 
ATOM     29  C   UNL A   1      37.129  30.571  28.681  1.00  0.00    -0.014 A 
BRANCH  29  30
ATOM     30  C   UNL A   1      38.393  30.138  29.350  1.00  0.00     0.031 A 
ATOM     31  C   UNL A   1      38.553  30.461  30.813  1.00  0.00     0.074 A 
ATOM     32  C   UNL A   1      39.320  29.359  28.754  1.00  0.00     0.049 A 
ATOM     33  N   UNL A   1      39.426  30.012  31.676  1.00  0.00    -0.248 NA
ATOM     34  C   UNL A   1      37.582  31.415  31.372  1.00  0.00     0.031 C 
ATOM     35  C   UNL A   1      39.311  28.955  27.354  1.00  0.00     0.029 A 
ATOM     36  N   UNL A   1      40.420  28.710  29.277  1.00  0.00    -0.354 N 
ATOM     37  C   UNL A   1      39.135  30.657  32.871  1.00  0.00     0.074 A 
ATOM     38  C   UNL A   1      37.975  31.490  32.633  1.00  0.00     0.031 C 
ATOM     39  C   UNL A   1      40.290  28.055  27.149  1.00  0.00     0.029 A 
ATOM     40  C   UNL A   1      41.043  27.858  28.388  1.00  0.00     0.049 A 
ATOM     41  H   UNL A   1      40.732  28.843  30.202  1.00  0.00     0.167 HD
ATOM     42  C   UNL A   1      39.790  30.601  34.054  1.00  0.00     0.034 A 
ATOM     43  C   UNL A   1      42.088  27.015  28.556  1.00  0.00     0.034 A 
ATOM     44  C   UNL A   1      40.980  29.835  34.296  1.00  0.00     0.049 A 
ATOM     45  C   UNL A   1      42.793  26.960  29.894  1.00  0.00     0.074 A 
ATOM     46  C   UNL A   1      41.749  29.784  35.446  1.00  0.00     0.029 A 
ATOM     47  N   UNL A   1      41.591  29.006  33.370  1.00  0.00    -0.354 N 
ATOM     48  N   UNL A   1      42.473  27.536  31.027  1.00  0.00    -0.248 NA
ATOM     49  C   UNL A   1      44.015  26.139  29.972  1.00  0.00     0.031 C 
ATOM     50  C   UNL A   1      42.850  28.957  35.201  1.00  0.00     0.029 A 
ATOM     51  C   UNL A   1      42.731  28.445  33.919  1.00  0.00     0.049 A 
ATOM     52  H   UNL A   1      41.263  28.842  32.456  1.00  0.00     0.167 HD
ATOM     53  C   UNL A   1      43.438  27.135  31.949  1.00  0.00     0.074 A 
ATOM     54  C   UNL A   1      44.329  26.230  31.257  1.00  0.00     0.031 C 
ATOM     55  C   UNL A   1      43.590  27.507  33.244  1.00  0.00     0.034 A 
BRANCH  42  56
ATOM     56  C   UNL A   1      39.266  31.477  35.156  1.00  0.00     0.023 A 
ATOM     57  C   UNL A   1      38.301  30.984  36.058  1.00  0.00     0.012 A 
ATOM     58  C   UNL A   1      39.729  32.800  35.286  1.00  0.00     0.148 A 
ATOM     59  C   UNL A   1      37.776  31.813  37.048  1.00  0.00     0.002 A 
ATOM     60  C   UNL A   1      39.237  33.603  36.305  1.00  0.00     0.091 A 
ATOM     61  F   UNL A   1      40.624  33.252  34.397  1.00  0.00    -0.205 F 
ATOM     62  C   UNL A   1      38.249  33.117  37.177  1.00  0.00     0.022 A 
BRANCH  60  63
ATOM     63  S   UNL A   1      39.836  35.270  36.593  1.00  0.00     0.127 S 
ATOM     64  O   UNL A   1      41.285  35.071  36.565  1.00  0.00    -0.237 OA
ATOM     65  O   UNL A   1      39.296  35.990  35.439  1.00  0.00    -0.237 OA
ATOM     66  O   UNL A   1      39.288  35.680  37.878  1.00  0.00    -0.744 OA
ENDBRANCH  60  63
ENDBRANCH  42  56
BRANCH  43  67
ATOM     67  C   UNL A   1      42.562  26.127  27.444  1.00  0.00     0.023 A 
ATOM     68  C   UNL A   1      43.393  26.654  26.430  1.00  0.00     0.012 A 
ATOM     69  C   UNL A   1      42.152  24.784  27.347  1.00  0.00     0.148 A 
ATOM     70  C   UNL A   1      43.762  25.879  25.328  1.00  0.00     0.002 A 
ATOM     71  C   UNL A   1      42.588  23.996  26.288  1.00  0.00     0.091 A 
ATOM     72  F   UNL A   1      41.325  24.304  28.285  1.00  0.00    -0.205 F 
ATOM     73  C   UNL A   1      43.370  24.546  25.263  1.00  0.00     0.022 A 
BRANCH  71  74
ATOM     74  S   UNL A   1      42.256  22.232  26.214  1.00  0.00     0.127 S 
ATOM     75  O   UNL A   1      42.726  21.781  27.521  1.00  0.00    -0.237 OA
ATOM     76  O   UNL A   1      40.805  22.204  26.036  1.00  0.00    -0.237 OA
ATOM     77  O   UNL A   1      43.008  21.744  25.065  1.00  0.00    -0.744 OA
ENDBRANCH  71  74
ENDBRANCH  43  67
BRANCH  55  78
ATOM     78  C   UNL A   1      44.737  26.915  34.030  1.00  0.00     0.023 A 
ATOM     79  C   UNL A   1      46.003  27.535  34.019  1.00  0.00     0.012 A 
ATOM     80  C   UNL A   1      44.533  25.783  34.846  1.00  0.00     0.148 A 
ATOM     81  C   UNL A   1      47.056  27.014  34.773  1.00  0.00     0.002 A 
ATOM     82  C   UNL A   1      45.571  25.302  35.635  1.00  0.00     0.091 A 
ATOM     83  F   UNL A   1      43.329  25.194  34.833  1.00  0.00    -0.205 F 
ATOM     84  C   UNL A   1      46.837  25.907  35.589  1.00  0.00     0.022 A 
BRANCH  82  85
ATOM     85  S   UNL A   1      45.349  23.946  36.793  1.00  0.00     0.127 S 
ATOM     86  O   UNL A   1      44.718  22.934  35.949  1.00  0.00    -0.237 OA
ATOM     87  O   UNL A   1      46.726  23.641  37.184  1.00  0.00    -0.237 OA
ATOM     88  O   UNL A   1      44.519  24.471  37.869  1.00  0.00    -0.744 OA
ENDBRANCH  82  85
ENDBRANCH  55  78
ENDBRANCH  29  30
ENDBRANCH  22  24
ENDBRANCH  21  22
ENDBRANCH  20  21
ENDBRANCH   1  20
TORSDOF 18
ENDMDL
