MODEL 1
REMARK VINA RESULT:     -11.6      0.000      0.000
REMARK SMILES CC[C@@H]1CC(=O)N(Cc2ccc(/C=C/C(=O)OCCOC(=O)c3ccc(-c4c5nc(c(-c6cccc(S(=O)(=O)[O-])c6F)c6ccc([nH]6)c(-c6cccc(S(=O)(=O)[O-])c6F)c6nc(c(-c7cccc(S(=O)(=O)[O-])c7F)c7ccc4[nH]7)C=C6)C=C5)cc3)cc2F)C1
REMARK SMILES IDX 18 1 17 2 15 3 16 4 14 5 13 6 12 7 9 8 10 9 87 10 11 11
REMARK SMILES IDX 86 12 88 13 8 14 7 15 3 16 4 17 89 18 5 19 6 20 2 21 1 22
REMARK SMILES IDX 19 23 20 24 21 25 22 26 23 27 24 28 85 29 25 30 84 31 26 32
REMARK SMILES IDX 27 33 28 34 78 35 29 36 83 37 77 38 79 39 30 40 82 41 76 42
REMARK SMILES IDX 75 43 31 45 63 46 43 47 62 48 44 49 47 50 61 51 80 52 45 53
REMARK SMILES IDX 46 54 60 56 81 57 48 58 32 59 33 60 41 61 34 62 36 63 42 64
REMARK SMILES IDX 35 65 37 66 38 67 39 68 40 69 64 70 65 71 73 72 66 73 68 74
REMARK SMILES IDX 74 75 67 76 69 77 70 78 71 79 72 80 49 81 50 82 58 83 51 84
REMARK SMILES IDX 53 85 59 86 52 87 54 88 55 89 56 90 57 91
REMARK H PARENT 79 44 47 55
REMARK Flexibility Score: inf
ROOT
ATOM      1  C   UNL A   1      35.310  20.532  25.000  1.00  0.00     0.275 C 
ENDROOT
BRANCH   1   2
ATOM      2  O   UNL A   1      34.397  19.419  24.957  1.00  0.00    -0.459 OA
BRANCH   2   3
ATOM      3  C   UNL A   1      33.087  19.739  24.828  1.00  0.00     0.330 C 
ATOM      4  O   UNL A   1      32.141  18.981  24.977  1.00  0.00    -0.247 OA
BRANCH   3   5
ATOM      5  C   UNL A   1      32.879  21.164  24.504  1.00  0.00     0.094 C 
ATOM      6  C   UNL A   1      32.303  21.622  23.381  1.00  0.00     0.016 C 
BRANCH   6   7
ATOM      7  C   UNL A   1      32.159  23.052  23.065  1.00  0.00    -0.022 A 
ATOM      8  C   UNL A   1      31.792  25.803  22.487  1.00  0.00     0.007 A 
ATOM      9  C   UNL A   1      32.867  25.097  21.936  1.00  0.00     0.009 A 
ATOM     10  C   UNL A   1      30.892  25.100  23.293  1.00  0.00     0.128 A 
ATOM     11  C   UNL A   1      33.039  23.733  22.210  1.00  0.00     0.008 A 
ATOM     12  C   UNL A   1      31.069  23.750  23.589  1.00  0.00     0.047 A 
ATOM     13  F   UNL A   1      29.825  25.726  23.811  1.00  0.00    -0.207 F 
BRANCH   8  14
ATOM     14  C   UNL A   1      31.608  27.273  22.217  1.00  0.00     0.158 C 
BRANCH  14  15
ATOM     15  N   UNL A   1      32.044  28.126  23.312  1.00  0.00    -0.338 N 
ATOM     16  C   UNL A   1      33.341  28.788  25.142  1.00  0.00     0.017 C 
ATOM     17  C   UNL A   1      32.059  29.631  25.098  1.00  0.00     0.105 C 
ATOM     18  C   UNL A   1      33.421  28.235  23.723  1.00  0.00     0.124 C 
ATOM     19  C   UNL A   1      31.204  28.918  24.076  1.00  0.00     0.223 C 
ATOM     20  O   UNL A   1      30.000  29.054  23.947  1.00  0.00    -0.275 OA
BRANCH  16  21
ATOM     21  C   UNL A   1      33.251  27.689  26.217  1.00  0.00     0.002 C 
ATOM     22  C   UNL A   1      33.640  26.308  25.705  1.00  0.00     0.004 C 
ENDBRANCH  16  21
ENDBRANCH  14  15
ENDBRANCH   8  14
ENDBRANCH   6   7
ENDBRANCH   3   5
ENDBRANCH   2   3
ENDBRANCH   1   2
BRANCH   1  23
ATOM     23  C   UNL A   1      36.763  20.051  24.997  1.00  0.00     0.275 C 
BRANCH  23  24
ATOM     24  O   UNL A   1      37.691  21.141  25.138  1.00  0.00    -0.458 OA
BRANCH  24  25
ATOM     25  C   UNL A   1      38.830  20.849  25.814  1.00  0.00     0.338 C 
ATOM     26  O   UNL A   1      39.325  19.746  25.974  1.00  0.00    -0.246 OA
BRANCH  25  27
ATOM     27  C   UNL A   1      39.484  22.096  26.250  1.00  0.00     0.060 A 
ATOM     28  C   UNL A   1      38.970  23.308  25.777  1.00  0.00     0.016 A 
ATOM     29  C   UNL A   1      40.614  22.078  27.071  1.00  0.00     0.016 A 
ATOM     30  C   UNL A   1      39.584  24.510  26.131  1.00  0.00     0.010 A 
ATOM     31  C   UNL A   1      41.230  23.284  27.420  1.00  0.00     0.010 A 
ATOM     32  C   UNL A   1      40.721  24.507  26.950  1.00  0.00    -0.014 A 
BRANCH  32  33
ATOM     33  C   UNL A   1      41.377  25.787  27.318  1.00  0.00     0.031 A 
ATOM     34  C   UNL A   1      40.640  26.812  28.133  1.00  0.00     0.074 A 
ATOM     35  C   UNL A   1      42.637  26.028  26.908  1.00  0.00     0.049 A 
ATOM     36  N   UNL A   1      41.036  27.997  28.516  1.00  0.00    -0.248 NA
ATOM     37  C   UNL A   1      39.283  26.458  28.577  1.00  0.00     0.031 C 
ATOM     38  C   UNL A   1      43.454  25.107  26.117  1.00  0.00     0.029 A 
ATOM     39  N   UNL A   1      43.445  27.123  27.089  1.00  0.00    -0.354 N 
ATOM     40  C   UNL A   1      39.975  28.542  29.229  1.00  0.00     0.074 A 
ATOM     41  C   UNL A   1      38.912  27.559  29.219  1.00  0.00     0.031 C 
ATOM     42  C   UNL A   1      44.644  25.678  25.874  1.00  0.00     0.029 A 
ATOM     43  C   UNL A   1      44.665  27.015  26.462  1.00  0.00     0.049 A 
ATOM     44  H   UNL A   1      43.178  27.909  27.617  1.00  0.00     0.167 HD
ATOM     45  C   UNL A   1      39.901  29.744  29.848  1.00  0.00     0.034 A 
ATOM     46  C   UNL A   1      45.679  27.898  26.361  1.00  0.00     0.034 A 
ATOM     47  C   UNL A   1      40.969  30.708  29.876  1.00  0.00     0.049 A 
ATOM     48  C   UNL A   1      45.561  29.234  27.044  1.00  0.00     0.074 A 
ATOM     49  C   UNL A   1      40.989  31.946  30.494  1.00  0.00     0.029 A 
ATOM     50  N   UNL A   1      42.201  30.548  29.263  1.00  0.00    -0.354 N 
ATOM     51  N   UNL A   1      44.584  29.697  27.785  1.00  0.00    -0.248 NA
ATOM     52  C   UNL A   1      46.695  30.160  26.902  1.00  0.00     0.031 C 
ATOM     53  C   UNL A   1      42.230  32.540  30.246  1.00  0.00     0.029 A 
ATOM     54  C   UNL A   1      42.989  31.664  29.489  1.00  0.00     0.049 A 
ATOM     55  H   UNL A   1      42.476  29.759  28.744  1.00  0.00     0.167 HD
ATOM     56  C   UNL A   1      44.997  30.949  28.225  1.00  0.00     0.074 A 
ATOM     57  C   UNL A   1      46.321  31.167  27.682  1.00  0.00     0.031 C 
ATOM     58  C   UNL A   1      44.331  31.844  28.995  1.00  0.00     0.034 A 
BRANCH  45  59
ATOM     59  C   UNL A   1      38.639  30.079  30.598  1.00  0.00     0.023 A 
ATOM     60  C   UNL A   1      38.513  29.682  31.943  1.00  0.00     0.012 A 
ATOM     61  C   UNL A   1      37.636  30.877  30.013  1.00  0.00     0.148 A 
ATOM     62  C   UNL A   1      37.400  30.062  32.693  1.00  0.00     0.002 A 
ATOM     63  C   UNL A   1      36.549  31.284  30.778  1.00  0.00     0.091 A 
ATOM     64  F   UNL A   1      37.770  31.229  28.726  1.00  0.00    -0.205 F 
ATOM     65  C   UNL A   1      36.427  30.873  32.115  1.00  0.00     0.022 A 
BRANCH  63  66
ATOM     66  S   UNL A   1      35.279  32.390  30.151  1.00  0.00     0.127 S 
ATOM     67  O   UNL A   1      34.412  32.535  31.320  1.00  0.00    -0.237 OA
ATOM     68  O   UNL A   1      36.051  33.585  29.812  1.00  0.00    -0.237 OA
ATOM     69  O   UNL A   1      34.678  31.709  29.012  1.00  0.00    -0.744 OA
ENDBRANCH  63  66
ENDBRANCH  45  59
BRANCH  46  70
ATOM     70  C   UNL A   1      46.920  27.516  25.628  1.00  0.00     0.023 A 
ATOM     71  C   UNL A   1      47.910  26.767  26.291  1.00  0.00     0.012 A 
ATOM     72  C   UNL A   1      47.102  27.846  24.270  1.00  0.00     0.148 A 
ATOM     73  C   UNL A   1      49.068  26.368  25.623  1.00  0.00     0.002 A 
ATOM     74  C   UNL A   1      48.231  27.397  23.594  1.00  0.00     0.091 A 
ATOM     75  F   UNL A   1      46.159  28.578  23.661  1.00  0.00    -0.205 F 
ATOM     76  C   UNL A   1      49.221  26.670  24.273  1.00  0.00     0.022 A 
BRANCH  74  77
ATOM     77  S   UNL A   1      48.443  27.622  21.825  1.00  0.00     0.127 S 
ATOM     78  O   UNL A   1      47.160  28.204  21.441  1.00  0.00    -0.237 OA
ATOM     79  O   UNL A   1      49.579  28.544  21.769  1.00  0.00    -0.237 OA
ATOM     80  O   UNL A   1      48.723  26.295  21.293  1.00  0.00    -0.744 OA
ENDBRANCH  74  77
ENDBRANCH  46  70
BRANCH  58  81
ATOM     81  C   UNL A   1      45.021  33.139  29.335  1.00  0.00     0.023 A 
ATOM     82  C   UNL A   1      45.861  33.205  30.464  1.00  0.00     0.012 A 
ATOM     83  C   UNL A   1      44.927  34.252  28.476  1.00  0.00     0.148 A 
ATOM     84  C   UNL A   1      46.582  34.365  30.743  1.00  0.00     0.002 A 
ATOM     85  C   UNL A   1      45.684  35.389  28.736  1.00  0.00     0.091 A 
ATOM     86  F   UNL A   1      44.108  34.176  27.417  1.00  0.00    -0.205 F 
ATOM     87  C   UNL A   1      46.506  35.451  29.874  1.00  0.00     0.022 A 
BRANCH  85  88
ATOM     88  S   UNL A   1      45.723  36.795  27.617  1.00  0.00     0.127 S 
ATOM     89  O   UNL A   1      46.413  36.235  26.457  1.00  0.00    -0.237 OA
ATOM     90  O   UNL A   1      44.300  37.067  27.407  1.00  0.00    -0.237 OA
ATOM     91  O   UNL A   1      46.439  37.848  28.324  1.00  0.00    -0.744 OA
ENDBRANCH  85  88
ENDBRANCH  58  81
ENDBRANCH  32  33
ENDBRANCH  25  27
ENDBRANCH  24  25
ENDBRANCH  23  24
ENDBRANCH   1  23
TORSDOF 18
ENDMDL
MODEL 2
REMARK VINA RESULT:     -11.5      5.140      7.914
REMARK SMILES CC[C@@H]1CC(=O)N(Cc2ccc(/C=C/C(=O)OCCOC(=O)c3ccc(-c4c5nc(c(-c6cccc(S(=O)(=O)[O-])c6F)c6ccc([nH]6)c(-c6cccc(S(=O)(=O)[O-])c6F)c6nc(c(-c7cccc(S(=O)(=O)[O-])c7F)c7ccc4[nH]7)C=C6)C=C5)cc3)cc2F)C1
REMARK SMILES IDX 18 1 17 2 15 3 16 4 14 5 13 6 12 7 9 8 10 9 87 10 11 11
REMARK SMILES IDX 86 12 88 13 8 14 7 15 3 16 4 17 89 18 5 19 6 20 2 21 1 22
REMARK SMILES IDX 19 23 20 24 21 25 22 26 23 27 24 28 85 29 25 30 84 31 26 32
REMARK SMILES IDX 27 33 28 34 78 35 29 36 83 37 77 38 79 39 30 40 82 41 76 42
REMARK SMILES IDX 75 43 31 45 63 46 43 47 62 48 44 49 47 50 61 51 80 52 45 53
REMARK SMILES IDX 46 54 60 56 81 57 48 58 32 59 33 60 41 61 34 62 36 63 42 64
REMARK SMILES IDX 35 65 37 66 38 67 39 68 40 69 64 70 65 71 73 72 66 73 68 74
REMARK SMILES IDX 74 75 67 76 69 77 70 78 71 79 72 80 49 81 50 82 58 83 51 84
REMARK SMILES IDX 53 85 59 86 52 87 54 88 55 89 56 90 57 91
REMARK H PARENT 79 44 47 55
REMARK Flexibility Score: inf
ROOT
ATOM      1  C   UNL A   1      31.417  29.529  24.758  1.00  0.00     0.275 C 
ENDROOT
BRANCH   1   2
ATOM      2  O   UNL A   1      30.225  29.761  23.984  1.00  0.00    -0.459 OA
BRANCH   2   3
ATOM      3  C   UNL A   1      30.041  28.936  22.927  1.00  0.00     0.330 C 
ATOM      4  O   UNL A   1      29.576  29.246  21.841  1.00  0.00    -0.247 OA
BRANCH   3   5
ATOM      5  C   UNL A   1      30.498  27.557  23.195  1.00  0.00     0.094 C 
ATOM      6  C   UNL A   1      29.905  26.700  24.040  1.00  0.00     0.016 C 
BRANCH   6   7
ATOM      7  C   UNL A   1      30.418  25.351  24.325  1.00  0.00    -0.022 A 
ATOM      8  C   UNL A   1      31.416  22.776  24.965  1.00  0.00     0.007 A 
ATOM      9  C   UNL A   1      31.364  23.209  23.636  1.00  0.00     0.009 A 
ATOM     10  C   UNL A   1      30.999  23.665  25.959  1.00  0.00     0.128 A 
ATOM     11  C   UNL A   1      30.885  24.488  23.322  1.00  0.00     0.008 A 
ATOM     12  C   UNL A   1      30.499  24.929  25.654  1.00  0.00     0.047 A 
ATOM     13  F   UNL A   1      31.067  23.307  27.250  1.00  0.00    -0.207 F 
BRANCH   8  14
ATOM     14  C   UNL A   1      31.909  21.396  25.313  1.00  0.00     0.158 C 
BRANCH  14  15
ATOM     15  N   UNL A   1      33.358  21.269  25.283  1.00  0.00    -0.338 N 
ATOM     16  C   UNL A   1      35.580  21.983  25.126  1.00  0.00     0.017 C 
ATOM     17  C   UNL A   1      35.521  20.462  24.923  1.00  0.00     0.105 C 
ATOM     18  C   UNL A   1      34.246  22.278  25.803  1.00  0.00     0.124 C 
ATOM     19  C   UNL A   1      34.043  20.187  24.759  1.00  0.00     0.223 C 
ATOM     20  O   UNL A   1      33.565  19.176  24.276  1.00  0.00    -0.275 OA
BRANCH  16  21
ATOM     21  C   UNL A   1      35.754  22.718  23.783  1.00  0.00     0.002 C 
ATOM     22  C   UNL A   1      34.969  24.021  23.701  1.00  0.00     0.004 C 
ENDBRANCH  16  21
ENDBRANCH  14  15
ENDBRANCH   8  14
ENDBRANCH   6   7
ENDBRANCH   3   5
ENDBRANCH   2   3
ENDBRANCH   1   2
BRANCH   1  23
ATOM     23  C   UNL A   1      31.618  30.631  25.802  1.00  0.00     0.275 C 
BRANCH  23  24
ATOM     24  O   UNL A   1      32.728  30.350  26.674  1.00  0.00    -0.458 OA
BRANCH  24  25
ATOM     25  C   UNL A   1      33.310  31.436  27.239  1.00  0.00     0.338 C 
ATOM     26  O   UNL A   1      32.830  32.552  27.348  1.00  0.00    -0.246 OA
BRANCH  25  27
ATOM     27  C   UNL A   1      34.605  31.054  27.832  1.00  0.00     0.060 A 
ATOM     28  C   UNL A   1      34.741  29.755  28.333  1.00  0.00     0.016 A 
ATOM     29  C   UNL A   1      35.654  31.969  27.942  1.00  0.00     0.016 A 
ATOM     30  C   UNL A   1      35.935  29.365  28.940  1.00  0.00     0.010 A 
ATOM     31  C   UNL A   1      36.849  31.577  28.555  1.00  0.00     0.010 A 
ATOM     32  C   UNL A   1      36.995  30.274  29.062  1.00  0.00    -0.014 A 
BRANCH  32  33
ATOM     33  C   UNL A   1      38.260  29.858  29.716  1.00  0.00     0.031 A 
ATOM     34  C   UNL A   1      38.650  30.429  31.050  1.00  0.00     0.074 A 
ATOM     35  C   UNL A   1      39.063  28.968  29.101  1.00  0.00     0.049 A 
ATOM     36  N   UNL A   1      39.731  30.213  31.753  1.00  0.00    -0.248 NA
ATOM     37  C   UNL A   1      37.700  31.362  31.678  1.00  0.00     0.031 C 
ATOM     38  C   UNL A   1      38.789  28.343  27.807  1.00  0.00     0.029 A 
ATOM     39  N   UNL A   1      40.277  28.448  29.475  1.00  0.00    -0.354 N 
ATOM     40  C   UNL A   1      39.606  30.995  32.895  1.00  0.00     0.074 A 
ATOM     41  C   UNL A   1      38.345  31.698  32.788  1.00  0.00     0.031 C 
ATOM     42  C   UNL A   1      39.807  27.529  27.491  1.00  0.00     0.029 A 
ATOM     43  C   UNL A   1      40.822  27.598  28.541  1.00  0.00     0.049 A 
ATOM     44  H   UNL A   1      40.716  28.662  30.329  1.00  0.00     0.167 HD
ATOM     45  C   UNL A   1      40.456  31.102  33.943  1.00  0.00     0.034 A 
ATOM     46  C   UNL A   1      42.009  26.957  28.524  1.00  0.00     0.034 A 
ATOM     47  C   UNL A   1      41.698  30.383  34.057  1.00  0.00     0.049 A 
ATOM     48  C   UNL A   1      42.942  27.111  29.695  1.00  0.00     0.074 A 
ATOM     49  C   UNL A   1      42.616  30.416  35.092  1.00  0.00     0.029 A 
ATOM     50  N   UNL A   1      42.196  29.502  33.109  1.00  0.00    -0.354 N 
ATOM     51  N   UNL A   1      42.768  27.788  30.804  1.00  0.00    -0.248 NA
ATOM     52  C   UNL A   1      44.224  26.392  29.627  1.00  0.00     0.031 C 
ATOM     53  C   UNL A   1      43.675  29.565  34.766  1.00  0.00     0.029 A 
ATOM     54  C   UNL A   1      43.408  28.987  33.536  1.00  0.00     0.049 A 
ATOM     55  H   UNL A   1      41.755  29.278  32.259  1.00  0.00     0.167 HD
ATOM     56  C   UNL A   1      43.898  27.550  31.578  1.00  0.00     0.074 A 
ATOM     57  C   UNL A   1      44.744  26.652  30.819  1.00  0.00     0.031 C 
ATOM     58  C   UNL A   1      44.213  28.045  32.800  1.00  0.00     0.034 A 
BRANCH  45  59
ATOM     59  C   UNL A   1      40.061  31.995  35.088  1.00  0.00     0.023 A 
ATOM     60  C   UNL A   1      40.475  33.342  35.085  1.00  0.00     0.012 A 
ATOM     61  C   UNL A   1      39.193  31.539  36.101  1.00  0.00     0.148 A 
ATOM     62  C   UNL A   1      40.043  34.219  36.079  1.00  0.00     0.002 A 
ATOM     63  C   UNL A   1      38.737  32.429  37.067  1.00  0.00     0.091 A 
ATOM     64  F   UNL A   1      38.826  30.250  36.093  1.00  0.00    -0.205 F 
ATOM     65  C   UNL A   1      39.165  33.766  37.060  1.00  0.00     0.022 A 
BRANCH  63  66
ATOM     66  S   UNL A   1      37.546  31.965  38.329  1.00  0.00     0.127 S 
ATOM     67  O   UNL A   1      38.336  32.118  39.550  1.00  0.00    -0.237 OA
ATOM     68  O   UNL A   1      36.499  32.971  38.150  1.00  0.00    -0.237 OA
ATOM     69  O   UNL A   1      37.139  30.601  38.019  1.00  0.00    -0.744 OA
ENDBRANCH  63  66
ENDBRANCH  45  59
BRANCH  46  70
ATOM     70  C   UNL A   1      42.350  26.065  27.380  1.00  0.00     0.023 A 
ATOM     71  C   UNL A   1      43.116  26.572  26.313  1.00  0.00     0.012 A 
ATOM     72  C   UNL A   1      41.965  24.710  27.364  1.00  0.00     0.148 A 
ATOM     73  C   UNL A   1      43.477  25.753  25.244  1.00  0.00     0.002 A 
ATOM     74  C   UNL A   1      42.376  23.884  26.325  1.00  0.00     0.091 A 
ATOM     75  F   UNL A   1      41.217  24.250  28.378  1.00  0.00    -0.205 F 
ATOM     76  C   UNL A   1      43.120  24.407  25.256  1.00  0.00     0.022 A 
BRANCH  74  77
ATOM     77  S   UNL A   1      42.078  22.113  26.329  1.00  0.00     0.127 S 
ATOM     78  O   UNL A   1      40.646  22.049  26.049  1.00  0.00    -0.237 OA
ATOM     79  O   UNL A   1      42.940  21.656  25.238  1.00  0.00    -0.237 OA
ATOM     80  O   UNL A   1      42.488  21.651  27.649  1.00  0.00    -0.744 OA
ENDBRANCH  74  77
ENDBRANCH  46  70
BRANCH  58  81
ATOM     81  C   UNL A   1      45.513  27.613  33.427  1.00  0.00     0.023 A 
ATOM     82  C   UNL A   1      46.669  28.395  33.238  1.00  0.00     0.012 A 
ATOM     83  C   UNL A   1      45.562  26.502  34.292  1.00  0.00     0.148 A 
ATOM     84  C   UNL A   1      47.860  28.066  33.885  1.00  0.00     0.002 A 
ATOM     85  C   UNL A   1      46.740  26.207  34.969  1.00  0.00     0.091 A 
ATOM     86  F   UNL A   1      44.456  25.760  34.444  1.00  0.00    -0.205 F 
ATOM     87  C   UNL A   1      47.892  26.983  34.760  1.00  0.00     0.022 A 
BRANCH  85  88
ATOM     88  S   UNL A   1      46.845  24.892  36.188  1.00  0.00     0.127 S 
ATOM     89  O   UNL A   1      45.904  25.353  37.207  1.00  0.00    -0.237 OA
ATOM     90  O   UNL A   1      46.397  23.724  35.429  1.00  0.00    -0.237 OA
ATOM     91  O   UNL A   1      48.241  24.841  36.602  1.00  0.00    -0.744 OA
ENDBRANCH  85  88
ENDBRANCH  58  81
ENDBRANCH  32  33
ENDBRANCH  25  27
ENDBRANCH  24  25
ENDBRANCH  23  24
ENDBRANCH   1  23
TORSDOF 18
ENDMDL
MODEL 3
REMARK VINA RESULT:     -11.5      1.350      7.773
REMARK SMILES CC[C@@H]1CC(=O)N(Cc2ccc(/C=C/C(=O)OCCOC(=O)c3ccc(-c4c5nc(c(-c6cccc(S(=O)(=O)[O-])c6F)c6ccc([nH]6)c(-c6cccc(S(=O)(=O)[O-])c6F)c6nc(c(-c7cccc(S(=O)(=O)[O-])c7F)c7ccc4[nH]7)C=C6)C=C5)cc3)cc2F)C1
REMARK SMILES IDX 18 1 17 2 15 3 16 4 14 5 13 6 12 7 9 8 10 9 87 10 11 11
REMARK SMILES IDX 86 12 88 13 8 14 7 15 3 16 4 17 89 18 5 19 6 20 2 21 1 22
REMARK SMILES IDX 19 23 20 24 21 25 22 26 23 27 24 28 85 29 25 30 84 31 26 32
REMARK SMILES IDX 27 33 28 34 78 35 29 36 83 37 77 38 79 39 30 40 82 41 76 42
REMARK SMILES IDX 75 43 31 45 63 46 43 47 62 48 44 49 47 50 61 51 80 52 45 53
REMARK SMILES IDX 46 54 60 56 81 57 48 58 32 59 33 60 41 61 34 62 36 63 42 64
REMARK SMILES IDX 35 65 37 66 38 67 39 68 40 69 64 70 65 71 73 72 66 73 68 74
REMARK SMILES IDX 74 75 67 76 69 77 70 78 71 79 72 80 49 81 50 82 58 83 51 84
REMARK SMILES IDX 53 85 59 86 52 87 54 88 55 89 56 90 57 91
REMARK H PARENT 79 44 47 55
REMARK Flexibility Score: inf
ROOT
ATOM      1  C   UNL A   1      37.619  19.728  24.778  1.00  0.00     0.275 C 
ENDROOT
BRANCH   1   2
ATOM      2  O   UNL A   1      36.839  20.794  25.349  1.00  0.00    -0.459 OA
BRANCH   2   3
ATOM      3  C   UNL A   1      35.520  20.786  25.044  1.00  0.00     0.330 C 
ATOM      4  O   UNL A   1      34.837  19.799  24.817  1.00  0.00    -0.247 OA
BRANCH   3   5
ATOM      5  C   UNL A   1      34.930  22.140  25.035  1.00  0.00     0.094 C 
ATOM      6  C   UNL A   1      34.879  22.950  23.967  1.00  0.00     0.016 C 
BRANCH   6   7
ATOM      7  C   UNL A   1      34.332  24.316  24.005  1.00  0.00    -0.022 A 
ATOM      8  C   UNL A   1      33.288  26.951  23.986  1.00  0.00     0.007 A 
ATOM      9  C   UNL A   1      33.714  26.363  25.182  1.00  0.00     0.009 A 
ATOM     10  C   UNL A   1      33.431  26.214  22.807  1.00  0.00     0.128 A 
ATOM     11  C   UNL A   1      34.245  25.066  25.188  1.00  0.00     0.008 A 
ATOM     12  C   UNL A   1      33.934  24.915  22.808  1.00  0.00     0.047 A 
ATOM     13  F   UNL A   1      33.072  26.752  21.632  1.00  0.00    -0.207 F 
BRANCH   8  14
ATOM     14  C   UNL A   1      32.698  28.337  23.969  1.00  0.00     0.158 C 
BRANCH  14  15
ATOM     15  N   UNL A   1      31.328  28.381  23.480  1.00  0.00    -0.338 N 
ATOM     16  C   UNL A   1      29.403  29.329  22.550  1.00  0.00     0.017 C 
ATOM     17  C   UNL A   1      29.041  27.992  23.212  1.00  0.00     0.105 C 
ATOM     18  C   UNL A   1      30.913  29.213  22.380  1.00  0.00     0.124 C 
ATOM     19  C   UNL A   1      30.280  27.645  24.005  1.00  0.00     0.223 C 
ATOM     20  O   UNL A   1      30.330  26.838  24.917  1.00  0.00    -0.275 OA
BRANCH  16  21
ATOM     21  C   UNL A   1      28.981  30.520  23.431  1.00  0.00     0.002 C 
ATOM     22  C   UNL A   1      27.839  31.336  22.838  1.00  0.00     0.004 C 
ENDBRANCH  16  21
ENDBRANCH  14  15
ENDBRANCH   8  14
ENDBRANCH   6   7
ENDBRANCH   3   5
ENDBRANCH   2   3
ENDBRANCH   1   2
BRANCH   1  23
ATOM     23  C   UNL A   1      38.832  19.403  25.653  1.00  0.00     0.275 C 
BRANCH  23  24
ATOM     24  O   UNL A   1      39.714  20.532  25.791  1.00  0.00    -0.458 OA
BRANCH  24  25
ATOM     25  C   UNL A   1      40.470  20.543  26.917  1.00  0.00     0.338 C 
ATOM     26  O   UNL A   1      40.868  19.574  27.542  1.00  0.00    -0.246 OA
BRANCH  25  27
ATOM     27  C   UNL A   1      40.862  21.927  27.238  1.00  0.00     0.060 A 
ATOM     28  C   UNL A   1      40.483  22.941  26.353  1.00  0.00     0.016 A 
ATOM     29  C   UNL A   1      41.634  22.222  28.365  1.00  0.00     0.016 A 
ATOM     30  C   UNL A   1      40.869  24.259  26.598  1.00  0.00     0.010 A 
ATOM     31  C   UNL A   1      42.024  23.544  28.605  1.00  0.00     0.010 A 
ATOM     32  C   UNL A   1      41.648  24.570  27.721  1.00  0.00    -0.014 A 
BRANCH  32  33
ATOM     33  C   UNL A   1      42.064  25.972  27.973  1.00  0.00     0.031 A 
ATOM     34  C   UNL A   1      43.443  26.435  27.596  1.00  0.00     0.074 A 
ATOM     35  C   UNL A   1      41.198  26.827  28.550  1.00  0.00     0.049 A 
ATOM     36  N   UNL A   1      43.994  27.607  27.773  1.00  0.00    -0.248 NA
ATOM     37  C   UNL A   1      44.316  25.454  26.931  1.00  0.00     0.031 C 
ATOM     38  C   UNL A   1      39.832  26.493  28.955  1.00  0.00     0.029 A 
ATOM     39  N   UNL A   1      41.342  28.144  28.908  1.00  0.00    -0.354 N 
ATOM     40  C   UNL A   1      45.282  27.504  27.263  1.00  0.00     0.074 A 
ATOM     41  C   UNL A   1      45.435  26.150  26.775  1.00  0.00     0.031 C 
ATOM     42  C   UNL A   1      39.266  27.575  29.513  1.00  0.00     0.029 A 
ATOM     43  C   UNL A   1      40.236  28.668  29.535  1.00  0.00     0.049 A 
ATOM     44  H   UNL A   1      42.159  28.665  28.732  1.00  0.00     0.167 HD
ATOM     45  C   UNL A   1      46.242  28.457  27.193  1.00  0.00     0.034 A 
ATOM     46  C   UNL A   1      40.029  29.885  30.079  1.00  0.00     0.034 A 
ATOM     47  C   UNL A   1      46.077  29.809  27.658  1.00  0.00     0.049 A 
ATOM     48  C   UNL A   1      41.122  30.918  30.002  1.00  0.00     0.074 A 
ATOM     49  C   UNL A   1      46.991  30.848  27.612  1.00  0.00     0.029 A 
ATOM     50  N   UNL A   1      44.931  30.312  28.252  1.00  0.00    -0.354 N 
ATOM     51  N   UNL A   1      42.302  30.828  29.440  1.00  0.00    -0.248 NA
ATOM     52  C   UNL A   1      40.847  32.228  30.611  1.00  0.00     0.031 C 
ATOM     53  C   UNL A   1      46.401  31.976  28.188  1.00  0.00     0.029 A 
ATOM     54  C   UNL A   1      45.113  31.646  28.576  1.00  0.00     0.049 A 
ATOM     55  H   UNL A   1      44.109  29.797  28.418  1.00  0.00     0.167 HD
ATOM     56  C   UNL A   1      42.896  32.075  29.595  1.00  0.00     0.074 A 
ATOM     57  C   UNL A   1      41.939  32.910  30.290  1.00  0.00     0.031 C 
ATOM     58  C   UNL A   1      44.130  32.486  29.211  1.00  0.00     0.034 A 
BRANCH  45  59
ATOM     59  C   UNL A   1      47.552  28.096  26.546  1.00  0.00     0.023 A 
ATOM     60  C   UNL A   1      48.649  27.751  27.359  1.00  0.00     0.012 A 
ATOM     61  C   UNL A   1      47.667  27.990  25.145  1.00  0.00     0.148 A 
ATOM     62  C   UNL A   1      49.846  27.317  26.790  1.00  0.00     0.002 A 
ATOM     63  C   UNL A   1      48.850  27.520  24.586  1.00  0.00     0.091 A 
ATOM     64  F   UNL A   1      46.615  28.339  24.390  1.00  0.00    -0.205 F 
ATOM     65  C   UNL A   1      49.941  27.190  25.407  1.00  0.00     0.022 A 
BRANCH  63  66
ATOM     66  S   UNL A   1      49.050  27.247  22.822  1.00  0.00     0.127 S 
ATOM     67  O   UNL A   1      50.504  27.150  22.702  1.00  0.00    -0.237 OA
ATOM     68  O   UNL A   1      48.336  25.986  22.622  1.00  0.00    -0.237 OA
ATOM     69  O   UNL A   1      48.448  28.400  22.165  1.00  0.00    -0.744 OA
ENDBRANCH  63  66
ENDBRANCH  45  59
BRANCH  46  70
ATOM     70  C   UNL A   1      38.709  30.206  30.690  1.00  0.00     0.023 A 
ATOM     71  C   UNL A   1      38.449  29.816  32.018  1.00  0.00     0.012 A 
ATOM     72  C   UNL A   1      37.730  30.935  29.985  1.00  0.00     0.148 A 
ATOM     73  C   UNL A   1      37.234  30.130  32.626  1.00  0.00     0.002 A 
ATOM     74  C   UNL A   1      36.545  31.294  30.616  1.00  0.00     0.091 A 
ATOM     75  F   UNL A   1      37.986  31.279  28.714  1.00  0.00    -0.205 F 
ATOM     76  C   UNL A   1      36.289  30.880  31.932  1.00  0.00     0.022 A 
BRANCH  74  77
ATOM     77  S   UNL A   1      35.335  32.374  29.844  1.00  0.00     0.127 S 
ATOM     78  O   UNL A   1      36.154  33.524  29.471  1.00  0.00    -0.237 OA
ATOM     79  O   UNL A   1      34.872  31.558  28.720  1.00  0.00    -0.237 OA
ATOM     80  O   UNL A   1      34.323  32.618  30.863  1.00  0.00    -0.744 OA
ENDBRANCH  74  77
ENDBRANCH  46  70
BRANCH  58  81
ATOM     81  C   UNL A   1      44.524  33.911  29.498  1.00  0.00     0.023 A 
ATOM     82  C   UNL A   1      45.202  34.217  30.694  1.00  0.00     0.012 A 
ATOM     83  C   UNL A   1      44.327  34.920  28.536  1.00  0.00     0.148 A 
ATOM     84  C   UNL A   1      45.659  35.512  30.937  1.00  0.00     0.002 A 
ATOM     85  C   UNL A   1      44.825  36.198  28.764  1.00  0.00     0.091 A 
ATOM     86  F   UNL A   1      43.664  34.613  27.412  1.00  0.00    -0.205 F 
ATOM     87  C   UNL A   1      45.484  36.498  29.968  1.00  0.00     0.022 A 
BRANCH  85  88
ATOM     88  S   UNL A   1      44.733  37.502  27.531  1.00  0.00     0.127 S 
ATOM     89  O   UNL A   1      45.046  38.687  28.326  1.00  0.00    -0.237 OA
ATOM     90  O   UNL A   1      45.777  37.111  26.583  1.00  0.00    -0.237 OA
ATOM     91  O   UNL A   1      43.380  37.448  26.993  1.00  0.00    -0.744 OA
ENDBRANCH  85  88
ENDBRANCH  58  81
ENDBRANCH  32  33
ENDBRANCH  25  27
ENDBRANCH  24  25
ENDBRANCH  23  24
ENDBRANCH   1  23
TORSDOF 18
ENDMDL
