MODEL 1
REMARK VINA RESULT:     -12.1      0.000      0.000
REMARK SMILES O=C(C[S@](=O)c1c([N+](=O)[O-])cc(C(F)(F)F)cc1[N+](=O)[O-])OCCOC(=O)c1ccc(-c2c3nc(c(-c4cccc(S(=O)(=O)[O-])c4F)c4ccc([nH]4)c(-c4cccc(S(=O)(=O)[O-])c4F)c4nc(c(-c5cccc(S(=O)(=O)[O-])c5F)c5ccc2[nH]5)C=C4)C=C3)cc1
REMARK SMILES IDX 23 1 22 2 2 3 1 4 3 5 4 6 5 7 6 8 7 9 18 10 11 11 17 12
REMARK SMILES IDX 12 13 8 14 9 15 10 16 19 17 20 18 21 19 13 20 14 21 15 22
REMARK SMILES IDX 16 23 24 24 25 25 26 26 27 27 28 28 29 29 90 30 30 31 89 32
REMARK SMILES IDX 31 33 32 34 33 35 83 36 34 37 88 38 82 39 84 40 35 41 87 42
REMARK SMILES IDX 81 43 80 44 36 46 68 47 48 48 67 49 49 50 52 51 66 52 85 53
REMARK SMILES IDX 50 54 51 55 65 57 86 58 53 59 37 60 38 61 46 62 39 63 41 64
REMARK SMILES IDX 47 65 40 66 42 67 43 68 44 69 45 70 69 71 70 72 78 73 71 74
REMARK SMILES IDX 73 75 79 76 72 77 74 78 75 79 76 80 77 81 54 82 55 83 63 84
REMARK SMILES IDX 56 85 58 86 64 87 57 88 59 89 60 90 61 91 62 92
REMARK H PARENT 84 45 52 56
REMARK Flexibility Score: inf
ROOT
ATOM      1  C   UNL A   1      35.767  21.220  25.419  1.00  0.00     0.274 C 
ENDROOT
BRANCH   1   2
ATOM      2  O   UNL A   1      35.104  21.680  24.218  1.00  0.00    -0.461 OA
BRANCH   2   3
ATOM      3  C   UNL A   1      35.306  22.879  23.617  1.00  0.00     0.319 C 
ATOM      4  O   UNL A   1      36.220  23.015  22.809  1.00  0.00    -0.251 OA
BRANCH   3   5
ATOM      5  C   UNL A   1      34.349  23.985  23.891  1.00  0.00     0.233 C 
BRANCH   5   6
ATOM      6  S   UNL A   1      32.584  23.645  23.711  1.00  0.00     0.078 S 
ATOM      7  O   UNL A   1      32.503  22.991  22.361  1.00  0.00    -0.253 OA
BRANCH   6   8
ATOM      8  C   UNL A   1      31.729  25.239  23.458  1.00  0.00     0.194 A 
ATOM      9  C   UNL A   1      30.920  25.788  24.479  1.00  0.00     0.293 A 
ATOM     10  C   UNL A   1      31.852  26.048  22.314  1.00  0.00     0.293 A 
ATOM     11  C   UNL A   1      30.104  26.926  24.284  1.00  0.00     0.100 A 
ATOM     12  C   UNL A   1      31.009  27.165  22.086  1.00  0.00     0.100 A 
ATOM     13  C   UNL A   1      30.099  27.592  23.058  1.00  0.00     0.069 A 
BRANCH   9  14
ATOM     14  N   UNL A   1      31.075  25.389  25.879  1.00  0.00     0.064 N 
ATOM     15  O   UNL A   1      30.035  25.146  26.506  1.00  0.00    -0.258 OA
ATOM     16  O   UNL A   1      32.207  25.517  26.364  1.00  0.00    -0.258 OA
ENDBRANCH   9  14
BRANCH  10  17
ATOM     17  N   UNL A   1      33.011  25.953  21.423  1.00  0.00     0.064 N 
ATOM     18  O   UNL A   1      34.032  26.564  21.760  1.00  0.00    -0.258 OA
ATOM     19  O   UNL A   1      32.906  25.200  20.449  1.00  0.00    -0.258 OA
ENDBRANCH  10  17
BRANCH  13  20
ATOM     20  C   UNL A   1      29.263  28.836  22.856  1.00  0.00     0.416 C 
ATOM     21  F   UNL A   1      27.929  28.596  22.962  1.00  0.00    -0.166 F 
ATOM     22  F   UNL A   1      29.553  29.797  23.772  1.00  0.00    -0.166 F 
ATOM     23  F   UNL A   1      29.449  29.404  21.635  1.00  0.00    -0.166 F 
ENDBRANCH  13  20
ENDBRANCH   6   8
ENDBRANCH   5   6
ENDBRANCH   3   5
ENDBRANCH   2   3
ENDBRANCH   1   2
BRANCH   1  24
ATOM     24  C   UNL A   1      36.985  20.354  25.098  1.00  0.00     0.275 C 
BRANCH  24  25
ATOM     25  O   UNL A   1      38.155  21.181  25.024  1.00  0.00    -0.458 OA
BRANCH  25  26
ATOM     26  C   UNL A   1      39.137  20.872  25.911  1.00  0.00     0.338 C 
ATOM     27  O   UNL A   1      39.665  19.789  26.059  1.00  0.00    -0.246 OA
BRANCH  26  28
ATOM     28  C   UNL A   1      39.626  22.127  26.519  1.00  0.00     0.060 A 
ATOM     29  C   UNL A   1      39.008  23.323  26.134  1.00  0.00     0.016 A 
ATOM     30  C   UNL A   1      40.670  22.132  27.450  1.00  0.00     0.016 A 
ATOM     31  C   UNL A   1      39.477  24.537  26.628  1.00  0.00     0.010 A 
ATOM     32  C   UNL A   1      41.144  23.349  27.941  1.00  0.00     0.010 A 
ATOM     33  C   UNL A   1      40.585  24.554  27.484  1.00  0.00    -0.014 A 
BRANCH  33  34
ATOM     34  C   UNL A   1      41.327  25.822  27.663  1.00  0.00     0.031 A 
ATOM     35  C   UNL A   1      40.634  26.932  28.408  1.00  0.00     0.074 A 
ATOM     36  C   UNL A   1      42.579  25.980  27.202  1.00  0.00     0.049 A 
ATOM     37  N   UNL A   1      41.079  28.113  28.742  1.00  0.00    -0.248 NA
ATOM     38  C   UNL A   1      39.245  26.672  28.831  1.00  0.00     0.031 C 
ATOM     39  C   UNL A   1      43.345  24.977  26.463  1.00  0.00     0.029 A 
ATOM     40  N   UNL A   1      43.422  27.058  27.281  1.00  0.00    -0.354 N 
ATOM     41  C   UNL A   1      40.023  28.743  29.391  1.00  0.00     0.074 A 
ATOM     42  C   UNL A   1      38.908  27.824  29.386  1.00  0.00     0.031 C 
ATOM     43  C   UNL A   1      44.544  25.496  26.142  1.00  0.00     0.029 A 
ATOM     44  C   UNL A   1      44.624  26.867  26.643  1.00  0.00     0.049 A 
ATOM     45  H   UNL A   1      43.188  27.892  27.749  1.00  0.00     0.167 HD
ATOM     46  C   UNL A   1      39.989  29.971  29.958  1.00  0.00     0.034 A 
ATOM     47  C   UNL A   1      45.664  27.709  26.486  1.00  0.00     0.034 A 
ATOM     48  C   UNL A   1      41.103  30.875  29.965  1.00  0.00     0.049 A 
ATOM     49  C   UNL A   1      45.598  29.077  27.123  1.00  0.00     0.074 A 
ATOM     50  C   UNL A   1      41.192  32.127  30.546  1.00  0.00     0.029 A 
ATOM     51  N   UNL A   1      42.320  30.628  29.349  1.00  0.00    -0.354 N 
ATOM     52  N   UNL A   1      44.641  29.609  27.844  1.00  0.00    -0.248 NA
ATOM     53  C   UNL A   1      46.777  29.940  26.959  1.00  0.00     0.031 C 
ATOM     54  C   UNL A   1      42.454  32.652  30.249  1.00  0.00     0.029 A 
ATOM     55  C   UNL A   1      43.164  31.708  29.524  1.00  0.00     0.049 A 
ATOM     56  H   UNL A   1      42.548  29.806  28.859  1.00  0.00     0.167 HD
ATOM     57  C   UNL A   1      45.122  30.845  28.267  1.00  0.00     0.074 A 
ATOM     58  C   UNL A   1      46.461  30.976  27.726  1.00  0.00     0.031 C 
ATOM     59  C   UNL A   1      44.515  31.790  29.028  1.00  0.00     0.034 A 
BRANCH  46  60
ATOM     60  C   UNL A   1      38.704  30.393  30.619  1.00  0.00     0.023 A 
ATOM     61  C   UNL A   1      38.495  30.126  31.987  1.00  0.00     0.012 A 
ATOM     62  C   UNL A   1      37.714  31.077  29.889  1.00  0.00     0.148 A 
ATOM     63  C   UNL A   1      37.303  30.499  32.610  1.00  0.00     0.002 A 
ATOM     64  C   UNL A   1      36.550  31.488  30.526  1.00  0.00     0.091 A 
ATOM     65  F   UNL A   1      37.919  31.296  28.582  1.00  0.00    -0.205 F 
ATOM     66  C   UNL A   1      36.336  31.188  31.882  1.00  0.00     0.022 A 
BRANCH  64  67
ATOM     67  S   UNL A   1      35.279  32.447  29.696  1.00  0.00     0.127 S 
ATOM     68  O   UNL A   1      34.334  32.691  30.785  1.00  0.00    -0.237 OA
ATOM     69  O   UNL A   1      36.024  33.628  29.258  1.00  0.00    -0.237 OA
ATOM     70  O   UNL A   1      34.782  31.607  28.616  1.00  0.00    -0.744 OA
ENDBRANCH  64  67
ENDBRANCH  46  60
BRANCH  47  71
ATOM     71  C   UNL A   1      46.883  27.271  25.749  1.00  0.00     0.023 A 
ATOM     72  C   UNL A   1      47.856  26.497  26.412  1.00  0.00     0.012 A 
ATOM     73  C   UNL A   1      47.086  27.617  24.400  1.00  0.00     0.148 A 
ATOM     74  C   UNL A   1      49.025  26.109  25.758  1.00  0.00     0.002 A 
ATOM     75  C   UNL A   1      48.229  27.183  23.738  1.00  0.00     0.091 A 
ATOM     76  F   UNL A   1      46.156  28.365  23.790  1.00  0.00    -0.205 F 
ATOM     77  C   UNL A   1      49.208  26.445  24.420  1.00  0.00     0.022 A 
BRANCH  75  78
ATOM     78  S   UNL A   1      48.500  27.473  21.986  1.00  0.00     0.127 S 
ATOM     79  O   UNL A   1      47.289  28.197  21.610  1.00  0.00    -0.237 OA
ATOM     80  O   UNL A   1      49.721  28.279  22.001  1.00  0.00    -0.237 OA
ATOM     81  O   UNL A   1      48.657  26.153  21.388  1.00  0.00    -0.744 OA
ENDBRANCH  75  78
ENDBRANCH  47  71
BRANCH  59  82
ATOM     82  C   UNL A   1      45.309  33.020  29.385  1.00  0.00     0.023 A 
ATOM     83  C   UNL A   1      46.112  33.037  30.543  1.00  0.00     0.012 A 
ATOM     84  C   UNL A   1      45.311  34.136  28.526  1.00  0.00     0.148 A 
ATOM     85  C   UNL A   1      46.871  34.163  30.860  1.00  0.00     0.002 A 
ATOM     86  C   UNL A   1      46.112  35.232  28.820  1.00  0.00     0.091 A 
ATOM     87  F   UNL A   1      44.527  34.109  27.438  1.00  0.00    -0.205 F 
ATOM     88  C   UNL A   1      46.880  35.254  29.994  1.00  0.00     0.022 A 
BRANCH  86  89
ATOM     89  S   UNL A   1      46.267  36.630  27.702  1.00  0.00     0.127 S 
ATOM     90  O   UNL A   1      47.266  37.449  28.386  1.00  0.00    -0.237 OA
ATOM     91  O   UNL A   1      46.739  35.996  26.471  1.00  0.00    -0.237 OA
ATOM     92  O   UNL A   1      44.936  37.213  27.605  1.00  0.00    -0.744 OA
ENDBRANCH  86  89
ENDBRANCH  59  82
ENDBRANCH  33  34
ENDBRANCH  26  28
ENDBRANCH  25  26
ENDBRANCH  24  25
ENDBRANCH   1  24
TORSDOF 19
ENDMDL
MODEL 2
REMARK VINA RESULT:     -12.0      1.800      7.755
REMARK SMILES O=C(C[S@](=O)c1c([N+](=O)[O-])cc(C(F)(F)F)cc1[N+](=O)[O-])OCCOC(=O)c1ccc(-c2c3nc(c(-c4cccc(S(=O)(=O)[O-])c4F)c4ccc([nH]4)c(-c4cccc(S(=O)(=O)[O-])c4F)c4nc(c(-c5cccc(S(=O)(=O)[O-])c5F)c5ccc2[nH]5)C=C4)C=C3)cc1
REMARK SMILES IDX 23 1 22 2 2 3 1 4 3 5 4 6 5 7 6 8 7 9 18 10 11 11 17 12
REMARK SMILES IDX 12 13 8 14 9 15 10 16 19 17 20 18 21 19 13 20 14 21 15 22
REMARK SMILES IDX 16 23 24 24 25 25 26 26 27 27 28 28 29 29 90 30 30 31 89 32
REMARK SMILES IDX 31 33 32 34 33 35 83 36 34 37 88 38 82 39 84 40 35 41 87 42
REMARK SMILES IDX 81 43 80 44 36 46 68 47 48 48 67 49 49 50 52 51 66 52 85 53
REMARK SMILES IDX 50 54 51 55 65 57 86 58 53 59 37 60 38 61 46 62 39 63 41 64
REMARK SMILES IDX 47 65 40 66 42 67 43 68 44 69 45 70 69 71 70 72 78 73 71 74
REMARK SMILES IDX 73 75 79 76 72 77 74 78 75 79 76 80 77 81 54 82 55 83 63 84
REMARK SMILES IDX 56 85 58 86 64 87 57 88 59 89 60 90 61 91 62 92
REMARK H PARENT 84 45 52 56
REMARK Flexibility Score: inf
ROOT
ATOM      1  C   UNL A   1      36.033  21.196  25.419  1.00  0.00     0.274 C 
ENDROOT
BRANCH   1   2
ATOM      2  O   UNL A   1      35.344  21.655  24.232  1.00  0.00    -0.461 OA
BRANCH   2   3
ATOM      3  C   UNL A   1      35.378  22.918  23.741  1.00  0.00     0.319 C 
ATOM      4  O   UNL A   1      36.197  23.219  22.877  1.00  0.00    -0.251 OA
BRANCH   3   5
ATOM      5  C   UNL A   1      34.354  23.893  24.204  1.00  0.00     0.233 C 
BRANCH   5   6
ATOM      6  S   UNL A   1      32.619  23.534  23.850  1.00  0.00     0.078 S 
ATOM      7  O   UNL A   1      32.670  22.953  22.466  1.00  0.00    -0.253 OA
BRANCH   6   8
ATOM      8  C   UNL A   1      31.755  25.125  23.608  1.00  0.00     0.194 A 
ATOM      9  C   UNL A   1      30.919  25.648  24.620  1.00  0.00     0.293 A 
ATOM     10  C   UNL A   1      31.896  25.956  22.482  1.00  0.00     0.293 A 
ATOM     11  C   UNL A   1      30.098  26.783  24.428  1.00  0.00     0.100 A 
ATOM     12  C   UNL A   1      31.048  27.070  22.255  1.00  0.00     0.100 A 
ATOM     13  C   UNL A   1      30.114  27.471  23.215  1.00  0.00     0.069 A 
BRANCH   9  14
ATOM     14  N   UNL A   1      31.048  25.226  26.016  1.00  0.00     0.064 N 
ATOM     15  O   UNL A   1      30.206  24.417  26.431  1.00  0.00    -0.258 OA
ATOM     16  O   UNL A   1      31.860  25.854  26.708  1.00  0.00    -0.258 OA
ENDBRANCH   9  14
BRANCH  10  17
ATOM     17  N   UNL A   1      33.075  25.887  21.614  1.00  0.00     0.064 N 
ATOM     18  O   UNL A   1      32.906  25.460  20.466  1.00  0.00    -0.258 OA
ATOM     19  O   UNL A   1      34.130  26.340  22.070  1.00  0.00    -0.258 OA
ENDBRANCH  10  17
BRANCH  13  20
ATOM     20  C   UNL A   1      29.271  28.711  23.017  1.00  0.00     0.416 C 
ATOM     21  F   UNL A   1      29.255  29.135  21.726  1.00  0.00    -0.166 F 
ATOM     22  F   UNL A   1      27.975  28.507  23.369  1.00  0.00    -0.166 F 
ATOM     23  F   UNL A   1      29.705  29.767  23.755  1.00  0.00    -0.166 F 
ENDBRANCH  13  20
ENDBRANCH   6   8
ENDBRANCH   5   6
ENDBRANCH   3   5
ENDBRANCH   2   3
ENDBRANCH   1   2
BRANCH   1  24
ATOM     24  C   UNL A   1      37.366  20.530  25.079  1.00  0.00     0.275 C 
BRANCH  24  25
ATOM     25  O   UNL A   1      38.413  21.509  25.113  1.00  0.00    -0.458 OA
BRANCH  25  26
ATOM     26  C   UNL A   1      39.426  21.240  25.978  1.00  0.00     0.338 C 
ATOM     27  O   UNL A   1      40.081  20.218  26.032  1.00  0.00    -0.246 OA
BRANCH  26  28
ATOM     28  C   UNL A   1      39.763  22.483  26.702  1.00  0.00     0.060 A 
ATOM     29  C   UNL A   1      39.023  23.634  26.402  1.00  0.00     0.016 A 
ATOM     30  C   UNL A   1      40.782  22.521  27.659  1.00  0.00     0.016 A 
ATOM     31  C   UNL A   1      39.346  24.844  27.009  1.00  0.00     0.010 A 
ATOM     32  C   UNL A   1      41.110  23.735  28.263  1.00  0.00     0.010 A 
ATOM     33  C   UNL A   1      40.429  24.908  27.893  1.00  0.00    -0.014 A 
BRANCH  33  34
ATOM     34  C   UNL A   1      41.023  26.229  28.199  1.00  0.00     0.031 A 
ATOM     35  C   UNL A   1      42.401  26.510  27.664  1.00  0.00     0.074 A 
ATOM     36  C   UNL A   1      40.357  27.156  28.908  1.00  0.00     0.049 A 
ATOM     37  N   UNL A   1      43.119  27.598  27.745  1.00  0.00    -0.248 NA
ATOM     38  C   UNL A   1      43.063  25.409  26.938  1.00  0.00     0.031 C 
ATOM     39  C   UNL A   1      39.022  26.991  29.479  1.00  0.00     0.029 A 
ATOM     40  N   UNL A   1      40.729  28.423  29.277  1.00  0.00    -0.354 N 
ATOM     41  C   UNL A   1      44.318  27.307  27.105  1.00  0.00     0.074 A 
ATOM     42  C   UNL A   1      44.243  25.935  26.658  1.00  0.00     0.031 C 
ATOM     43  C   UNL A   1      38.692  28.113  30.143  1.00  0.00     0.029 A 
ATOM     44  C   UNL A   1      39.795  29.069  30.050  1.00  0.00     0.049 A 
ATOM     45  H   UNL A   1      41.585  28.831  29.013  1.00  0.00     0.167 HD
ATOM     46  C   UNL A   1      45.381  28.115  26.890  1.00  0.00     0.034 A 
ATOM     47  C   UNL A   1      39.835  30.291  30.615  1.00  0.00     0.034 A 
ATOM     48  C   UNL A   1      45.446  29.479  27.330  1.00  0.00     0.049 A 
ATOM     49  C   UNL A   1      41.037  31.171  30.366  1.00  0.00     0.074 A 
ATOM     50  C   UNL A   1      46.457  30.402  27.132  1.00  0.00     0.029 A 
ATOM     51  N   UNL A   1      44.461  30.114  28.071  1.00  0.00    -0.354 N 
ATOM     52  N   UNL A   1      42.108  30.927  29.649  1.00  0.00    -0.248 NA
ATOM     53  C   UNL A   1      41.011  32.512  30.968  1.00  0.00     0.031 C 
ATOM     54  C   UNL A   1      46.097  31.585  27.785  1.00  0.00     0.029 A 
ATOM     55  C   UNL A   1      44.843  31.412  28.350  1.00  0.00     0.049 A 
ATOM     56  H   UNL A   1      43.615  29.700  28.357  1.00  0.00     0.167 HD
ATOM     57  C   UNL A   1      42.857  32.100  29.669  1.00  0.00     0.074 A 
ATOM     58  C   UNL A   1      42.110  33.056  30.461  1.00  0.00     0.031 C 
ATOM     59  C   UNL A   1      44.055  32.365  29.089  1.00  0.00     0.034 A 
BRANCH  46  60
ATOM     60  C   UNL A   1      46.552  27.536  26.141  1.00  0.00     0.023 A 
ATOM     61  C   UNL A   1      46.621  27.657  24.738  1.00  0.00     0.012 A 
ATOM     62  C   UNL A   1      47.597  26.892  26.831  1.00  0.00     0.148 A 
ATOM     63  C   UNL A   1      47.692  27.113  24.030  1.00  0.00     0.002 A 
ATOM     64  C   UNL A   1      48.684  26.395  26.124  1.00  0.00     0.091 A 
ATOM     65  F   UNL A   1      47.499  26.762  28.162  1.00  0.00    -0.205 F 
ATOM     66  C   UNL A   1      48.727  26.491  24.723  1.00  0.00     0.022 A 
BRANCH  64  67
ATOM     67  S   UNL A   1      50.102  25.646  26.932  1.00  0.00     0.127 S 
ATOM     68  O   UNL A   1      51.003  25.424  25.801  1.00  0.00    -0.237 OA
ATOM     69  O   UNL A   1      50.524  26.703  27.850  1.00  0.00    -0.237 OA
ATOM     70  O   UNL A   1      49.606  24.440  27.579  1.00  0.00    -0.744 OA
ENDBRANCH  64  67
ENDBRANCH  46  60
BRANCH  47  71
ATOM     71  C   UNL A   1      38.682  30.787  31.420  1.00  0.00     0.023 A 
ATOM     72  C   UNL A   1      38.692  30.628  32.819  1.00  0.00     0.012 A 
ATOM     73  C   UNL A   1      37.578  31.410  30.808  1.00  0.00     0.148 A 
ATOM     74  C   UNL A   1      37.607  31.046  33.591  1.00  0.00     0.002 A 
ATOM     75  C   UNL A   1      36.524  31.872  31.588  1.00  0.00     0.091 A 
ATOM     76  F   UNL A   1      37.582  31.540  29.474  1.00  0.00    -0.205 F 
ATOM     77  C   UNL A   1      36.528  31.674  32.977  1.00  0.00     0.022 A 
BRANCH  75  78
ATOM     78  S   UNL A   1      35.142  32.790  30.899  1.00  0.00     0.127 S 
ATOM     79  O   UNL A   1      35.769  34.063  30.555  1.00  0.00    -0.237 OA
ATOM     80  O   UNL A   1      34.769  31.957  29.756  1.00  0.00    -0.237 OA
ATOM     81  O   UNL A   1      34.141  32.846  31.956  1.00  0.00    -0.744 OA
ENDBRANCH  75  78
ENDBRANCH  47  71
BRANCH  59  82
ATOM     82  C   UNL A   1      44.607  33.760  29.226  1.00  0.00     0.023 A 
ATOM     83  C   UNL A   1      44.281  34.750  28.278  1.00  0.00     0.012 A 
ATOM     84  C   UNL A   1      45.394  34.105  30.342  1.00  0.00     0.148 A 
ATOM     85  C   UNL A   1      44.766  36.051  28.418  1.00  0.00     0.002 A 
ATOM     86  C   UNL A   1      45.828  35.414  30.504  1.00  0.00     0.091 A 
ATOM     87  F   UNL A   1      45.709  33.146  31.226  1.00  0.00    -0.205 F 
ATOM     88  C   UNL A   1      45.528  36.385  29.535  1.00  0.00     0.022 A 
BRANCH  86  89
ATOM     89  S   UNL A   1      46.718  35.952  31.969  1.00  0.00     0.127 S 
ATOM     90  O   UNL A   1      46.909  37.376  31.695  1.00  0.00    -0.237 OA
ATOM     91  O   UNL A   1      45.765  35.660  33.040  1.00  0.00    -0.237 OA
ATOM     92  O   UNL A   1      47.934  35.153  32.013  1.00  0.00    -0.744 OA
ENDBRANCH  86  89
ENDBRANCH  59  82
ENDBRANCH  33  34
ENDBRANCH  26  28
ENDBRANCH  25  26
ENDBRANCH  24  25
ENDBRANCH   1  24
TORSDOF 19
ENDMDL
MODEL 3
REMARK VINA RESULT:     -11.8      1.745      2.641
REMARK SMILES O=C(C[S@](=O)c1c([N+](=O)[O-])cc(C(F)(F)F)cc1[N+](=O)[O-])OCCOC(=O)c1ccc(-c2c3nc(c(-c4cccc(S(=O)(=O)[O-])c4F)c4ccc([nH]4)c(-c4cccc(S(=O)(=O)[O-])c4F)c4nc(c(-c5cccc(S(=O)(=O)[O-])c5F)c5ccc2[nH]5)C=C4)C=C3)cc1
REMARK SMILES IDX 23 1 22 2 2 3 1 4 3 5 4 6 5 7 6 8 7 9 18 10 11 11 17 12
REMARK SMILES IDX 12 13 8 14 9 15 10 16 19 17 20 18 21 19 13 20 14 21 15 22
REMARK SMILES IDX 16 23 24 24 25 25 26 26 27 27 28 28 29 29 90 30 30 31 89 32
REMARK SMILES IDX 31 33 32 34 33 35 83 36 34 37 88 38 82 39 84 40 35 41 87 42
REMARK SMILES IDX 81 43 80 44 36 46 68 47 48 48 67 49 49 50 52 51 66 52 85 53
REMARK SMILES IDX 50 54 51 55 65 57 86 58 53 59 37 60 38 61 46 62 39 63 41 64
REMARK SMILES IDX 47 65 40 66 42 67 43 68 44 69 45 70 69 71 70 72 78 73 71 74
REMARK SMILES IDX 73 75 79 76 72 77 74 78 75 79 76 80 77 81 54 82 55 83 63 84
REMARK SMILES IDX 56 85 58 86 64 87 57 88 59 89 60 90 61 91 62 92
REMARK H PARENT 84 45 52 56
REMARK Flexibility Score: inf
ROOT
ATOM      1  C   UNL A   1      36.060  19.904  24.973  1.00  0.00     0.274 C 
ENDROOT
BRANCH   1   2
ATOM      2  O   UNL A   1      35.102  20.902  24.549  1.00  0.00    -0.461 OA
BRANCH   2   3
ATOM      3  C   UNL A   1      33.789  20.927  24.886  1.00  0.00     0.319 C 
ATOM      4  O   UNL A   1      32.930  20.764  24.024  1.00  0.00    -0.251 OA
BRANCH   3   5
ATOM      5  C   UNL A   1      33.423  21.066  26.322  1.00  0.00     0.233 C 
BRANCH   5   6
ATOM      6  S   UNL A   1      33.592  22.693  27.088  1.00  0.00     0.078 S 
ATOM      7  O   UNL A   1      32.803  22.550  28.359  1.00  0.00    -0.253 OA
BRANCH   6   8
ATOM      8  C   UNL A   1      32.605  23.879  26.110  1.00  0.00     0.194 A 
ATOM      9  C   UNL A   1      33.233  24.740  25.182  1.00  0.00     0.293 A 
ATOM     10  C   UNL A   1      31.203  23.983  26.145  1.00  0.00     0.293 A 
ATOM     11  C   UNL A   1      32.551  25.787  24.522  1.00  0.00     0.100 A 
ATOM     12  C   UNL A   1      30.510  25.054  25.525  1.00  0.00     0.100 A 
ATOM     13  C   UNL A   1      31.188  25.989  24.737  1.00  0.00     0.069 A 
BRANCH   9  14
ATOM     14  N   UNL A   1      34.556  24.440  24.631  1.00  0.00     0.064 N 
ATOM     15  O   UNL A   1      35.530  24.695  25.353  1.00  0.00    -0.258 OA
ATOM     16  O   UNL A   1      34.596  24.141  23.430  1.00  0.00    -0.258 OA
ENDBRANCH   9  14
BRANCH  10  17
ATOM     17  N   UNL A   1      30.358  22.871  26.589  1.00  0.00     0.064 N 
ATOM     18  O   UNL A   1      29.702  23.040  27.623  1.00  0.00    -0.258 OA
ATOM     19  O   UNL A   1      30.300  21.884  25.848  1.00  0.00    -0.258 OA
ENDBRANCH  10  17
BRANCH  13  20
ATOM     20  C   UNL A   1      30.441  27.079  24.001  1.00  0.00     0.416 C 
ATOM     21  F   UNL A   1      30.850  28.327  24.353  1.00  0.00    -0.166 F 
ATOM     22  F   UNL A   1      30.606  26.989  22.655  1.00  0.00    -0.166 F 
ATOM     23  F   UNL A   1      29.100  27.045  24.224  1.00  0.00    -0.166 F 
ENDBRANCH  13  20
ENDBRANCH   6   8
ENDBRANCH   5   6
ENDBRANCH   3   5
ENDBRANCH   2   3
ENDBRANCH   1   2
BRANCH   1  24
ATOM     24  C   UNL A   1      37.493  20.312  24.628  1.00  0.00     0.275 C 
BRANCH  24  25
ATOM     25  O   UNL A   1      37.936  21.324  25.542  1.00  0.00    -0.458 OA
BRANCH  25  26
ATOM     26  C   UNL A   1      39.154  21.101  26.103  1.00  0.00     0.338 C 
ATOM     27  O   UNL A   1      39.830  20.099  25.992  1.00  0.00    -0.246 OA
BRANCH  26  28
ATOM     28  C   UNL A   1      39.635  22.369  26.691  1.00  0.00     0.060 A 
ATOM     29  C   UNL A   1      38.964  23.547  26.339  1.00  0.00     0.016 A 
ATOM     30  C   UNL A   1      40.720  22.403  27.572  1.00  0.00     0.016 A 
ATOM     31  C   UNL A   1      39.421  24.773  26.814  1.00  0.00     0.010 A 
ATOM     32  C   UNL A   1      41.181  23.633  28.044  1.00  0.00     0.010 A 
ATOM     33  C   UNL A   1      40.567  24.822  27.616  1.00  0.00    -0.014 A 
BRANCH  33  34
ATOM     34  C   UNL A   1      41.279  26.110  27.764  1.00  0.00     0.031 A 
ATOM     35  C   UNL A   1      40.580  27.207  28.523  1.00  0.00     0.074 A 
ATOM     36  C   UNL A   1      42.511  26.299  27.263  1.00  0.00     0.049 A 
ATOM     37  N   UNL A   1      41.001  28.402  28.835  1.00  0.00    -0.248 NA
ATOM     38  C   UNL A   1      39.212  26.913  28.992  1.00  0.00     0.031 C 
ATOM     39  C   UNL A   1      43.281  25.311  26.507  1.00  0.00     0.029 A 
ATOM     40  N   UNL A   1      43.326  27.400  27.308  1.00  0.00    -0.354 N 
ATOM     41  C   UNL A   1      39.950  29.007  29.513  1.00  0.00     0.074 A 
ATOM     42  C   UNL A   1      38.861  28.059  29.549  1.00  0.00     0.031 C 
ATOM     43  C   UNL A   1      44.454  25.860  26.145  1.00  0.00     0.029 A 
ATOM     44  C   UNL A   1      44.512  27.237  26.635  1.00  0.00     0.049 A 
ATOM     45  H   UNL A   1      43.084  28.230  27.779  1.00  0.00     0.167 HD
ATOM     46  C   UNL A   1      39.900  30.238  30.073  1.00  0.00     0.034 A 
ATOM     47  C   UNL A   1      45.523  28.106  26.439  1.00  0.00     0.034 A 
ATOM     48  C   UNL A   1      40.989  31.172  30.039  1.00  0.00     0.049 A 
ATOM     49  C   UNL A   1      45.440  29.476  27.069  1.00  0.00     0.074 A 
ATOM     50  C   UNL A   1      41.062  32.431  30.609  1.00  0.00     0.029 A 
ATOM     51  N   UNL A   1      42.192  30.954  29.387  1.00  0.00    -0.354 N 
ATOM     52  N   UNL A   1      44.492  29.988  27.817  1.00  0.00    -0.248 NA
ATOM     53  C   UNL A   1      46.589  30.370  26.863  1.00  0.00     0.031 C 
ATOM     54  C   UNL A   1      42.299  32.987  30.269  1.00  0.00     0.029 A 
ATOM     55  C   UNL A   1      43.012  32.058  29.528  1.00  0.00     0.049 A 
ATOM     56  H   UNL A   1      42.427  30.135  28.895  1.00  0.00     0.167 HD
ATOM     57  C   UNL A   1      44.952  31.239  28.216  1.00  0.00     0.074 A 
ATOM     58  C   UNL A   1      46.269  31.402  27.633  1.00  0.00     0.031 C 
ATOM     59  C   UNL A   1      44.343  32.172  28.990  1.00  0.00     0.034 A 
BRANCH  46  60
ATOM     60  C   UNL A   1      38.625  30.631  30.771  1.00  0.00     0.023 A 
ATOM     61  C   UNL A   1      38.454  30.341  32.140  1.00  0.00     0.012 A 
ATOM     62  C   UNL A   1      37.607  31.308  30.076  1.00  0.00     0.148 A 
ATOM     63  C   UNL A   1      37.272  30.685  32.797  1.00  0.00     0.002 A 
ATOM     64  C   UNL A   1      36.452  31.691  30.747  1.00  0.00     0.091 A 
ATOM     65  F   UNL A   1      37.776  31.549  28.768  1.00  0.00    -0.205 F 
ATOM     66  C   UNL A   1      36.277  31.369  32.103  1.00  0.00     0.022 A 
BRANCH  64  67
ATOM     67  S   UNL A   1      35.147  32.641  29.962  1.00  0.00     0.127 S 
ATOM     68  O   UNL A   1      35.863  33.850  29.558  1.00  0.00    -0.237 OA
ATOM     69  O   UNL A   1      34.754  31.767  28.857  1.00  0.00    -0.237 OA
ATOM     70  O   UNL A   1      34.122  32.834  30.978  1.00  0.00    -0.744 OA
ENDBRANCH  64  67
ENDBRANCH  46  60
BRANCH  47  71
ATOM     71  C   UNL A   1      46.731  27.695  25.667  1.00  0.00     0.023 A 
ATOM     72  C   UNL A   1      46.762  27.888  24.272  1.00  0.00     0.012 A 
ATOM     73  C   UNL A   1      47.843  27.114  26.304  1.00  0.00     0.148 A 
ATOM     74  C   UNL A   1      47.863  27.474  23.520  1.00  0.00     0.002 A 
ATOM     75  C   UNL A   1      48.958  26.753  25.557  1.00  0.00     0.091 A 
ATOM     76  F   UNL A   1      47.788  26.928  27.630  1.00  0.00    -0.205 F 
ATOM     77  C   UNL A   1      48.963  26.914  24.163  1.00  0.00     0.022 A 
BRANCH  75  78
ATOM     78  S   UNL A   1      50.464  26.126  26.310  1.00  0.00     0.127 S 
ATOM     79  O   UNL A   1      51.333  25.958  25.148  1.00  0.00    -0.237 OA
ATOM     80  O   UNL A   1      50.833  27.224  27.203  1.00  0.00    -0.237 OA
ATOM     81  O   UNL A   1      50.081  24.897  26.993  1.00  0.00    -0.744 OA
ENDBRANCH  75  78
ENDBRANCH  47  71
BRANCH  59  82
ATOM     82  C   UNL A   1      45.114  33.426  29.314  1.00  0.00     0.023 A 
ATOM     83  C   UNL A   1      45.950  33.474  30.447  1.00  0.00     0.012 A 
ATOM     84  C   UNL A   1      45.061  34.535  28.446  1.00  0.00     0.148 A 
ATOM     85  C   UNL A   1      46.688  34.623  30.733  1.00  0.00     0.002 A 
ATOM     86  C   UNL A   1      45.841  35.654  28.708  1.00  0.00     0.091 A 
ATOM     87  F   UNL A   1      44.247  34.478  27.382  1.00  0.00    -0.205 F 
ATOM     88  C   UNL A   1      46.642  35.706  29.859  1.00  0.00     0.022 A 
BRANCH  86  89
ATOM     89  S   UNL A   1      45.925  37.046  27.575  1.00  0.00     0.127 S 
ATOM     90  O   UNL A   1      44.561  37.566  27.640  1.00  0.00    -0.237 OA
ATOM     91  O   UNL A   1      46.934  37.900  28.204  1.00  0.00    -0.237 OA
ATOM     92  O   UNL A   1      46.326  36.491  26.290  1.00  0.00    -0.744 OA
ENDBRANCH  86  89
ENDBRANCH  59  82
ENDBRANCH  33  34
ENDBRANCH  26  28
ENDBRANCH  25  26
ENDBRANCH  24  25
ENDBRANCH   1  24
TORSDOF 19
ENDMDL
