MODEL 1
REMARK VINA RESULT:     -12.3      0.000      0.000
REMARK SMILES N#Cc1cccnc1N1CC[NH+]([C@@H](C(=O)OCCOC(=O)c2ccc(-c3c4nc(c(-c5cccc(S(=O)(=O)[O-])c5F)c5ccc([nH]5)c(-c5cccc(S(=O)(=O)[O-])c5F)c5nc(c(-c6cccc(S(=O)(=O)[O-])c6F)c6ccc3[nH]6)C=C5)C=C4)cc2)c2c[nH]c3cc(CO)ccc23)CC1
REMARK SMILES IDX 17 1 16 2 14 3 15 4 13 5 12 6 9 7 10 8 97 9 11 10 96 11 8 13
REMARK SMILES IDX 3 14 4 15 5 16 7 17 6 18 2 19 1 20 85 21 86 22 95 23 87 24
REMARK SMILES IDX 88 25 94 26 89 28 93 29 90 30 91 31 92 32 18 34 19 35 20 36
REMARK SMILES IDX 21 37 22 38 23 39 84 40 24 41 83 42 25 43 26 44 27 45 77 46
REMARK SMILES IDX 28 47 82 48 76 49 78 50 29 51 81 52 75 53 74 54 30 56 62 57
REMARK SMILES IDX 42 58 61 59 43 60 46 61 60 62 79 63 44 64 45 65 59 67 80 68
REMARK SMILES IDX 47 69 31 70 32 71 40 72 33 73 35 74 41 75 34 76 36 77 37 78
REMARK SMILES IDX 38 79 39 80 63 81 64 82 72 83 65 84 67 85 73 86 66 87 68 88
REMARK SMILES IDX 69 89 70 90 71 91 48 92 49 93 57 94 50 95 52 96 58 97 51 98
REMARK SMILES IDX 53 99 54 100 55 101 56 102
REMARK H PARENT 12 12 87 27 92 33 78 55 46 66
REMARK Flexibility Score: inf
ROOT
ATOM      1  C   UNL A   1      35.707  23.671  25.207  1.00  0.00     0.274 C 
ENDROOT
BRANCH   1   2
ATOM      2  O   UNL A   1      34.442  23.780  24.507  1.00  0.00    -0.457 OA
BRANCH   2   3
ATOM      3  C   UNL A   1      34.344  23.302  23.243  1.00  0.00     0.370 C 
ATOM      4  O   UNL A   1      35.301  23.287  22.469  1.00  0.00    -0.245 OA
BRANCH   3   5
ATOM      5  C   UNL A   1      32.909  22.935  22.809  1.00  0.00     0.328 C 
BRANCH   5   6
ATOM      6  N   UNL A   1      32.058  24.037  22.201  1.00  0.00    -0.316 N 
ATOM      7  N   UNL A   1      32.293  26.525  23.752  1.00  0.00    -0.344 N 
ATOM      8  C   UNL A   1      31.610  25.344  24.254  1.00  0.00     0.179 C 
ATOM      9  C   UNL A   1      33.057  26.464  22.498  1.00  0.00     0.179 C 
ATOM     10  C   UNL A   1      31.023  24.630  23.048  1.00  0.00     0.285 C 
ATOM     11  C   UNL A   1      32.798  25.179  21.615  1.00  0.00     0.285 C 
ATOM     12  H   UNL A   1      31.617  23.474  21.474  1.00  0.00     0.349 HD
BRANCH   7  13
ATOM     13  C   UNL A   1      32.548  27.468  24.729  1.00  0.00     0.146 A 
ATOM     14  C   UNL A   1      31.711  28.571  24.888  1.00  0.00     0.095 A 
ATOM     15  C   UNL A   1      31.853  29.373  26.026  1.00  0.00     0.025 A 
ATOM     16  C   UNL A   1      32.813  29.054  26.979  1.00  0.00     0.022 A 
ATOM     17  N   UNL A   1      33.501  27.177  25.647  1.00  0.00    -0.238 NA
ATOM     18  C   UNL A   1      33.612  27.953  26.745  1.00  0.00     0.113 A 
BRANCH  14  19
ATOM     19  C   UNL A   1      30.649  28.823  23.968  1.00  0.00     0.103 C 
ATOM     20  N   UNL A   1      29.777  29.009  23.215  1.00  0.00    -0.192 NA
ENDBRANCH  14  19
ENDBRANCH   7  13
ENDBRANCH   5   6
BRANCH   5  21
ATOM     21  C   UNL A   1      32.142  21.749  23.517  1.00  0.00     0.046 A 
ATOM     22  C   UNL A   1      31.663  21.902  24.826  1.00  0.00     0.094 A 
ATOM     23  C   UNL A   1      32.379  20.317  23.558  1.00  0.00     0.009 A 
ATOM     24  N   UNL A   1      32.658  21.216  25.532  1.00  0.00    -0.361 N 
ATOM     25  C   UNL A   1      32.973  20.088  24.800  1.00  0.00     0.046 A 
ATOM     26  C   UNL A   1      32.155  19.162  22.796  1.00  0.00     0.011 A 
ATOM     27  H   UNL A   1      33.058  21.486  26.390  1.00  0.00     0.166 HD
ATOM     28  C   UNL A   1      33.755  18.949  25.062  1.00  0.00     0.032 A 
ATOM     29  C   UNL A   1      32.735  17.939  23.125  1.00  0.00     0.007 A 
ATOM     30  C   UNL A   1      33.661  17.875  24.158  1.00  0.00    -0.021 A 
BRANCH  30  31
ATOM     31  C   UNL A   1      34.567  16.675  24.226  1.00  0.00     0.191 C 
BRANCH  31  32
ATOM     32  O   UNL A   1      35.062  16.521  25.559  1.00  0.00    -0.392 OA
ATOM     33  H   UNL A   1      34.353  16.190  26.131  1.00  0.00     0.211 HD
ENDBRANCH  31  32
ENDBRANCH  30  31
ENDBRANCH   5  21
ENDBRANCH   3   5
ENDBRANCH   2   3
ENDBRANCH   1   2
BRANCH   1  34
ATOM     34  C   UNL A   1      35.978  22.198  25.480  1.00  0.00     0.275 C 
BRANCH  34  35
ATOM     35  O   UNL A   1      37.013  22.116  26.481  1.00  0.00    -0.458 OA
BRANCH  35  36
ATOM     36  C   UNL A   1      38.205  21.790  25.946  1.00  0.00     0.338 C 
ATOM     37  O   UNL A   1      38.420  20.837  25.211  1.00  0.00    -0.246 OA
BRANCH  36  38
ATOM     38  C   UNL A   1      39.276  22.754  26.236  1.00  0.00     0.060 A 
ATOM     39  C   UNL A   1      40.130  22.483  27.311  1.00  0.00     0.016 A 
ATOM     40  C   UNL A   1      39.054  24.072  25.832  1.00  0.00     0.016 A 
ATOM     41  C   UNL A   1      40.622  23.525  28.091  1.00  0.00     0.010 A 
ATOM     42  C   UNL A   1      39.622  25.119  26.565  1.00  0.00     0.010 A 
ATOM     43  C   UNL A   1      40.368  24.853  27.727  1.00  0.00    -0.014 A 
BRANCH  43  44
ATOM     44  C   UNL A   1      41.073  25.963  28.403  1.00  0.00     0.031 A 
ATOM     45  C   UNL A   1      40.355  27.049  29.145  1.00  0.00     0.074 A 
ATOM     46  C   UNL A   1      42.393  26.029  28.160  1.00  0.00     0.049 A 
ATOM     47  N   UNL A   1      40.729  28.284  29.352  1.00  0.00    -0.248 NA
ATOM     48  C   UNL A   1      39.054  26.717  29.743  1.00  0.00     0.031 C 
ATOM     49  C   UNL A   1      43.177  24.983  27.493  1.00  0.00     0.029 A 
ATOM     50  N   UNL A   1      43.285  27.047  28.356  1.00  0.00    -0.354 N 
ATOM     51  C   UNL A   1      39.677  28.905  30.022  1.00  0.00     0.074 A 
ATOM     52  C   UNL A   1      38.665  27.893  30.232  1.00  0.00     0.031 C 
ATOM     53  C   UNL A   1      44.409  25.440  27.259  1.00  0.00     0.029 A 
ATOM     54  C   UNL A   1      44.457  26.832  27.669  1.00  0.00     0.049 A 
ATOM     55  H   UNL A   1      43.110  27.836  28.918  1.00  0.00     0.167 HD
ATOM     56  C   UNL A   1      39.594  30.202  30.413  1.00  0.00     0.034 A 
ATOM     57  C   UNL A   1      45.416  27.693  27.295  1.00  0.00     0.034 A 
ATOM     58  C   UNL A   1      40.693  31.129  30.284  1.00  0.00     0.049 A 
ATOM     59  C   UNL A   1      45.292  29.118  27.718  1.00  0.00     0.074 A 
ATOM     60  C   UNL A   1      40.777  32.434  30.739  1.00  0.00     0.029 A 
ATOM     61  N   UNL A   1      41.903  30.844  29.667  1.00  0.00    -0.354 N 
ATOM     62  N   UNL A   1      44.303  29.703  28.347  1.00  0.00    -0.248 NA
ATOM     63  C   UNL A   1      46.429  29.992  27.419  1.00  0.00     0.031 C 
ATOM     64  C   UNL A   1      42.019  32.950  30.360  1.00  0.00     0.029 A 
ATOM     65  C   UNL A   1      42.733  31.947  29.723  1.00  0.00     0.049 A 
ATOM     66  H   UNL A   1      42.134  29.983  29.250  1.00  0.00     0.167 HD
ATOM     67  C   UNL A   1      44.726  31.002  28.580  1.00  0.00     0.074 A 
ATOM     68  C   UNL A   1      46.058  31.115  28.018  1.00  0.00     0.031 C 
ATOM     69  C   UNL A   1      44.076  32.009  29.207  1.00  0.00     0.034 A 
BRANCH  56  70
ATOM     70  C   UNL A   1      38.318  30.736  31.027  1.00  0.00     0.023 A 
ATOM     71  C   UNL A   1      38.158  30.786  32.425  1.00  0.00     0.012 A 
ATOM     72  C   UNL A   1      37.353  31.363  30.205  1.00  0.00     0.148 A 
ATOM     73  C   UNL A   1      37.056  31.435  32.992  1.00  0.00     0.002 A 
ATOM     74  C   UNL A   1      36.286  32.047  30.777  1.00  0.00     0.091 A 
ATOM     75  F   UNL A   1      37.518  31.308  28.875  1.00  0.00    -0.205 F 
ATOM     76  C   UNL A   1      36.131  32.077  32.171  1.00  0.00     0.022 A 
BRANCH  74  77
ATOM     77  S   UNL A   1      35.097  32.991  29.810  1.00  0.00     0.127 S 
ATOM     78  O   UNL A   1      35.955  34.000  29.190  1.00  0.00    -0.237 OA
ATOM     79  O   UNL A   1      34.581  31.981  28.887  1.00  0.00    -0.237 OA
ATOM     80  O   UNL A   1      34.121  33.509  30.759  1.00  0.00    -0.744 OA
ENDBRANCH  74  77
ENDBRANCH  56  70
BRANCH  57  81
ATOM     81  C   UNL A   1      46.548  27.205  26.468  1.00  0.00     0.023 A 
ATOM     82  C   UNL A   1      46.518  27.409  25.078  1.00  0.00     0.012 A 
ATOM     83  C   UNL A   1      47.680  26.609  27.060  1.00  0.00     0.148 A 
ATOM     84  C   UNL A   1      47.579  26.986  24.281  1.00  0.00     0.002 A 
ATOM     85  C   UNL A   1      48.761  26.249  26.268  1.00  0.00     0.091 A 
ATOM     86  F   UNL A   1      47.689  26.439  28.390  1.00  0.00    -0.205 F 
ATOM     87  C   UNL A   1      48.703  26.415  24.877  1.00  0.00     0.022 A 
BRANCH  85  88
ATOM     88  S   UNL A   1      50.303  25.649  26.966  1.00  0.00     0.127 S 
ATOM     89  O   UNL A   1      49.883  24.392  27.579  1.00  0.00    -0.237 OA
ATOM     90  O   UNL A   1      51.139  25.505  25.773  1.00  0.00    -0.237 OA
ATOM     91  O   UNL A   1      50.749  26.687  27.885  1.00  0.00    -0.744 OA
ENDBRANCH  85  88
ENDBRANCH  57  81
BRANCH  69  92
ATOM     92  C   UNL A   1      44.835  33.287  29.414  1.00  0.00     0.023 A 
ATOM     93  C   UNL A   1      45.604  33.483  30.576  1.00  0.00     0.012 A 
ATOM     94  C   UNL A   1      44.832  34.267  28.403  1.00  0.00     0.148 A 
ATOM     95  C   UNL A   1      46.336  34.656  30.743  1.00  0.00     0.002 A 
ATOM     96  C   UNL A   1      45.612  35.404  28.549  1.00  0.00     0.091 A 
ATOM     97  F   UNL A   1      44.073  34.063  27.316  1.00  0.00    -0.205 F 
ATOM     98  C   UNL A   1      46.353  35.608  29.724  1.00  0.00     0.022 A 
BRANCH  96  99
ATOM     99  S   UNL A   1      45.778  36.630  27.249  1.00  0.00     0.127 S 
ATOM    100  O   UNL A   1      44.445  37.228  27.232  1.00  0.00    -0.237 OA
ATOM    101  O   UNL A   1      46.831  37.496  27.779  1.00  0.00    -0.237 OA
ATOM    102  O   UNL A   1      46.141  35.897  26.042  1.00  0.00    -0.744 OA
ENDBRANCH  96  99
ENDBRANCH  69  92
ENDBRANCH  43  44
ENDBRANCH  36  38
ENDBRANCH  35  36
ENDBRANCH  34  35
ENDBRANCH   1  34
TORSDOF 20
ENDMDL
MODEL 2
REMARK VINA RESULT:     -11.0      2.104      2.446
REMARK SMILES N#Cc1cccnc1N1CC[NH+]([C@@H](C(=O)OCCOC(=O)c2ccc(-c3c4nc(c(-c5cccc(S(=O)(=O)[O-])c5F)c5ccc([nH]5)c(-c5cccc(S(=O)(=O)[O-])c5F)c5nc(c(-c6cccc(S(=O)(=O)[O-])c6F)c6ccc3[nH]6)C=C5)C=C4)cc2)c2c[nH]c3cc(CO)ccc23)CC1
REMARK SMILES IDX 17 1 16 2 14 3 15 4 13 5 12 6 9 7 10 8 97 9 11 10 96 11 8 13
REMARK SMILES IDX 3 14 4 15 5 16 7 17 6 18 2 19 1 20 85 21 86 22 95 23 87 24
REMARK SMILES IDX 88 25 94 26 89 28 93 29 90 30 91 31 92 32 18 34 19 35 20 36
REMARK SMILES IDX 21 37 22 38 23 39 84 40 24 41 83 42 25 43 26 44 27 45 77 46
REMARK SMILES IDX 28 47 82 48 76 49 78 50 29 51 81 52 75 53 74 54 30 56 62 57
REMARK SMILES IDX 42 58 61 59 43 60 46 61 60 62 79 63 44 64 45 65 59 67 80 68
REMARK SMILES IDX 47 69 31 70 32 71 40 72 33 73 35 74 41 75 34 76 36 77 37 78
REMARK SMILES IDX 38 79 39 80 63 81 64 82 72 83 65 84 67 85 73 86 66 87 68 88
REMARK SMILES IDX 69 89 70 90 71 91 48 92 49 93 57 94 50 95 52 96 58 97 51 98
REMARK SMILES IDX 53 99 54 100 55 101 56 102
REMARK H PARENT 12 12 87 27 92 33 78 55 46 66
REMARK Flexibility Score: inf
ROOT
ATOM      1  C   UNL A   1      36.163  23.990  24.905  1.00  0.00     0.274 C 
ENDROOT
BRANCH   1   2
ATOM      2  O   UNL A   1      34.816  23.769  24.417  1.00  0.00    -0.457 OA
BRANCH   2   3
ATOM      3  C   UNL A   1      34.639  23.228  23.187  1.00  0.00     0.370 C 
ATOM      4  O   UNL A   1      35.540  23.193  22.349  1.00  0.00    -0.245 OA
BRANCH   3   5
ATOM      5  C   UNL A   1      33.186  22.813  22.875  1.00  0.00     0.328 C 
BRANCH   5   6
ATOM      6  N   UNL A   1      32.269  23.868  22.279  1.00  0.00    -0.316 N 
ATOM      7  N   UNL A   1      32.389  26.365  23.830  1.00  0.00    -0.344 N 
ATOM      8  C   UNL A   1      31.776  25.148  24.338  1.00  0.00     0.179 C 
ATOM      9  C   UNL A   1      33.140  26.345  22.567  1.00  0.00     0.179 C 
ATOM     10  C   UNL A   1      31.214  24.404  23.138  1.00  0.00     0.285 C 
ATOM     11  C   UNL A   1      32.940  25.049  21.685  1.00  0.00     0.285 C 
ATOM     12  H   UNL A   1      31.851  23.283  21.556  1.00  0.00     0.349 HD
BRANCH   7  13
ATOM     13  C   UNL A   1      32.603  27.319  24.805  1.00  0.00     0.146 A 
ATOM     14  C   UNL A   1      31.705  28.370  24.981  1.00  0.00     0.095 A 
ATOM     15  C   UNL A   1      31.818  29.177  26.118  1.00  0.00     0.025 A 
ATOM     16  C   UNL A   1      32.812  28.914  27.054  1.00  0.00     0.022 A 
ATOM     17  N   UNL A   1      33.588  27.084  25.706  1.00  0.00    -0.238 NA
ATOM     18  C   UNL A   1      33.671  27.863  26.804  1.00  0.00     0.113 A 
BRANCH  14  19
ATOM     19  C   UNL A   1      30.614  28.560  24.080  1.00  0.00     0.103 C 
ATOM     20  N   UNL A   1      29.720  28.695  23.342  1.00  0.00    -0.192 NA
ENDBRANCH  14  19
ENDBRANCH   7  13
ENDBRANCH   5   6
BRANCH   5  21
ATOM     21  C   UNL A   1      32.497  21.649  23.692  1.00  0.00     0.046 A 
ATOM     22  C   UNL A   1      32.394  21.734  25.088  1.00  0.00     0.094 A 
ATOM     23  C   UNL A   1      32.570  20.203  23.585  1.00  0.00     0.009 A 
ATOM     24  N   UNL A   1      33.453  20.897  25.462  1.00  0.00    -0.361 N 
ATOM     25  C   UNL A   1      33.435  19.812  24.608  1.00  0.00     0.046 A 
ATOM     26  C   UNL A   1      32.026  19.145  22.844  1.00  0.00     0.011 A 
ATOM     27  H   UNL A   1      34.089  21.053  26.197  1.00  0.00     0.166 HD
ATOM     28  C   UNL A   1      34.122  18.585  24.585  1.00  0.00     0.032 A 
ATOM     29  C   UNL A   1      32.527  17.848  22.935  1.00  0.00     0.007 A 
ATOM     30  C   UNL A   1      33.675  17.607  23.678  1.00  0.00    -0.021 A 
BRANCH  30  31
ATOM     31  C   UNL A   1      34.423  16.325  23.432  1.00  0.00     0.191 C 
BRANCH  31  32
ATOM     32  O   UNL A   1      34.658  15.658  24.675  1.00  0.00    -0.392 OA
ATOM     33  H   UNL A   1      35.460  16.015  25.087  1.00  0.00     0.211 HD
ENDBRANCH  31  32
ENDBRANCH  30  31
ENDBRANCH   5  21
ENDBRANCH   3   5
ENDBRANCH   2   3
ENDBRANCH   1   2
BRANCH   1  34
ATOM     34  C   UNL A   1      36.453  22.962  25.990  1.00  0.00     0.275 C 
BRANCH  34  35
ATOM     35  O   UNL A   1      37.552  23.455  26.784  1.00  0.00    -0.458 OA
BRANCH  35  36
ATOM     36  C   UNL A   1      38.717  22.874  26.443  1.00  0.00     0.338 C 
ATOM     37  O   UNL A   1      38.843  21.773  25.927  1.00  0.00    -0.246 OA
BRANCH  36  38
ATOM     38  C   UNL A   1      39.896  23.728  26.651  1.00  0.00     0.060 A 
ATOM     39  C   UNL A   1      40.719  23.455  27.750  1.00  0.00     0.016 A 
ATOM     40  C   UNL A   1      39.827  25.022  26.132  1.00  0.00     0.016 A 
ATOM     41  C   UNL A   1      41.334  24.497  28.438  1.00  0.00     0.010 A 
ATOM     42  C   UNL A   1      40.518  26.057  26.772  1.00  0.00     0.010 A 
ATOM     43  C   UNL A   1      41.235  25.809  27.957  1.00  0.00    -0.014 A 
BRANCH  43  44
ATOM     44  C   UNL A   1      42.068  26.884  28.535  1.00  0.00     0.031 A 
ATOM     45  C   UNL A   1      41.491  28.040  29.294  1.00  0.00     0.074 A 
ATOM     46  C   UNL A   1      43.365  26.847  28.185  1.00  0.00     0.049 A 
ATOM     47  N   UNL A   1      41.966  29.250  29.427  1.00  0.00    -0.248 NA
ATOM     48  C   UNL A   1      40.224  27.820  30.005  1.00  0.00     0.031 C 
ATOM     49  C   UNL A   1      44.017  25.728  27.495  1.00  0.00     0.029 A 
ATOM     50  N   UNL A   1      44.339  27.803  28.274  1.00  0.00    -0.354 N 
ATOM     51  C   UNL A   1      41.019  29.965  30.157  1.00  0.00     0.074 A 
ATOM     52  C   UNL A   1      39.959  29.035  30.482  1.00  0.00     0.031 C 
ATOM     53  C   UNL A   1      45.255  26.088  27.148  1.00  0.00     0.029 A 
ATOM     54  C   UNL A   1      45.433  27.484  27.504  1.00  0.00     0.049 A 
ATOM     55  H   UNL A   1      44.266  28.619  28.821  1.00  0.00     0.167 HD
ATOM     56  C   UNL A   1      41.059  31.275  30.509  1.00  0.00     0.034 A 
ATOM     57  C   UNL A   1      46.416  28.262  27.024  1.00  0.00     0.034 A 
ATOM     58  C   UNL A   1      42.205  32.116  30.260  1.00  0.00     0.049 A 
ATOM     59  C   UNL A   1      46.427  29.704  27.406  1.00  0.00     0.074 A 
ATOM     60  C   UNL A   1      42.417  33.424  30.661  1.00  0.00     0.029 A 
ATOM     61  N   UNL A   1      43.337  31.727  29.558  1.00  0.00    -0.354 N 
ATOM     62  N   UNL A   1      45.536  30.377  28.091  1.00  0.00    -0.248 NA
ATOM     63  C   UNL A   1      47.594  30.484  26.988  1.00  0.00     0.031 C 
ATOM     64  C   UNL A   1      43.657  33.837  30.166  1.00  0.00     0.029 A 
ATOM     65  C   UNL A   1      44.245  32.768  29.510  1.00  0.00     0.049 A 
ATOM     66  H   UNL A   1      43.473  30.839  29.154  1.00  0.00     0.167 HD
ATOM     67  C   UNL A   1      46.066  31.648  28.245  1.00  0.00     0.074 A 
ATOM     68  C   UNL A   1      47.352  31.648  27.574  1.00  0.00     0.031 C 
ATOM     69  C   UNL A   1      45.542  32.717  28.886  1.00  0.00     0.034 A 
BRANCH  56  70
ATOM     70  C   UNL A   1      39.878  31.918  31.203  1.00  0.00     0.023 A 
ATOM     71  C   UNL A   1      38.839  32.509  30.458  1.00  0.00     0.012 A 
ATOM     72  C   UNL A   1      39.717  31.765  32.599  1.00  0.00     0.148 A 
ATOM     73  C   UNL A   1      37.672  32.948  31.089  1.00  0.00     0.002 A 
ATOM     74  C   UNL A   1      38.533  32.160  33.213  1.00  0.00     0.091 A 
ATOM     75  F   UNL A   1      40.713  31.201  33.297  1.00  0.00    -0.205 F 
ATOM     76  C   UNL A   1      37.512  32.761  32.461  1.00  0.00     0.022 A 
BRANCH  74  77
ATOM     77  S   UNL A   1      38.190  31.871  34.957  1.00  0.00     0.127 S 
ATOM     78  O   UNL A   1      36.866  32.477  35.101  1.00  0.00    -0.237 OA
ATOM     79  O   UNL A   1      38.202  30.411  35.034  1.00  0.00    -0.237 OA
ATOM     80  O   UNL A   1      39.257  32.532  35.696  1.00  0.00    -0.744 OA
ENDBRANCH  74  77
ENDBRANCH  56  70
BRANCH  57  81
ATOM     81  C   UNL A   1      47.439  27.670  26.127  1.00  0.00     0.023 A 
ATOM     82  C   UNL A   1      47.293  27.809  24.737  1.00  0.00     0.012 A 
ATOM     83  C   UNL A   1      48.586  27.037  26.647  1.00  0.00     0.148 A 
ATOM     84  C   UNL A   1      48.253  27.288  23.873  1.00  0.00     0.002 A 
ATOM     85  C   UNL A   1      49.569  26.576  25.783  1.00  0.00     0.091 A 
ATOM     86  F   UNL A   1      48.708  26.929  27.979  1.00  0.00    -0.205 F 
ATOM     87  C   UNL A   1      49.394  26.680  24.395  1.00  0.00     0.022 A 
BRANCH  85  88
ATOM     88  S   UNL A   1      51.133  25.919  26.372  1.00  0.00     0.127 S 
ATOM     89  O   UNL A   1      51.850  25.691  25.120  1.00  0.00    -0.237 OA
ATOM     90  O   UNL A   1      51.641  27.027  27.182  1.00  0.00    -0.237 OA
ATOM     91  O   UNL A   1      50.797  24.727  27.138  1.00  0.00    -0.744 OA
ENDBRANCH  85  88
ENDBRANCH  57  81
BRANCH  69  92
ATOM     92  C   UNL A   1      46.402  33.943  28.987  1.00  0.00     0.023 A 
ATOM     93  C   UNL A   1      46.319  34.957  28.015  1.00  0.00     0.012 A 
ATOM     94  C   UNL A   1      47.248  34.108  30.101  1.00  0.00     0.148 A 
ATOM     95  C   UNL A   1      47.093  36.109  28.136  1.00  0.00     0.002 A 
ATOM     96  C   UNL A   1      47.968  35.283  30.246  1.00  0.00     0.091 A 
ATOM     97  F   UNL A   1      47.323  33.115  30.999  1.00  0.00    -0.205 F 
ATOM     98  C   UNL A   1      47.904  36.279  29.257  1.00  0.00     0.022 A 
BRANCH  96  99
ATOM     99  S   UNL A   1      48.954  35.634  31.704  1.00  0.00     0.127 S 
ATOM    100  O   UNL A   1      47.958  35.526  32.769  1.00  0.00    -0.237 OA
ATOM    101  O   UNL A   1      49.937  34.551  31.674  1.00  0.00    -0.237 OA
ATOM    102  O   UNL A   1      49.509  36.967  31.509  1.00  0.00    -0.744 OA
ENDBRANCH  96  99
ENDBRANCH  69  92
ENDBRANCH  43  44
ENDBRANCH  36  38
ENDBRANCH  35  36
ENDBRANCH  34  35
ENDBRANCH   1  34
TORSDOF 20
ENDMDL
MODEL 3
REMARK VINA RESULT:     -10.0      8.689     13.962
REMARK SMILES N#Cc1cccnc1N1CC[NH+]([C@@H](C(=O)OCCOC(=O)c2ccc(-c3c4nc(c(-c5cccc(S(=O)(=O)[O-])c5F)c5ccc([nH]5)c(-c5cccc(S(=O)(=O)[O-])c5F)c5nc(c(-c6cccc(S(=O)(=O)[O-])c6F)c6ccc3[nH]6)C=C5)C=C4)cc2)c2c[nH]c3cc(CO)ccc23)CC1
REMARK SMILES IDX 17 1 16 2 14 3 15 4 13 5 12 6 9 7 10 8 97 9 11 10 96 11 8 13
REMARK SMILES IDX 3 14 4 15 5 16 7 17 6 18 2 19 1 20 85 21 86 22 95 23 87 24
REMARK SMILES IDX 88 25 94 26 89 28 93 29 90 30 91 31 92 32 18 34 19 35 20 36
REMARK SMILES IDX 21 37 22 38 23 39 84 40 24 41 83 42 25 43 26 44 27 45 77 46
REMARK SMILES IDX 28 47 82 48 76 49 78 50 29 51 81 52 75 53 74 54 30 56 62 57
REMARK SMILES IDX 42 58 61 59 43 60 46 61 60 62 79 63 44 64 45 65 59 67 80 68
REMARK SMILES IDX 47 69 31 70 32 71 40 72 33 73 35 74 41 75 34 76 36 77 37 78
REMARK SMILES IDX 38 79 39 80 63 81 64 82 72 83 65 84 67 85 73 86 66 87 68 88
REMARK SMILES IDX 69 89 70 90 71 91 48 92 49 93 57 94 50 95 52 96 58 97 51 98
REMARK SMILES IDX 53 99 54 100 55 101 56 102
REMARK H PARENT 12 12 87 27 92 33 78 55 46 66
REMARK Flexibility Score: inf
ROOT
ATOM      1  C   UNL A   1      45.393  23.807  39.663  1.00  0.00     0.274 C 
ENDROOT
BRANCH   1   2
ATOM      2  O   UNL A   1      45.612  22.378  39.557  1.00  0.00    -0.457 OA
BRANCH   2   3
ATOM      3  C   UNL A   1      46.857  21.883  39.762  1.00  0.00     0.370 C 
ATOM      4  O   UNL A   1      47.810  22.604  40.058  1.00  0.00    -0.245 OA
BRANCH   3   5
ATOM      5  C   UNL A   1      47.010  20.382  39.438  1.00  0.00     0.328 C 
BRANCH   5   6
ATOM      6  N   UNL A   1      47.503  19.473  40.551  1.00  0.00    -0.316 N 
ATOM      7  N   UNL A   1      45.601  17.284  41.045  1.00  0.00    -0.344 N 
ATOM      8  C   UNL A   1      45.316  18.669  41.382  1.00  0.00     0.179 C 
ATOM      9  C   UNL A   1      46.803  16.941  40.271  1.00  0.00     0.179 C 
ATOM     10  C   UNL A   1      46.645  19.322  41.725  1.00  0.00     0.285 C 
ATOM     11  C   UNL A   1      47.875  18.096  40.147  1.00  0.00     0.285 C 
ATOM     12  H   UNL A   1      48.329  20.015  40.804  1.00  0.00     0.349 HD
BRANCH   7  13
ATOM     13  C   UNL A   1      44.486  16.471  41.080  1.00  0.00     0.146 A 
ATOM     14  C   UNL A   1      44.068  15.889  42.277  1.00  0.00     0.095 A 
ATOM     15  C   UNL A   1      42.814  15.271  42.330  1.00  0.00     0.025 A 
ATOM     16  C   UNL A   1      42.005  15.256  41.199  1.00  0.00     0.022 A 
ATOM     17  N   UNL A   1      43.706  16.427  39.974  1.00  0.00    -0.238 NA
ATOM     18  C   UNL A   1      42.493  15.842  40.049  1.00  0.00     0.113 A 
BRANCH  14  19
ATOM     19  C   UNL A   1      44.850  16.014  43.464  1.00  0.00     0.103 C 
ATOM     20  N   UNL A   1      45.479  16.132  44.440  1.00  0.00    -0.192 NA
ENDBRANCH  14  19
ENDBRANCH   7  13
ENDBRANCH   5   6
BRANCH   5  21
ATOM     21  C   UNL A   1      47.289  19.912  37.955  1.00  0.00     0.046 A 
ATOM     22  C   UNL A   1      48.599  19.904  37.453  1.00  0.00     0.094 A 
ATOM     23  C   UNL A   1      46.597  20.161  36.704  1.00  0.00     0.009 A 
ATOM     24  N   UNL A   1      48.578  21.087  36.703  1.00  0.00    -0.361 N 
ATOM     25  C   UNL A   1      47.355  21.143  36.065  1.00  0.00     0.046 A 
ATOM     26  C   UNL A   1      45.497  19.701  35.967  1.00  0.00     0.011 A 
ATOM     27  H   UNL A   1      49.302  21.751  36.641  1.00  0.00     0.166 HD
ATOM     28  C   UNL A   1      46.818  21.978  35.068  1.00  0.00     0.032 A 
ATOM     29  C   UNL A   1      45.039  20.369  34.834  1.00  0.00     0.007 A 
ATOM     30  C   UNL A   1      45.598  21.591  34.485  1.00  0.00    -0.021 A 
BRANCH  30  31
ATOM     31  C   UNL A   1      44.835  22.477  33.537  1.00  0.00     0.191 C 
BRANCH  31  32
ATOM     32  O   UNL A   1      43.468  22.560  33.952  1.00  0.00    -0.392 OA
ATOM     33  H   UNL A   1      43.221  23.491  34.065  1.00  0.00     0.211 HD
ENDBRANCH  31  32
ENDBRANCH  30  31
ENDBRANCH   5  21
ENDBRANCH   3   5
ENDBRANCH   2   3
ENDBRANCH   1   2
BRANCH   1  34
ATOM     34  C   UNL A   1      44.732  24.286  38.377  1.00  0.00     0.275 C 
BRANCH  34  35
ATOM     35  O   UNL A   1      45.628  23.994  37.285  1.00  0.00    -0.458 OA
BRANCH  35  36
ATOM     36  C   UNL A   1      46.164  25.114  36.764  1.00  0.00     0.338 C 
ATOM     37  O   UNL A   1      47.200  25.648  37.132  1.00  0.00    -0.246 OA
BRANCH  36  38
ATOM     38  C   UNL A   1      45.440  25.638  35.597  1.00  0.00     0.060 A 
ATOM     39  C   UNL A   1      46.052  26.645  34.842  1.00  0.00     0.016 A 
ATOM     40  C   UNL A   1      44.048  25.536  35.630  1.00  0.00     0.016 A 
ATOM     41  C   UNL A   1      45.282  27.651  34.264  1.00  0.00     0.010 A 
ATOM     42  C   UNL A   1      43.273  26.499  34.974  1.00  0.00     0.010 A 
ATOM     43  C   UNL A   1      43.885  27.588  34.330  1.00  0.00    -0.014 A 
BRANCH  43  44
ATOM     44  C   UNL A   1      43.055  28.513  33.528  1.00  0.00     0.031 A 
ATOM     45  C   UNL A   1      42.146  29.531  34.145  1.00  0.00     0.074 A 
ATOM     46  C   UNL A   1      43.040  28.261  32.208  1.00  0.00     0.049 A 
ATOM     47  N   UNL A   1      41.045  30.044  33.663  1.00  0.00    -0.248 NA
ATOM     48  C   UNL A   1      42.512  30.055  35.469  1.00  0.00     0.031 C 
ATOM     49  C   UNL A   1      43.936  27.324  31.521  1.00  0.00     0.029 A 
ATOM     50  N   UNL A   1      42.188  28.693  31.229  1.00  0.00    -0.354 N 
ATOM     51  C   UNL A   1      40.535  30.880  34.654  1.00  0.00     0.074 A 
ATOM     52  C   UNL A   1      41.478  30.844  35.751  1.00  0.00     0.031 C 
ATOM     53  C   UNL A   1      43.540  27.186  30.254  1.00  0.00     0.029 A 
ATOM     54  C   UNL A   1      42.313  27.944  30.082  1.00  0.00     0.049 A 
ATOM     55  H   UNL A   1      41.563  29.447  31.332  1.00  0.00     0.167 HD
ATOM     56  C   UNL A   1      39.385  31.599  34.621  1.00  0.00     0.034 A 
ATOM     57  C   UNL A   1      41.469  27.783  29.052  1.00  0.00     0.034 A 
ATOM     58  C   UNL A   1      38.552  31.688  33.445  1.00  0.00     0.049 A 
ATOM     59  C   UNL A   1      40.199  28.567  29.049  1.00  0.00     0.074 A 
ATOM     60  C   UNL A   1      37.424  32.466  33.244  1.00  0.00     0.029 A 
ATOM     61  N   UNL A   1      38.766  30.986  32.267  1.00  0.00    -0.354 N 
ATOM     62  N   UNL A   1      39.719  29.352  29.980  1.00  0.00    -0.248 NA
ATOM     63  C   UNL A   1      39.378  28.478  27.839  1.00  0.00     0.031 C 
ATOM     64  C   UNL A   1      36.934  32.203  31.963  1.00  0.00     0.029 A 
ATOM     65  C   UNL A   1      37.791  31.308  31.342  1.00  0.00     0.049 A 
ATOM     66  H   UNL A   1      39.504  30.353  32.114  1.00  0.00     0.167 HD
ATOM     67  C   UNL A   1      38.568  29.907  29.444  1.00  0.00     0.074 A 
ATOM     68  C   UNL A   1      38.424  29.359  28.109  1.00  0.00     0.031 C 
ATOM     69  C   UNL A   1      37.709  30.792  30.000  1.00  0.00     0.034 A 
BRANCH  56  70
ATOM     70  C   UNL A   1      38.924  32.363  35.843  1.00  0.00     0.023 A 
ATOM     71  C   UNL A   1      38.163  31.729  36.844  1.00  0.00     0.012 A 
ATOM     72  C   UNL A   1      39.412  33.669  36.079  1.00  0.00     0.148 A 
ATOM     73  C   UNL A   1      37.885  32.384  38.048  1.00  0.00     0.002 A 
ATOM     74  C   UNL A   1      39.173  34.295  37.298  1.00  0.00     0.091 A 
ATOM     75  F   UNL A   1      40.135  34.261  35.118  1.00  0.00    -0.205 F 
ATOM     76  C   UNL A   1      38.401  33.657  38.281  1.00  0.00     0.022 A 
BRANCH  74  77
ATOM     77  S   UNL A   1      39.877  35.894  37.733  1.00  0.00     0.127 S 
ATOM     78  O   UNL A   1      39.618  36.670  36.520  1.00  0.00    -0.237 OA
ATOM     79  O   UNL A   1      39.069  36.282  38.888  1.00  0.00    -0.237 OA
ATOM     80  O   UNL A   1      41.284  35.652  38.023  1.00  0.00    -0.744 OA
ENDBRANCH  74  77
ENDBRANCH  56  70
BRANCH  57  81
ATOM     81  C   UNL A   1      41.816  26.828  27.970  1.00  0.00     0.023 A 
ATOM     82  C   UNL A   1      42.768  27.202  27.007  1.00  0.00     0.012 A 
ATOM     83  C   UNL A   1      41.264  25.532  27.937  1.00  0.00     0.148 A 
ATOM     84  C   UNL A   1      43.133  26.315  25.997  1.00  0.00     0.002 A 
ATOM     85  C   UNL A   1      41.679  24.632  26.966  1.00  0.00     0.091 A 
ATOM     86  F   UNL A   1      40.368  25.195  28.877  1.00  0.00    -0.205 F 
ATOM     87  C   UNL A   1      42.596  25.029  25.982  1.00  0.00     0.022 A 
BRANCH  85  88
ATOM     88  S   UNL A   1      41.156  22.914  26.963  1.00  0.00     0.127 S 
ATOM     89  O   UNL A   1      41.864  22.389  25.800  1.00  0.00    -0.237 OA
ATOM     90  O   UNL A   1      41.655  22.443  28.256  1.00  0.00    -0.237 OA
ATOM     91  O   UNL A   1      39.703  22.945  26.862  1.00  0.00    -0.744 OA
ENDBRANCH  85  88
ENDBRANCH  57  81
BRANCH  69  92
ATOM     92  C   UNL A   1      36.599  31.305  29.131  1.00  0.00     0.023 A 
ATOM     93  C   UNL A   1      36.577  32.651  28.720  1.00  0.00     0.012 A 
ATOM     94  C   UNL A   1      35.612  30.415  28.667  1.00  0.00     0.148 A 
ATOM     95  C   UNL A   1      35.564  33.111  27.881  1.00  0.00     0.002 A 
ATOM     96  C   UNL A   1      34.643  30.866  27.784  1.00  0.00     0.091 A 
ATOM     97  F   UNL A   1      35.646  29.144  29.093  1.00  0.00    -0.205 F 
ATOM     98  C   UNL A   1      34.608  32.217  27.402  1.00  0.00     0.022 A 
BRANCH  96  99
ATOM     99  S   UNL A   1      33.439  29.767  27.034  1.00  0.00     0.127 S 
ATOM    100  O   UNL A   1      32.181  30.434  27.365  1.00  0.00    -0.237 OA
ATOM    101  O   UNL A   1      33.810  29.828  25.620  1.00  0.00    -0.237 OA
ATOM    102  O   UNL A   1      33.631  28.465  27.660  1.00  0.00    -0.744 OA
ENDBRANCH  96  99
ENDBRANCH  69  92
ENDBRANCH  43  44
ENDBRANCH  36  38
ENDBRANCH  35  36
ENDBRANCH  34  35
ENDBRANCH   1  34
TORSDOF 20
ENDMDL
