MODEL 1
REMARK VINA RESULT:     -12.1      0.000      0.000
REMARK SMILES O=C(OCCOC(=O)[C@@]1(Cc2ccnc3ccccc23)CCC[NH2+]C1)c1ccc(-c2c3nc(c(-c4cccc(S(=O)(=O)[O-])c4F)c4ccc([nH]4)c(-c4cccc(S(=O)(=O)[O-])c4F)c4nc(c(-c5cccc(S(=O)(=O)[O-])c5F)c5ccc2[nH]5)C=C4)C=C3)cc1
REMARK SMILES IDX 4 1 3 2 2 3 1 4 26 5 27 6 88 7 28 8 87 9 29 10 30 11 31 12
REMARK SMILES IDX 81 13 32 14 86 15 80 16 82 17 33 18 85 19 79 20 78 21 34 23
REMARK SMILES IDX 66 24 46 25 65 26 47 27 50 28 64 29 83 30 48 31 49 32 63 34
REMARK SMILES IDX 84 35 51 36 35 37 36 38 44 39 37 40 39 41 45 42 38 43 40 44
REMARK SMILES IDX 41 45 42 46 43 47 67 48 68 49 76 50 69 51 71 52 77 53 70 54
REMARK SMILES IDX 72 55 73 56 74 57 75 58 52 59 53 60 61 61 54 62 56 63 62 64
REMARK SMILES IDX 55 65 57 66 58 67 59 68 60 69 5 70 6 71 7 72 8 73 9 74 21 75
REMARK SMILES IDX 25 76 22 77 24 78 23 79 10 82 11 83 12 84 20 85 13 86 15 87
REMARK SMILES IDX 19 88 14 89 16 90 18 91 17 92
REMARK H PARENT 82 22 50 33 24 80 24 81
REMARK Flexibility Score: inf
ROOT
ATOM      1  C   UNL A   1      32.630  30.070  25.776  1.00  0.00     0.275 C 
ENDROOT
BRANCH   1   2
ATOM      2  O   UNL A   1      32.421  30.925  26.910  1.00  0.00    -0.458 OA
BRANCH   2   3
ATOM      3  C   UNL A   1      33.308  31.753  27.519  1.00  0.00     0.338 C 
ATOM      4  O   UNL A   1      33.019  32.943  27.640  1.00  0.00    -0.246 OA
BRANCH   3   5
ATOM      5  C   UNL A   1      34.704  31.328  27.850  1.00  0.00     0.060 A 
ATOM      6  C   UNL A   1      35.825  32.157  27.949  1.00  0.00     0.016 A 
ATOM      7  C   UNL A   1      34.861  29.976  28.189  1.00  0.00     0.016 A 
ATOM      8  C   UNL A   1      37.011  31.708  28.549  1.00  0.00     0.010 A 
ATOM      9  C   UNL A   1      36.025  29.543  28.832  1.00  0.00     0.010 A 
ATOM     10  C   UNL A   1      37.107  30.414  29.058  1.00  0.00    -0.014 A 
BRANCH  10  11
ATOM     11  C   UNL A   1      38.351  29.932  29.725  1.00  0.00     0.031 A 
ATOM     12  C   UNL A   1      38.731  30.579  31.033  1.00  0.00     0.074 A 
ATOM     13  C   UNL A   1      39.147  28.973  29.190  1.00  0.00     0.049 A 
ATOM     14  N   UNL A   1      39.771  30.356  31.792  1.00  0.00    -0.248 NA
ATOM     15  C   UNL A   1      37.822  31.619  31.558  1.00  0.00     0.031 C 
ATOM     16  C   UNL A   1      38.922  28.260  27.927  1.00  0.00     0.029 A 
ATOM     17  N   UNL A   1      40.354  28.462  29.620  1.00  0.00    -0.354 N 
ATOM     18  C   UNL A   1      39.602  31.189  32.891  1.00  0.00     0.074 A 
ATOM     19  C   UNL A   1      38.477  32.046  32.622  1.00  0.00     0.031 C 
ATOM     20  C   UNL A   1      39.995  27.495  27.639  1.00  0.00     0.029 A 
ATOM     21  C   UNL A   1      40.978  27.633  28.704  1.00  0.00     0.049 A 
ATOM     22  H   UNL A   1      40.740  28.670  30.502  1.00  0.00     0.167 HD
ATOM     23  C   UNL A   1      40.233  31.151  34.086  1.00  0.00     0.034 A 
ATOM     24  C   UNL A   1      42.209  27.076  28.719  1.00  0.00     0.034 A 
ATOM     25  C   UNL A   1      41.325  30.275  34.371  1.00  0.00     0.049 A 
ATOM     26  C   UNL A   1      43.008  27.184  29.994  1.00  0.00     0.074 A 
ATOM     27  C   UNL A   1      41.999  30.094  35.562  1.00  0.00     0.029 A 
ATOM     28  N   UNL A   1      41.913  29.439  33.437  1.00  0.00    -0.354 N 
ATOM     29  N   UNL A   1      42.713  27.826  31.100  1.00  0.00    -0.248 NA
ATOM     30  C   UNL A   1      44.252  26.404  30.067  1.00  0.00     0.031 C 
ATOM     31  C   UNL A   1      43.018  29.163  35.338  1.00  0.00     0.029 A 
ATOM     32  C   UNL A   1      42.954  28.744  34.017  1.00  0.00     0.049 A 
ATOM     33  H   UNL A   1      41.631  29.354  32.497  1.00  0.00     0.167 HD
ATOM     34  C   UNL A   1      43.676  27.446  32.027  1.00  0.00     0.074 A 
ATOM     35  C   UNL A   1      44.577  26.540  31.345  1.00  0.00     0.031 C 
ATOM     36  C   UNL A   1      43.791  27.794  33.333  1.00  0.00     0.034 A 
BRANCH  23  37
ATOM     37  C   UNL A   1      39.648  32.005  35.175  1.00  0.00     0.023 A 
ATOM     38  C   UNL A   1      38.576  31.491  35.943  1.00  0.00     0.012 A 
ATOM     39  C   UNL A   1      40.113  33.306  35.419  1.00  0.00     0.148 A 
ATOM     40  C   UNL A   1      37.940  32.281  36.895  1.00  0.00     0.002 A 
ATOM     41  C   UNL A   1      39.504  34.071  36.406  1.00  0.00     0.091 A 
ATOM     42  F   UNL A   1      41.116  33.776  34.666  1.00  0.00    -0.205 F 
ATOM     43  C   UNL A   1      38.407  33.569  37.130  1.00  0.00     0.022 A 
BRANCH  41  44
ATOM     44  S   UNL A   1      40.058  35.724  36.831  1.00  0.00     0.127 S 
ATOM     45  O   UNL A   1      41.494  35.516  37.017  1.00  0.00    -0.237 OA
ATOM     46  O   UNL A   1      39.701  36.478  35.629  1.00  0.00    -0.237 OA
ATOM     47  O   UNL A   1      39.328  36.099  38.032  1.00  0.00    -0.744 OA
ENDBRANCH  41  44
ENDBRANCH  23  37
BRANCH  24  48
ATOM     48  C   UNL A   1      42.763  26.297  27.563  1.00  0.00     0.023 A 
ATOM     49  C   UNL A   1      43.488  26.957  26.553  1.00  0.00     0.012 A 
ATOM     50  C   UNL A   1      42.475  24.926  27.395  1.00  0.00     0.148 A 
ATOM     51  C   UNL A   1      43.875  26.282  25.389  1.00  0.00     0.002 A 
ATOM     52  C   UNL A   1      42.908  24.245  26.261  1.00  0.00     0.091 A 
ATOM     53  F   UNL A   1      41.719  24.324  28.316  1.00  0.00    -0.205 F 
ATOM     54  C   UNL A   1      43.591  24.927  25.246  1.00  0.00     0.022 A 
BRANCH  52  55
ATOM     55  S   UNL A   1      42.645  22.483  26.006  1.00  0.00     0.127 S 
ATOM     56  O   UNL A   1      43.156  21.918  27.250  1.00  0.00    -0.237 OA
ATOM     57  O   UNL A   1      41.192  22.420  25.851  1.00  0.00    -0.237 OA
ATOM     58  O   UNL A   1      43.398  22.143  24.804  1.00  0.00    -0.744 OA
ENDBRANCH  52  55
ENDBRANCH  24  48
BRANCH  36  59
ATOM     59  C   UNL A   1      44.865  27.124  34.142  1.00  0.00     0.023 A 
ATOM     60  C   UNL A   1      46.143  27.704  34.249  1.00  0.00     0.012 A 
ATOM     61  C   UNL A   1      44.568  25.954  34.871  1.00  0.00     0.148 A 
ATOM     62  C   UNL A   1      47.120  27.109  35.045  1.00  0.00     0.002 A 
ATOM     63  C   UNL A   1      45.526  25.405  35.711  1.00  0.00     0.091 A 
ATOM     64  F   UNL A   1      43.350  25.408  34.735  1.00  0.00    -0.205 F 
ATOM     65  C   UNL A   1      46.807  25.971  35.787  1.00  0.00     0.022 A 
BRANCH  63  66
ATOM     66  S   UNL A   1      45.165  24.019  36.793  1.00  0.00     0.127 S 
ATOM     67  O   UNL A   1      46.484  23.722  37.348  1.00  0.00    -0.237 OA
ATOM     68  O   UNL A   1      44.220  24.606  37.743  1.00  0.00    -0.237 OA
ATOM     69  O   UNL A   1      44.595  22.983  35.941  1.00  0.00    -0.744 OA
ENDBRANCH  63  66
ENDBRANCH  36  59
ENDBRANCH  10  11
ENDBRANCH   3   5
ENDBRANCH   2   3
ENDBRANCH   1   2
BRANCH   1  70
ATOM     70  C   UNL A   1      32.082  28.644  25.920  1.00  0.00     0.274 C 
BRANCH  70  71
ATOM     71  O   UNL A   1      33.082  27.613  25.810  1.00  0.00    -0.461 OA
BRANCH  71  72
ATOM     72  C   UNL A   1      33.146  26.938  24.621  1.00  0.00     0.318 C 
ATOM     73  O   UNL A   1      33.555  27.446  23.582  1.00  0.00    -0.251 OA
BRANCH  72  74
ATOM     74  C   UNL A   1      32.665  25.467  24.704  1.00  0.00     0.121 C 
ATOM     75  C   UNL A   1      32.873  25.046  26.185  1.00  0.00     0.031 C 
ATOM     76  C   UNL A   1      31.167  25.399  24.442  1.00  0.00     0.279 C 
ATOM     77  C   UNL A   1      32.090  23.804  26.635  1.00  0.00     0.063 C 
ATOM     78  N   UNL A   1      30.548  24.131  24.767  1.00  0.00    -0.345 N 
ATOM     79  C   UNL A   1      30.641  23.783  26.165  1.00  0.00     0.260 C 
ATOM     80  H   UNL A   1      29.561  24.180  24.511  1.00  0.00     0.346 HD
ATOM     81  H   UNL A   1      31.048  23.411  24.245  1.00  0.00     0.346 HD
BRANCH  74  82
ATOM     82  C   UNL A   1      33.466  24.673  23.622  1.00  0.00     0.061 C 
BRANCH  82  83
ATOM     83  C   UNL A   1      34.382  23.541  24.060  1.00  0.00    -0.036 A 
ATOM     84  C   UNL A   1      35.655  23.893  24.519  1.00  0.00     0.024 A 
ATOM     85  C   UNL A   1      34.014  22.161  24.095  1.00  0.00     0.003 A 
ATOM     86  C   UNL A   1      36.466  22.910  25.053  1.00  0.00     0.112 A 
ATOM     87  C   UNL A   1      34.905  21.252  24.714  1.00  0.00     0.070 A 
ATOM     88  C   UNL A   1      32.801  21.642  23.594  1.00  0.00     0.010 A 
ATOM     89  N   UNL A   1      36.104  21.623  25.195  1.00  0.00    -0.256 NA
ATOM     90  C   UNL A   1      34.522  19.924  24.872  1.00  0.00     0.029 A 
ATOM     91  C   UNL A   1      32.408  20.323  23.828  1.00  0.00     0.001 A 
ATOM     92  C   UNL A   1      33.275  19.456  24.464  1.00  0.00     0.002 A 
ENDBRANCH  82  83
ENDBRANCH  74  82
ENDBRANCH  72  74
ENDBRANCH  71  72
ENDBRANCH  70  71
ENDBRANCH   1  70
TORSDOF 16
ENDMDL
MODEL 2
REMARK VINA RESULT:     -12.0      5.000     10.128
REMARK SMILES O=C(OCCOC(=O)[C@@]1(Cc2ccnc3ccccc23)CCC[NH2+]C1)c1ccc(-c2c3nc(c(-c4cccc(S(=O)(=O)[O-])c4F)c4ccc([nH]4)c(-c4cccc(S(=O)(=O)[O-])c4F)c4nc(c(-c5cccc(S(=O)(=O)[O-])c5F)c5ccc2[nH]5)C=C4)C=C3)cc1
REMARK SMILES IDX 4 1 3 2 2 3 1 4 26 5 27 6 88 7 28 8 87 9 29 10 30 11 31 12
REMARK SMILES IDX 81 13 32 14 86 15 80 16 82 17 33 18 85 19 79 20 78 21 34 23
REMARK SMILES IDX 66 24 46 25 65 26 47 27 50 28 64 29 83 30 48 31 49 32 63 34
REMARK SMILES IDX 84 35 51 36 35 37 36 38 44 39 37 40 39 41 45 42 38 43 40 44
REMARK SMILES IDX 41 45 42 46 43 47 67 48 68 49 76 50 69 51 71 52 77 53 70 54
REMARK SMILES IDX 72 55 73 56 74 57 75 58 52 59 53 60 61 61 54 62 56 63 62 64
REMARK SMILES IDX 55 65 57 66 58 67 59 68 60 69 5 70 6 71 7 72 8 73 9 74 21 75
REMARK SMILES IDX 25 76 22 77 24 78 23 79 10 82 11 83 12 84 20 85 13 86 15 87
REMARK SMILES IDX 19 88 14 89 16 90 18 91 17 92
REMARK H PARENT 82 22 50 33 24 80 24 81
REMARK Flexibility Score: inf
ROOT
ATOM      1  C   UNL A   1      36.536  21.134  25.357  1.00  0.00     0.275 C 
ENDROOT
BRANCH   1   2
ATOM      2  O   UNL A   1      37.908  21.372  25.006  1.00  0.00    -0.458 OA
BRANCH   2   3
ATOM      3  C   UNL A   1      39.001  21.360  25.811  1.00  0.00     0.338 C 
ATOM      4  O   UNL A   1      39.531  20.281  26.073  1.00  0.00    -0.246 OA
BRANCH   3   5
ATOM      5  C   UNL A   1      39.453  22.571  26.566  1.00  0.00     0.060 A 
ATOM      6  C   UNL A   1      40.435  22.614  27.559  1.00  0.00     0.016 A 
ATOM      7  C   UNL A   1      38.896  23.788  26.148  1.00  0.00     0.016 A 
ATOM      8  C   UNL A   1      40.986  23.831  27.987  1.00  0.00     0.010 A 
ATOM      9  C   UNL A   1      39.479  24.999  26.536  1.00  0.00     0.010 A 
ATOM     10  C   UNL A   1      40.562  25.038  27.435  1.00  0.00    -0.014 A 
BRANCH  10  11
ATOM     11  C   UNL A   1      41.159  26.338  27.857  1.00  0.00     0.031 A 
ATOM     12  C   UNL A   1      42.638  26.526  27.634  1.00  0.00     0.074 A 
ATOM     13  C   UNL A   1      40.434  27.322  28.447  1.00  0.00     0.049 A 
ATOM     14  N   UNL A   1      43.394  27.547  27.935  1.00  0.00    -0.248 NA
ATOM     15  C   UNL A   1      43.368  25.414  26.991  1.00  0.00     0.031 C 
ATOM     16  C   UNL A   1      38.997  27.288  28.740  1.00  0.00     0.029 A 
ATOM     17  N   UNL A   1      40.824  28.540  28.963  1.00  0.00    -0.354 N 
ATOM     18  C   UNL A   1      44.659  27.212  27.471  1.00  0.00     0.074 A 
ATOM     19  C   UNL A   1      44.617  25.838  27.042  1.00  0.00     0.031 C 
ATOM     20  C   UNL A   1      38.655  28.370  29.468  1.00  0.00     0.029 A 
ATOM     21  C   UNL A   1      39.836  29.197  29.675  1.00  0.00     0.049 A 
ATOM     22  H   UNL A   1      41.728  28.911  28.837  1.00  0.00     0.167 HD
ATOM     23  C   UNL A   1      45.730  28.013  27.278  1.00  0.00     0.034 A 
ATOM     24  C   UNL A   1      39.892  30.320  30.424  1.00  0.00     0.034 A 
ATOM     25  C   UNL A   1      45.765  29.387  27.666  1.00  0.00     0.049 A 
ATOM     26  C   UNL A   1      41.159  31.137  30.363  1.00  0.00     0.074 A 
ATOM     27  C   UNL A   1      46.762  30.319  27.462  1.00  0.00     0.029 A 
ATOM     28  N   UNL A   1      44.748  30.023  28.359  1.00  0.00    -0.354 N 
ATOM     29  N   UNL A   1      42.280  30.873  29.736  1.00  0.00    -0.248 NA
ATOM     30  C   UNL A   1      41.133  32.454  31.016  1.00  0.00     0.031 C 
ATOM     31  C   UNL A   1      46.356  31.517  28.059  1.00  0.00     0.029 A 
ATOM     32  C   UNL A   1      45.094  31.336  28.604  1.00  0.00     0.049 A 
ATOM     33  H   UNL A   1      43.902  29.601  28.637  1.00  0.00     0.167 HD
ATOM     34  C   UNL A   1      43.050  32.026  29.833  1.00  0.00     0.074 A 
ATOM     35  C   UNL A   1      42.276  32.980  30.601  1.00  0.00     0.031 C 
ATOM     36  C   UNL A   1      44.274  32.285  29.311  1.00  0.00     0.034 A 
BRANCH  23  37
ATOM     37  C   UNL A   1      46.876  27.420  26.508  1.00  0.00     0.023 A 
ATOM     38  C   UNL A   1      47.798  26.590  27.188  1.00  0.00     0.012 A 
ATOM     39  C   UNL A   1      47.072  27.702  25.147  1.00  0.00     0.148 A 
ATOM     40  C   UNL A   1      48.927  26.099  26.540  1.00  0.00     0.002 A 
ATOM     41  C   UNL A   1      48.176  27.168  24.495  1.00  0.00     0.091 A 
ATOM     42  F   UNL A   1      46.196  28.506  24.530  1.00  0.00    -0.205 F 
ATOM     43  C   UNL A   1      49.113  26.384  25.192  1.00  0.00     0.022 A 
BRANCH  41  44
ATOM     44  S   UNL A   1      48.487  27.425  22.747  1.00  0.00     0.127 S 
ATOM     45  O   UNL A   1      49.794  28.081  22.771  1.00  0.00    -0.237 OA
ATOM     46  O   UNL A   1      48.502  26.052  22.240  1.00  0.00    -0.237 OA
ATOM     47  O   UNL A   1      47.391  28.249  22.258  1.00  0.00    -0.744 OA
ENDBRANCH  41  44
ENDBRANCH  23  37
BRANCH  24  48
ATOM     48  C   UNL A   1      38.729  30.817  31.231  1.00  0.00     0.023 A 
ATOM     49  C   UNL A   1      38.652  30.523  32.606  1.00  0.00     0.012 A 
ATOM     50  C   UNL A   1      37.640  31.477  30.625  1.00  0.00     0.148 A 
ATOM     51  C   UNL A   1      37.504  30.837  33.344  1.00  0.00     0.002 A 
ATOM     52  C   UNL A   1      36.523  31.836  31.373  1.00  0.00     0.091 A 
ATOM     53  F   UNL A   1      37.684  31.681  29.307  1.00  0.00    -0.205 F 
ATOM     54  C   UNL A   1      36.444  31.498  32.730  1.00  0.00     0.022 A 
BRANCH  52  55
ATOM     55  S   UNL A   1      35.126  32.742  30.690  1.00  0.00     0.127 S 
ATOM     56  O   UNL A   1      34.212  32.789  31.827  1.00  0.00    -0.237 OA
ATOM     57  O   UNL A   1      35.743  34.020  30.342  1.00  0.00    -0.237 OA
ATOM     58  O   UNL A   1      34.669  31.957  29.548  1.00  0.00    -0.744 OA
ENDBRANCH  52  55
ENDBRANCH  24  48
BRANCH  36  59
ATOM     59  C   UNL A   1      44.819  33.676  29.462  1.00  0.00     0.023 A 
ATOM     60  C   UNL A   1      45.503  34.050  30.634  1.00  0.00     0.012 A 
ATOM     61  C   UNL A   1      44.723  34.588  28.392  1.00  0.00     0.148 A 
ATOM     62  C   UNL A   1      46.056  35.324  30.749  1.00  0.00     0.002 A 
ATOM     63  C   UNL A   1      45.331  35.831  28.490  1.00  0.00     0.091 A 
ATOM     64  F   UNL A   1      44.046  34.217  27.294  1.00  0.00    -0.205 F 
ATOM     65  C   UNL A   1      45.983  36.207  29.673  1.00  0.00     0.022 A 
BRANCH  63  66
ATOM     66  S   UNL A   1      45.393  36.975  27.108  1.00  0.00     0.127 S 
ATOM     67  O   UNL A   1      46.272  38.021  27.626  1.00  0.00    -0.237 OA
ATOM     68  O   UNL A   1      45.979  36.152  26.051  1.00  0.00    -0.237 OA
ATOM     69  O   UNL A   1      44.015  37.380  26.861  1.00  0.00    -0.744 OA
ENDBRANCH  63  66
ENDBRANCH  36  59
ENDBRANCH  10  11
ENDBRANCH   3   5
ENDBRANCH   2   3
ENDBRANCH   1   2
BRANCH   1  70
ATOM     70  C   UNL A   1      35.503  21.891  24.513  1.00  0.00     0.274 C 
BRANCH  70  71
ATOM     71  O   UNL A   1      35.179  23.203  25.012  1.00  0.00    -0.461 OA
BRANCH  71  72
ATOM     72  C   UNL A   1      33.905  23.393  25.473  1.00  0.00     0.318 C 
ATOM     73  O   UNL A   1      33.473  22.859  26.491  1.00  0.00    -0.251 OA
BRANCH  72  74
ATOM     74  C   UNL A   1      33.054  24.351  24.602  1.00  0.00     0.121 C 
ATOM     75  C   UNL A   1      34.078  25.251  23.855  1.00  0.00     0.031 C 
ATOM     76  C   UNL A   1      32.317  23.557  23.533  1.00  0.00     0.279 C 
ATOM     77  C   UNL A   1      33.535  25.983  22.620  1.00  0.00     0.063 C 
ATOM     78  N   UNL A   1      31.715  24.356  22.486  1.00  0.00    -0.345 N 
ATOM     79  C   UNL A   1      32.672  25.113  21.714  1.00  0.00     0.260 C 
ATOM     80  H   UNL A   1      31.212  23.733  21.854  1.00  0.00     0.346 HD
ATOM     81  H   UNL A   1      31.098  25.029  22.939  1.00  0.00     0.346 HD
BRANCH  74  82
ATOM     82  C   UNL A   1      32.055  25.065  25.568  1.00  0.00     0.061 C 
BRANCH  82  83
ATOM     83  C   UNL A   1      32.030  26.585  25.617  1.00  0.00    -0.036 A 
ATOM     84  C   UNL A   1      33.007  27.213  26.395  1.00  0.00     0.024 A 
ATOM     85  C   UNL A   1      31.126  27.410  24.882  1.00  0.00     0.003 A 
ATOM     86  C   UNL A   1      33.105  28.591  26.358  1.00  0.00     0.112 A 
ATOM     87  C   UNL A   1      31.356  28.807  24.878  1.00  0.00     0.070 A 
ATOM     88  C   UNL A   1      30.040  26.929  24.119  1.00  0.00     0.010 A 
ATOM     89  N   UNL A   1      32.336  29.385  25.593  1.00  0.00    -0.256 NA
ATOM     90  C   UNL A   1      30.568  29.625  24.074  1.00  0.00     0.029 A 
ATOM     91  C   UNL A   1      29.310  27.758  23.266  1.00  0.00     0.001 A 
ATOM     92  C   UNL A   1      29.568  29.115  23.247  1.00  0.00     0.002 A 
ENDBRANCH  82  83
ENDBRANCH  74  82
ENDBRANCH  72  74
ENDBRANCH  71  72
ENDBRANCH  70  71
ENDBRANCH   1  70
TORSDOF 16
ENDMDL
MODEL 3
REMARK VINA RESULT:     -11.9      1.960      2.771
REMARK SMILES O=C(OCCOC(=O)[C@@]1(Cc2ccnc3ccccc23)CCC[NH2+]C1)c1ccc(-c2c3nc(c(-c4cccc(S(=O)(=O)[O-])c4F)c4ccc([nH]4)c(-c4cccc(S(=O)(=O)[O-])c4F)c4nc(c(-c5cccc(S(=O)(=O)[O-])c5F)c5ccc2[nH]5)C=C4)C=C3)cc1
REMARK SMILES IDX 4 1 3 2 2 3 1 4 26 5 27 6 88 7 28 8 87 9 29 10 30 11 31 12
REMARK SMILES IDX 81 13 32 14 86 15 80 16 82 17 33 18 85 19 79 20 78 21 34 23
REMARK SMILES IDX 66 24 46 25 65 26 47 27 50 28 64 29 83 30 48 31 49 32 63 34
REMARK SMILES IDX 84 35 51 36 35 37 36 38 44 39 37 40 39 41 45 42 38 43 40 44
REMARK SMILES IDX 41 45 42 46 43 47 67 48 68 49 76 50 69 51 71 52 77 53 70 54
REMARK SMILES IDX 72 55 73 56 74 57 75 58 52 59 53 60 61 61 54 62 56 63 62 64
REMARK SMILES IDX 55 65 57 66 58 67 59 68 60 69 5 70 6 71 7 72 8 73 9 74 21 75
REMARK SMILES IDX 25 76 22 77 24 78 23 79 10 82 11 83 12 84 20 85 13 86 15 87
REMARK SMILES IDX 19 88 14 89 16 90 18 91 17 92
REMARK H PARENT 82 22 50 33 24 80 24 81
REMARK Flexibility Score: inf
ROOT
ATOM      1  C   UNL A   1      34.168  28.435  26.344  1.00  0.00     0.275 C 
ENDROOT
BRANCH   1   2
ATOM      2  O   UNL A   1      33.899  29.821  26.607  1.00  0.00    -0.458 OA
BRANCH   2   3
ATOM      3  C   UNL A   1      34.385  30.602  27.605  1.00  0.00     0.338 C 
ATOM      4  O   UNL A   1      33.837  31.679  27.833  1.00  0.00    -0.246 OA
BRANCH   3   5
ATOM      5  C   UNL A   1      35.684  30.311  28.290  1.00  0.00     0.060 A 
ATOM      6  C   UNL A   1      35.848  29.721  29.546  1.00  0.00     0.016 A 
ATOM      7  C   UNL A   1      36.837  30.570  27.536  1.00  0.00     0.016 A 
ATOM      8  C   UNL A   1      37.094  29.226  29.960  1.00  0.00     0.010 A 
ATOM      9  C   UNL A   1      38.068  30.034  27.926  1.00  0.00     0.010 A 
ATOM     10  C   UNL A   1      38.209  29.317  29.130  1.00  0.00    -0.014 A 
BRANCH  10  11
ATOM     11  C   UNL A   1      39.533  28.770  29.544  1.00  0.00     0.031 A 
ATOM     12  C   UNL A   1      40.350  29.590  30.511  1.00  0.00     0.074 A 
ATOM     13  C   UNL A   1      40.026  27.599  29.068  1.00  0.00     0.049 A 
ATOM     14  N   UNL A   1      41.535  29.348  31.001  1.00  0.00    -0.248 NA
ATOM     15  C   UNL A   1      39.756  30.856  30.987  1.00  0.00     0.031 C 
ATOM     16  C   UNL A   1      39.362  26.697  28.120  1.00  0.00     0.029 A 
ATOM     17  N   UNL A   1      41.242  26.983  29.277  1.00  0.00    -0.354 N 
ATOM     18  C   UNL A   1      41.790  30.400  31.870  1.00  0.00     0.074 A 
ATOM     19  C   UNL A   1      40.737  31.368  31.707  1.00  0.00     0.031 C 
ATOM     20  C   UNL A   1      40.212  25.715  27.755  1.00  0.00     0.029 A 
ATOM     21  C   UNL A   1      41.474  25.892  28.459  1.00  0.00     0.049 A 
ATOM     22  H   UNL A   1      41.891  27.294  29.951  1.00  0.00     0.167 HD
ATOM     23  C   UNL A   1      42.737  30.495  32.831  1.00  0.00     0.034 A 
ATOM     24  C   UNL A   1      42.586  25.143  28.286  1.00  0.00     0.034 A 
ATOM     25  C   UNL A   1      43.761  29.518  33.024  1.00  0.00     0.049 A 
ATOM     26  C   UNL A   1      43.731  25.365  29.243  1.00  0.00     0.074 A 
ATOM     27  C   UNL A   1      44.732  29.465  34.004  1.00  0.00     0.029 A 
ATOM     28  N   UNL A   1      43.953  28.422  32.200  1.00  0.00    -0.354 N 
ATOM     29  N   UNL A   1      43.847  26.258  30.197  1.00  0.00    -0.248 NA
ATOM     30  C   UNL A   1      44.848  24.411  29.175  1.00  0.00     0.031 C 
ATOM     31  C   UNL A   1      45.531  28.345  33.753  1.00  0.00     0.029 A 
ATOM     32  C   UNL A   1      45.035  27.687  32.638  1.00  0.00     0.049 A 
ATOM     33  H   UNL A   1      43.400  28.200  31.416  1.00  0.00     0.167 HD
ATOM     34  C   UNL A   1      44.993  25.910  30.904  1.00  0.00     0.074 A 
ATOM     35  C   UNL A   1      45.547  24.743  30.250  1.00  0.00     0.031 C 
ATOM     36  C   UNL A   1      45.524  26.488  32.010  1.00  0.00     0.034 A 
BRANCH  23  37
ATOM     37  C   UNL A   1      42.596  31.639  33.795  1.00  0.00     0.023 A 
ATOM     38  C   UNL A   1      43.160  32.891  33.455  1.00  0.00     0.012 A 
ATOM     39  C   UNL A   1      41.956  31.481  35.034  1.00  0.00     0.148 A 
ATOM     40  C   UNL A   1      43.139  33.949  34.357  1.00  0.00     0.002 A 
ATOM     41  C   UNL A   1      41.898  32.558  35.910  1.00  0.00     0.091 A 
ATOM     42  F   UNL A   1      41.448  30.281  35.342  1.00  0.00    -0.205 F 
ATOM     43  C   UNL A   1      42.504  33.785  35.583  1.00  0.00     0.022 A 
BRANCH  41  44
ATOM     44  S   UNL A   1      41.058  32.475  37.493  1.00  0.00     0.127 S 
ATOM     45  O   UNL A   1      41.923  31.563  38.241  1.00  0.00    -0.237 OA
ATOM     46  O   UNL A   1      41.114  33.869  37.935  1.00  0.00    -0.237 OA
ATOM     47  O   UNL A   1      39.721  31.970  37.216  1.00  0.00    -0.744 OA
ENDBRANCH  41  44
ENDBRANCH  23  37
BRANCH  24  48
ATOM     48  C   UNL A   1      42.685  24.063  27.251  1.00  0.00     0.023 A 
ATOM     49  C   UNL A   1      43.224  24.353  25.982  1.00  0.00     0.012 A 
ATOM     50  C   UNL A   1      42.141  22.781  27.470  1.00  0.00     0.148 A 
ATOM     51  C   UNL A   1      43.181  23.408  24.951  1.00  0.00     0.002 A 
ATOM     52  C   UNL A   1      42.148  21.825  26.458  1.00  0.00     0.091 A 
ATOM     53  F   UNL A   1      41.560  22.537  28.646  1.00  0.00    -0.205 F 
ATOM     54  C   UNL A   1      42.650  22.144  25.190  1.00  0.00     0.022 A 
BRANCH  52  55
ATOM     55  S   UNL A   1      41.540  20.146  26.681  1.00  0.00     0.127 S 
ATOM     56  O   UNL A   1      40.117  20.369  26.912  1.00  0.00    -0.237 OA
ATOM     57  O   UNL A   1      41.867  19.539  25.391  1.00  0.00    -0.237 OA
ATOM     58  O   UNL A   1      42.284  19.605  27.812  1.00  0.00    -0.744 OA
ENDBRANCH  52  55
ENDBRANCH  24  48
BRANCH  36  59
ATOM     59  C   UNL A   1      46.709  25.818  32.647  1.00  0.00     0.023 A 
ATOM     60  C   UNL A   1      48.016  26.140  32.237  1.00  0.00     0.012 A 
ATOM     61  C   UNL A   1      46.516  24.928  33.723  1.00  0.00     0.148 A 
ATOM     62  C   UNL A   1      49.114  25.559  32.868  1.00  0.00     0.002 A 
ATOM     63  C   UNL A   1      47.615  24.403  34.386  1.00  0.00     0.091 A 
ATOM     64  F   UNL A   1      45.260  24.618  34.080  1.00  0.00    -0.205 F 
ATOM     65  C   UNL A   1      48.914  24.704  33.950  1.00  0.00     0.022 A 
BRANCH  63  66
ATOM     66  S   UNL A   1      47.448  23.398  35.865  1.00  0.00     0.127 S 
ATOM     67  O   UNL A   1      46.770  24.317  36.775  1.00  0.00    -0.237 OA
ATOM     68  O   UNL A   1      46.622  22.287  35.391  1.00  0.00    -0.237 OA
ATOM     69  O   UNL A   1      48.802  23.020  36.248  1.00  0.00    -0.744 OA
ENDBRANCH  63  66
ENDBRANCH  36  59
ENDBRANCH  10  11
ENDBRANCH   3   5
ENDBRANCH   2   3
ENDBRANCH   1   2
BRANCH   1  70
ATOM     70  C   UNL A   1      33.782  27.946  24.943  1.00  0.00     0.274 C 
BRANCH  70  71
ATOM     71  O   UNL A   1      33.970  26.533  24.738  1.00  0.00    -0.461 OA
BRANCH  71  72
ATOM     72  C   UNL A   1      33.106  25.912  23.877  1.00  0.00     0.318 C 
ATOM     73  O   UNL A   1      32.868  26.329  22.747  1.00  0.00    -0.251 OA
BRANCH  72  74
ATOM     74  C   UNL A   1      32.457  24.628  24.451  1.00  0.00     0.121 C 
ATOM     75  C   UNL A   1      32.952  24.534  25.921  1.00  0.00     0.031 C 
ATOM     76  C   UNL A   1      30.946  24.797  24.515  1.00  0.00     0.279 C 
ATOM     77  C   UNL A   1      32.134  23.614  26.837  1.00  0.00     0.063 C 
ATOM     78  N   UNL A   1      30.250  23.789  25.289  1.00  0.00    -0.345 N 
ATOM     79  C   UNL A   1      30.626  23.769  26.683  1.00  0.00     0.260 C 
ATOM     80  H   UNL A   1      29.249  23.971  25.227  1.00  0.00     0.346 HD
ATOM     81  H   UNL A   1      30.505  22.883  24.897  1.00  0.00     0.346 HD
BRANCH  74  82
ATOM     82  C   UNL A   1      32.856  23.458  23.493  1.00  0.00     0.061 C 
BRANCH  82  83
ATOM     83  C   UNL A   1      33.366  22.154  24.088  1.00  0.00    -0.036 A 
ATOM     84  C   UNL A   1      32.432  21.132  24.276  1.00  0.00     0.024 A 
ATOM     85  C   UNL A   1      34.731  21.883  24.406  1.00  0.00     0.003 A 
ATOM     86  C   UNL A   1      32.877  19.889  24.684  1.00  0.00     0.112 A 
ATOM     87  C   UNL A   1      35.078  20.558  24.764  1.00  0.00     0.070 A 
ATOM     88  C   UNL A   1      35.773  22.833  24.347  1.00  0.00     0.010 A 
ATOM     89  N   UNL A   1      34.168  19.576  24.888  1.00  0.00    -0.256 NA
ATOM     90  C   UNL A   1      36.417  20.234  24.961  1.00  0.00     0.029 A 
ATOM     91  C   UNL A   1      37.114  22.470  24.477  1.00  0.00     0.001 A 
ATOM     92  C   UNL A   1      37.440  21.165  24.793  1.00  0.00     0.002 A 
ENDBRANCH  82  83
ENDBRANCH  74  82
ENDBRANCH  72  74
ENDBRANCH  71  72
ENDBRANCH  70  71
ENDBRANCH   1  70
TORSDOF 16
ENDMDL
