MODEL 1
REMARK VINA RESULT:     -11.5      0.000      0.000
REMARK SMILES O=C(COc1ccc2c(c1)O/C(=C\c1cccs1)C2=O)OCCOC(=O)c1ccc(-c2c3nc(c(-c4cccc(S(=O)(=O)[O-])c4F)c4ccc([nH]4)c(-c4cccc(S(=O)(=O)[O-])c4F)c4nc(c(-c5cccc(S(=O)(=O)[O-])c5F)c5ccc2[nH]5)C=C4)C=C3)cc1
REMARK SMILES IDX 22 1 21 2 2 3 1 4 3 5 4 6 5 7 6 8 10 9 7 10 9 11 8 12 11 13
REMARK SMILES IDX 19 14 12 15 20 16 13 17 14 18 15 19 18 20 16 21 17 22 23 23
REMARK SMILES IDX 24 24 25 25 26 26 27 27 28 28 89 29 29 30 88 31 30 32 31 33
REMARK SMILES IDX 32 34 82 35 33 36 87 37 81 38 83 39 34 40 86 41 80 42 79 43
REMARK SMILES IDX 35 45 67 46 47 47 66 48 48 49 51 50 65 51 84 52 49 53 50 54
REMARK SMILES IDX 64 56 85 57 52 58 36 59 37 60 45 61 38 62 40 63 46 64 39 65
REMARK SMILES IDX 41 66 42 67 43 68 44 69 68 70 69 71 77 72 70 73 72 74 78 75
REMARK SMILES IDX 71 76 73 77 74 78 75 79 76 80 53 81 54 82 62 83 55 84 57 85
REMARK SMILES IDX 63 86 56 87 58 88 59 89 60 90 61 91
REMARK H PARENT 83 44 51 55
REMARK Flexibility Score: inf
ROOT
ATOM      1  C   UNL A   1      31.326  29.424  24.706  1.00  0.00     0.274 C 
ENDROOT
BRANCH   1   2
ATOM      2  O   UNL A   1      30.313  29.741  23.732  1.00  0.00    -0.460 OA
BRANCH   2   3
ATOM      3  C   UNL A   1      30.378  29.323  22.444  1.00  0.00     0.344 C 
ATOM      4  O   UNL A   1      29.771  29.931  21.564  1.00  0.00    -0.248 OA
BRANCH   3   5
ATOM      5  C   UNL A   1      31.282  28.141  22.115  1.00  0.00     0.351 C 
BRANCH   5   6
ATOM      6  O   UNL A   1      30.566  26.910  22.080  1.00  0.00    -0.482 OA
BRANCH   6   7
ATOM      7  C   UNL A   1      30.847  26.204  23.218  1.00  0.00     0.123 A 
ATOM      8  C   UNL A   1      29.887  26.125  24.247  1.00  0.00     0.047 A 
ATOM      9  C   UNL A   1      32.092  25.587  23.311  1.00  0.00     0.094 A 
ATOM     10  C   UNL A   1      30.178  25.454  25.432  1.00  0.00     0.020 A 
ATOM     11  C   UNL A   1      32.349  24.914  24.480  1.00  0.00     0.142 A 
ATOM     12  C   UNL A   1      31.416  24.852  25.513  1.00  0.00     0.069 A 
ATOM     13  O   UNL A   1      33.494  24.213  24.747  1.00  0.00    -0.452 OA
ATOM     14  C   UNL A   1      31.983  24.012  26.557  1.00  0.00     0.232 C 
ATOM     15  C   UNL A   1      33.283  23.599  25.978  1.00  0.00     0.176 C 
ATOM     16  O   UNL A   1      31.479  23.704  27.619  1.00  0.00    -0.285 OA
ATOM     17  C   UNL A   1      34.087  22.673  26.512  1.00  0.00     0.070 C 
BRANCH  17  18
ATOM     18  C   UNL A   1      35.263  22.293  25.814  1.00  0.00     0.031 A 
ATOM     19  C   UNL A   1      35.492  21.159  25.056  1.00  0.00     0.020 A 
ATOM     20  S   UNL A   1      36.681  23.259  25.919  1.00  0.00    -0.144 S 
ATOM     21  C   UNL A   1      36.844  21.047  24.638  1.00  0.00     0.012 A 
ATOM     22  C   UNL A   1      37.610  22.105  25.068  1.00  0.00     0.065 A 
ENDBRANCH  17  18
ENDBRANCH   6   7
ENDBRANCH   5   6
ENDBRANCH   3   5
ENDBRANCH   2   3
ENDBRANCH   1   2
BRANCH   1  23
ATOM     23  C   UNL A   1      31.426  30.521  25.771  1.00  0.00     0.275 C 
BRANCH  23  24
ATOM     24  O   UNL A   1      32.722  30.517  26.402  1.00  0.00    -0.458 OA
BRANCH  24  25
ATOM     25  C   UNL A   1      33.079  31.645  27.073  1.00  0.00     0.338 C 
ATOM     26  O   UNL A   1      32.379  32.620  27.276  1.00  0.00    -0.246 OA
BRANCH  25  27
ATOM     27  C   UNL A   1      34.394  31.408  27.719  1.00  0.00     0.060 A 
ATOM     28  C   UNL A   1      34.735  30.104  28.108  1.00  0.00     0.016 A 
ATOM     29  C   UNL A   1      35.308  32.449  27.892  1.00  0.00     0.016 A 
ATOM     30  C   UNL A   1      35.996  29.838  28.656  1.00  0.00     0.010 A 
ATOM     31  C   UNL A   1      36.559  32.184  28.459  1.00  0.00     0.010 A 
ATOM     32  C   UNL A   1      36.912  30.880  28.852  1.00  0.00    -0.014 A 
BRANCH  32  33
ATOM     33  C   UNL A   1      38.200  30.653  29.559  1.00  0.00     0.031 A 
ATOM     34  C   UNL A   1      39.213  29.725  28.947  1.00  0.00     0.074 A 
ATOM     35  C   UNL A   1      38.438  31.198  30.767  1.00  0.00     0.049 A 
ATOM     36  N   UNL A   1      40.341  29.290  29.443  1.00  0.00    -0.248 NA
ATOM     37  C   UNL A   1      38.910  29.216  27.599  1.00  0.00     0.031 C 
ATOM     38  C   UNL A   1      37.543  32.109  31.479  1.00  0.00     0.029 A 
ATOM     39  N   UNL A   1      39.493  31.019  31.634  1.00  0.00    -0.354 N 
ATOM     40  C   UNL A   1      40.863  28.422  28.492  1.00  0.00     0.074 A 
ATOM     41  C   UNL A   1      39.933  28.401  27.383  1.00  0.00     0.031 C 
ATOM     42  C   UNL A   1      38.060  32.368  32.694  1.00  0.00     0.029 A 
ATOM     43  C   UNL A   1      39.305  31.617  32.860  1.00  0.00     0.049 A 
ATOM     44  H   UNL A   1      40.304  30.512  31.400  1.00  0.00     0.167 HD
ATOM     45  C   UNL A   1      42.010  27.706  28.536  1.00  0.00     0.034 A 
ATOM     46  C   UNL A   1      40.026  31.533  33.998  1.00  0.00     0.034 A 
ATOM     47  C   UNL A   1      42.948  27.735  29.626  1.00  0.00     0.049 A 
ATOM     48  C   UNL A   1      41.286  30.699  34.028  1.00  0.00     0.074 A 
ATOM     49  C   UNL A   1      44.178  27.105  29.713  1.00  0.00     0.029 A 
ATOM     50  N   UNL A   1      42.750  28.395  30.825  1.00  0.00    -0.354 N 
ATOM     51  N   UNL A   1      41.845  30.010  33.063  1.00  0.00    -0.248 NA
ATOM     52  C   UNL A   1      42.025  30.648  35.300  1.00  0.00     0.031 C 
ATOM     53  C   UNL A   1      44.698  27.337  30.988  1.00  0.00     0.029 A 
ATOM     54  C   UNL A   1      43.816  28.155  31.676  1.00  0.00     0.049 A 
ATOM     55  H   UNL A   1      41.968  28.951  31.043  1.00  0.00     0.167 HD
ATOM     56  C   UNL A   1      43.012  29.474  33.602  1.00  0.00     0.074 A 
ATOM     57  C   UNL A   1      43.095  29.937  34.969  1.00  0.00     0.031 C 
ATOM     58  C   UNL A   1      43.925  28.657  33.019  1.00  0.00     0.034 A 
BRANCH  45  59
ATOM     59  C   UNL A   1      42.332  26.810  27.371  1.00  0.00     0.023 A 
ATOM     60  C   UNL A   1      43.052  27.315  26.270  1.00  0.00     0.012 A 
ATOM     61  C   UNL A   1      42.006  25.441  27.419  1.00  0.00     0.148 A 
ATOM     62  C   UNL A   1      43.427  26.472  25.225  1.00  0.00     0.002 A 
ATOM     63  C   UNL A   1      42.422  24.598  26.397  1.00  0.00     0.091 A 
ATOM     64  F   UNL A   1      41.304  24.989  28.468  1.00  0.00    -0.205 F 
ATOM     65  C   UNL A   1      43.124  25.114  25.294  1.00  0.00     0.022 A 
BRANCH  63  66
ATOM     66  S   UNL A   1      42.155  22.824  26.435  1.00  0.00     0.127 S 
ATOM     67  O   UNL A   1      40.703  22.748  26.584  1.00  0.00    -0.237 OA
ATOM     68  O   UNL A   1      42.657  22.411  25.123  1.00  0.00    -0.237 OA
ATOM     69  O   UNL A   1      42.922  22.322  27.567  1.00  0.00    -0.744 OA
ENDBRANCH  63  66
ENDBRANCH  45  59
BRANCH  46  70
ATOM     70  C   UNL A   1      39.569  32.229  35.236  1.00  0.00     0.023 A 
ATOM     71  C   UNL A   1      38.675  31.587  36.115  1.00  0.00     0.012 A 
ATOM     72  C   UNL A   1      39.978  33.547  35.516  1.00  0.00     0.148 A 
ATOM     73  C   UNL A   1      38.156  32.263  37.220  1.00  0.00     0.002 A 
ATOM     74  C   UNL A   1      39.499  34.197  36.648  1.00  0.00     0.091 A 
ATOM     75  F   UNL A   1      40.816  34.149  34.660  1.00  0.00    -0.205 F 
ATOM     76  C   UNL A   1      38.570  33.567  37.487  1.00  0.00     0.022 A 
BRANCH  74  77
ATOM     77  S   UNL A   1      40.072  35.832  37.123  1.00  0.00     0.127 S 
ATOM     78  O   UNL A   1      39.674  36.636  35.972  1.00  0.00    -0.237 OA
ATOM     79  O   UNL A   1      39.302  36.083  38.341  1.00  0.00    -0.237 OA
ATOM     80  O   UNL A   1      41.506  35.693  37.342  1.00  0.00    -0.744 OA
ENDBRANCH  74  77
ENDBRANCH  46  70
BRANCH  58  81
ATOM     81  C   UNL A   1      45.123  28.228  33.830  1.00  0.00     0.023 A 
ATOM     82  C   UNL A   1      46.265  29.052  33.888  1.00  0.00     0.012 A 
ATOM     83  C   UNL A   1      45.076  27.058  34.614  1.00  0.00     0.148 A 
ATOM     84  C   UNL A   1      47.349  28.705  34.695  1.00  0.00     0.002 A 
ATOM     85  C   UNL A   1      46.138  26.745  35.454  1.00  0.00     0.091 A 
ATOM     86  F   UNL A   1      43.986  26.282  34.536  1.00  0.00    -0.205 F 
ATOM     87  C   UNL A   1      47.280  27.561  35.487  1.00  0.00     0.022 A 
BRANCH  85  88
ATOM     88  S   UNL A   1      46.102  25.347  36.583  1.00  0.00     0.127 S 
ATOM     89  O   UNL A   1      47.363  25.515  37.304  1.00  0.00    -0.237 OA
ATOM     90  O   UNL A   1      44.905  25.624  37.377  1.00  0.00    -0.237 OA
ATOM     91  O   UNL A   1      46.019  24.155  35.751  1.00  0.00    -0.744 OA
ENDBRANCH  85  88
ENDBRANCH  58  81
ENDBRANCH  32  33
ENDBRANCH  25  27
ENDBRANCH  24  25
ENDBRANCH  23  24
ENDBRANCH   1  23
TORSDOF 17
ENDMDL
MODEL 2
REMARK VINA RESULT:     -11.3      6.151     10.271
REMARK SMILES O=C(COc1ccc2c(c1)O/C(=C\c1cccs1)C2=O)OCCOC(=O)c1ccc(-c2c3nc(c(-c4cccc(S(=O)(=O)[O-])c4F)c4ccc([nH]4)c(-c4cccc(S(=O)(=O)[O-])c4F)c4nc(c(-c5cccc(S(=O)(=O)[O-])c5F)c5ccc2[nH]5)C=C4)C=C3)cc1
REMARK SMILES IDX 22 1 21 2 2 3 1 4 3 5 4 6 5 7 6 8 10 9 7 10 9 11 8 12 11 13
REMARK SMILES IDX 19 14 12 15 20 16 13 17 14 18 15 19 18 20 16 21 17 22 23 23
REMARK SMILES IDX 24 24 25 25 26 26 27 27 28 28 89 29 29 30 88 31 30 32 31 33
REMARK SMILES IDX 32 34 82 35 33 36 87 37 81 38 83 39 34 40 86 41 80 42 79 43
REMARK SMILES IDX 35 45 67 46 47 47 66 48 48 49 51 50 65 51 84 52 49 53 50 54
REMARK SMILES IDX 64 56 85 57 52 58 36 59 37 60 45 61 38 62 40 63 46 64 39 65
REMARK SMILES IDX 41 66 42 67 43 68 44 69 68 70 69 71 77 72 70 73 72 74 78 75
REMARK SMILES IDX 71 76 73 77 74 78 75 79 76 80 53 81 54 82 62 83 55 84 57 85
REMARK SMILES IDX 63 86 56 87 58 88 59 89 60 90 61 91
REMARK H PARENT 83 44 51 55
REMARK Flexibility Score: inf
ROOT
ATOM      1  C   UNL A   1      41.717  19.243  26.394  1.00  0.00     0.274 C 
ENDROOT
BRANCH   1   2
ATOM      2  O   UNL A   1      41.683  20.629  26.003  1.00  0.00    -0.460 OA
BRANCH   2   3
ATOM      3  C   UNL A   1      40.803  21.518  26.527  1.00  0.00     0.344 C 
ATOM      4  O   UNL A   1      41.188  22.379  27.316  1.00  0.00    -0.248 OA
BRANCH   3   5
ATOM      5  C   UNL A   1      39.358  21.468  26.047  1.00  0.00     0.351 C 
BRANCH   5   6
ATOM      6  O   UNL A   1      38.785  22.766  25.928  1.00  0.00    -0.482 OA
BRANCH   6   7
ATOM      7  C   UNL A   1      37.511  22.643  25.444  1.00  0.00     0.123 A 
ATOM      8  C   UNL A   1      36.885  23.748  24.832  1.00  0.00     0.047 A 
ATOM      9  C   UNL A   1      36.879  21.410  25.581  1.00  0.00     0.094 A 
ATOM     10  C   UNL A   1      35.571  23.653  24.380  1.00  0.00     0.020 A 
ATOM     11  C   UNL A   1      35.592  21.333  25.109  1.00  0.00     0.142 A 
ATOM     12  C   UNL A   1      34.956  22.428  24.527  1.00  0.00     0.069 A 
ATOM     13  O   UNL A   1      34.819  20.203  25.116  1.00  0.00    -0.452 OA
ATOM     14  C   UNL A   1      33.644  21.980  24.083  1.00  0.00     0.232 C 
ATOM     15  C   UNL A   1      33.648  20.541  24.444  1.00  0.00     0.176 C 
ATOM     16  O   UNL A   1      32.787  22.631  23.520  1.00  0.00    -0.285 OA
ATOM     17  C   UNL A   1      32.707  19.667  24.070  1.00  0.00     0.070 C 
BRANCH  17  18
ATOM     18  C   UNL A   1      32.870  18.296  24.397  1.00  0.00     0.031 A 
ATOM     19  C   UNL A   1      32.540  17.640  25.570  1.00  0.00     0.020 A 
ATOM     20  S   UNL A   1      33.639  17.229  23.291  1.00  0.00    -0.144 S 
ATOM     21  C   UNL A   1      32.994  16.295  25.586  1.00  0.00     0.012 A 
ATOM     22  C   UNL A   1      33.639  15.950  24.423  1.00  0.00     0.065 A 
ENDBRANCH  17  18
ENDBRANCH   6   7
ENDBRANCH   5   6
ENDBRANCH   3   5
ENDBRANCH   2   3
ENDBRANCH   1   2
BRANCH   1  23
ATOM     23  C   UNL A   1      42.946  18.538  25.812  1.00  0.00     0.275 C 
BRANCH  23  24
ATOM     24  O   UNL A   1      43.335  19.125  24.553  1.00  0.00    -0.458 OA
BRANCH  24  25
ATOM     25  C   UNL A   1      44.654  19.417  24.396  1.00  0.00     0.338 C 
ATOM     26  O   UNL A   1      45.506  18.689  23.920  1.00  0.00    -0.246 OA
BRANCH  25  27
ATOM     27  C   UNL A   1      44.852  20.858  24.691  1.00  0.00     0.060 A 
ATOM     28  C   UNL A   1      45.203  21.244  25.993  1.00  0.00     0.016 A 
ATOM     29  C   UNL A   1      44.747  21.818  23.683  1.00  0.00     0.016 A 
ATOM     30  C   UNL A   1      45.464  22.588  26.284  1.00  0.00     0.010 A 
ATOM     31  C   UNL A   1      44.987  23.164  23.982  1.00  0.00     0.010 A 
ATOM     32  C   UNL A   1      45.341  23.561  25.284  1.00  0.00    -0.014 A 
BRANCH  32  33
ATOM     33  C   UNL A   1      45.473  25.009  25.595  1.00  0.00     0.031 A 
ATOM     34  C   UNL A   1      46.848  25.617  25.661  1.00  0.00     0.074 A 
ATOM     35  C   UNL A   1      44.397  25.760  25.894  1.00  0.00     0.049 A 
ATOM     36  N   UNL A   1      47.203  26.819  26.031  1.00  0.00    -0.248 NA
ATOM     37  C   UNL A   1      47.970  24.751  25.263  1.00  0.00     0.031 C 
ATOM     38  C   UNL A   1      43.009  25.300  25.876  1.00  0.00     0.029 A 
ATOM     39  N   UNL A   1      44.312  27.065  26.324  1.00  0.00    -0.354 N 
ATOM     40  C   UNL A   1      48.590  26.844  25.955  1.00  0.00     0.074 A 
ATOM     41  C   UNL A   1      49.012  25.539  25.492  1.00  0.00     0.031 C 
ATOM     42  C   UNL A   1      42.215  26.289  26.326  1.00  0.00     0.029 A 
ATOM     43  C   UNL A   1      43.039  27.440  26.695  1.00  0.00     0.049 A 
ATOM     44  H   UNL A   1      45.086  27.672  26.363  1.00  0.00     0.167 HD
ATOM     45  C   UNL A   1      49.438  27.858  26.245  1.00  0.00     0.034 A 
ATOM     46  C   UNL A   1      42.596  28.560  27.304  1.00  0.00     0.034 A 
ATOM     47  C   UNL A   1      49.026  29.162  26.689  1.00  0.00     0.049 A 
ATOM     48  C   UNL A   1      43.570  29.663  27.646  1.00  0.00     0.074 A 
ATOM     49  C   UNL A   1      49.816  30.276  26.923  1.00  0.00     0.029 A 
ATOM     50  N   UNL A   1      47.726  29.522  27.000  1.00  0.00    -0.354 N 
ATOM     51  N   UNL A   1      44.859  29.729  27.420  1.00  0.00    -0.248 NA
ATOM     52  C   UNL A   1      43.023  30.858  28.310  1.00  0.00     0.031 C 
ATOM     53  C   UNL A   1      49.001  31.290  27.431  1.00  0.00     0.029 A 
ATOM     54  C   UNL A   1      47.696  30.826  27.462  1.00  0.00     0.049 A 
ATOM     55  H   UNL A   1      46.940  28.937  26.907  1.00  0.00     0.167 HD
ATOM     56  C   UNL A   1      45.267  30.977  27.883  1.00  0.00     0.074 A 
ATOM     57  C   UNL A   1      44.086  31.648  28.379  1.00  0.00     0.031 C 
ATOM     58  C   UNL A   1      46.513  31.513  27.909  1.00  0.00     0.034 A 
BRANCH  45  59
ATOM     59  C   UNL A   1      50.915  27.612  26.102  1.00  0.00     0.023 A 
ATOM     60  C   UNL A   1      51.688  27.278  27.231  1.00  0.00     0.012 A 
ATOM     61  C   UNL A   1      51.511  27.612  24.825  1.00  0.00     0.148 A 
ATOM     62  C   UNL A   1      53.040  26.967  27.094  1.00  0.00     0.002 A 
ATOM     63  C   UNL A   1      52.846  27.256  24.691  1.00  0.00     0.091 A 
ATOM     64  F   UNL A   1      50.758  27.951  23.769  1.00  0.00    -0.205 F 
ATOM     65  C   UNL A   1      53.615  26.942  25.825  1.00  0.00     0.022 A 
BRANCH  63  66
ATOM     66  S   UNL A   1      53.655  27.113  23.095  1.00  0.00     0.127 S 
ATOM     67  O   UNL A   1      54.999  26.687  23.483  1.00  0.00    -0.237 OA
ATOM     68  O   UNL A   1      52.853  26.081  22.437  1.00  0.00    -0.237 OA
ATOM     69  O   UNL A   1      53.576  28.431  22.481  1.00  0.00    -0.744 OA
ENDBRANCH  63  66
ENDBRANCH  45  59
BRANCH  46  70
ATOM     70  C   UNL A   1      41.157  28.702  27.672  1.00  0.00     0.023 A 
ATOM     71  C   UNL A   1      40.225  29.140  26.710  1.00  0.00     0.012 A 
ATOM     72  C   UNL A   1      40.720  28.455  28.988  1.00  0.00     0.148 A 
ATOM     73  C   UNL A   1      38.897  29.380  27.067  1.00  0.00     0.002 A 
ATOM     74  C   UNL A   1      39.385  28.645  29.323  1.00  0.00     0.091 A 
ATOM     75  F   UNL A   1      41.624  28.056  29.894  1.00  0.00    -0.205 F 
ATOM     76  C   UNL A   1      38.477  29.131  28.371  1.00  0.00     0.022 A 
BRANCH  74  77
ATOM     77  S   UNL A   1      38.742  28.237  30.951  1.00  0.00     0.127 S 
ATOM     78  O   UNL A   1      38.872  26.784  30.969  1.00  0.00    -0.237 OA
ATOM     79  O   UNL A   1      39.670  28.946  31.832  1.00  0.00    -0.237 OA
ATOM     80  O   UNL A   1      37.382  28.759  30.973  1.00  0.00    -0.744 OA
ENDBRANCH  74  77
ENDBRANCH  46  70
BRANCH  58  81
ATOM     81  C   UNL A   1      46.682  32.909  28.455  1.00  0.00     0.023 A 
ATOM     82  C   UNL A   1      47.062  33.098  29.799  1.00  0.00     0.012 A 
ATOM     83  C   UNL A   1      46.563  34.030  27.608  1.00  0.00     0.148 A 
ATOM     84  C   UNL A   1      47.296  34.381  30.296  1.00  0.00     0.002 A 
ATOM     85  C   UNL A   1      46.847  35.300  28.096  1.00  0.00     0.091 A 
ATOM     86  F   UNL A   1      46.189  33.830  26.336  1.00  0.00    -0.205 F 
ATOM     87  C   UNL A   1      47.202  35.478  29.443  1.00  0.00     0.022 A 
BRANCH  85  88
ATOM     88  S   UNL A   1      46.850  36.762  27.052  1.00  0.00     0.127 S 
ATOM     89  O   UNL A   1      45.446  36.841  26.650  1.00  0.00    -0.237 OA
ATOM     90  O   UNL A   1      47.276  37.805  27.984  1.00  0.00    -0.237 OA
ATOM     91  O   UNL A   1      47.788  36.489  25.972  1.00  0.00    -0.744 OA
ENDBRANCH  85  88
ENDBRANCH  58  81
ENDBRANCH  32  33
ENDBRANCH  25  27
ENDBRANCH  24  25
ENDBRANCH  23  24
ENDBRANCH   1  23
TORSDOF 17
ENDMDL
MODEL 3
REMARK VINA RESULT:     -11.2      2.491      4.553
REMARK SMILES O=C(COc1ccc2c(c1)O/C(=C\c1cccs1)C2=O)OCCOC(=O)c1ccc(-c2c3nc(c(-c4cccc(S(=O)(=O)[O-])c4F)c4ccc([nH]4)c(-c4cccc(S(=O)(=O)[O-])c4F)c4nc(c(-c5cccc(S(=O)(=O)[O-])c5F)c5ccc2[nH]5)C=C4)C=C3)cc1
REMARK SMILES IDX 22 1 21 2 2 3 1 4 3 5 4 6 5 7 6 8 10 9 7 10 9 11 8 12 11 13
REMARK SMILES IDX 19 14 12 15 20 16 13 17 14 18 15 19 18 20 16 21 17 22 23 23
REMARK SMILES IDX 24 24 25 25 26 26 27 27 28 28 89 29 29 30 88 31 30 32 31 33
REMARK SMILES IDX 32 34 82 35 33 36 87 37 81 38 83 39 34 40 86 41 80 42 79 43
REMARK SMILES IDX 35 45 67 46 47 47 66 48 48 49 51 50 65 51 84 52 49 53 50 54
REMARK SMILES IDX 64 56 85 57 52 58 36 59 37 60 45 61 38 62 40 63 46 64 39 65
REMARK SMILES IDX 41 66 42 67 43 68 44 69 68 70 69 71 77 72 70 73 72 74 78 75
REMARK SMILES IDX 71 76 73 77 74 78 75 79 76 80 53 81 54 82 62 83 55 84 57 85
REMARK SMILES IDX 63 86 56 87 58 88 59 89 60 90 61 91
REMARK H PARENT 83 44 51 55
REMARK Flexibility Score: inf
ROOT
ATOM      1  C   UNL A   1      32.579  31.269  27.045  1.00  0.00     0.274 C 
ENDROOT
BRANCH   1   2
ATOM      2  O   UNL A   1      33.997  31.065  27.191  1.00  0.00    -0.460 OA
BRANCH   2   3
ATOM      3  C   UNL A   1      34.556  29.834  27.291  1.00  0.00     0.344 C 
ATOM      4  O   UNL A   1      35.139  29.499  28.321  1.00  0.00    -0.248 OA
BRANCH   3   5
ATOM      5  C   UNL A   1      34.367  28.862  26.133  1.00  0.00     0.351 C 
BRANCH   5   6
ATOM      6  O   UNL A   1      33.831  27.613  26.559  1.00  0.00    -0.482 OA
BRANCH   6   7
ATOM      7  C   UNL A   1      32.640  27.404  25.921  1.00  0.00     0.123 A 
ATOM      8  C   UNL A   1      31.990  26.158  26.043  1.00  0.00     0.047 A 
ATOM      9  C   UNL A   1      32.114  28.448  25.165  1.00  0.00     0.094 A 
ATOM     10  C   UNL A   1      30.802  25.914  25.357  1.00  0.00     0.020 A 
ATOM     11  C   UNL A   1      30.932  28.191  24.515  1.00  0.00     0.142 A 
ATOM     12  C   UNL A   1      30.296  26.954  24.609  1.00  0.00     0.069 A 
ATOM     13  O   UNL A   1      30.238  29.097  23.758  1.00  0.00    -0.452 OA
ATOM     14  C   UNL A   1      29.050  27.052  23.862  1.00  0.00     0.232 C 
ATOM     15  C   UNL A   1      29.056  28.459  23.394  1.00  0.00     0.176 C 
ATOM     16  O   UNL A   1      28.207  26.191  23.708  1.00  0.00    -0.285 OA
ATOM     17  C   UNL A   1      28.018  29.062  22.805  1.00  0.00     0.070 C 
BRANCH  17  18
ATOM     18  C   UNL A   1      28.111  30.442  22.486  1.00  0.00     0.031 A 
ATOM     19  C   UNL A   1      28.064  31.532  23.336  1.00  0.00     0.020 A 
ATOM     20  S   UNL A   1      28.220  30.944  20.846  1.00  0.00    -0.144 S 
ATOM     21  C   UNL A   1      28.033  32.767  22.636  1.00  0.00     0.012 A 
ATOM     22  C   UNL A   1      28.078  32.593  21.273  1.00  0.00     0.065 A 
ENDBRANCH  17  18
ENDBRANCH   6   7
ENDBRANCH   5   6
ENDBRANCH   3   5
ENDBRANCH   2   3
ENDBRANCH   1   2
BRANCH   1  23
ATOM     23  C   UNL A   1      32.252  32.756  26.878  1.00  0.00     0.275 C 
BRANCH  23  24
ATOM     24  O   UNL A   1      32.075  33.397  28.158  1.00  0.00    -0.458 OA
BRANCH  24  25
ATOM     25  C   UNL A   1      32.903  34.439  28.439  1.00  0.00     0.338 C 
ATOM     26  O   UNL A   1      32.627  35.622  28.377  1.00  0.00    -0.246 OA
BRANCH  25  27
ATOM     27  C   UNL A   1      34.140  33.898  29.057  1.00  0.00     0.060 A 
ATOM     28  C   UNL A   1      34.034  32.867  30.002  1.00  0.00     0.016 A 
ATOM     29  C   UNL A   1      35.399  34.364  28.671  1.00  0.00     0.016 A 
ATOM     30  C   UNL A   1      35.186  32.290  30.549  1.00  0.00     0.010 A 
ATOM     31  C   UNL A   1      36.548  33.800  29.236  1.00  0.00     0.010 A 
ATOM     32  C   UNL A   1      36.452  32.764  30.183  1.00  0.00    -0.014 A 
BRANCH  32  33
ATOM     33  C   UNL A   1      37.685  32.269  30.851  1.00  0.00     0.031 A 
ATOM     34  C   UNL A   1      38.526  31.235  30.153  1.00  0.00     0.074 A 
ATOM     35  C   UNL A   1      38.015  32.669  32.094  1.00  0.00     0.049 A 
ATOM     36  N   UNL A   1      39.565  30.579  30.596  1.00  0.00    -0.248 NA
ATOM     37  C   UNL A   1      38.138  30.892  28.775  1.00  0.00     0.031 C 
ATOM     38  C   UNL A   1      37.288  33.658  32.887  1.00  0.00     0.029 A 
ATOM     39  N   UNL A   1      39.026  32.248  32.927  1.00  0.00    -0.354 N 
ATOM     40  C   UNL A   1      39.931  29.713  29.573  1.00  0.00     0.074 A 
ATOM     41  C   UNL A   1      39.008  29.936  28.481  1.00  0.00     0.031 C 
ATOM     42  C   UNL A   1      37.844  33.731  34.110  1.00  0.00     0.029 A 
ATOM     43  C   UNL A   1      38.945  32.771  34.198  1.00  0.00     0.049 A 
ATOM     44  H   UNL A   1      39.739  31.632  32.642  1.00  0.00     0.167 HD
ATOM     45  C   UNL A   1      40.941  28.813  29.544  1.00  0.00     0.034 A 
ATOM     46  C   UNL A   1      39.644  32.477  35.315  1.00  0.00     0.034 A 
ATOM     47  C   UNL A   1      41.872  28.598  30.618  1.00  0.00     0.049 A 
ATOM     48  C   UNL A   1      40.744  31.444  35.261  1.00  0.00     0.074 A 
ATOM     49  C   UNL A   1      42.979  27.765  30.637  1.00  0.00     0.029 A 
ATOM     50  N   UNL A   1      41.792  29.185  31.868  1.00  0.00    -0.354 N 
ATOM     51  N   UNL A   1      41.177  30.748  34.238  1.00  0.00    -0.248 NA
ATOM     52  C   UNL A   1      41.468  31.169  36.514  1.00  0.00     0.031 C 
ATOM     53  C   UNL A   1      43.533  27.805  31.918  1.00  0.00     0.029 A 
ATOM     54  C   UNL A   1      42.804  28.703  32.680  1.00  0.00     0.049 A 
ATOM     55  H   UNL A   1      41.115  29.846  32.140  1.00  0.00     0.167 HD
ATOM     56  C   UNL A   1      42.238  29.983  34.715  1.00  0.00     0.074 A 
ATOM     57  C   UNL A   1      42.401  30.317  36.113  1.00  0.00     0.031 C 
ATOM     58  C   UNL A   1      42.999  29.073  34.057  1.00  0.00     0.034 A 
BRANCH  45  59
ATOM     59  C   UNL A   1      41.104  27.970  28.308  1.00  0.00     0.023 A 
ATOM     60  C   UNL A   1      41.768  28.492  27.180  1.00  0.00     0.012 A 
ATOM     61  C   UNL A   1      40.686  26.625  28.308  1.00  0.00     0.148 A 
ATOM     62  C   UNL A   1      41.998  27.691  26.062  1.00  0.00     0.002 A 
ATOM     63  C   UNL A   1      40.959  25.820  27.210  1.00  0.00     0.091 A 
ATOM     64  F   UNL A   1      40.040  26.158  29.386  1.00  0.00    -0.205 F 
ATOM     65  C   UNL A   1      41.605  26.354  26.082  1.00  0.00     0.022 A 
BRANCH  63  66
ATOM     66  S   UNL A   1      40.570  24.068  27.172  1.00  0.00     0.127 S 
ATOM     67  O   UNL A   1      39.109  24.092  27.143  1.00  0.00    -0.237 OA
ATOM     68  O   UNL A   1      41.200  23.643  25.921  1.00  0.00    -0.237 OA
ATOM     69  O   UNL A   1      41.157  23.497  28.376  1.00  0.00    -0.744 OA
ENDBRANCH  63  66
ENDBRANCH  45  59
BRANCH  46  70
ATOM     70  C   UNL A   1      39.314  33.141  36.610  1.00  0.00     0.023 A 
ATOM     71  C   UNL A   1      39.949  34.348  36.963  1.00  0.00     0.012 A 
ATOM     72  C   UNL A   1      38.412  32.550  37.516  1.00  0.00     0.148 A 
ATOM     73  C   UNL A   1      39.732  34.925  38.215  1.00  0.00     0.002 A 
ATOM     74  C   UNL A   1      38.160  33.158  38.740  1.00  0.00     0.091 A 
ATOM     75  F   UNL A   1      37.830  31.393  37.171  1.00  0.00    -0.205 F 
ATOM     76  C   UNL A   1      38.836  34.331  39.102  1.00  0.00     0.022 A 
BRANCH  74  77
ATOM     77  S   UNL A   1      36.935  32.518  39.888  1.00  0.00     0.127 S 
ATOM     78  O   UNL A   1      36.954  33.528  40.941  1.00  0.00    -0.237 OA
ATOM     79  O   UNL A   1      35.724  32.509  39.069  1.00  0.00    -0.237 OA
ATOM     80  O   UNL A   1      37.410  31.193  40.264  1.00  0.00    -0.744 OA
ENDBRANCH  74  77
ENDBRANCH  46  70
BRANCH  58  81
ATOM     81  C   UNL A   1      44.109  28.386  34.813  1.00  0.00     0.023 A 
ATOM     82  C   UNL A   1      45.441  28.817  34.654  1.00  0.00     0.012 A 
ATOM     83  C   UNL A   1      43.818  27.381  35.758  1.00  0.00     0.148 A 
ATOM     84  C   UNL A   1      46.467  28.242  35.404  1.00  0.00     0.002 A 
ATOM     85  C   UNL A   1      44.838  26.849  36.539  1.00  0.00     0.091 A 
ATOM     86  F   UNL A   1      42.547  26.977  35.887  1.00  0.00    -0.205 F 
ATOM     87  C   UNL A   1      46.164  27.270  36.355  1.00  0.00     0.022 A 
BRANCH  85  88
ATOM     88  S   UNL A   1      44.533  25.665  37.856  1.00  0.00     0.127 S 
ATOM     89  O   UNL A   1      44.103  24.488  37.102  1.00  0.00    -0.237 OA
ATOM     90  O   UNL A   1      45.853  25.544  38.473  1.00  0.00    -0.237 OA
ATOM     91  O   UNL A   1      43.514  26.259  38.709  1.00  0.00    -0.744 OA
ENDBRANCH  85  88
ENDBRANCH  58  81
ENDBRANCH  32  33
ENDBRANCH  25  27
ENDBRANCH  24  25
ENDBRANCH  23  24
ENDBRANCH   1  23
TORSDOF 17
ENDMDL
