MODEL 1
REMARK VINA RESULT:     -10.6      0.000      0.000
REMARK SMILES COc1cc(Br)ccc1[C@H]([NH3+])C(=O)OCCOC(=O)c1ccc(-c2c3nc(c(-c4cccc(S(=O)(=O)[O-])c4F)c4ccc([nH]4)c(-c4cccc(S(=O)(=O)[O-])c4F)c4nc(c(-c5cccc(S(=O)(=O)[O-])c5F)c5ccc2[nH]5)C=C4)C=C3)cc1
REMARK SMILES IDX 16 1 15 2 14 3 12 4 13 5 10 6 9 7 3 8 4 9 5 10 8 11 6 12
REMARK SMILES IDX 7 13 2 14 1 15 11 16 17 20 18 21 19 22 20 23 21 24 82 25
REMARK SMILES IDX 22 26 81 27 23 28 24 29 25 30 75 31 26 32 80 33 74 34 76 35
REMARK SMILES IDX 27 36 79 37 73 38 72 39 28 41 60 42 40 43 59 44 41 45 44 46
REMARK SMILES IDX 58 47 77 48 42 49 43 50 57 52 78 53 45 54 29 55 30 56 38 57
REMARK SMILES IDX 31 58 33 59 39 60 32 61 34 62 35 63 36 64 37 65 61 66 62 67
REMARK SMILES IDX 70 68 63 69 65 70 71 71 64 72 66 73 67 74 68 75 69 76 46 77
REMARK SMILES IDX 47 78 55 79 48 80 50 81 56 82 49 83 51 84 52 85 53 86 54 87
REMARK H PARENT 11 17 11 18 11 19 76 40 44 51
REMARK Flexibility Score: inf
ROOT
ATOM      1  C   UNL A   1      31.407  30.898  26.161  1.00  0.00     0.275 C 
ENDROOT
BRANCH   1   2
ATOM      2  C   UNL A   1      30.987  30.108  24.915  1.00  0.00     0.274 C 
BRANCH   2   3
ATOM      3  O   UNL A   1      31.689  28.859  24.828  1.00  0.00    -0.457 OA
BRANCH   3   4
ATOM      4  C   UNL A   1      32.252  28.545  23.625  1.00  0.00     0.370 C 
ATOM      5  O   UNL A   1      31.686  28.692  22.546  1.00  0.00    -0.245 OA
BRANCH   4   6
ATOM      6  C   UNL A   1      33.706  28.013  23.762  1.00  0.00     0.326 C 
BRANCH   6   7
ATOM      7  C   UNL A   1      33.816  26.503  23.976  1.00  0.00     0.063 A 
ATOM      8  C   UNL A   1      33.821  25.586  22.905  1.00  0.00     0.129 A 
ATOM      9  C   UNL A   1      33.945  24.208  23.128  1.00  0.00     0.062 A 
ATOM     10  C   UNL A   1      33.959  23.715  24.427  1.00  0.00     0.021 A 
ATOM     11  C   UNL A   1      33.779  25.962  25.279  1.00  0.00     0.015 A 
ATOM     12  Br  UNL A   1      34.109  21.856  24.730  1.00  0.00    -0.051 Br
ATOM     13  C   UNL A   1      33.849  24.584  25.504  1.00  0.00     0.016 A 
BRANCH   8  14
ATOM     14  O   UNL A   1      33.747  26.059  21.616  1.00  0.00    -0.496 OA
ATOM     15  C   UNL A   1      32.571  25.618  20.938  1.00  0.00     0.278 C 
ENDBRANCH   8  14
ENDBRANCH   6   7
BRANCH   6  16
ATOM     16  N   UNL A   1      34.429  28.820  24.774  1.00  0.00    -0.342 N 
ATOM     17  H   UNL A   1      33.793  29.063  25.533  1.00  0.00     0.345 HD
ATOM     18  H   UNL A   1      34.782  29.673  24.340  1.00  0.00     0.345 HD
ATOM     19  H   UNL A   1      35.211  28.279  25.145  1.00  0.00     0.345 HD
ENDBRANCH   6  16
ENDBRANCH   4   6
ENDBRANCH   3   4
ENDBRANCH   2   3
ENDBRANCH   1   2
BRANCH   1  20
ATOM     20  O   UNL A   1      32.830  30.860  26.376  1.00  0.00    -0.458 OA
BRANCH  20  21
ATOM     21  C   UNL A   1      33.324  31.847  27.160  1.00  0.00     0.338 C 
ATOM     22  O   UNL A   1      32.754  32.873  27.499  1.00  0.00    -0.246 OA
BRANCH  21  23
ATOM     23  C   UNL A   1      34.632  31.455  27.714  1.00  0.00     0.060 A 
ATOM     24  C   UNL A   1      34.787  30.119  28.093  1.00  0.00     0.016 A 
ATOM     25  C   UNL A   1      35.658  32.375  27.935  1.00  0.00     0.016 A 
ATOM     26  C   UNL A   1      35.956  29.696  28.712  1.00  0.00     0.010 A 
ATOM     27  C   UNL A   1      36.838  31.949  28.558  1.00  0.00     0.010 A 
ATOM     28  C   UNL A   1      36.984  30.610  28.966  1.00  0.00    -0.014 A 
BRANCH  28  29
ATOM     29  C   UNL A   1      38.176  30.151  29.714  1.00  0.00     0.031 A 
ATOM     30  C   UNL A   1      38.404  30.623  31.122  1.00  0.00     0.074 A 
ATOM     31  C   UNL A   1      39.021  29.271  29.147  1.00  0.00     0.049 A 
ATOM     32  N   UNL A   1      39.375  30.324  31.944  1.00  0.00    -0.248 NA
ATOM     33  C   UNL A   1      37.407  31.550  31.680  1.00  0.00     0.031 C 
ATOM     34  C   UNL A   1      38.890  28.731  27.793  1.00  0.00     0.029 A 
ATOM     35  N   UNL A   1      40.158  28.679  29.636  1.00  0.00    -0.354 N 
ATOM     36  C   UNL A   1      39.130  31.051  33.102  1.00  0.00     0.074 A 
ATOM     37  C   UNL A   1      37.917  31.808  32.876  1.00  0.00     0.031 C 
ATOM     38  C   UNL A   1      39.912  27.891  27.558  1.00  0.00     0.029 A 
ATOM     39  C   UNL A   1      40.782  27.856  28.729  1.00  0.00     0.049 A 
ATOM     40  H   UNL A   1      40.494  28.829  30.549  1.00  0.00     0.167 HD
ATOM     41  C   UNL A   1      39.840  31.072  34.254  1.00  0.00     0.034 A 
ATOM     42  C   UNL A   1      41.935  27.166  28.827  1.00  0.00     0.034 A 
ATOM     43  C   UNL A   1      41.023  30.287  34.488  1.00  0.00     0.049 A 
ATOM     44  C   UNL A   1      42.708  27.214  30.117  1.00  0.00     0.074 A 
ATOM     45  C   UNL A   1      41.791  30.210  35.637  1.00  0.00     0.029 A 
ATOM     46  N   UNL A   1      41.612  29.446  33.557  1.00  0.00    -0.354 N 
ATOM     47  N   UNL A   1      42.408  27.826  31.237  1.00  0.00    -0.248 NA
ATOM     48  C   UNL A   1      43.967  26.457  30.166  1.00  0.00     0.031 C 
ATOM     49  C   UNL A   1      42.850  29.330  35.396  1.00  0.00     0.029 A 
ATOM     50  C   UNL A   1      42.737  28.851  34.100  1.00  0.00     0.049 A 
ATOM     51  H   UNL A   1      41.278  29.294  32.644  1.00  0.00     0.167 HD
ATOM     52  C   UNL A   1      43.427  27.514  32.128  1.00  0.00     0.074 A 
ATOM     53  C   UNL A   1      44.338  26.632  31.428  1.00  0.00     0.031 C 
ATOM     54  C   UNL A   1      43.606  27.937  33.405  1.00  0.00     0.034 A 
BRANCH  41  55
ATOM     55  C   UNL A   1      39.338  31.953  35.365  1.00  0.00     0.023 A 
ATOM     56  C   UNL A   1      38.390  31.448  36.276  1.00  0.00     0.012 A 
ATOM     57  C   UNL A   1      39.836  33.259  35.536  1.00  0.00     0.148 A 
ATOM     58  C   UNL A   1      37.926  32.238  37.327  1.00  0.00     0.002 A 
ATOM     59  C   UNL A   1      39.396  34.028  36.607  1.00  0.00     0.091 A 
ATOM     60  F   UNL A   1      40.716  33.731  34.641  1.00  0.00    -0.205 F 
ATOM     61  C   UNL A   1      38.435  33.521  37.498  1.00  0.00     0.022 A 
BRANCH  59  62
ATOM     62  S   UNL A   1      40.042  35.670  36.944  1.00  0.00     0.127 S 
ATOM     63  O   UNL A   1      39.595  36.410  35.765  1.00  0.00    -0.237 OA
ATOM     64  O   UNL A   1      39.354  36.027  38.185  1.00  0.00    -0.237 OA
ATOM     65  O   UNL A   1      41.483  35.510  37.078  1.00  0.00    -0.744 OA
ENDBRANCH  59  62
ENDBRANCH  41  55
BRANCH  42  66
ATOM     66  C   UNL A   1      42.404  26.341  27.678  1.00  0.00     0.023 A 
ATOM     67  C   UNL A   1      43.323  26.886  26.762  1.00  0.00     0.012 A 
ATOM     68  C   UNL A   1      41.972  25.011  27.510  1.00  0.00     0.148 A 
ATOM     69  C   UNL A   1      43.788  26.127  25.687  1.00  0.00     0.002 A 
ATOM     70  C   UNL A   1      42.482  24.243  26.470  1.00  0.00     0.091 A 
ATOM     71  F   UNL A   1      41.076  24.518  28.377  1.00  0.00    -0.205 F 
ATOM     72  C   UNL A   1      43.379  24.803  25.548  1.00  0.00     0.022 A 
BRANCH  70  73
ATOM     73  S   UNL A   1      42.109  22.493  26.305  1.00  0.00     0.127 S 
ATOM     74  O   UNL A   1      42.849  22.141  25.098  1.00  0.00    -0.237 OA
ATOM     75  O   UNL A   1      42.655  21.944  27.546  1.00  0.00    -0.237 OA
ATOM     76  O   UNL A   1      40.657  22.416  26.210  1.00  0.00    -0.744 OA
ENDBRANCH  70  73
ENDBRANCH  42  66
BRANCH  54  77
ATOM     77  C   UNL A   1      44.830  27.448  34.131  1.00  0.00     0.023 A 
ATOM     78  C   UNL A   1      46.010  28.218  34.095  1.00  0.00     0.012 A 
ATOM     79  C   UNL A   1      44.796  26.271  34.903  1.00  0.00     0.148 A 
ATOM     80  C   UNL A   1      47.145  27.810  34.793  1.00  0.00     0.002 A 
ATOM     81  C   UNL A   1      45.919  25.892  35.631  1.00  0.00     0.091 A 
ATOM     82  F   UNL A   1      43.673  25.539  34.908  1.00  0.00    -0.205 F 
ATOM     83  C   UNL A   1      47.097  26.654  35.570  1.00  0.00     0.022 A 
BRANCH  81  84
ATOM     84  S   UNL A   1      45.910  24.466  36.724  1.00  0.00     0.127 S 
ATOM     85  O   UNL A   1      45.711  23.368  35.782  1.00  0.00    -0.237 OA
ATOM     86  O   UNL A   1      47.244  24.519  37.325  1.00  0.00    -0.237 OA
ATOM     87  O   UNL A   1      44.821  24.698  37.665  1.00  0.00    -0.744 OA
ENDBRANCH  81  84
ENDBRANCH  54  77
ENDBRANCH  28  29
ENDBRANCH  21  23
ENDBRANCH  20  21
ENDBRANCH   1  20
TORSDOF 17
ENDMDL
MODEL 2
REMARK VINA RESULT:     -10.5      5.527      7.997
REMARK SMILES COc1cc(Br)ccc1[C@H]([NH3+])C(=O)OCCOC(=O)c1ccc(-c2c3nc(c(-c4cccc(S(=O)(=O)[O-])c4F)c4ccc([nH]4)c(-c4cccc(S(=O)(=O)[O-])c4F)c4nc(c(-c5cccc(S(=O)(=O)[O-])c5F)c5ccc2[nH]5)C=C4)C=C3)cc1
REMARK SMILES IDX 16 1 15 2 14 3 12 4 13 5 10 6 9 7 3 8 4 9 5 10 8 11 6 12
REMARK SMILES IDX 7 13 2 14 1 15 11 16 17 20 18 21 19 22 20 23 21 24 82 25
REMARK SMILES IDX 22 26 81 27 23 28 24 29 25 30 75 31 26 32 80 33 74 34 76 35
REMARK SMILES IDX 27 36 79 37 73 38 72 39 28 41 60 42 40 43 59 44 41 45 44 46
REMARK SMILES IDX 58 47 77 48 42 49 43 50 57 52 78 53 45 54 29 55 30 56 38 57
REMARK SMILES IDX 31 58 33 59 39 60 32 61 34 62 35 63 36 64 37 65 61 66 62 67
REMARK SMILES IDX 70 68 63 69 65 70 71 71 64 72 66 73 67 74 68 75 69 76 46 77
REMARK SMILES IDX 47 78 55 79 48 80 50 81 56 82 49 83 51 84 52 85 53 86 54 87
REMARK H PARENT 11 17 11 18 11 19 76 40 44 51
REMARK Flexibility Score: inf
ROOT
ATOM      1  C   UNL A   1      37.182  20.104  24.773  1.00  0.00     0.275 C 
ENDROOT
BRANCH   1   2
ATOM      2  C   UNL A   1      35.661  20.135  24.963  1.00  0.00     0.274 C 
BRANCH   2   3
ATOM      3  O   UNL A   1      35.146  21.469  24.837  1.00  0.00    -0.457 OA
BRANCH   3   4
ATOM      4  C   UNL A   1      34.006  21.763  25.529  1.00  0.00     0.370 C 
ATOM      5  O   UNL A   1      32.935  21.189  25.356  1.00  0.00    -0.245 OA
BRANCH   4   6
ATOM      6  C   UNL A   1      34.217  22.881  26.588  1.00  0.00     0.326 C 
BRANCH   6   7
ATOM      7  C   UNL A   1      33.586  24.228  26.229  1.00  0.00     0.063 A 
ATOM      8  C   UNL A   1      32.285  24.586  26.638  1.00  0.00     0.129 A 
ATOM      9  C   UNL A   1      31.739  25.834  26.312  1.00  0.00     0.062 A 
ATOM     10  C   UNL A   1      32.441  26.704  25.486  1.00  0.00     0.021 A 
ATOM     11  C   UNL A   1      34.245  25.113  25.349  1.00  0.00     0.015 A 
ATOM     12  Br  UNL A   1      31.699  28.382  25.034  1.00  0.00    -0.051 Br
ATOM     13  C   UNL A   1      33.680  26.337  24.980  1.00  0.00     0.016 A 
BRANCH   8  14
ATOM     14  O   UNL A   1      31.557  23.708  27.406  1.00  0.00    -0.496 OA
ATOM     15  C   UNL A   1      30.364  23.271  26.756  1.00  0.00     0.278 C 
ENDBRANCH   8  14
ENDBRANCH   6   7
BRANCH   6  16
ATOM     16  N   UNL A   1      35.656  22.963  26.934  1.00  0.00    -0.342 N 
ATOM     17  H   UNL A   1      35.892  23.924  27.181  1.00  0.00     0.345 HD
ATOM     18  H   UNL A   1      36.216  22.671  26.133  1.00  0.00     0.345 HD
ATOM     19  H   UNL A   1      35.851  22.350  27.726  1.00  0.00     0.345 HD
ENDBRANCH   6  16
ENDBRANCH   4   6
ENDBRANCH   3   4
ENDBRANCH   2   3
ENDBRANCH   1   2
BRANCH   1  20
ATOM     20  O   UNL A   1      37.832  21.233  25.386  1.00  0.00    -0.458 OA
BRANCH  20  21
ATOM     21  C   UNL A   1      38.997  20.959  26.018  1.00  0.00     0.338 C 
ATOM     22  O   UNL A   1      39.576  19.884  26.061  1.00  0.00    -0.246 OA
BRANCH  21  23
ATOM     23  C   UNL A   1      39.600  22.198  26.540  1.00  0.00     0.060 A 
ATOM     24  C   UNL A   1      39.119  23.405  26.026  1.00  0.00     0.016 A 
ATOM     25  C   UNL A   1      40.660  22.190  27.447  1.00  0.00     0.016 A 
ATOM     26  C   UNL A   1      39.703  24.610  26.396  1.00  0.00     0.010 A 
ATOM     27  C   UNL A   1      41.249  23.405  27.822  1.00  0.00     0.010 A 
ATOM     28  C   UNL A   1      40.785  24.618  27.283  1.00  0.00    -0.014 A 
BRANCH  28  29
ATOM     29  C   UNL A   1      41.448  25.908  27.583  1.00  0.00     0.031 A 
ATOM     30  C   UNL A   1      40.725  26.953  28.384  1.00  0.00     0.074 A 
ATOM     31  C   UNL A   1      42.716  26.115  27.183  1.00  0.00     0.049 A 
ATOM     32  N   UNL A   1      41.139  28.134  28.763  1.00  0.00    -0.248 NA
ATOM     33  C   UNL A   1      39.358  26.626  28.819  1.00  0.00     0.031 C 
ATOM     34  C   UNL A   1      43.522  25.165  26.415  1.00  0.00     0.029 A 
ATOM     35  N   UNL A   1      43.547  27.191  27.362  1.00  0.00    -0.354 N 
ATOM     36  C   UNL A   1      40.075  28.706  29.448  1.00  0.00     0.074 A 
ATOM     37  C   UNL A   1      38.994  27.743  29.432  1.00  0.00     0.031 C 
ATOM     38  C   UNL A   1      44.731  25.704  26.185  1.00  0.00     0.029 A 
ATOM     39  C   UNL A   1      44.774  27.045  26.761  1.00  0.00     0.049 A 
ATOM     40  H   UNL A   1      43.289  27.992  27.874  1.00  0.00     0.167 HD
ATOM     41  C   UNL A   1      40.011  29.917  30.050  1.00  0.00     0.034 A 
ATOM     42  C   UNL A   1      45.809  27.903  26.670  1.00  0.00     0.034 A 
ATOM     43  C   UNL A   1      41.101  30.854  30.098  1.00  0.00     0.049 A 
ATOM     44  C   UNL A   1      45.706  29.245  27.342  1.00  0.00     0.074 A 
ATOM     45  C   UNL A   1      41.146  32.091  30.718  1.00  0.00     0.029 A 
ATOM     46  N   UNL A   1      42.337  30.662  29.499  1.00  0.00    -0.354 N 
ATOM     47  N   UNL A   1      44.732  29.730  28.072  1.00  0.00    -0.248 NA
ATOM     48  C   UNL A   1      46.857  30.149  27.199  1.00  0.00     0.031 C 
ATOM     49  C   UNL A   1      42.406  32.651  30.485  1.00  0.00     0.029 A 
ATOM     50  C   UNL A   1      43.150  31.759  29.727  1.00  0.00     0.049 A 
ATOM     51  H   UNL A   1      42.597  29.864  28.987  1.00  0.00     0.167 HD
ATOM     52  C   UNL A   1      45.156  30.985  28.492  1.00  0.00     0.074 A 
ATOM     53  C   UNL A   1      46.491  31.173  27.959  1.00  0.00     0.031 C 
ATOM     54  C   UNL A   1      44.494  31.909  29.232  1.00  0.00     0.034 A 
BRANCH  41  55
ATOM     55  C   UNL A   1      38.724  30.286  30.736  1.00  0.00     0.023 A 
ATOM     56  C   UNL A   1      38.529  29.927  32.084  1.00  0.00     0.012 A 
ATOM     57  C   UNL A   1      37.731  31.025  30.065  1.00  0.00     0.148 A 
ATOM     58  C   UNL A   1      37.353  30.277  32.748  1.00  0.00     0.002 A 
ATOM     59  C   UNL A   1      36.577  31.400  30.743  1.00  0.00     0.091 A 
ATOM     60  F   UNL A   1      37.923  31.331  28.773  1.00  0.00    -0.205 F 
ATOM     61  C   UNL A   1      36.384  31.021  32.082  1.00  0.00     0.022 A 
BRANCH  59  62
ATOM     62  S   UNL A   1      35.301  32.413  29.985  1.00  0.00     0.127 S 
ATOM     63  O   UNL A   1      34.854  31.553  28.891  1.00  0.00    -0.237 OA
ATOM     64  O   UNL A   1      34.336  32.564  31.075  1.00  0.00    -0.237 OA
ATOM     65  O   UNL A   1      35.959  33.649  29.587  1.00  0.00    -0.744 OA
ENDBRANCH  59  62
ENDBRANCH  41  55
BRANCH  42  66
ATOM     66  C   UNL A   1      47.044  27.497  25.943  1.00  0.00     0.023 A 
ATOM     67  C   UNL A   1      48.045  26.779  26.623  1.00  0.00     0.012 A 
ATOM     68  C   UNL A   1      47.217  27.789  24.576  1.00  0.00     0.148 A 
ATOM     69  C   UNL A   1      49.205  26.374  25.960  1.00  0.00     0.002 A 
ATOM     70  C   UNL A   1      48.348  27.335  23.908  1.00  0.00     0.091 A 
ATOM     71  F   UNL A   1      46.266  28.498  23.951  1.00  0.00    -0.205 F 
ATOM     72  C   UNL A   1      49.350  26.640  24.600  1.00  0.00     0.022 A 
BRANCH  70  73
ATOM     73  S   UNL A   1      48.544  27.519  22.131  1.00  0.00     0.127 S 
ATOM     74  O   UNL A   1      47.277  28.139  21.753  1.00  0.00    -0.237 OA
ATOM     75  O   UNL A   1      49.711  28.397  22.039  1.00  0.00    -0.237 OA
ATOM     76  O   UNL A   1      48.771  26.172  21.627  1.00  0.00    -0.744 OA
ENDBRANCH  70  73
ENDBRANCH  42  66
BRANCH  54  77
ATOM     77  C   UNL A   1      45.201  33.207  29.515  1.00  0.00     0.023 A 
ATOM     78  C   UNL A   1      46.034  33.306  30.647  1.00  0.00     0.012 A 
ATOM     79  C   UNL A   1      45.100  34.299  28.632  1.00  0.00     0.148 A 
ATOM     80  C   UNL A   1      46.735  34.483  30.910  1.00  0.00     0.002 A 
ATOM     81  C   UNL A   1      45.834  35.454  28.879  1.00  0.00     0.091 A 
ATOM     82  F   UNL A   1      44.285  34.194  27.573  1.00  0.00    -0.205 F 
ATOM     83  C   UNL A   1      46.644  35.551  30.022  1.00  0.00     0.022 A 
BRANCH  81  84
ATOM     84  S   UNL A   1      45.841  36.841  27.737  1.00  0.00     0.127 S 
ATOM     85  O   UNL A   1      46.790  37.750  28.376  1.00  0.00    -0.237 OA
ATOM     86  O   UNL A   1      46.323  36.228  26.498  1.00  0.00    -0.237 OA
ATOM     87  O   UNL A   1      44.461  37.308  27.676  1.00  0.00    -0.744 OA
ENDBRANCH  81  84
ENDBRANCH  54  77
ENDBRANCH  28  29
ENDBRANCH  21  23
ENDBRANCH  20  21
ENDBRANCH   1  20
TORSDOF 17
ENDMDL
MODEL 3
REMARK VINA RESULT:     -10.5      3.682      5.701
REMARK SMILES COc1cc(Br)ccc1[C@H]([NH3+])C(=O)OCCOC(=O)c1ccc(-c2c3nc(c(-c4cccc(S(=O)(=O)[O-])c4F)c4ccc([nH]4)c(-c4cccc(S(=O)(=O)[O-])c4F)c4nc(c(-c5cccc(S(=O)(=O)[O-])c5F)c5ccc2[nH]5)C=C4)C=C3)cc1
REMARK SMILES IDX 16 1 15 2 14 3 12 4 13 5 10 6 9 7 3 8 4 9 5 10 8 11 6 12
REMARK SMILES IDX 7 13 2 14 1 15 11 16 17 20 18 21 19 22 20 23 21 24 82 25
REMARK SMILES IDX 22 26 81 27 23 28 24 29 25 30 75 31 26 32 80 33 74 34 76 35
REMARK SMILES IDX 27 36 79 37 73 38 72 39 28 41 60 42 40 43 59 44 41 45 44 46
REMARK SMILES IDX 58 47 77 48 42 49 43 50 57 52 78 53 45 54 29 55 30 56 38 57
REMARK SMILES IDX 31 58 33 59 39 60 32 61 34 62 35 63 36 64 37 65 61 66 62 67
REMARK SMILES IDX 70 68 63 69 65 70 71 71 64 72 66 73 67 74 68 75 69 76 46 77
REMARK SMILES IDX 47 78 55 79 48 80 50 81 56 82 49 83 51 84 52 85 53 86 54 87
REMARK H PARENT 11 17 11 18 11 19 76 40 44 51
REMARK Flexibility Score: inf
ROOT
ATOM      1  C   UNL A   1      33.650  33.486  28.153  1.00  0.00     0.275 C 
ENDROOT
BRANCH   1   2
ATOM      2  C   UNL A   1      33.554  34.723  29.054  1.00  0.00     0.274 C 
BRANCH   2   3
ATOM      3  O   UNL A   1      33.325  34.355  30.423  1.00  0.00    -0.457 OA
BRANCH   3   4
ATOM      4  C   UNL A   1      34.179  34.869  31.356  1.00  0.00     0.370 C 
ATOM      5  O   UNL A   1      34.174  36.043  31.713  1.00  0.00    -0.245 OA
BRANCH   4   6
ATOM      6  C   UNL A   1      35.139  33.799  31.947  1.00  0.00     0.326 C 
BRANCH   6   7
ATOM      7  C   UNL A   1      36.594  33.927  31.492  1.00  0.00     0.063 A 
ATOM      8  C   UNL A   1      37.610  34.417  32.339  1.00  0.00     0.129 A 
ATOM      9  C   UNL A   1      38.939  34.504  31.904  1.00  0.00     0.062 A 
ATOM     10  C   UNL A   1      39.258  34.203  30.586  1.00  0.00     0.021 A 
ATOM     11  C   UNL A   1      36.947  33.683  30.148  1.00  0.00     0.015 A 
ATOM     12  Br  UNL A   1      41.047  34.335  29.993  1.00  0.00    -0.051 Br
ATOM     13  C   UNL A   1      38.263  33.819  29.697  1.00  0.00     0.016 A 
BRANCH   8  14
ATOM     14  O   UNL A   1      37.295  34.775  33.629  1.00  0.00    -0.496 OA
ATOM     15  C   UNL A   1      38.420  34.707  34.506  1.00  0.00     0.278 C 
ENDBRANCH   8  14
ENDBRANCH   6   7
BRANCH   6  16
ATOM     16  N   UNL A   1      34.559  32.451  31.738  1.00  0.00    -0.342 N 
ATOM     17  H   UNL A   1      33.983  32.456  30.897  1.00  0.00     0.345 HD
ATOM     18  H   UNL A   1      33.983  32.201  32.542  1.00  0.00     0.345 HD
ATOM     19  H   UNL A   1      35.311  31.770  31.634  1.00  0.00     0.345 HD
ENDBRANCH   6  16
ENDBRANCH   4   6
ENDBRANCH   3   4
ENDBRANCH   2   3
ENDBRANCH   1   2
BRANCH   1  20
ATOM     20  O   UNL A   1      34.170  32.339  28.854  1.00  0.00    -0.458 OA
BRANCH  20  21
ATOM     21  C   UNL A   1      34.337  31.227  28.102  1.00  0.00     0.338 C 
ATOM     22  O   UNL A   1      33.611  30.830  27.203  1.00  0.00    -0.246 OA
BRANCH  21  23
ATOM     23  C   UNL A   1      35.639  30.602  28.395  1.00  0.00     0.060 A 
ATOM     24  C   UNL A   1      35.713  29.789  29.529  1.00  0.00     0.016 A 
ATOM     25  C   UNL A   1      36.780  30.858  27.634  1.00  0.00     0.016 A 
ATOM     26  C   UNL A   1      36.927  29.243  29.924  1.00  0.00     0.010 A 
ATOM     27  C   UNL A   1      38.006  30.307  28.032  1.00  0.00     0.010 A 
ATOM     28  C   UNL A   1      38.087  29.513  29.190  1.00  0.00    -0.014 A 
BRANCH  28  29
ATOM     29  C   UNL A   1      39.382  28.997  29.690  1.00  0.00     0.031 A 
ATOM     30  C   UNL A   1      39.995  29.589  30.928  1.00  0.00     0.074 A 
ATOM     31  C   UNL A   1      39.977  27.966  29.064  1.00  0.00     0.049 A 
ATOM     32  N   UNL A   1      41.109  29.267  31.530  1.00  0.00    -0.248 NA
ATOM     33  C   UNL A   1      39.255  30.684  31.575  1.00  0.00     0.031 C 
ATOM     34  C   UNL A   1      39.465  27.301  27.864  1.00  0.00     0.029 A 
ATOM     35  N   UNL A   1      41.141  27.298  29.345  1.00  0.00    -0.354 N 
ATOM     36  C   UNL A   1      41.225  30.139  32.604  1.00  0.00     0.074 A 
ATOM     37  C   UNL A   1      40.068  31.008  32.571  1.00  0.00     0.031 C 
ATOM     38  C   UNL A   1      40.316  26.324  27.510  1.00  0.00     0.029 A 
ATOM     39  C   UNL A   1      41.444  26.313  28.437  1.00  0.00     0.049 A 
ATOM     40  H   UNL A   1      41.707  27.505  30.125  1.00  0.00     0.167 HD
ATOM     41  C   UNL A   1      42.200  30.200  33.543  1.00  0.00     0.034 A 
ATOM     42  C   UNL A   1      42.518  25.504  28.352  1.00  0.00     0.034 A 
ATOM     43  C   UNL A   1      43.327  29.309  33.595  1.00  0.00     0.049 A 
ATOM     44  C   UNL A   1      43.589  25.599  29.405  1.00  0.00     0.074 A 
ATOM     45  C   UNL A   1      44.347  29.266  34.530  1.00  0.00     0.029 A 
ATOM     46  N   UNL A   1      43.588  28.307  32.673  1.00  0.00    -0.354 N 
ATOM     47  N   UNL A   1      43.633  26.361  30.471  1.00  0.00    -0.248 NA
ATOM     48  C   UNL A   1      44.747  24.706  29.257  1.00  0.00     0.031 C 
ATOM     49  C   UNL A   1      45.230  28.244  34.167  1.00  0.00     0.029 A 
ATOM     50  C   UNL A   1      44.755  27.644  33.011  1.00  0.00     0.049 A 
ATOM     51  H   UNL A   1      43.026  28.098  31.894  1.00  0.00     0.167 HD
ATOM     52  C   UNL A   1      44.810  26.028  31.130  1.00  0.00     0.074 A 
ATOM     53  C   UNL A   1      45.435  24.972  30.360  1.00  0.00     0.031 C 
ATOM     54  C   UNL A   1      45.338  26.562  32.260  1.00  0.00     0.034 A 
BRANCH  41  55
ATOM     55  C   UNL A   1      42.071  31.251  34.612  1.00  0.00     0.023 A 
ATOM     56  C   UNL A   1      41.559  30.896  35.875  1.00  0.00     0.012 A 
ATOM     57  C   UNL A   1      42.498  32.573  34.384  1.00  0.00     0.148 A 
ATOM     58  C   UNL A   1      41.451  31.847  36.889  1.00  0.00     0.002 A 
ATOM     59  C   UNL A   1      42.421  33.507  35.410  1.00  0.00     0.091 A 
ATOM     60  F   UNL A   1      42.955  32.897  33.165  1.00  0.00    -0.205 F 
ATOM     61  C   UNL A   1      41.890  33.147  36.660  1.00  0.00     0.022 A 
BRANCH  59  62
ATOM     62  S   UNL A   1      43.020  35.191  35.227  1.00  0.00     0.127 S 
ATOM     63  O   UNL A   1      44.418  34.968  34.862  1.00  0.00    -0.237 OA
ATOM     64  O   UNL A   1      42.181  35.705  34.145  1.00  0.00    -0.237 OA
ATOM     65  O   UNL A   1      42.801  35.832  36.516  1.00  0.00    -0.744 OA
ENDBRANCH  59  62
ENDBRANCH  41  55
BRANCH  42  66
ATOM     66  C   UNL A   1      42.610  24.509  27.247  1.00  0.00     0.023 A 
ATOM     67  C   UNL A   1      43.296  24.845  26.065  1.00  0.00     0.012 A 
ATOM     68  C   UNL A   1      42.052  23.222  27.375  1.00  0.00     0.148 A 
ATOM     69  C   UNL A   1      43.410  23.924  25.023  1.00  0.00     0.002 A 
ATOM     70  C   UNL A   1      42.216  22.291  26.356  1.00  0.00     0.091 A 
ATOM     71  F   UNL A   1      41.379  22.928  28.496  1.00  0.00    -0.205 F 
ATOM     72  C   UNL A   1      42.882  22.644  25.173  1.00  0.00     0.022 A 
BRANCH  70  73
ATOM     73  S   UNL A   1      41.685  20.583  26.531  1.00  0.00     0.127 S 
ATOM     74  O   UNL A   1      40.234  20.709  26.425  1.00  0.00    -0.237 OA
ATOM     75  O   UNL A   1      42.333  19.940  25.388  1.00  0.00    -0.237 OA
ATOM     76  O   UNL A   1      42.196  20.152  27.825  1.00  0.00    -0.744 OA
ENDBRANCH  70  73
ENDBRANCH  42  66
BRANCH  54  77
ATOM     77  C   UNL A   1      46.655  26.012  32.736  1.00  0.00     0.023 A 
ATOM     78  C   UNL A   1      47.851  26.647  32.348  1.00  0.00     0.012 A 
ATOM     79  C   UNL A   1      46.709  24.916  33.618  1.00  0.00     0.148 A 
ATOM     80  C   UNL A   1      49.083  26.184  32.809  1.00  0.00     0.002 A 
ATOM     81  C   UNL A   1      47.938  24.485  34.107  1.00  0.00     0.091 A 
ATOM     82  F   UNL A   1      45.563  24.309  33.959  1.00  0.00    -0.205 F 
ATOM     83  C   UNL A   1      49.126  25.111  33.696  1.00  0.00     0.022 A 
BRANCH  81  84
ATOM     84  S   UNL A   1      48.072  23.168  35.322  1.00  0.00     0.127 S 
ATOM     85  O   UNL A   1      47.332  23.727  36.452  1.00  0.00    -0.237 OA
ATOM     86  O   UNL A   1      47.407  22.050  34.651  1.00  0.00    -0.237 OA
ATOM     87  O   UNL A   1      49.500  22.973  35.536  1.00  0.00    -0.744 OA
ENDBRANCH  81  84
ENDBRANCH  54  77
ENDBRANCH  28  29
ENDBRANCH  21  23
ENDBRANCH  20  21
ENDBRANCH   1  20
TORSDOF 17
ENDMDL
