MODEL 1
REMARK VINA RESULT:     -11.8      0.000      0.000
REMARK SMILES CCCCC(=O)Nc1ccc(C(=O)N2CCC[C@H](C(=O)OCCOC(=O)c3ccc(-c4c5nc(c(-c6cccc(S(=O)(=O)[O-])c6F)c6ccc([nH]6)c(-c6cccc(S(=O)(=O)[O-])c6F)c6nc(c(-c7cccc(S(=O)(=O)[O-])c7F)c7ccc4[nH]7)C=C6)C=C5)cc3)C2)cc1
REMARK SMILES IDX 21 1 19 2 20 3 18 4 14 5 15 6 90 7 16 8 17 9 12 10 13 11
REMARK SMILES IDX 11 12 8 13 9 14 92 15 10 16 91 17 7 18 5 19 6 20 4 22 3 23
REMARK SMILES IDX 2 24 1 25 22 26 23 27 24 28 25 29 26 30 27 31 28 32 89 33
REMARK SMILES IDX 29 34 88 35 30 36 31 37 32 38 82 39 33 40 87 41 81 42 83 43
REMARK SMILES IDX 34 44 86 45 80 46 79 47 35 49 67 50 47 51 66 52 48 53 51 54
REMARK SMILES IDX 65 55 84 56 49 57 50 58 64 60 85 61 52 62 36 63 37 64 45 65
REMARK SMILES IDX 38 66 40 67 46 68 39 69 41 70 42 71 43 72 44 73 68 74 69 75
REMARK SMILES IDX 77 76 70 77 72 78 78 79 71 80 73 81 74 82 75 83 76 84 53 85
REMARK SMILES IDX 54 86 62 87 55 88 57 89 63 90 56 91 58 92 59 93 60 94 61 95
REMARK H PARENT 7 21 83 48 51 59
REMARK Flexibility Score: inf
ROOT
ATOM      1  O   UNL A   1      35.957  21.184  25.357  1.00  0.00    -0.462 OA
ENDROOT
BRANCH   1   2
ATOM      2  C   UNL A   1      34.680  21.211  25.804  1.00  0.00     0.310 C 
ATOM      3  O   UNL A   1      34.351  21.377  26.973  1.00  0.00    -0.252 OA
BRANCH   2   4
ATOM      4  C   UNL A   1      33.655  20.953  24.713  1.00  0.00     0.119 C 
ATOM      5  N   UNL A   1      33.145  23.288  24.116  1.00  0.00    -0.338 N 
ATOM      6  C   UNL A   1      31.739  23.149  24.482  1.00  0.00     0.120 C 
ATOM      7  C   UNL A   1      33.799  22.062  23.679  1.00  0.00     0.135 C 
ATOM      8  C   UNL A   1      31.511  22.070  25.532  1.00  0.00     0.022 C 
ATOM      9  C   UNL A   1      32.206  20.759  25.163  1.00  0.00     0.019 C 
BRANCH   5  10
ATOM     10  C   UNL A   1      33.833  24.432  24.521  1.00  0.00     0.253 C 
ATOM     11  O   UNL A   1      34.375  24.504  25.623  1.00  0.00    -0.269 OA
BRANCH  10  12
ATOM     12  C   UNL A   1      33.630  25.697  23.735  1.00  0.00     0.040 A 
ATOM     13  C   UNL A   1      32.611  28.077  22.670  1.00  0.00     0.041 A 
ATOM     14  C   UNL A   1      33.224  28.101  23.916  1.00  0.00     0.027 A 
ATOM     15  C   UNL A   1      32.681  26.934  21.886  1.00  0.00     0.027 A 
ATOM     16  C   UNL A   1      33.713  26.905  24.455  1.00  0.00     0.016 A 
ATOM     17  C   UNL A   1      33.192  25.750  22.414  1.00  0.00     0.016 A 
BRANCH  13  18
ATOM     18  N   UNL A   1      31.906  29.183  22.195  1.00  0.00    -0.326 N 
ATOM     19  C   UNL A   1      30.540  29.340  22.267  1.00  0.00     0.224 C 
ATOM     20  O   UNL A   1      29.950  30.036  21.441  1.00  0.00    -0.275 OA
ATOM     21  H   UNL A   1      32.426  29.908  21.776  1.00  0.00     0.169 HD
BRANCH  19  22
ATOM     22  C   UNL A   1      29.830  28.806  23.515  1.00  0.00     0.100 C 
BRANCH  22  23
ATOM     23  C   UNL A   1      29.044  27.500  23.386  1.00  0.00     0.010 C 
BRANCH  23  24
ATOM     24  C   UNL A   1      29.617  26.240  24.057  1.00  0.00    -0.003 C 
ATOM     25  C   UNL A   1      30.267  26.427  25.420  1.00  0.00     0.004 C 
ENDBRANCH  23  24
ENDBRANCH  22  23
ENDBRANCH  19  22
ENDBRANCH  13  18
ENDBRANCH  10  12
ENDBRANCH   5  10
ENDBRANCH   2   4
ENDBRANCH   1   2
BRANCH   1  26
ATOM     26  C   UNL A   1      36.454  19.918  24.892  1.00  0.00     0.274 C 
BRANCH  26  27
ATOM     27  C   UNL A   1      37.980  19.874  24.965  1.00  0.00     0.275 C 
BRANCH  27  28
ATOM     28  O   UNL A   1      38.517  21.109  25.474  1.00  0.00    -0.458 OA
BRANCH  28  29
ATOM     29  C   UNL A   1      39.563  20.973  26.322  1.00  0.00     0.338 C 
ATOM     30  O   UNL A   1      40.171  19.952  26.593  1.00  0.00    -0.246 OA
BRANCH  29  31
ATOM     31  C   UNL A   1      39.995  22.299  26.783  1.00  0.00     0.060 A 
ATOM     32  C   UNL A   1      39.414  23.421  26.187  1.00  0.00     0.016 A 
ATOM     33  C   UNL A   1      41.012  22.442  27.725  1.00  0.00     0.016 A 
ATOM     34  C   UNL A   1      39.844  24.699  26.523  1.00  0.00     0.010 A 
ATOM     35  C   UNL A   1      41.448  23.727  28.061  1.00  0.00     0.010 A 
ATOM     36  C   UNL A   1      40.876  24.859  27.452  1.00  0.00    -0.014 A 
BRANCH  36  37
ATOM     37  C   UNL A   1      41.401  26.213  27.735  1.00  0.00     0.031 A 
ATOM     38  C   UNL A   1      42.799  26.563  27.318  1.00  0.00     0.074 A 
ATOM     39  C   UNL A   1      40.626  27.114  28.364  1.00  0.00     0.049 A 
ATOM     40  N   UNL A   1      43.484  27.649  27.558  1.00  0.00    -0.248 NA
ATOM     41  C   UNL A   1      43.525  25.554  26.527  1.00  0.00     0.031 C 
ATOM     42  C   UNL A   1      39.244  26.887  28.790  1.00  0.00     0.029 A 
ATOM     43  N   UNL A   1      40.899  28.393  28.777  1.00  0.00    -0.354 N 
ATOM     44  C   UNL A   1      44.735  27.439  26.993  1.00  0.00     0.074 A 
ATOM     45  C   UNL A   1      44.714  26.124  26.391  1.00  0.00     0.031 C 
ATOM     46  C   UNL A   1      38.798  27.982  29.426  1.00  0.00     0.029 A 
ATOM     47  C   UNL A   1      39.875  28.968  29.489  1.00  0.00     0.049 A 
ATOM     48  H   UNL A   1      41.747  28.854  28.581  1.00  0.00     0.167 HD
ATOM     49  C   UNL A   1      45.800  28.274  26.973  1.00  0.00     0.034 A 
ATOM     50  C   UNL A   1      39.823  30.142  30.147  1.00  0.00     0.034 A 
ATOM     51  C   UNL A   1      45.798  29.595  27.541  1.00  0.00     0.049 A 
ATOM     52  C   UNL A   1      41.029  31.043  30.122  1.00  0.00     0.074 A 
ATOM     53  C   UNL A   1      46.812  30.535  27.537  1.00  0.00     0.029 A 
ATOM     54  N   UNL A   1      44.727  30.162  28.215  1.00  0.00    -0.354 N 
ATOM     55  N   UNL A   1      42.176  30.869  29.511  1.00  0.00    -0.248 NA
ATOM     56  C   UNL A   1      40.926  32.311  30.857  1.00  0.00     0.031 C 
ATOM     57  C   UNL A   1      46.360  31.667  28.225  1.00  0.00     0.029 A 
ATOM     58  C   UNL A   1      45.058  31.437  28.641  1.00  0.00     0.049 A 
ATOM     59  H   UNL A   1      43.860  29.723  28.369  1.00  0.00     0.167 HD
ATOM     60  C   UNL A   1      42.922  32.013  29.767  1.00  0.00     0.074 A 
ATOM     61  C   UNL A   1      42.086  32.885  30.566  1.00  0.00     0.031 C 
ATOM     62  C   UNL A   1      44.191  32.310  29.391  1.00  0.00     0.034 A 
BRANCH  49  63
ATOM     63  C   UNL A   1      47.051  27.789  26.293  1.00  0.00     0.023 A 
ATOM     64  C   UNL A   1      48.052  27.147  27.049  1.00  0.00     0.012 A 
ATOM     65  C   UNL A   1      47.219  27.930  24.901  1.00  0.00     0.148 A 
ATOM     66  C   UNL A   1      49.212  26.676  26.436  1.00  0.00     0.002 A 
ATOM     67  C   UNL A   1      48.360  27.423  24.291  1.00  0.00     0.091 A 
ATOM     68  F   UNL A   1      46.268  28.568  24.204  1.00  0.00    -0.205 F 
ATOM     69  C   UNL A   1      49.362  26.804  25.057  1.00  0.00     0.022 A 
BRANCH  67  70
ATOM     70  S   UNL A   1      48.611  27.482  22.513  1.00  0.00     0.127 S 
ATOM     71  O   UNL A   1      47.451  28.257  22.076  1.00  0.00    -0.237 OA
ATOM     72  O   UNL A   1      49.890  28.185  22.403  1.00  0.00    -0.237 OA
ATOM     73  O   UNL A   1      48.644  26.096  22.069  1.00  0.00    -0.744 OA
ENDBRANCH  67  70
ENDBRANCH  49  63
BRANCH  50  74
ATOM     74  C   UNL A   1      38.578  30.538  30.863  1.00  0.00     0.023 A 
ATOM     75  C   UNL A   1      38.448  30.252  32.235  1.00  0.00     0.012 A 
ATOM     76  C   UNL A   1      37.540  31.225  30.203  1.00  0.00     0.148 A 
ATOM     77  C   UNL A   1      37.298  30.624  32.932  1.00  0.00     0.002 A 
ATOM     78  C   UNL A   1      36.422  31.642  30.915  1.00  0.00     0.091 A 
ATOM     79  F   UNL A   1      37.672  31.469  28.890  1.00  0.00    -0.205 F 
ATOM     80  C   UNL A   1      36.292  31.329  32.277  1.00  0.00     0.022 A 
BRANCH  78  81
ATOM     81  S   UNL A   1      35.144  32.668  30.179  1.00  0.00     0.127 S 
ATOM     82  O   UNL A   1      34.616  31.789  29.139  1.00  0.00    -0.237 OA
ATOM     83  O   UNL A   1      34.244  32.892  31.311  1.00  0.00    -0.237 OA
ATOM     84  O   UNL A   1      35.828  33.867  29.713  1.00  0.00    -0.744 OA
ENDBRANCH  78  81
ENDBRANCH  50  74
BRANCH  62  85
ATOM     85  C   UNL A   1      44.749  33.641  29.819  1.00  0.00     0.023 A 
ATOM     86  C   UNL A   1      45.567  33.715  30.964  1.00  0.00     0.012 A 
ATOM     87  C   UNL A   1      44.528  34.798  29.048  1.00  0.00     0.148 A 
ATOM     88  C   UNL A   1      46.134  34.928  31.351  1.00  0.00     0.002 A 
ATOM     89  C   UNL A   1      45.133  35.995  29.414  1.00  0.00     0.091 A 
ATOM     90  F   UNL A   1      43.729  34.711  27.975  1.00  0.00    -0.205 F 
ATOM     91  C   UNL A   1      45.928  36.064  30.569  1.00  0.00     0.022 A 
BRANCH  89  92
ATOM     92  S   UNL A   1      44.996  37.481  28.416  1.00  0.00     0.127 S 
ATOM     93  O   UNL A   1      45.815  38.427  29.173  1.00  0.00    -0.237 OA
ATOM     94  O   UNL A   1      45.577  37.058  27.141  1.00  0.00    -0.237 OA
ATOM     95  O   UNL A   1      43.575  37.790  28.355  1.00  0.00    -0.744 OA
ENDBRANCH  89  92
ENDBRANCH  62  85
ENDBRANCH  36  37
ENDBRANCH  29  31
ENDBRANCH  28  29
ENDBRANCH  27  28
ENDBRANCH  26  27
ENDBRANCH   1  26
TORSDOF 20
ENDMDL
MODEL 2
REMARK VINA RESULT:     -11.5      1.339      1.645
REMARK SMILES CCCCC(=O)Nc1ccc(C(=O)N2CCC[C@H](C(=O)OCCOC(=O)c3ccc(-c4c5nc(c(-c6cccc(S(=O)(=O)[O-])c6F)c6ccc([nH]6)c(-c6cccc(S(=O)(=O)[O-])c6F)c6nc(c(-c7cccc(S(=O)(=O)[O-])c7F)c7ccc4[nH]7)C=C6)C=C5)cc3)C2)cc1
REMARK SMILES IDX 21 1 19 2 20 3 18 4 14 5 15 6 90 7 16 8 17 9 12 10 13 11
REMARK SMILES IDX 11 12 8 13 9 14 92 15 10 16 91 17 7 18 5 19 6 20 4 22 3 23
REMARK SMILES IDX 2 24 1 25 22 26 23 27 24 28 25 29 26 30 27 31 28 32 89 33
REMARK SMILES IDX 29 34 88 35 30 36 31 37 32 38 82 39 33 40 87 41 81 42 83 43
REMARK SMILES IDX 34 44 86 45 80 46 79 47 35 49 67 50 47 51 66 52 48 53 51 54
REMARK SMILES IDX 65 55 84 56 49 57 50 58 64 60 85 61 52 62 36 63 37 64 45 65
REMARK SMILES IDX 38 66 40 67 46 68 39 69 41 70 42 71 43 72 44 73 68 74 69 75
REMARK SMILES IDX 77 76 70 77 72 78 78 79 71 80 73 81 74 82 75 83 76 84 53 85
REMARK SMILES IDX 54 86 62 87 55 88 57 89 63 90 56 91 58 92 59 93 60 94 61 95
REMARK H PARENT 7 21 83 48 51 59
REMARK Flexibility Score: inf
ROOT
ATOM      1  O   UNL A   1      35.960  21.146  25.349  1.00  0.00    -0.462 OA
ENDROOT
BRANCH   1   2
ATOM      2  C   UNL A   1      34.704  21.240  25.842  1.00  0.00     0.310 C 
ATOM      3  O   UNL A   1      34.426  21.448  27.017  1.00  0.00    -0.252 OA
BRANCH   2   4
ATOM      4  C   UNL A   1      33.629  21.000  24.796  1.00  0.00     0.119 C 
ATOM      5  N   UNL A   1      33.174  23.342  24.180  1.00  0.00    -0.338 N 
ATOM      6  C   UNL A   1      31.781  23.257  24.603  1.00  0.00     0.120 C 
ATOM      7  C   UNL A   1      33.769  22.087  23.739  1.00  0.00     0.135 C 
ATOM      8  C   UNL A   1      31.557  22.203  25.678  1.00  0.00     0.022 C 
ATOM      9  C   UNL A   1      32.193  20.863  25.304  1.00  0.00     0.019 C 
BRANCH   5  10
ATOM     10  C   UNL A   1      33.917  24.467  24.538  1.00  0.00     0.253 C 
ATOM     11  O   UNL A   1      34.522  24.529  25.608  1.00  0.00    -0.269 OA
BRANCH  10  12
ATOM     12  C   UNL A   1      33.705  25.735  23.759  1.00  0.00     0.040 A 
ATOM     13  C   UNL A   1      32.676  28.120  22.714  1.00  0.00     0.041 A 
ATOM     14  C   UNL A   1      33.309  28.140  23.950  1.00  0.00     0.027 A 
ATOM     15  C   UNL A   1      32.728  26.978  21.928  1.00  0.00     0.027 A 
ATOM     16  C   UNL A   1      33.804  26.941  24.479  1.00  0.00     0.016 A 
ATOM     17  C   UNL A   1      33.244  25.792  22.444  1.00  0.00     0.016 A 
BRANCH  13  18
ATOM     18  N   UNL A   1      31.967  29.230  22.254  1.00  0.00    -0.326 N 
ATOM     19  C   UNL A   1      30.596  29.357  22.278  1.00  0.00     0.224 C 
ATOM     20  O   UNL A   1      30.023  30.072  21.456  1.00  0.00    -0.275 OA
ATOM     21  H   UNL A   1      32.487  29.980  21.882  1.00  0.00     0.169 HD
BRANCH  19  22
ATOM     22  C   UNL A   1      29.850  28.763  23.477  1.00  0.00     0.100 C 
BRANCH  22  23
ATOM     23  C   UNL A   1      29.081  27.458  23.264  1.00  0.00     0.010 C 
BRANCH  23  24
ATOM     24  C   UNL A   1      29.293  26.318  24.274  1.00  0.00    -0.003 C 
ATOM     25  C   UNL A   1      30.358  26.538  25.339  1.00  0.00     0.004 C 
ENDBRANCH  23  24
ENDBRANCH  22  23
ENDBRANCH  19  22
ENDBRANCH  13  18
ENDBRANCH  10  12
ENDBRANCH   5  10
ENDBRANCH   2   4
ENDBRANCH   1   2
BRANCH   1  26
ATOM     26  C   UNL A   1      36.400  19.841  24.938  1.00  0.00     0.274 C 
BRANCH  26  27
ATOM     27  C   UNL A   1      37.925  19.747  24.968  1.00  0.00     0.275 C 
BRANCH  27  28
ATOM     28  O   UNL A   1      38.517  20.971  25.441  1.00  0.00    -0.458 OA
BRANCH  28  29
ATOM     29  C   UNL A   1      39.584  20.814  26.259  1.00  0.00     0.338 C 
ATOM     30  O   UNL A   1      40.193  19.785  26.495  1.00  0.00    -0.246 OA
BRANCH  29  31
ATOM     31  C   UNL A   1      40.033  22.129  26.735  1.00  0.00     0.060 A 
ATOM     32  C   UNL A   1      39.450  23.265  26.170  1.00  0.00     0.016 A 
ATOM     33  C   UNL A   1      41.067  22.249  27.661  1.00  0.00     0.016 A 
ATOM     34  C   UNL A   1      39.895  24.534  26.519  1.00  0.00     0.010 A 
ATOM     35  C   UNL A   1      41.519  23.525  28.012  1.00  0.00     0.010 A 
ATOM     36  C   UNL A   1      40.944  24.671  27.432  1.00  0.00    -0.014 A 
BRANCH  36  37
ATOM     37  C   UNL A   1      41.484  26.016  27.729  1.00  0.00     0.031 A 
ATOM     38  C   UNL A   1      42.891  26.350  27.331  1.00  0.00     0.074 A 
ATOM     39  C   UNL A   1      40.713  26.924  28.354  1.00  0.00     0.049 A 
ATOM     40  N   UNL A   1      43.587  27.425  27.585  1.00  0.00    -0.248 NA
ATOM     41  C   UNL A   1      43.613  25.336  26.544  1.00  0.00     0.031 C 
ATOM     42  C   UNL A   1      39.323  26.714  28.761  1.00  0.00     0.029 A 
ATOM     43  N   UNL A   1      40.998  28.197  28.777  1.00  0.00    -0.354 N 
ATOM     44  C   UNL A   1      44.842  27.202  27.035  1.00  0.00     0.074 A 
ATOM     45  C   UNL A   1      44.811  25.890  26.426  1.00  0.00     0.031 C 
ATOM     46  C   UNL A   1      38.884  27.812  29.398  1.00  0.00     0.029 A 
ATOM     47  C   UNL A   1      39.973  28.782  29.480  1.00  0.00     0.049 A 
ATOM     48  H   UNL A   1      41.855  28.648  28.594  1.00  0.00     0.167 HD
ATOM     49  C   UNL A   1      45.919  28.022  27.032  1.00  0.00     0.034 A 
ATOM     50  C   UNL A   1      39.929  29.953  30.144  1.00  0.00     0.034 A 
ATOM     51  C   UNL A   1      45.927  29.340  27.607  1.00  0.00     0.049 A 
ATOM     52  C   UNL A   1      41.147  30.838  30.138  1.00  0.00     0.074 A 
ATOM     53  C   UNL A   1      46.955  30.266  27.621  1.00  0.00     0.029 A 
ATOM     54  N   UNL A   1      44.856  29.918  28.272  1.00  0.00    -0.354 N 
ATOM     55  N   UNL A   1      42.299  30.652  29.540  1.00  0.00    -0.248 NA
ATOM     56  C   UNL A   1      41.052  32.103  30.879  1.00  0.00     0.031 C 
ATOM     57  C   UNL A   1      46.509  31.401  28.309  1.00  0.00     0.029 A 
ATOM     58  C   UNL A   1      45.198  31.186  28.709  1.00  0.00     0.049 A 
ATOM     59  H   UNL A   1      43.982  29.489  28.413  1.00  0.00     0.167 HD
ATOM     60  C   UNL A   1      43.057  31.784  29.811  1.00  0.00     0.074 A 
ATOM     61  C   UNL A   1      42.223  32.664  30.605  1.00  0.00     0.031 C 
ATOM     62  C   UNL A   1      44.334  32.066  29.453  1.00  0.00     0.034 A 
BRANCH  49  63
ATOM     63  C   UNL A   1      47.172  27.524  26.365  1.00  0.00     0.023 A 
ATOM     64  C   UNL A   1      47.413  27.837  25.012  1.00  0.00     0.012 A 
ATOM     65  C   UNL A   1      48.130  26.785  27.086  1.00  0.00     0.148 A 
ATOM     66  C   UNL A   1      48.576  27.400  24.379  1.00  0.00     0.002 A 
ATOM     67  C   UNL A   1      49.305  26.387  26.460  1.00  0.00     0.091 A 
ATOM     68  F   UNL A   1      47.869  26.475  28.364  1.00  0.00    -0.205 F 
ATOM     69  C   UNL A   1      49.526  26.685  25.105  1.00  0.00     0.022 A 
BRANCH  67  70
ATOM     70  S   UNL A   1      50.616  25.519  27.330  1.00  0.00     0.127 S 
ATOM     71  O   UNL A   1      50.920  26.453  28.413  1.00  0.00    -0.237 OA
ATOM     72  O   UNL A   1      49.946  24.289  27.755  1.00  0.00    -0.237 OA
ATOM     73  O   UNL A   1      51.679  25.321  26.354  1.00  0.00    -0.744 OA
ENDBRANCH  67  70
ENDBRANCH  49  63
BRANCH  50  74
ATOM     74  C   UNL A   1      38.681  30.363  30.846  1.00  0.00     0.023 A 
ATOM     75  C   UNL A   1      38.523  30.057  32.211  1.00  0.00     0.012 A 
ATOM     76  C   UNL A   1      37.667  31.080  30.181  1.00  0.00     0.148 A 
ATOM     77  C   UNL A   1      37.369  30.440  32.896  1.00  0.00     0.002 A 
ATOM     78  C   UNL A   1      36.546  31.507  30.883  1.00  0.00     0.091 A 
ATOM     79  F   UNL A   1      37.825  31.342  28.875  1.00  0.00    -0.205 F 
ATOM     80  C   UNL A   1      36.388  31.175  32.237  1.00  0.00     0.022 A 
BRANCH  78  81
ATOM     81  S   UNL A   1      35.300  32.570  30.144  1.00  0.00     0.127 S 
ATOM     82  O   UNL A   1      36.096  33.722  29.729  1.00  0.00    -0.237 OA
ATOM     83  O   UNL A   1      34.802  31.739  29.047  1.00  0.00    -0.237 OA
ATOM     84  O   UNL A   1      34.324  32.817  31.198  1.00  0.00    -0.744 OA
ENDBRANCH  78  81
ENDBRANCH  50  74
BRANCH  62  85
ATOM     85  C   UNL A   1      44.905  33.387  29.895  1.00  0.00     0.023 A 
ATOM     86  C   UNL A   1      45.635  33.461  31.097  1.00  0.00     0.012 A 
ATOM     87  C   UNL A   1      44.784  34.533  29.085  1.00  0.00     0.148 A 
ATOM     88  C   UNL A   1      46.214  34.663  31.502  1.00  0.00     0.002 A 
ATOM     89  C   UNL A   1      45.402  35.717  29.472  1.00  0.00     0.091 A 
ATOM     90  F   UNL A   1      44.067  34.447  27.955  1.00  0.00    -0.205 F 
ATOM     91  C   UNL A   1      46.108  35.786  30.683  1.00  0.00     0.022 A 
BRANCH  89  92
ATOM     92  S   UNL A   1      45.394  37.183  28.435  1.00  0.00     0.127 S 
ATOM     93  O   UNL A   1      45.828  36.641  27.148  1.00  0.00    -0.237 OA
ATOM     94  O   UNL A   1      43.990  37.594  28.481  1.00  0.00    -0.237 OA
ATOM     95  O   UNL A   1      46.314  38.121  29.065  1.00  0.00    -0.744 OA
ENDBRANCH  89  92
ENDBRANCH  62  85
ENDBRANCH  36  37
ENDBRANCH  29  31
ENDBRANCH  28  29
ENDBRANCH  27  28
ENDBRANCH  26  27
ENDBRANCH   1  26
TORSDOF 20
ENDMDL
MODEL 3
REMARK VINA RESULT:     -11.4      1.154      7.593
REMARK SMILES CCCCC(=O)Nc1ccc(C(=O)N2CCC[C@H](C(=O)OCCOC(=O)c3ccc(-c4c5nc(c(-c6cccc(S(=O)(=O)[O-])c6F)c6ccc([nH]6)c(-c6cccc(S(=O)(=O)[O-])c6F)c6nc(c(-c7cccc(S(=O)(=O)[O-])c7F)c7ccc4[nH]7)C=C6)C=C5)cc3)C2)cc1
REMARK SMILES IDX 21 1 19 2 20 3 18 4 14 5 15 6 90 7 16 8 17 9 12 10 13 11
REMARK SMILES IDX 11 12 8 13 9 14 92 15 10 16 91 17 7 18 5 19 6 20 4 22 3 23
REMARK SMILES IDX 2 24 1 25 22 26 23 27 24 28 25 29 26 30 27 31 28 32 89 33
REMARK SMILES IDX 29 34 88 35 30 36 31 37 32 38 82 39 33 40 87 41 81 42 83 43
REMARK SMILES IDX 34 44 86 45 80 46 79 47 35 49 67 50 47 51 66 52 48 53 51 54
REMARK SMILES IDX 65 55 84 56 49 57 50 58 64 60 85 61 52 62 36 63 37 64 45 65
REMARK SMILES IDX 38 66 40 67 46 68 39 69 41 70 42 71 43 72 44 73 68 74 69 75
REMARK SMILES IDX 77 76 70 77 72 78 78 79 71 80 73 81 74 82 75 83 76 84 53 85
REMARK SMILES IDX 54 86 62 87 55 88 57 89 63 90 56 91 58 92 59 93 60 94 61 95
REMARK H PARENT 7 21 83 48 51 59
REMARK Flexibility Score: inf
ROOT
ATOM      1  O   UNL A   1      35.520  22.460  23.918  1.00  0.00    -0.462 OA
ENDROOT
BRANCH   1   2
ATOM      2  C   UNL A   1      35.080  23.235  24.936  1.00  0.00     0.310 C 
ATOM      3  O   UNL A   1      35.182  24.455  24.983  1.00  0.00    -0.252 OA
BRANCH   2   4
ATOM      4  C   UNL A   1      34.482  22.438  26.083  1.00  0.00     0.119 C 
ATOM      5  N   UNL A   1      32.412  21.686  24.979  1.00  0.00    -0.338 N 
ATOM      6  C   UNL A   1      31.563  22.369  25.950  1.00  0.00     0.120 C 
ATOM      7  C   UNL A   1      33.716  21.269  25.477  1.00  0.00     0.135 C 
ATOM      8  C   UNL A   1      32.250  23.567  26.590  1.00  0.00     0.022 C 
ATOM      9  C   UNL A   1      33.648  23.217  27.101  1.00  0.00     0.019 C 
BRANCH   5  10
ATOM     10  C   UNL A   1      32.095  21.785  23.624  1.00  0.00     0.253 C 
ATOM     11  O   UNL A   1      32.227  20.831  22.858  1.00  0.00    -0.269 OA
BRANCH  10  12
ATOM     12  C   UNL A   1      31.905  23.155  23.038  1.00  0.00     0.040 A 
ATOM     13  C   UNL A   1      32.109  25.879  22.424  1.00  0.00     0.041 A 
ATOM     14  C   UNL A   1      33.029  24.992  21.879  1.00  0.00     0.027 A 
ATOM     15  C   UNL A   1      30.997  25.397  23.099  1.00  0.00     0.027 A 
ATOM     16  C   UNL A   1      32.936  23.633  22.206  1.00  0.00     0.016 A 
ATOM     17  C   UNL A   1      30.892  24.041  23.401  1.00  0.00     0.016 A 
BRANCH  13  18
ATOM     18  N   UNL A   1      32.295  27.258  22.320  1.00  0.00    -0.326 N 
ATOM     19  C   UNL A   1      32.727  28.076  23.339  1.00  0.00     0.224 C 
ATOM     20  O   UNL A   1      32.410  29.265  23.359  1.00  0.00    -0.275 OA
ATOM     21  H   UNL A   1      32.102  27.679  21.450  1.00  0.00     0.169 HD
BRANCH  19  22
ATOM     22  C   UNL A   1      33.775  27.513  24.304  1.00  0.00     0.100 C 
BRANCH  22  23
ATOM     23  C   UNL A   1      33.527  27.681  25.805  1.00  0.00     0.010 C 
BRANCH  23  24
ATOM     24  C   UNL A   1      32.132  27.338  26.352  1.00  0.00    -0.003 C 
ATOM     25  C   UNL A   1      31.637  28.165  27.530  1.00  0.00     0.004 C 
ENDBRANCH  23  24
ENDBRANCH  22  23
ENDBRANCH  19  22
ENDBRANCH  13  18
ENDBRANCH  10  12
ENDBRANCH   5  10
ENDBRANCH   2   4
ENDBRANCH   1   2
BRANCH   1  26
ATOM     26  C   UNL A   1      36.938  22.234  23.841  1.00  0.00     0.274 C 
BRANCH  26  27
ATOM     27  C   UNL A   1      37.332  20.984  24.628  1.00  0.00     0.275 C 
BRANCH  27  28
ATOM     28  O   UNL A   1      37.778  21.318  25.955  1.00  0.00    -0.458 OA
BRANCH  28  29
ATOM     29  C   UNL A   1      39.098  21.122  26.183  1.00  0.00     0.338 C 
ATOM     30  O   UNL A   1      39.764  20.144  25.891  1.00  0.00    -0.246 OA
BRANCH  29  31
ATOM     31  C   UNL A   1      39.691  22.356  26.717  1.00  0.00     0.060 A 
ATOM     32  C   UNL A   1      39.246  23.574  26.199  1.00  0.00     0.016 A 
ATOM     33  C   UNL A   1      40.724  22.317  27.650  1.00  0.00     0.016 A 
ATOM     34  C   UNL A   1      39.830  24.767  26.605  1.00  0.00     0.010 A 
ATOM     35  C   UNL A   1      41.316  23.516  28.058  1.00  0.00     0.010 A 
ATOM     36  C   UNL A   1      40.880  24.744  27.526  1.00  0.00    -0.014 A 
BRANCH  36  37
ATOM     37  C   UNL A   1      41.568  26.005  27.883  1.00  0.00     0.031 A 
ATOM     38  C   UNL A   1      40.824  27.057  28.653  1.00  0.00     0.074 A 
ATOM     39  C   UNL A   1      42.846  26.200  27.512  1.00  0.00     0.049 A 
ATOM     40  N   UNL A   1      41.203  28.264  28.975  1.00  0.00    -0.248 NA
ATOM     41  C   UNL A   1      39.473  26.702  29.120  1.00  0.00     0.031 C 
ATOM     42  C   UNL A   1      43.670  25.233  26.784  1.00  0.00     0.029 A 
ATOM     43  N   UNL A   1      43.666  27.286  27.675  1.00  0.00    -0.354 N 
ATOM     44  C   UNL A   1      40.124  28.833  29.639  1.00  0.00     0.074 A 
ATOM     45  C   UNL A   1      39.077  27.837  29.680  1.00  0.00     0.031 C 
ATOM     46  C   UNL A   1      44.872  25.780  26.541  1.00  0.00     0.029 A 
ATOM     47  C   UNL A   1      44.887  27.146  27.059  1.00  0.00     0.049 A 
ATOM     48  H   UNL A   1      43.407  28.087  28.185  1.00  0.00     0.167 HD
ATOM     49  C   UNL A   1      40.022  30.073  30.172  1.00  0.00     0.034 A 
ATOM     50  C   UNL A   1      45.889  28.032  26.899  1.00  0.00     0.034 A 
ATOM     51  C   UNL A   1      41.084  31.043  30.160  1.00  0.00     0.049 A 
ATOM     52  C   UNL A   1      45.742  29.409  27.489  1.00  0.00     0.074 A 
ATOM     53  C   UNL A   1      41.095  32.313  30.709  1.00  0.00     0.029 A 
ATOM     54  N   UNL A   1      42.322  30.852  29.567  1.00  0.00    -0.354 N 
ATOM     55  N   UNL A   1      44.750  29.906  28.189  1.00  0.00    -0.248 NA
ATOM     56  C   UNL A   1      46.859  30.341  27.286  1.00  0.00     0.031 C 
ATOM     57  C   UNL A   1      42.337  32.896  30.433  1.00  0.00     0.029 A 
ATOM     58  C   UNL A   1      43.105  31.982  29.727  1.00  0.00     0.049 A 
ATOM     59  H   UNL A   1      42.603  30.032  29.099  1.00  0.00     0.167 HD
ATOM     60  C   UNL A   1      45.132  31.197  28.531  1.00  0.00     0.074 A 
ATOM     61  C   UNL A   1      46.459  31.397  27.983  1.00  0.00     0.031 C 
ATOM     62  C   UNL A   1      44.443  32.140  29.219  1.00  0.00     0.034 A 
BRANCH  49  63
ATOM     63  C   UNL A   1      38.723  30.441  30.836  1.00  0.00     0.023 A 
ATOM     64  C   UNL A   1      38.504  30.090  32.183  1.00  0.00     0.012 A 
ATOM     65  C   UNL A   1      37.739  31.171  30.141  1.00  0.00     0.148 A 
ATOM     66  C   UNL A   1      37.315  30.437  32.822  1.00  0.00     0.002 A 
ATOM     67  C   UNL A   1      36.572  31.547  30.796  1.00  0.00     0.091 A 
ATOM     68  F   UNL A   1      37.955  31.471  28.853  1.00  0.00    -0.205 F 
ATOM     69  C   UNL A   1      36.353  31.174  32.133  1.00  0.00     0.022 A 
BRANCH  67  70
ATOM     70  S   UNL A   1      35.306  32.553  30.012  1.00  0.00     0.127 S 
ATOM     71  O   UNL A   1      34.869  31.681  28.923  1.00  0.00    -0.237 OA
ATOM     72  O   UNL A   1      34.329  32.718  31.090  1.00  0.00    -0.237 OA
ATOM     73  O   UNL A   1      35.970  33.783  29.604  1.00  0.00    -0.744 OA
ENDBRANCH  67  70
ENDBRANCH  49  63
BRANCH  50  74
ATOM     74  C   UNL A   1      47.125  27.632  26.171  1.00  0.00     0.023 A 
ATOM     75  C   UNL A   1      48.149  26.959  26.864  1.00  0.00     0.012 A 
ATOM     76  C   UNL A   1      47.279  27.885  24.794  1.00  0.00     0.148 A 
ATOM     77  C   UNL A   1      49.312  26.562  26.203  1.00  0.00     0.002 A 
ATOM     78  C   UNL A   1      48.415  27.438  24.130  1.00  0.00     0.091 A 
ATOM     79  F   UNL A   1      46.303  28.548  24.156  1.00  0.00    -0.205 F 
ATOM     80  C   UNL A   1      49.440  26.789  24.836  1.00  0.00     0.022 A 
BRANCH  78  81
ATOM     81  S   UNL A   1      48.599  27.573  22.348  1.00  0.00     0.127 S 
ATOM     82  O   UNL A   1      47.413  28.342  21.981  1.00  0.00    -0.237 OA
ATOM     83  O   UNL A   1      49.865  28.298  22.226  1.00  0.00    -0.237 OA
ATOM     84  O   UNL A   1      48.645  26.202  21.857  1.00  0.00    -0.744 OA
ENDBRANCH  78  81
ENDBRANCH  50  74
BRANCH  62  85
ATOM     85  C   UNL A   1      45.115  33.469  29.441  1.00  0.00     0.023 A 
ATOM     86  C   UNL A   1      45.862  33.681  30.617  1.00  0.00     0.012 A 
ATOM     87  C   UNL A   1      45.070  34.475  28.456  1.00  0.00     0.148 A 
ATOM     88  C   UNL A   1      46.533  34.886  30.821  1.00  0.00     0.002 A 
ATOM     89  C   UNL A   1      45.779  35.656  28.647  1.00  0.00     0.091 A 
ATOM     90  F   UNL A   1      44.336  34.262  27.355  1.00  0.00    -0.205 F 
ATOM     91  C   UNL A   1      46.502  35.867  29.832  1.00  0.00     0.022 A 
BRANCH  89  92
ATOM     92  S   UNL A   1      45.868  36.932  27.386  1.00  0.00     0.127 S 
ATOM     93  O   UNL A   1      44.485  37.404  27.341  1.00  0.00    -0.237 OA
ATOM     94  O   UNL A   1      46.816  37.883  27.968  1.00  0.00    -0.237 OA
ATOM     95  O   UNL A   1      46.346  36.269  26.182  1.00  0.00    -0.744 OA
ENDBRANCH  89  92
ENDBRANCH  62  85
ENDBRANCH  36  37
ENDBRANCH  29  31
ENDBRANCH  28  29
ENDBRANCH  27  28
ENDBRANCH  26  27
ENDBRANCH   1  26
TORSDOF 20
ENDMDL
