MODEL 1
REMARK VINA RESULT:      -9.8      0.000      0.000
REMARK SMILES C#CC[N@H+](CC(=O)OCCOC(=O)c1ccc(-c2c3nc(c(-c4cccc(S(=O)(=O)[O-])c4F)c4ccc([nH]4)c(-c4cccc(S(=O)(=O)[O-])c4F)c4nc(c(-c5cccc(S(=O)(=O)[O-])c5F)c5ccc2[nH]5)C=C4)C=C3)cc1)[C@H](C)[C@@H](C)O
REMARK SMILES IDX 9 1 8 2 6 3 7 4 5 5 4 6 3 8 2 9 1 10 77 11 78 12 79 13 80 14
REMARK SMILES IDX 81 15 10 17 11 18 12 19 13 20 14 21 15 22 76 23 16 24 75 25
REMARK SMILES IDX 17 26 18 27 19 28 69 29 20 30 74 31 68 32 70 33 21 34 73 35
REMARK SMILES IDX 67 36 66 37 22 39 54 40 34 41 53 42 35 43 38 44 52 45 71 46
REMARK SMILES IDX 36 47 37 48 51 50 72 51 39 52 23 53 24 54 32 55 25 56 27 57
REMARK SMILES IDX 33 58 26 59 28 60 29 61 30 62 31 63 55 64 56 65 64 66 57 67
REMARK SMILES IDX 59 68 65 69 58 70 60 71 61 72 62 73 63 74 40 75 41 76 49 77
REMARK SMILES IDX 42 78 44 79 50 80 43 81 45 82 46 83 47 84 48 85
REMARK H PARENT 4 7 81 16 70 38 38 49
REMARK Flexibility Score: inf
ROOT
ATOM      1  C   UNL A   1      35.437  21.790  26.135  1.00  0.00     0.274 C 
ENDROOT
BRANCH   1   2
ATOM      2  O   UNL A   1      34.491  22.415  25.247  1.00  0.00    -0.458 OA
BRANCH   2   3
ATOM      3  C   UNL A   1      34.531  23.766  25.157  1.00  0.00     0.361 C 
ATOM      4  O   UNL A   1      35.572  24.407  25.034  1.00  0.00    -0.245 OA
BRANCH   3   5
ATOM      5  C   UNL A   1      33.183  24.451  25.374  1.00  0.00     0.387 C 
BRANCH   5   6
ATOM      6  N   UNL A   1      31.945  23.597  25.494  1.00  0.00    -0.311 N 
ATOM      7  H   UNL A   1      32.142  22.603  25.390  1.00  0.00     0.349 HD
BRANCH   6   8
ATOM      8  C   UNL A   1      31.388  23.744  26.857  1.00  0.00     0.354 C 
BRANCH   8   9
ATOM      9  C   UNL A   1      30.079  23.116  27.105  1.00  0.00    -0.047 C 
ATOM     10  C   UNL A   1      29.041  22.571  27.348  1.00  0.00     0.010 C 
ENDBRANCH   8   9
ENDBRANCH   6   8
BRANCH   6  11
ATOM     11  C   UNL A   1      31.003  23.956  24.361  1.00  0.00     0.210 C 
ATOM     12  C   UNL A   1      31.399  23.338  23.008  1.00  0.00     0.078 C 
BRANCH  11  13
ATOM     13  C   UNL A   1      30.661  25.478  24.221  1.00  0.00     0.169 C 
ATOM     14  C   UNL A   1      30.927  26.084  22.844  1.00  0.00     0.045 C 
BRANCH  13  15
ATOM     15  O   UNL A   1      29.272  25.689  24.491  1.00  0.00    -0.387 OA
ATOM     16  H   UNL A   1      28.757  24.953  24.125  1.00  0.00     0.211 HD
ENDBRANCH  13  15
ENDBRANCH  11  13
ENDBRANCH   6  11
ENDBRANCH   5   6
ENDBRANCH   3   5
ENDBRANCH   2   3
ENDBRANCH   1   2
BRANCH   1  17
ATOM     17  C   UNL A   1      36.365  20.843  25.371  1.00  0.00     0.275 C 
BRANCH  17  18
ATOM     18  O   UNL A   1      37.598  21.492  25.013  1.00  0.00    -0.458 OA
BRANCH  18  19
ATOM     19  C   UNL A   1      38.682  21.115  25.729  1.00  0.00     0.338 C 
ATOM     20  O   UNL A   1      39.158  19.996  25.814  1.00  0.00    -0.246 OA
BRANCH  19  21
ATOM     21  C   UNL A   1      39.303  22.302  26.334  1.00  0.00     0.060 A 
ATOM     22  C   UNL A   1      38.826  23.569  25.983  1.00  0.00     0.016 A 
ATOM     23  C   UNL A   1      40.402  22.162  27.179  1.00  0.00     0.016 A 
ATOM     24  C   UNL A   1      39.460  24.710  26.466  1.00  0.00     0.010 A 
ATOM     25  C   UNL A   1      41.033  23.307  27.666  1.00  0.00     0.010 A 
ATOM     26  C   UNL A   1      40.580  24.587  27.295  1.00  0.00    -0.014 A 
BRANCH  26  27
ATOM     27  C   UNL A   1      41.341  25.784  27.723  1.00  0.00     0.031 A 
ATOM     28  C   UNL A   1      40.638  26.857  28.505  1.00  0.00     0.074 A 
ATOM     29  C   UNL A   1      42.631  25.929  27.369  1.00  0.00     0.049 A 
ATOM     30  N   UNL A   1      41.059  28.046  28.840  1.00  0.00    -0.248 NA
ATOM     31  C   UNL A   1      39.271  26.550  28.960  1.00  0.00     0.031 C 
ATOM     32  C   UNL A   1      43.419  24.944  26.627  1.00  0.00     0.029 A 
ATOM     33  N   UNL A   1      43.493  26.981  27.552  1.00  0.00    -0.354 N 
ATOM     34  C   UNL A   1      39.996  28.653  29.498  1.00  0.00     0.074 A 
ATOM     35  C   UNL A   1      38.908  27.699  29.516  1.00  0.00     0.031 C 
ATOM     36  C   UNL A   1      44.640  25.452  26.390  1.00  0.00     0.029 A 
ATOM     37  C   UNL A   1      44.702  26.812  26.918  1.00  0.00     0.049 A 
ATOM     38  H   UNL A   1      43.269  27.777  28.087  1.00  0.00     0.167 HD
ATOM     39  C   UNL A   1      39.935  29.892  30.040  1.00  0.00     0.034 A 
ATOM     40  C   UNL A   1      45.723  27.673  26.745  1.00  0.00     0.034 A 
ATOM     41  C   UNL A   1      41.033  30.820  30.037  1.00  0.00     0.049 A 
ATOM     42  C   UNL A   1      45.621  29.054  27.336  1.00  0.00     0.074 A 
ATOM     43  C   UNL A   1      41.091  32.084  30.597  1.00  0.00     0.029 A 
ATOM     44  N   UNL A   1      42.261  30.591  29.435  1.00  0.00    -0.354 N 
ATOM     45  N   UNL A   1      44.641  29.587  28.025  1.00  0.00    -0.248 NA
ATOM     46  C   UNL A   1      46.776  29.946  27.151  1.00  0.00     0.031 C 
ATOM     47  C   UNL A   1      42.341  32.634  30.303  1.00  0.00     0.029 A 
ATOM     48  C   UNL A   1      43.082  31.692  29.603  1.00  0.00     0.049 A 
ATOM     49  H   UNL A   1      42.512  29.766  28.961  1.00  0.00     0.167 HD
ATOM     50  C   UNL A   1      45.079  30.852  28.400  1.00  0.00     0.074 A 
ATOM     51  C   UNL A   1      46.416  31.007  27.863  1.00  0.00     0.031 C 
ATOM     52  C   UNL A   1      44.434  31.801  29.120  1.00  0.00     0.034 A 
BRANCH  39  53
ATOM     53  C   UNL A   1      38.643  30.315  30.689  1.00  0.00     0.023 A 
ATOM     54  C   UNL A   1      38.397  30.000  32.041  1.00  0.00     0.012 A 
ATOM     55  C   UNL A   1      37.698  31.075  29.974  1.00  0.00     0.148 A 
ATOM     56  C   UNL A   1      37.213  30.404  32.660  1.00  0.00     0.002 A 
ATOM     57  C   UNL A   1      36.543  31.516  30.611  1.00  0.00     0.091 A 
ATOM     58  F   UNL A   1      37.940  31.348  28.684  1.00  0.00    -0.205 F 
ATOM     59  C   UNL A   1      36.293  31.170  31.948  1.00  0.00     0.022 A 
BRANCH  57  60
ATOM     60  S   UNL A   1      35.338  32.578  29.807  1.00  0.00     0.127 S 
ATOM     61  O   UNL A   1      34.818  31.696  28.762  1.00  0.00    -0.237 OA
ATOM     62  O   UNL A   1      34.399  32.853  30.895  1.00  0.00    -0.237 OA
ATOM     63  O   UNL A   1      36.076  33.740  29.332  1.00  0.00    -0.744 OA
ENDBRANCH  57  60
ENDBRANCH  39  53
BRANCH  40  64
ATOM     64  C   UNL A   1      46.940  27.248  25.996  1.00  0.00     0.023 A 
ATOM     65  C   UNL A   1      47.905  26.450  26.639  1.00  0.00     0.012 A 
ATOM     66  C   UNL A   1      47.138  27.618  24.651  1.00  0.00     0.148 A 
ATOM     67  C   UNL A   1      49.063  26.055  25.967  1.00  0.00     0.002 A 
ATOM     68  C   UNL A   1      48.266  27.173  23.970  1.00  0.00     0.091 A 
ATOM     69  F   UNL A   1      46.213  28.387  24.061  1.00  0.00    -0.205 F 
ATOM     70  C   UNL A   1      49.238  26.408  24.631  1.00  0.00     0.022 A 
BRANCH  68  71
ATOM     71  S   UNL A   1      48.517  27.475  22.217  1.00  0.00     0.127 S 
ATOM     72  O   UNL A   1      49.752  28.257  22.224  1.00  0.00    -0.237 OA
ATOM     73  O   UNL A   1      48.652  26.114  21.696  1.00  0.00    -0.237 OA
ATOM     74  O   UNL A   1      47.327  28.179  21.762  1.00  0.00    -0.744 OA
ENDBRANCH  68  71
ENDBRANCH  40  64
BRANCH  52  75
ATOM     75  C   UNL A   1      45.180  33.067  29.454  1.00  0.00     0.023 A 
ATOM     76  C   UNL A   1      45.925  33.163  30.644  1.00  0.00     0.012 A 
ATOM     77  C   UNL A   1      45.222  34.123  28.520  1.00  0.00     0.148 A 
ATOM     78  C   UNL A   1      46.686  34.301  30.911  1.00  0.00     0.002 A 
ATOM     79  C   UNL A   1      46.024  35.230  28.768  1.00  0.00     0.091 A 
ATOM     80  F   UNL A   1      44.490  34.017  27.402  1.00  0.00    -0.205 F 
ATOM     81  C   UNL A   1      46.746  35.326  29.968  1.00  0.00     0.022 A 
BRANCH  79  82
ATOM     82  S   UNL A   1      46.246  36.546  27.567  1.00  0.00     0.127 S 
ATOM     83  O   UNL A   1      44.896  37.102  27.481  1.00  0.00    -0.237 OA
ATOM     84  O   UNL A   1      47.220  37.410  28.236  1.00  0.00    -0.237 OA
ATOM     85  O   UNL A   1      46.733  35.909  26.352  1.00  0.00    -0.744 OA
ENDBRANCH  79  82
ENDBRANCH  52  75
ENDBRANCH  26  27
ENDBRANCH  19  21
ENDBRANCH  18  19
ENDBRANCH  17  18
ENDBRANCH   1  17
TORSDOF 20
ENDMDL
MODEL 2
REMARK VINA RESULT:      -9.7      1.663      2.232
REMARK SMILES C#CC[N@H+](CC(=O)OCCOC(=O)c1ccc(-c2c3nc(c(-c4cccc(S(=O)(=O)[O-])c4F)c4ccc([nH]4)c(-c4cccc(S(=O)(=O)[O-])c4F)c4nc(c(-c5cccc(S(=O)(=O)[O-])c5F)c5ccc2[nH]5)C=C4)C=C3)cc1)[C@H](C)[C@@H](C)O
REMARK SMILES IDX 9 1 8 2 6 3 7 4 5 5 4 6 3 8 2 9 1 10 77 11 78 12 79 13 80 14
REMARK SMILES IDX 81 15 10 17 11 18 12 19 13 20 14 21 15 22 76 23 16 24 75 25
REMARK SMILES IDX 17 26 18 27 19 28 69 29 20 30 74 31 68 32 70 33 21 34 73 35
REMARK SMILES IDX 67 36 66 37 22 39 54 40 34 41 53 42 35 43 38 44 52 45 71 46
REMARK SMILES IDX 36 47 37 48 51 50 72 51 39 52 23 53 24 54 32 55 25 56 27 57
REMARK SMILES IDX 33 58 26 59 28 60 29 61 30 62 31 63 55 64 56 65 64 66 57 67
REMARK SMILES IDX 59 68 65 69 58 70 60 71 61 72 62 73 63 74 40 75 41 76 49 77
REMARK SMILES IDX 42 78 44 79 50 80 43 81 45 82 46 83 47 84 48 85
REMARK H PARENT 4 7 81 16 70 38 38 49
REMARK Flexibility Score: inf
ROOT
ATOM      1  C   UNL A   1      36.452  22.575  23.758  1.00  0.00     0.274 C 
ENDROOT
BRANCH   1   2
ATOM      2  O   UNL A   1      35.351  23.021  24.571  1.00  0.00    -0.458 OA
BRANCH   2   3
ATOM      3  C   UNL A   1      34.740  24.173  24.202  1.00  0.00     0.361 C 
ATOM      4  O   UNL A   1      34.631  24.538  23.034  1.00  0.00    -0.245 OA
BRANCH   3   5
ATOM      5  C   UNL A   1      34.326  25.067  25.369  1.00  0.00     0.387 C 
BRANCH   5   6
ATOM      6  N   UNL A   1      33.006  25.794  25.294  1.00  0.00    -0.311 N 
ATOM      7  H   UNL A   1      32.809  26.158  24.363  1.00  0.00     0.349 HD
BRANCH   6   8
ATOM      8  C   UNL A   1      31.913  24.838  25.577  1.00  0.00     0.354 C 
BRANCH   8   9
ATOM      9  C   UNL A   1      31.153  24.341  24.417  1.00  0.00    -0.047 C 
ATOM     10  C   UNL A   1      30.533  23.886  23.500  1.00  0.00     0.010 C 
ENDBRANCH   8   9
ENDBRANCH   6   8
BRANCH   6  11
ATOM     11  C   UNL A   1      33.070  27.002  26.209  1.00  0.00     0.210 C 
ATOM     12  C   UNL A   1      31.691  27.487  26.688  1.00  0.00     0.078 C 
BRANCH  11  13
ATOM     13  C   UNL A   1      33.955  28.190  25.700  1.00  0.00     0.169 C 
ATOM     14  C   UNL A   1      33.321  29.062  24.619  1.00  0.00     0.045 C 
BRANCH  13  15
ATOM     15  O   UNL A   1      34.263  29.064  26.791  1.00  0.00    -0.387 OA
ATOM     16  H   UNL A   1      34.188  29.985  26.497  1.00  0.00     0.211 HD
ENDBRANCH  13  15
ENDBRANCH  11  13
ENDBRANCH   6  11
ENDBRANCH   5   6
ENDBRANCH   3   5
ENDBRANCH   2   3
ENDBRANCH   1   2
BRANCH   1  17
ATOM     17  C   UNL A   1      37.051  21.278  24.307  1.00  0.00     0.275 C 
BRANCH  17  18
ATOM     18  O   UNL A   1      37.414  21.413  25.692  1.00  0.00    -0.458 OA
BRANCH  18  19
ATOM     19  C   UNL A   1      38.714  21.172  25.979  1.00  0.00     0.338 C 
ATOM     20  O   UNL A   1      39.345  20.155  25.747  1.00  0.00    -0.246 OA
BRANCH  19  21
ATOM     21  C   UNL A   1      39.324  22.388  26.535  1.00  0.00     0.060 A 
ATOM     22  C   UNL A   1      38.848  23.635  26.120  1.00  0.00     0.016 A 
ATOM     23  C   UNL A   1      40.413  22.291  27.399  1.00  0.00     0.016 A 
ATOM     24  C   UNL A   1      39.472  24.800  26.557  1.00  0.00     0.010 A 
ATOM     25  C   UNL A   1      41.035  23.459  27.840  1.00  0.00     0.010 A 
ATOM     26  C   UNL A   1      40.583  24.719  27.405  1.00  0.00    -0.014 A 
BRANCH  26  27
ATOM     27  C   UNL A   1      41.335  25.937  27.786  1.00  0.00     0.031 A 
ATOM     28  C   UNL A   1      40.634  27.018  28.559  1.00  0.00     0.074 A 
ATOM     29  C   UNL A   1      42.614  26.093  27.398  1.00  0.00     0.049 A 
ATOM     30  N   UNL A   1      41.044  28.221  28.856  1.00  0.00    -0.248 NA
ATOM     31  C   UNL A   1      39.283  26.702  29.054  1.00  0.00     0.031 C 
ATOM     32  C   UNL A   1      43.399  25.103  26.660  1.00  0.00     0.029 A 
ATOM     33  N   UNL A   1      43.463  27.162  27.535  1.00  0.00    -0.354 N 
ATOM     34  C   UNL A   1      39.988  28.828  29.524  1.00  0.00     0.074 A 
ATOM     35  C   UNL A   1      38.916  27.858  29.591  1.00  0.00     0.031 C 
ATOM     36  C   UNL A   1      44.606  25.623  26.381  1.00  0.00     0.029 A 
ATOM     37  C   UNL A   1      44.659  26.997  26.876  1.00  0.00     0.049 A 
ATOM     38  H   UNL A   1      43.239  27.968  28.056  1.00  0.00     0.167 HD
ATOM     39  C   UNL A   1      39.921  30.078  30.039  1.00  0.00     0.034 A 
ATOM     40  C   UNL A   1      45.663  27.868  26.658  1.00  0.00     0.034 A 
ATOM     41  C   UNL A   1      41.004  31.023  29.987  1.00  0.00     0.049 A 
ATOM     42  C   UNL A   1      45.553  29.262  27.219  1.00  0.00     0.074 A 
ATOM     43  C   UNL A   1      41.055  32.300  30.516  1.00  0.00     0.029 A 
ATOM     44  N   UNL A   1      42.220  30.798  29.362  1.00  0.00    -0.354 N 
ATOM     45  N   UNL A   1      44.581  29.796  27.918  1.00  0.00    -0.248 NA
ATOM     46  C   UNL A   1      46.690  30.165  26.985  1.00  0.00     0.031 C 
ATOM     47  C   UNL A   1      42.290  32.861  30.178  1.00  0.00     0.029 A 
ATOM     48  C   UNL A   1      43.028  31.915  29.484  1.00  0.00     0.049 A 
ATOM     49  H   UNL A   1      42.473  29.965  28.900  1.00  0.00     0.167 HD
ATOM     50  C   UNL A   1      45.009  31.076  28.252  1.00  0.00     0.074 A 
ATOM     51  C   UNL A   1      46.330  31.238  27.680  1.00  0.00     0.031 C 
ATOM     52  C   UNL A   1      44.367  32.032  28.966  1.00  0.00     0.034 A 
BRANCH  39  53
ATOM     53  C   UNL A   1      38.639  30.497  30.709  1.00  0.00     0.023 A 
ATOM     54  C   UNL A   1      38.475  30.314  32.097  1.00  0.00     0.012 A 
ATOM     55  C   UNL A   1      37.617  31.125  29.970  1.00  0.00     0.148 A 
ATOM     56  C   UNL A   1      37.301  30.717  32.733  1.00  0.00     0.002 A 
ATOM     57  C   UNL A   1      36.470  31.568  30.619  1.00  0.00     0.091 A 
ATOM     58  F   UNL A   1      37.781  31.273  28.648  1.00  0.00    -0.205 F 
ATOM     59  C   UNL A   1      36.304  31.353  31.996  1.00  0.00     0.022 A 
BRANCH  57  60
ATOM     60  S   UNL A   1      35.167  32.472  29.775  1.00  0.00     0.127 S 
ATOM     61  O   UNL A   1      34.238  32.742  30.871  1.00  0.00    -0.237 OA
ATOM     62  O   UNL A   1      35.883  33.648  29.278  1.00  0.00    -0.237 OA
ATOM     63  O   UNL A   1      34.666  31.583  28.736  1.00  0.00    -0.744 OA
ENDBRANCH  57  60
ENDBRANCH  39  53
BRANCH  40  64
ATOM     64  C   UNL A   1      46.868  27.444  25.890  1.00  0.00     0.023 A 
ATOM     65  C   UNL A   1      46.916  27.664  24.501  1.00  0.00     0.012 A 
ATOM     66  C   UNL A   1      47.968  26.837  26.529  1.00  0.00     0.148 A 
ATOM     67  C   UNL A   1      48.024  27.259  23.755  1.00  0.00     0.002 A 
ATOM     68  C   UNL A   1      49.091  26.487  25.789  1.00  0.00     0.091 A 
ATOM     69  F   UNL A   1      47.898  26.626  27.851  1.00  0.00    -0.205 F 
ATOM     70  C   UNL A   1      49.114  26.679  24.400  1.00  0.00     0.022 A 
BRANCH  68  71
ATOM     71  S   UNL A   1      50.589  25.850  26.549  1.00  0.00     0.127 S 
ATOM     72  O   UNL A   1      51.472  25.708  25.394  1.00  0.00    -0.237 OA
ATOM     73  O   UNL A   1      50.943  26.932  27.467  1.00  0.00    -0.237 OA
ATOM     74  O   UNL A   1      50.202  24.608  27.204  1.00  0.00    -0.744 OA
ENDBRANCH  68  71
ENDBRANCH  40  64
BRANCH  52  75
ATOM     75  C   UNL A   1      45.100  33.316  29.251  1.00  0.00     0.023 A 
ATOM     76  C   UNL A   1      45.927  33.429  30.385  1.00  0.00     0.012 A 
ATOM     77  C   UNL A   1      45.047  34.376  28.323  1.00  0.00     0.148 A 
ATOM     78  C   UNL A   1      46.674  34.586  30.602  1.00  0.00     0.002 A 
ATOM     79  C   UNL A   1      45.834  35.504  28.518  1.00  0.00     0.091 A 
ATOM     80  F   UNL A   1      44.239  34.254  27.260  1.00  0.00    -0.205 F 
ATOM     81  C   UNL A   1      46.638  35.616  29.662  1.00  0.00     0.022 A 
BRANCH  79  82
ATOM     82  S   UNL A   1      45.934  36.830  27.311  1.00  0.00     0.127 S 
ATOM     83  O   UNL A   1      46.870  37.750  27.956  1.00  0.00    -0.237 OA
ATOM     84  O   UNL A   1      46.469  36.138  26.138  1.00  0.00    -0.237 OA
ATOM     85  O   UNL A   1      44.577  37.336  27.151  1.00  0.00    -0.744 OA
ENDBRANCH  79  82
ENDBRANCH  52  75
ENDBRANCH  26  27
ENDBRANCH  19  21
ENDBRANCH  18  19
ENDBRANCH  17  18
ENDBRANCH   1  17
TORSDOF 20
ENDMDL
MODEL 3
REMARK VINA RESULT:      -9.3      1.643      8.085
REMARK SMILES C#CC[N@H+](CC(=O)OCCOC(=O)c1ccc(-c2c3nc(c(-c4cccc(S(=O)(=O)[O-])c4F)c4ccc([nH]4)c(-c4cccc(S(=O)(=O)[O-])c4F)c4nc(c(-c5cccc(S(=O)(=O)[O-])c5F)c5ccc2[nH]5)C=C4)C=C3)cc1)[C@H](C)[C@@H](C)O
REMARK SMILES IDX 9 1 8 2 6 3 7 4 5 5 4 6 3 8 2 9 1 10 77 11 78 12 79 13 80 14
REMARK SMILES IDX 81 15 10 17 11 18 12 19 13 20 14 21 15 22 76 23 16 24 75 25
REMARK SMILES IDX 17 26 18 27 19 28 69 29 20 30 74 31 68 32 70 33 21 34 73 35
REMARK SMILES IDX 67 36 66 37 22 39 54 40 34 41 53 42 35 43 38 44 52 45 71 46
REMARK SMILES IDX 36 47 37 48 51 50 72 51 39 52 23 53 24 54 32 55 25 56 27 57
REMARK SMILES IDX 33 58 26 59 28 60 29 61 30 62 31 63 55 64 56 65 64 66 57 67
REMARK SMILES IDX 59 68 65 69 58 70 60 71 61 72 62 73 63 74 40 75 41 76 49 77
REMARK SMILES IDX 42 78 44 79 50 80 43 81 45 82 46 83 47 84 48 85
REMARK H PARENT 4 7 81 16 70 38 38 49
REMARK Flexibility Score: inf
ROOT
ATOM      1  C   UNL A   1      36.516  21.907  24.232  1.00  0.00     0.274 C 
ENDROOT
BRANCH   1   2
ATOM      2  O   UNL A   1      35.130  21.678  24.547  1.00  0.00    -0.458 OA
BRANCH   2   3
ATOM      3  C   UNL A   1      34.629  22.322  25.628  1.00  0.00     0.361 C 
ATOM      4  O   UNL A   1      34.703  21.884  26.773  1.00  0.00    -0.245 OA
BRANCH   3   5
ATOM      5  C   UNL A   1      33.824  23.577  25.295  1.00  0.00     0.387 C 
BRANCH   5   6
ATOM      6  N   UNL A   1      33.185  23.690  23.934  1.00  0.00    -0.311 N 
ATOM      7  H   UNL A   1      33.568  23.026  23.263  1.00  0.00     0.349 HD
BRANCH   6   8
ATOM      8  C   UNL A   1      31.750  23.346  24.045  1.00  0.00     0.354 C 
BRANCH   8   9
ATOM      9  C   UNL A   1      31.128  23.528  25.368  1.00  0.00    -0.047 C 
ATOM     10  C   UNL A   1      30.570  23.668  26.417  1.00  0.00     0.010 C 
ENDBRANCH   8   9
ENDBRANCH   6   8
BRANCH   6  11
ATOM     11  C   UNL A   1      33.485  25.067  23.375  1.00  0.00     0.210 C 
ATOM     12  C   UNL A   1      33.334  26.199  24.408  1.00  0.00     0.078 C 
BRANCH  11  13
ATOM     13  C   UNL A   1      32.773  25.421  22.025  1.00  0.00     0.169 C 
ATOM     14  C   UNL A   1      31.467  26.200  22.159  1.00  0.00     0.045 C 
BRANCH  13  15
ATOM     15  O   UNL A   1      33.639  26.224  21.218  1.00  0.00    -0.387 OA
ATOM     16  H   UNL A   1      34.538  25.859  21.246  1.00  0.00     0.211 HD
ENDBRANCH  13  15
ENDBRANCH  11  13
ENDBRANCH   6  11
ENDBRANCH   5   6
ENDBRANCH   3   5
ENDBRANCH   2   3
ENDBRANCH   1   2
BRANCH   1  17
ATOM     17  C   UNL A   1      37.393  20.761  24.743  1.00  0.00     0.275 C 
BRANCH  17  18
ATOM     18  O   UNL A   1      37.888  21.029  26.066  1.00  0.00    -0.458 OA
BRANCH  18  19
ATOM     19  C   UNL A   1      39.235  21.038  26.192  1.00  0.00     0.338 C 
ATOM     20  O   UNL A   1      40.007  20.130  25.932  1.00  0.00    -0.246 OA
BRANCH  19  21
ATOM     21  C   UNL A   1      39.678  22.379  26.600  1.00  0.00     0.060 A 
ATOM     22  C   UNL A   1      38.959  23.493  26.157  1.00  0.00     0.016 A 
ATOM     23  C   UNL A   1      40.844  22.533  27.348  1.00  0.00     0.016 A 
ATOM     24  C   UNL A   1      39.413  24.776  26.448  1.00  0.00     0.010 A 
ATOM     25  C   UNL A   1      41.295  23.819  27.643  1.00  0.00     0.010 A 
ATOM     26  C   UNL A   1      40.596  24.948  27.177  1.00  0.00    -0.014 A 
BRANCH  26  27
ATOM     27  C   UNL A   1      41.161  26.300  27.396  1.00  0.00     0.031 A 
ATOM     28  C   UNL A   1      42.564  26.588  26.942  1.00  0.00     0.074 A 
ATOM     29  C   UNL A   1      40.443  27.238  28.039  1.00  0.00     0.049 A 
ATOM     30  N   UNL A   1      43.307  27.636  27.170  1.00  0.00    -0.248 NA
ATOM     31  C   UNL A   1      43.220  25.548  26.130  1.00  0.00     0.031 C 
ATOM     32  C   UNL A   1      39.067  27.075  28.508  1.00  0.00     0.029 A 
ATOM     33  N   UNL A   1      40.790  28.502  28.446  1.00  0.00    -0.354 N 
ATOM     34  C   UNL A   1      44.536  27.365  26.580  1.00  0.00     0.074 A 
ATOM     35  C   UNL A   1      44.437  26.052  25.980  1.00  0.00     0.031 C 
ATOM     36  C   UNL A   1      38.696  28.185  29.167  1.00  0.00     0.029 A 
ATOM     37  C   UNL A   1      39.823  29.113  29.210  1.00  0.00     0.049 A 
ATOM     38  H   UNL A   1      41.646  28.930  28.213  1.00  0.00     0.167 HD
ATOM     39  C   UNL A   1      45.643  28.144  26.538  1.00  0.00     0.034 A 
ATOM     40  C   UNL A   1      39.858  30.270  29.900  1.00  0.00     0.034 A 
ATOM     41  C   UNL A   1      45.718  29.458  27.117  1.00  0.00     0.049 A 
ATOM     42  C   UNL A   1      41.111  31.105  29.859  1.00  0.00     0.074 A 
ATOM     43  C   UNL A   1      46.777  30.347  27.094  1.00  0.00     0.029 A 
ATOM     44  N   UNL A   1      44.698  30.066  27.832  1.00  0.00    -0.354 N 
ATOM     45  N   UNL A   1      42.238  30.874  29.230  1.00  0.00    -0.248 NA
ATOM     46  C   UNL A   1      41.089  32.376  30.600  1.00  0.00     0.031 C 
ATOM     47  C   UNL A   1      46.411  31.479  27.826  1.00  0.00     0.029 A 
ATOM     48  C   UNL A   1      45.105  31.317  28.262  1.00  0.00     0.049 A 
ATOM     49  H   UNL A   1      43.815  29.668  28.006  1.00  0.00     0.167 HD
ATOM     50  C   UNL A   1      43.038  31.989  29.455  1.00  0.00     0.074 A 
ATOM     51  C   UNL A   1      42.266  32.897  30.277  1.00  0.00     0.031 C 
ATOM     52  C   UNL A   1      44.297  32.237  29.022  1.00  0.00     0.034 A 
BRANCH  39  53
ATOM     53  C   UNL A   1      46.861  27.600  25.839  1.00  0.00     0.023 A 
ATOM     54  C   UNL A   1      47.034  27.810  24.456  1.00  0.00     0.012 A 
ATOM     55  C   UNL A   1      47.864  26.929  26.565  1.00  0.00     0.148 A 
ATOM     56  C   UNL A   1      48.168  27.330  23.801  1.00  0.00     0.002 A 
ATOM     57  C   UNL A   1      49.014  26.496  25.915  1.00  0.00     0.091 A 
ATOM     58  F   UNL A   1      47.675  26.721  27.876  1.00  0.00    -0.205 F 
ATOM     59  C   UNL A   1      49.161  26.683  24.532  1.00  0.00     0.022 A 
BRANCH  57  60
ATOM     60  S   UNL A   1      50.387  25.729  26.783  1.00  0.00     0.127 S 
ATOM     61  O   UNL A   1      50.680  26.725  27.812  1.00  0.00    -0.237 OA
ATOM     62  O   UNL A   1      49.781  24.494  27.284  1.00  0.00    -0.237 OA
ATOM     63  O   UNL A   1      51.433  25.532  25.789  1.00  0.00    -0.744 OA
ENDBRANCH  57  60
ENDBRANCH  39  53
BRANCH  40  64
ATOM     64  C   UNL A   1      38.665  30.715  30.673  1.00  0.00     0.023 A 
ATOM     65  C   UNL A   1      38.598  30.456  32.055  1.00  0.00     0.012 A 
ATOM     66  C   UNL A   1      37.605  31.405  30.051  1.00  0.00     0.148 A 
ATOM     67  C   UNL A   1      37.483  30.844  32.799  1.00  0.00     0.002 A 
ATOM     68  C   UNL A   1      36.523  31.839  30.809  1.00  0.00     0.091 A 
ATOM     69  F   UNL A   1      37.681  31.632  28.733  1.00  0.00    -0.205 F 
ATOM     70  C   UNL A   1      36.451  31.543  32.178  1.00  0.00     0.022 A 
BRANCH  68  71
ATOM     71  S   UNL A   1      35.207  32.851  30.122  1.00  0.00     0.127 S 
ATOM     72  O   UNL A   1      35.945  34.023  29.656  1.00  0.00    -0.237 OA
ATOM     73  O   UNL A   1      34.687  31.987  29.062  1.00  0.00    -0.237 OA
ATOM     74  O   UNL A   1      34.276  33.086  31.217  1.00  0.00    -0.744 OA
ENDBRANCH  68  71
ENDBRANCH  40  64
BRANCH  52  75
ATOM     75  C   UNL A   1      44.908  33.574  29.348  1.00  0.00     0.023 A 
ATOM     76  C   UNL A   1      45.663  33.746  30.524  1.00  0.00     0.012 A 
ATOM     77  C   UNL A   1      44.817  34.632  28.420  1.00  0.00     0.148 A 
ATOM     78  C   UNL A   1      46.301  34.959  30.782  1.00  0.00     0.002 A 
ATOM     79  C   UNL A   1      45.498  35.818  28.659  1.00  0.00     0.091 A 
ATOM     80  F   UNL A   1      44.077  34.451  27.317  1.00  0.00    -0.205 F 
ATOM     81  C   UNL A   1      46.231  35.988  29.844  1.00  0.00     0.022 A 
BRANCH  79  82
ATOM     82  S   UNL A   1      45.552  37.156  27.461  1.00  0.00     0.127 S 
ATOM     83  O   UNL A   1      46.354  38.155  28.167  1.00  0.00    -0.237 OA
ATOM     84  O   UNL A   1      46.225  36.524  26.325  1.00  0.00    -0.237 OA
ATOM     85  O   UNL A   1      44.168  37.534  27.212  1.00  0.00    -0.744 OA
ENDBRANCH  79  82
ENDBRANCH  52  75
ENDBRANCH  26  27
ENDBRANCH  19  21
ENDBRANCH  18  19
ENDBRANCH  17  18
ENDBRANCH   1  17
TORSDOF 20
ENDMDL
