MODEL 1
REMARK VINA RESULT:     -11.7      0.000      0.000
REMARK SMILES O=C(OCCOC(=O)c1ccnc(-n2cnnn2)c1)c1ccc(-c2c3nc(c(-c4cccc(S(=O)(=O)[O-])c4F)c4ccc([nH]4)c(-c4cccc(S(=O)(=O)[O-])c4F)c4nc(c(-c5cccc(S(=O)(=O)[O-])c5F)c5ccc2[nH]5)C=C4)C=C3)cc1
REMARK SMILES IDX 4 1 3 2 2 3 1 4 20 5 21 6 82 7 22 8 81 9 23 10 24 11 25 12
REMARK SMILES IDX 75 13 26 14 80 15 74 16 76 17 27 18 79 19 73 20 72 21 28 23
REMARK SMILES IDX 60 24 40 25 59 26 41 27 44 28 58 29 77 30 42 31 43 32 57 34
REMARK SMILES IDX 78 35 45 36 29 37 30 38 38 39 31 40 33 41 39 42 32 43 34 44
REMARK SMILES IDX 35 45 36 46 37 47 61 48 62 49 70 50 63 51 65 52 71 53 64 54
REMARK SMILES IDX 66 55 67 56 68 57 69 58 46 59 47 60 55 61 48 62 50 63 56 64
REMARK SMILES IDX 49 65 51 66 52 67 53 68 54 69 5 70 6 71 7 72 8 73 9 74 10 75
REMARK SMILES IDX 19 76 11 77 13 78 12 79 14 80 15 81 18 82 16 83 17 84
REMARK H PARENT 76 22 44 33
REMARK Flexibility Score: inf
ROOT
ATOM      1  C   UNL A   1      34.012  32.501  28.040  1.00  0.00     0.275 C 
ENDROOT
BRANCH   1   2
ATOM      2  O   UNL A   1      34.999  32.359  29.082  1.00  0.00    -0.458 OA
BRANCH   2   3
ATOM      3  C   UNL A   1      36.174  33.011  28.975  1.00  0.00     0.338 C 
ATOM      4  O   UNL A   1      36.275  34.230  28.911  1.00  0.00    -0.246 OA
BRANCH   3   5
ATOM      5  C   UNL A   1      37.347  32.133  29.177  1.00  0.00     0.060 A 
ATOM      6  C   UNL A   1      38.503  32.551  29.848  1.00  0.00     0.016 A 
ATOM      7  C   UNL A   1      37.255  30.823  28.694  1.00  0.00     0.016 A 
ATOM      8  C   UNL A   1      39.580  31.687  29.984  1.00  0.00     0.010 A 
ATOM      9  C   UNL A   1      38.328  29.957  28.841  1.00  0.00     0.010 A 
ATOM     10  C   UNL A   1      39.501  30.398  29.458  1.00  0.00    -0.014 A 
BRANCH  10  11
ATOM     11  C   UNL A   1      40.647  29.508  29.631  1.00  0.00     0.031 A 
ATOM     12  C   UNL A   1      41.018  29.176  31.039  1.00  0.00     0.074 A 
ATOM     13  C   UNL A   1      41.241  28.887  28.593  1.00  0.00     0.049 A 
ATOM     14  N   UNL A   1      42.130  29.417  31.657  1.00  0.00    -0.248 NA
ATOM     15  C   UNL A   1      39.984  28.573  31.891  1.00  0.00     0.031 C 
ATOM     16  C   UNL A   1      40.810  28.872  27.190  1.00  0.00     0.029 A 
ATOM     17  N   UNL A   1      42.275  28.001  28.606  1.00  0.00    -0.354 N 
ATOM     18  C   UNL A   1      42.014  28.794  32.903  1.00  0.00     0.074 A 
ATOM     19  C   UNL A   1      40.629  28.435  33.050  1.00  0.00     0.031 C 
ATOM     20  C   UNL A   1      41.392  27.831  26.560  1.00  0.00     0.029 A 
ATOM     21  C   UNL A   1      42.349  27.217  27.461  1.00  0.00     0.049 A 
ATOM     22  H   UNL A   1      42.910  27.925  29.355  1.00  0.00     0.167 HD
ATOM     23  C   UNL A   1      43.101  28.418  33.634  1.00  0.00     0.034 A 
ATOM     24  C   UNL A   1      43.097  26.102  27.289  1.00  0.00     0.034 A 
ATOM     25  C   UNL A   1      44.305  29.058  33.183  1.00  0.00     0.049 A 
ATOM     26  C   UNL A   1      44.176  26.129  28.300  1.00  0.00     0.074 A 
ATOM     27  C   UNL A   1      44.728  30.364  33.042  1.00  0.00     0.029 A 
ATOM     28  N   UNL A   1      45.186  28.299  32.454  1.00  0.00    -0.354 N 
ATOM     29  N   UNL A   1      45.141  27.006  28.302  1.00  0.00    -0.248 NA
ATOM     30  C   UNL A   1      43.973  25.417  29.549  1.00  0.00     0.031 C 
ATOM     31  C   UNL A   1      45.510  30.364  31.850  1.00  0.00     0.029 A 
ATOM     32  C   UNL A   1      45.558  29.051  31.374  1.00  0.00     0.049 A 
ATOM     33  H   UNL A   1      45.492  27.388  32.669  1.00  0.00     0.167 HD
ATOM     34  C   UNL A   1      45.359  27.276  29.644  1.00  0.00     0.074 A 
ATOM     35  C   UNL A   1      44.710  26.180  30.360  1.00  0.00     0.031 C 
ATOM     36  C   UNL A   1      45.790  28.506  30.054  1.00  0.00     0.034 A 
BRANCH  23  37
ATOM     37  C   UNL A   1      43.151  27.220  34.557  1.00  0.00     0.023 A 
ATOM     38  C   UNL A   1      42.988  27.447  35.943  1.00  0.00     0.012 A 
ATOM     39  C   UNL A   1      43.611  25.943  34.168  1.00  0.00     0.148 A 
ATOM     40  C   UNL A   1      43.300  26.465  36.892  1.00  0.00     0.002 A 
ATOM     41  C   UNL A   1      43.836  24.942  35.109  1.00  0.00     0.091 A 
ATOM     42  F   UNL A   1      43.968  25.720  32.899  1.00  0.00    -0.205 F 
ATOM     43  C   UNL A   1      43.712  25.206  36.474  1.00  0.00     0.022 A 
BRANCH  41  44
ATOM     44  S   UNL A   1      44.301  23.279  34.614  1.00  0.00     0.127 S 
ATOM     45  O   UNL A   1      44.420  22.613  35.906  1.00  0.00    -0.237 OA
ATOM     46  O   UNL A   1      43.147  22.873  33.810  1.00  0.00    -0.237 OA
ATOM     47  O   UNL A   1      45.530  23.443  33.851  1.00  0.00    -0.744 OA
ENDBRANCH  41  44
ENDBRANCH  23  37
BRANCH  24  48
ATOM     48  C   UNL A   1      42.825  24.910  26.459  1.00  0.00     0.023 A 
ATOM     49  C   UNL A   1      43.709  24.568  25.417  1.00  0.00     0.012 A 
ATOM     50  C   UNL A   1      41.853  23.963  26.852  1.00  0.00     0.148 A 
ATOM     51  C   UNL A   1      43.647  23.310  24.807  1.00  0.00     0.002 A 
ATOM     52  C   UNL A   1      41.791  22.717  26.235  1.00  0.00     0.091 A 
ATOM     53  F   UNL A   1      41.056  24.249  27.890  1.00  0.00    -0.205 F 
ATOM     54  C   UNL A   1      42.695  22.382  25.221  1.00  0.00     0.022 A 
BRANCH  52  55
ATOM     55  S   UNL A   1      40.596  21.466  26.726  1.00  0.00     0.127 S 
ATOM     56  O   UNL A   1      41.076  20.288  26.001  1.00  0.00    -0.237 OA
ATOM     57  O   UNL A   1      40.791  21.415  28.172  1.00  0.00    -0.237 OA
ATOM     58  O   UNL A   1      39.303  21.960  26.271  1.00  0.00    -0.744 OA
ENDBRANCH  52  55
ENDBRANCH  24  48
BRANCH  36  59
ATOM     59  C   UNL A   1      46.265  29.485  29.006  1.00  0.00     0.023 A 
ATOM     60  C   UNL A   1      47.572  29.438  28.476  1.00  0.00     0.012 A 
ATOM     61  C   UNL A   1      45.324  30.341  28.409  1.00  0.00     0.148 A 
ATOM     62  C   UNL A   1      47.940  30.244  27.396  1.00  0.00     0.002 A 
ATOM     63  C   UNL A   1      45.680  31.105  27.303  1.00  0.00     0.091 A 
ATOM     64  F   UNL A   1      44.082  30.371  28.915  1.00  0.00    -0.205 F 
ATOM     65  C   UNL A   1      46.990  31.067  26.800  1.00  0.00     0.022 A 
BRANCH  63  66
ATOM     66  S   UNL A   1      44.466  32.074  26.405  1.00  0.00     0.127 S 
ATOM     67  O   UNL A   1      45.242  32.562  25.269  1.00  0.00    -0.237 OA
ATOM     68  O   UNL A   1      43.450  31.074  26.069  1.00  0.00    -0.237 OA
ATOM     69  O   UNL A   1      44.002  33.095  27.338  1.00  0.00    -0.744 OA
ENDBRANCH  63  66
ENDBRANCH  36  59
ENDBRANCH  10  11
ENDBRANCH   3   5
ENDBRANCH   2   3
ENDBRANCH   1   2
BRANCH   1  70
ATOM     70  C   UNL A   1      33.128  33.749  28.071  1.00  0.00     0.275 C 
BRANCH  70  71
ATOM     71  O   UNL A   1      32.891  34.192  29.421  1.00  0.00    -0.458 OA
BRANCH  71  72
ATOM     72  C   UNL A   1      32.843  35.529  29.598  1.00  0.00     0.338 C 
ATOM     73  O   UNL A   1      32.348  36.370  28.844  1.00  0.00    -0.246 OA
BRANCH  72  74
ATOM     74  C   UNL A   1      33.523  35.888  30.845  1.00  0.00     0.065 A 
ATOM     75  C   UNL A   1      33.283  37.150  31.381  1.00  0.00     0.036 A 
ATOM     76  C   UNL A   1      34.278  34.940  31.543  1.00  0.00     0.065 A 
ATOM     77  C   UNL A   1      33.781  37.412  32.639  1.00  0.00     0.114 A 
ATOM     78  C   UNL A   1      34.727  35.300  32.808  1.00  0.00     0.157 A 
ATOM     79  N   UNL A   1      34.463  36.508  33.369  1.00  0.00    -0.237 NA
BRANCH  78  80
ATOM     80  N   UNL A   1      35.418  34.352  33.592  1.00  0.00    -0.182 N 
ATOM     81  C   UNL A   1      36.037  33.202  33.196  1.00  0.00     0.254 A 
ATOM     82  N   UNL A   1      35.473  34.432  34.938  1.00  0.00    -0.039 NA
ATOM     83  N   UNL A   1      36.422  32.536  34.259  1.00  0.00    -0.117 NA
ATOM     84  N   UNL A   1      36.064  33.311  35.333  1.00  0.00    -0.024 NA
ENDBRANCH  78  80
ENDBRANCH  72  74
ENDBRANCH  71  72
ENDBRANCH  70  71
ENDBRANCH   1  70
TORSDOF 15
ENDMDL
MODEL 2
REMARK VINA RESULT:     -11.5      1.434      2.021
REMARK SMILES O=C(OCCOC(=O)c1ccnc(-n2cnnn2)c1)c1ccc(-c2c3nc(c(-c4cccc(S(=O)(=O)[O-])c4F)c4ccc([nH]4)c(-c4cccc(S(=O)(=O)[O-])c4F)c4nc(c(-c5cccc(S(=O)(=O)[O-])c5F)c5ccc2[nH]5)C=C4)C=C3)cc1
REMARK SMILES IDX 4 1 3 2 2 3 1 4 20 5 21 6 82 7 22 8 81 9 23 10 24 11 25 12
REMARK SMILES IDX 75 13 26 14 80 15 74 16 76 17 27 18 79 19 73 20 72 21 28 23
REMARK SMILES IDX 60 24 40 25 59 26 41 27 44 28 58 29 77 30 42 31 43 32 57 34
REMARK SMILES IDX 78 35 45 36 29 37 30 38 38 39 31 40 33 41 39 42 32 43 34 44
REMARK SMILES IDX 35 45 36 46 37 47 61 48 62 49 70 50 63 51 65 52 71 53 64 54
REMARK SMILES IDX 66 55 67 56 68 57 69 58 46 59 47 60 55 61 48 62 50 63 56 64
REMARK SMILES IDX 49 65 51 66 52 67 53 68 54 69 5 70 6 71 7 72 8 73 9 74 10 75
REMARK SMILES IDX 19 76 11 77 13 78 12 79 14 80 15 81 18 82 16 83 17 84
REMARK H PARENT 76 22 44 33
REMARK Flexibility Score: inf
ROOT
ATOM      1  C   UNL A   1      34.720  34.124  28.164  1.00  0.00     0.275 C 
ENDROOT
BRANCH   1   2
ATOM      2  O   UNL A   1      35.876  33.266  28.075  1.00  0.00    -0.458 OA
BRANCH   2   3
ATOM      3  C   UNL A   1      35.706  31.930  28.024  1.00  0.00     0.338 C 
ATOM      4  O   UNL A   1      34.725  31.385  27.534  1.00  0.00    -0.246 OA
BRANCH   3   5
ATOM      5  C   UNL A   1      36.920  31.175  28.404  1.00  0.00     0.060 A 
ATOM      6  C   UNL A   1      37.959  31.736  29.157  1.00  0.00     0.016 A 
ATOM      7  C   UNL A   1      36.990  29.835  28.008  1.00  0.00     0.016 A 
ATOM      8  C   UNL A   1      39.084  30.984  29.461  1.00  0.00     0.010 A 
ATOM      9  C   UNL A   1      38.110  29.081  28.323  1.00  0.00     0.010 A 
ATOM     10  C   UNL A   1      39.170  29.662  29.022  1.00  0.00    -0.014 A 
BRANCH  10  11
ATOM     11  C   UNL A   1      40.360  28.893  29.372  1.00  0.00     0.031 A 
ATOM     12  C   UNL A   1      40.599  28.671  30.830  1.00  0.00     0.074 A 
ATOM     13  C   UNL A   1      41.118  28.275  28.444  1.00  0.00     0.049 A 
ATOM     14  N   UNL A   1      41.610  29.045  31.547  1.00  0.00    -0.248 NA
ATOM     15  C   UNL A   1      39.532  28.021  31.603  1.00  0.00     0.031 C 
ATOM     16  C   UNL A   1      40.850  28.146  27.007  1.00  0.00     0.029 A 
ATOM     17  N   UNL A   1      42.217  27.490  28.623  1.00  0.00    -0.354 N 
ATOM     18  C   UNL A   1      41.410  28.482  32.810  1.00  0.00     0.074 A 
ATOM     19  C   UNL A   1      40.052  28.005  32.830  1.00  0.00     0.031 C 
ATOM     20  C   UNL A   1      41.586  27.130  26.510  1.00  0.00     0.029 A 
ATOM     21  C   UNL A   1      42.485  26.656  27.544  1.00  0.00     0.049 A 
ATOM     22  H   UNL A   1      42.768  27.511  29.439  1.00  0.00     0.167 HD
ATOM     23  C   UNL A   1      42.436  28.246  33.675  1.00  0.00     0.034 A 
ATOM     24  C   UNL A   1      43.340  25.607  27.523  1.00  0.00     0.034 A 
ATOM     25  C   UNL A   1      43.623  28.970  33.315  1.00  0.00     0.049 A 
ATOM     26  C   UNL A   1      44.293  25.787  28.640  1.00  0.00     0.074 A 
ATOM     27  C   UNL A   1      43.946  30.300  33.138  1.00  0.00     0.029 A 
ATOM     28  N   UNL A   1      44.642  28.257  32.734  1.00  0.00    -0.354 N 
ATOM     29  N   UNL A   1      45.173  26.747  28.690  1.00  0.00    -0.248 NA
ATOM     30  C   UNL A   1      44.013  25.127  29.903  1.00  0.00     0.031 C 
ATOM     31  C   UNL A   1      44.854  30.308  32.039  1.00  0.00     0.029 A 
ATOM     32  C   UNL A   1      45.067  28.983  31.655  1.00  0.00     0.049 A 
ATOM     33  H   UNL A   1      44.999  27.391  33.037  1.00  0.00     0.167 HD
ATOM     34  C   UNL A   1      45.216  27.108  30.028  1.00  0.00     0.074 A 
ATOM     35  C   UNL A   1      44.586  25.996  30.738  1.00  0.00     0.031 C 
ATOM     36  C   UNL A   1      45.491  28.392  30.404  1.00  0.00     0.034 A 
BRANCH  23  37
ATOM     37  C   UNL A   1      42.485  27.109  34.671  1.00  0.00     0.023 A 
ATOM     38  C   UNL A   1      41.908  27.320  35.945  1.00  0.00     0.012 A 
ATOM     39  C   UNL A   1      43.291  25.959  34.518  1.00  0.00     0.148 A 
ATOM     40  C   UNL A   1      42.150  26.453  37.016  1.00  0.00     0.002 A 
ATOM     41  C   UNL A   1      43.458  25.053  35.562  1.00  0.00     0.091 A 
ATOM     42  F   UNL A   1      44.018  25.798  33.407  1.00  0.00    -0.205 F 
ATOM     43  C   UNL A   1      42.916  25.310  36.821  1.00  0.00     0.022 A 
BRANCH  41  44
ATOM     44  S   UNL A   1      44.379  23.527  35.338  1.00  0.00     0.127 S 
ATOM     45  O   UNL A   1      43.404  22.699  34.637  1.00  0.00    -0.237 OA
ATOM     46  O   UNL A   1      45.510  23.977  34.525  1.00  0.00    -0.237 OA
ATOM     47  O   UNL A   1      44.743  23.106  36.684  1.00  0.00    -0.744 OA
ENDBRANCH  41  44
ENDBRANCH  23  37
BRANCH  24  48
ATOM     48  C   UNL A   1      43.266  24.352  26.746  1.00  0.00     0.023 A 
ATOM     49  C   UNL A   1      44.403  23.890  26.056  1.00  0.00     0.012 A 
ATOM     50  C   UNL A   1      42.168  23.475  26.893  1.00  0.00     0.148 A 
ATOM     51  C   UNL A   1      44.459  22.584  25.556  1.00  0.00     0.002 A 
ATOM     52  C   UNL A   1      42.226  22.180  26.387  1.00  0.00     0.091 A 
ATOM     53  F   UNL A   1      41.111  23.879  27.611  1.00  0.00    -0.205 F 
ATOM     54  C   UNL A   1      43.375  21.727  25.728  1.00  0.00     0.022 A 
BRANCH  52  55
ATOM     55  S   UNL A   1      40.871  21.016  26.582  1.00  0.00     0.127 S 
ATOM     56  O   UNL A   1      40.781  20.896  28.038  1.00  0.00    -0.237 OA
ATOM     57  O   UNL A   1      39.764  21.735  25.959  1.00  0.00    -0.237 OA
ATOM     58  O   UNL A   1      41.301  19.797  25.909  1.00  0.00    -0.744 OA
ENDBRANCH  52  55
ENDBRANCH  24  48
BRANCH  36  59
ATOM     59  C   UNL A   1      45.995  29.353  29.353  1.00  0.00     0.023 A 
ATOM     60  C   UNL A   1      47.337  29.351  28.919  1.00  0.00     0.012 A 
ATOM     61  C   UNL A   1      45.061  30.139  28.657  1.00  0.00     0.148 A 
ATOM     62  C   UNL A   1      47.745  30.134  27.837  1.00  0.00     0.002 A 
ATOM     63  C   UNL A   1      45.460  30.877  27.548  1.00  0.00     0.091 A 
ATOM     64  F   UNL A   1      43.785  30.127  29.072  1.00  0.00    -0.205 F 
ATOM     65  C   UNL A   1      46.803  30.886  27.141  1.00  0.00     0.022 A 
BRANCH  63  66
ATOM     66  S   UNL A   1      44.270  31.751  26.528  1.00  0.00     0.127 S 
ATOM     67  O   UNL A   1      45.102  32.228  25.426  1.00  0.00    -0.237 OA
ATOM     68  O   UNL A   1      43.325  30.692  26.168  1.00  0.00    -0.237 OA
ATOM     69  O   UNL A   1      43.699  32.787  27.381  1.00  0.00    -0.744 OA
ENDBRANCH  63  66
ENDBRANCH  36  59
ENDBRANCH  10  11
ENDBRANCH   3   5
ENDBRANCH   2   3
ENDBRANCH   1   2
BRANCH   1  70
ATOM     70  C   UNL A   1      34.045  34.257  29.530  1.00  0.00     0.275 C 
BRANCH  70  71
ATOM     71  O   UNL A   1      35.015  34.348  30.591  1.00  0.00    -0.458 OA
BRANCH  71  72
ATOM     72  C   UNL A   1      35.073  33.286  31.422  1.00  0.00     0.338 C 
ATOM     73  O   UNL A   1      34.204  32.432  31.612  1.00  0.00    -0.246 OA
BRANCH  72  74
ATOM     74  C   UNL A   1      36.349  33.292  32.143  1.00  0.00     0.065 A 
ATOM     75  C   UNL A   1      37.284  34.266  31.806  1.00  0.00     0.036 A 
ATOM     76  C   UNL A   1      36.560  32.434  33.226  1.00  0.00     0.065 A 
ATOM     77  C   UNL A   1      38.401  34.379  32.606  1.00  0.00     0.114 A 
ATOM     78  C   UNL A   1      37.713  32.636  33.975  1.00  0.00     0.157 A 
ATOM     79  N   UNL A   1      38.615  33.612  33.693  1.00  0.00    -0.237 NA
BRANCH  78  80
ATOM     80  N   UNL A   1      37.933  31.858  35.131  1.00  0.00    -0.182 N 
ATOM     81  C   UNL A   1      38.631  30.691  35.256  1.00  0.00     0.254 A 
ATOM     82  N   UNL A   1      37.361  32.150  36.317  1.00  0.00    -0.039 NA
ATOM     83  N   UNL A   1      38.459  30.219  36.469  1.00  0.00    -0.117 NA
ATOM     84  N   UNL A   1      37.668  31.134  37.115  1.00  0.00    -0.024 NA
ENDBRANCH  78  80
ENDBRANCH  72  74
ENDBRANCH  71  72
ENDBRANCH  70  71
ENDBRANCH   1  70
TORSDOF 15
ENDMDL
MODEL 3
REMARK VINA RESULT:     -11.5      3.238     11.934
REMARK SMILES O=C(OCCOC(=O)c1ccnc(-n2cnnn2)c1)c1ccc(-c2c3nc(c(-c4cccc(S(=O)(=O)[O-])c4F)c4ccc([nH]4)c(-c4cccc(S(=O)(=O)[O-])c4F)c4nc(c(-c5cccc(S(=O)(=O)[O-])c5F)c5ccc2[nH]5)C=C4)C=C3)cc1
REMARK SMILES IDX 4 1 3 2 2 3 1 4 20 5 21 6 82 7 22 8 81 9 23 10 24 11 25 12
REMARK SMILES IDX 75 13 26 14 80 15 74 16 76 17 27 18 79 19 73 20 72 21 28 23
REMARK SMILES IDX 60 24 40 25 59 26 41 27 44 28 58 29 77 30 42 31 43 32 57 34
REMARK SMILES IDX 78 35 45 36 29 37 30 38 38 39 31 40 33 41 39 42 32 43 34 44
REMARK SMILES IDX 35 45 36 46 37 47 61 48 62 49 70 50 63 51 65 52 71 53 64 54
REMARK SMILES IDX 66 55 67 56 68 57 69 58 46 59 47 60 55 61 48 62 50 63 56 64
REMARK SMILES IDX 49 65 51 66 52 67 53 68 54 69 5 70 6 71 7 72 8 73 9 74 10 75
REMARK SMILES IDX 19 76 11 77 13 78 12 79 14 80 15 81 18 82 16 83 17 84
REMARK H PARENT 76 22 44 33
REMARK Flexibility Score: inf
ROOT
ATOM      1  C   UNL A   1      41.106  20.624  27.650  1.00  0.00     0.275 C 
ENDROOT
BRANCH   1   2
ATOM      2  O   UNL A   1      41.385  22.017  27.400  1.00  0.00    -0.458 OA
BRANCH   2   3
ATOM      3  C   UNL A   1      40.367  22.857  27.123  1.00  0.00     0.338 C 
ATOM      4  O   UNL A   1      39.309  22.504  26.617  1.00  0.00    -0.246 OA
BRANCH   3   5
ATOM      5  C   UNL A   1      40.553  24.205  27.701  1.00  0.00     0.060 A 
ATOM      6  C   UNL A   1      41.765  24.632  28.259  1.00  0.00     0.016 A 
ATOM      7  C   UNL A   1      39.464  25.081  27.645  1.00  0.00     0.016 A 
ATOM      8  C   UNL A   1      41.869  25.901  28.808  1.00  0.00     0.010 A 
ATOM      9  C   UNL A   1      39.574  26.354  28.184  1.00  0.00     0.010 A 
ATOM     10  C   UNL A   1      40.765  26.754  28.792  1.00  0.00    -0.014 A 
BRANCH  10  11
ATOM     11  C   UNL A   1      40.913  28.089  29.365  1.00  0.00     0.031 A 
ATOM     12  C   UNL A   1      41.898  28.990  28.695  1.00  0.00     0.074 A 
ATOM     13  C   UNL A   1      40.101  28.551  30.336  1.00  0.00     0.049 A 
ATOM     14  N   UNL A   1      42.963  29.532  29.193  1.00  0.00    -0.248 NA
ATOM     15  C   UNL A   1      41.715  29.251  27.260  1.00  0.00     0.031 C 
ATOM     16  C   UNL A   1      38.904  27.906  30.888  1.00  0.00     0.029 A 
ATOM     17  N   UNL A   1      40.087  29.779  30.926  1.00  0.00    -0.354 N 
ATOM     18  C   UNL A   1      43.458  30.380  28.199  1.00  0.00     0.074 A 
ATOM     19  C   UNL A   1      42.751  30.047  26.991  1.00  0.00     0.031 C 
ATOM     20  C   UNL A   1      38.147  28.834  31.509  1.00  0.00     0.029 A 
ATOM     21  C   UNL A   1      38.879  30.087  31.540  1.00  0.00     0.049 A 
ATOM     22  H   UNL A   1      40.860  30.389  30.919  1.00  0.00     0.167 HD
ATOM     23  C   UNL A   1      44.256  31.448  28.482  1.00  0.00     0.034 A 
ATOM     24  C   UNL A   1      38.482  31.302  31.984  1.00  0.00     0.034 A 
ATOM     25  C   UNL A   1      44.820  31.368  29.800  1.00  0.00     0.049 A 
ATOM     26  C   UNL A   1      39.695  32.127  32.167  1.00  0.00     0.074 A 
ATOM     27  C   UNL A   1      45.619  30.467  30.473  1.00  0.00     0.029 A 
ATOM     28  N   UNL A   1      44.280  32.181  30.766  1.00  0.00    -0.354 N 
ATOM     29  N   UNL A   1      40.603  31.884  33.071  1.00  0.00    -0.248 NA
ATOM     30  C   UNL A   1      40.105  33.007  31.088  1.00  0.00     0.031 C 
ATOM     31  C   UNL A   1      45.119  30.466  31.808  1.00  0.00     0.029 A 
ATOM     32  C   UNL A   1      44.087  31.404  31.875  1.00  0.00     0.049 A 
ATOM     33  H   UNL A   1      44.072  33.139  30.676  1.00  0.00     0.167 HD
ATOM     34  C   UNL A   1      41.802  32.199  32.449  1.00  0.00     0.074 A 
ATOM     35  C   UNL A   1      41.424  33.004  31.289  1.00  0.00     0.031 C 
ATOM     36  C   UNL A   1      42.955  31.539  32.766  1.00  0.00     0.034 A 
BRANCH  23  37
ATOM     37  C   UNL A   1      44.282  32.742  27.698  1.00  0.00     0.023 A 
ATOM     38  C   UNL A   1      45.332  32.933  26.771  1.00  0.00     0.012 A 
ATOM     39  C   UNL A   1      43.496  33.872  28.014  1.00  0.00     0.148 A 
ATOM     40  C   UNL A   1      45.606  34.188  26.216  1.00  0.00     0.002 A 
ATOM     41  C   UNL A   1      43.717  35.099  27.394  1.00  0.00     0.091 A 
ATOM     42  F   UNL A   1      42.615  33.813  29.018  1.00  0.00    -0.205 F 
ATOM     43  C   UNL A   1      44.790  35.270  26.518  1.00  0.00     0.022 A 
BRANCH  41  44
ATOM     44  S   UNL A   1      42.645  36.508  27.697  1.00  0.00     0.127 S 
ATOM     45  O   UNL A   1      43.061  36.907  29.038  1.00  0.00    -0.237 OA
ATOM     46  O   UNL A   1      43.043  37.423  26.626  1.00  0.00    -0.237 OA
ATOM     47  O   UNL A   1      41.292  35.987  27.563  1.00  0.00    -0.744 OA
ENDBRANCH  41  44
ENDBRANCH  23  37
BRANCH  24  48
ATOM     48  C   UNL A   1      37.121  31.874  32.057  1.00  0.00     0.023 A 
ATOM     49  C   UNL A   1      36.577  32.225  33.308  1.00  0.00     0.012 A 
ATOM     50  C   UNL A   1      36.462  32.321  30.890  1.00  0.00     0.148 A 
ATOM     51  C   UNL A   1      35.431  33.023  33.394  1.00  0.00     0.002 A 
ATOM     52  C   UNL A   1      35.317  33.107  30.982  1.00  0.00     0.091 A 
ATOM     53  F   UNL A   1      37.011  32.055  29.697  1.00  0.00    -0.205 F 
ATOM     54  C   UNL A   1      34.806  33.471  32.233  1.00  0.00     0.022 A 
BRANCH  52  55
ATOM     55  S   UNL A   1      34.465  33.730  29.527  1.00  0.00     0.127 S 
ATOM     56  O   UNL A   1      33.344  34.459  30.121  1.00  0.00    -0.237 OA
ATOM     57  O   UNL A   1      35.489  34.574  28.917  1.00  0.00    -0.237 OA
ATOM     58  O   UNL A   1      34.074  32.550  28.767  1.00  0.00    -0.744 OA
ENDBRANCH  52  55
ENDBRANCH  24  48
BRANCH  36  59
ATOM     59  C   UNL A   1      42.955  30.638  33.979  1.00  0.00     0.023 A 
ATOM     60  C   UNL A   1      43.183  31.135  35.280  1.00  0.00     0.012 A 
ATOM     61  C   UNL A   1      42.529  29.308  33.829  1.00  0.00     0.148 A 
ATOM     62  C   UNL A   1      43.020  30.318  36.401  1.00  0.00     0.002 A 
ATOM     63  C   UNL A   1      42.318  28.513  34.951  1.00  0.00     0.091 A 
ATOM     64  F   UNL A   1      42.306  28.848  32.589  1.00  0.00    -0.205 F 
ATOM     65  C   UNL A   1      42.572  29.011  36.238  1.00  0.00     0.022 A 
BRANCH  63  66
ATOM     66  S   UNL A   1      41.608  26.871  34.813  1.00  0.00     0.127 S 
ATOM     67  O   UNL A   1      42.728  26.096  34.284  1.00  0.00    -0.237 OA
ATOM     68  O   UNL A   1      41.253  26.563  36.201  1.00  0.00    -0.237 OA
ATOM     69  O   UNL A   1      40.459  27.006  33.926  1.00  0.00    -0.744 OA
ENDBRANCH  63  66
ENDBRANCH  36  59
ENDBRANCH  10  11
ENDBRANCH   3   5
ENDBRANCH   2   3
ENDBRANCH   1   2
BRANCH   1  70
ATOM     70  C   UNL A   1      40.785  19.741  26.443  1.00  0.00     0.275 C 
BRANCH  70  71
ATOM     71  O   UNL A   1      41.813  19.829  25.438  1.00  0.00    -0.458 OA
BRANCH  71  72
ATOM     72  C   UNL A   1      42.823  18.940  25.554  1.00  0.00     0.338 C 
ATOM     73  O   UNL A   1      42.735  17.723  25.734  1.00  0.00    -0.246 OA
BRANCH  72  74
ATOM     74  C   UNL A   1      44.108  19.639  25.477  1.00  0.00     0.065 A 
ATOM     75  C   UNL A   1      45.236  18.897  25.136  1.00  0.00     0.036 A 
ATOM     76  C   UNL A   1      44.173  21.029  25.607  1.00  0.00     0.065 A 
ATOM     77  C   UNL A   1      46.402  19.589  24.890  1.00  0.00     0.114 A 
ATOM     78  C   UNL A   1      45.394  21.633  25.328  1.00  0.00     0.157 A 
ATOM     79  N   UNL A   1      46.493  20.932  24.946  1.00  0.00    -0.237 NA
BRANCH  78  80
ATOM     80  N   UNL A   1      45.493  23.039  25.357  1.00  0.00    -0.182 N 
ATOM     81  C   UNL A   1      45.135  23.902  26.353  1.00  0.00     0.254 A 
ATOM     82  N   UNL A   1      45.899  23.756  24.289  1.00  0.00    -0.039 NA
ATOM     83  N   UNL A   1      45.250  25.133  25.913  1.00  0.00    -0.117 NA
ATOM     84  N   UNL A   1      45.725  25.026  24.630  1.00  0.00    -0.024 NA
ENDBRANCH  78  80
ENDBRANCH  72  74
ENDBRANCH  71  72
ENDBRANCH  70  71
ENDBRANCH   1  70
TORSDOF 15
ENDMDL
