MODEL 1
REMARK VINA RESULT:     -11.3      0.000      0.000
REMARK SMILES O=C(CS(=O)(=O)NCc1ccc(N2CCOCC2)nc1)OCCOC(=O)c1ccc(-c2c3nc(c(-c4cccc(S(=O)(=O)[O-])c4F)c4ccc([nH]4)c(-c4cccc(S(=O)(=O)[O-])c4F)c4nc(c(-c5cccc(S(=O)(=O)[O-])c5F)c5ccc2[nH]5)C=C4)C=C3)cc1
REMARK SMILES IDX 22 1 21 2 2 3 1 4 3 5 4 6 5 7 6 8 7 9 8 11 9 12 10 13 20 14
REMARK SMILES IDX 11 15 19 16 12 17 13 18 14 19 18 20 15 21 17 22 16 23 23 24
REMARK SMILES IDX 24 25 25 26 26 27 27 28 28 29 89 30 29 31 88 32 30 33 31 34
REMARK SMILES IDX 32 35 82 36 33 37 87 38 81 39 83 40 34 41 86 42 80 43 79 44
REMARK SMILES IDX 35 46 67 47 47 48 66 49 48 50 51 51 65 52 84 53 49 54 50 55
REMARK SMILES IDX 64 57 85 58 52 59 36 60 37 61 45 62 38 63 40 64 46 65 39 66
REMARK SMILES IDX 41 67 42 68 43 69 44 70 68 71 69 72 77 73 70 74 72 75 78 76
REMARK SMILES IDX 71 77 73 78 74 79 75 80 76 81 53 82 54 83 62 84 55 85 57 86
REMARK SMILES IDX 63 87 56 88 58 89 59 90 60 91 61 92
REMARK H PARENT 7 10 83 45 51 56
REMARK Flexibility Score: inf
ROOT
ATOM      1  C   UNL A   1      31.604  29.101  23.942  1.00  0.00     0.274 C 
ENDROOT
BRANCH   1   2
ATOM      2  O   UNL A   1      31.285  27.693  23.988  1.00  0.00    -0.461 OA
BRANCH   2   3
ATOM      3  C   UNL A   1      32.172  26.680  24.085  1.00  0.00     0.322 C 
ATOM      4  O   UNL A   1      33.217  26.870  24.708  1.00  0.00    -0.251 OA
BRANCH   3   5
ATOM      5  C   UNL A   1      31.923  25.380  23.416  1.00  0.00     0.276 C 
BRANCH   5   6
ATOM      6  S   UNL A   1      33.388  24.660  22.764  1.00  0.00     0.222 S 
ATOM      7  O   UNL A   1      33.055  23.415  22.115  1.00  0.00    -0.212 OA
ATOM      8  O   UNL A   1      34.047  25.701  22.005  1.00  0.00    -0.212 OA
BRANCH   6   9
ATOM      9  N   UNL A   1      34.401  24.395  24.050  1.00  0.00    -0.210 NA
ATOM     10  H   UNL A   1      34.725  25.320  24.331  1.00  0.00     0.141 HD
BRANCH   9  11
ATOM     11  C   UNL A   1      34.047  23.717  25.298  1.00  0.00     0.135 C 
BRANCH  11  12
ATOM     12  C   UNL A   1      33.780  22.249  25.185  1.00  0.00    -0.015 A 
ATOM     13  C   UNL A   1      34.817  21.352  24.943  1.00  0.00     0.010 A 
ATOM     14  C   UNL A   1      32.491  21.730  25.228  1.00  0.00     0.118 A 
ATOM     15  C   UNL A   1      34.521  20.013  24.724  1.00  0.00     0.047 A 
ATOM     16  N   UNL A   1      32.184  20.431  25.002  1.00  0.00    -0.239 NA
ATOM     17  C   UNL A   1      33.198  19.583  24.752  1.00  0.00     0.128 A 
BRANCH  17  18
ATOM     18  N   UNL A   1      32.895  18.267  24.543  1.00  0.00    -0.352 N 
ATOM     19  C   UNL A   1      32.510  17.404  25.644  1.00  0.00     0.146 C 
ATOM     20  C   UNL A   1      33.114  17.649  23.245  1.00  0.00     0.146 C 
ATOM     21  C   UNL A   1      33.473  16.215  25.714  1.00  0.00     0.181 C 
ATOM     22  C   UNL A   1      34.032  16.423  23.423  1.00  0.00     0.181 C 
ATOM     23  O   UNL A   1      33.555  15.529  24.450  1.00  0.00    -0.378 OA
ENDBRANCH  17  18
ENDBRANCH  11  12
ENDBRANCH   9  11
ENDBRANCH   6   9
ENDBRANCH   5   6
ENDBRANCH   3   5
ENDBRANCH   2   3
ENDBRANCH   1   2
BRANCH   1  24
ATOM     24  C   UNL A   1      31.595  29.711  25.345  1.00  0.00     0.275 C 
BRANCH  24  25
ATOM     25  O   UNL A   1      32.939  30.010  25.764  1.00  0.00    -0.458 OA
BRANCH  25  26
ATOM     26  C   UNL A   1      33.075  31.029  26.656  1.00  0.00     0.338 C 
ATOM     27  O   UNL A   1      32.239  31.854  26.954  1.00  0.00    -0.246 OA
BRANCH  26  28
ATOM     28  C   UNL A   1      34.345  30.818  27.396  1.00  0.00     0.060 A 
ATOM     29  C   UNL A   1      35.179  31.922  27.621  1.00  0.00     0.016 A 
ATOM     30  C   UNL A   1      34.671  29.571  27.935  1.00  0.00     0.016 A 
ATOM     31  C   UNL A   1      36.335  31.783  28.397  1.00  0.00     0.010 A 
ATOM     32  C   UNL A   1      35.833  29.431  28.696  1.00  0.00     0.010 A 
ATOM     33  C   UNL A   1      36.676  30.532  28.927  1.00  0.00    -0.014 A 
BRANCH  33  34
ATOM     34  C   UNL A   1      37.967  30.316  29.628  1.00  0.00     0.031 A 
ATOM     35  C   UNL A   1      38.962  29.364  29.027  1.00  0.00     0.074 A 
ATOM     36  C   UNL A   1      38.214  30.881  30.825  1.00  0.00     0.049 A 
ATOM     37  N   UNL A   1      40.091  28.928  29.519  1.00  0.00    -0.248 NA
ATOM     38  C   UNL A   1      38.634  28.823  27.696  1.00  0.00     0.031 C 
ATOM     39  C   UNL A   1      37.326  31.809  31.523  1.00  0.00     0.029 A 
ATOM     40  N   UNL A   1      39.270  30.712  31.688  1.00  0.00    -0.354 N 
ATOM     41  C   UNL A   1      40.588  28.029  28.585  1.00  0.00     0.074 A 
ATOM     42  C   UNL A   1      39.645  27.990  27.489  1.00  0.00     0.031 C 
ATOM     43  C   UNL A   1      37.851  32.088  32.731  1.00  0.00     0.029 A 
ATOM     44  C   UNL A   1      39.092  31.335  32.903  1.00  0.00     0.049 A 
ATOM     45  H   UNL A   1      40.077  30.196  31.460  1.00  0.00     0.167 HD
ATOM     46  C   UNL A   1      41.727  27.300  28.635  1.00  0.00     0.034 A 
ATOM     47  C   UNL A   1      39.822  31.269  34.037  1.00  0.00     0.034 A 
ATOM     48  C   UNL A   1      42.674  27.348  29.715  1.00  0.00     0.049 A 
ATOM     49  C   UNL A   1      41.075  30.425  34.070  1.00  0.00     0.074 A 
ATOM     50  C   UNL A   1      43.900  26.712  29.804  1.00  0.00     0.029 A 
ATOM     51  N   UNL A   1      42.493  28.039  30.900  1.00  0.00    -0.354 N 
ATOM     52  N   UNL A   1      41.622  29.717  33.112  1.00  0.00    -0.248 NA
ATOM     53  C   UNL A   1      41.825  30.390  35.337  1.00  0.00     0.031 C 
ATOM     54  C   UNL A   1      44.437  26.976  31.066  1.00  0.00     0.029 A 
ATOM     55  C   UNL A   1      43.567  27.814  31.744  1.00  0.00     0.049 A 
ATOM     56  H   UNL A   1      41.717  28.605  31.112  1.00  0.00     0.167 HD
ATOM     57  C   UNL A   1      42.788  29.180  33.650  1.00  0.00     0.074 A 
ATOM     58  C   UNL A   1      42.887  29.666  35.009  1.00  0.00     0.031 C 
ATOM     59  C   UNL A   1      43.689  28.345  33.077  1.00  0.00     0.034 A 
BRANCH  46  60
ATOM     60  C   UNL A   1      42.027  26.377  27.488  1.00  0.00     0.023 A 
ATOM     61  C   UNL A   1      42.798  26.833  26.401  1.00  0.00     0.012 A 
ATOM     62  C   UNL A   1      41.630  25.027  27.542  1.00  0.00     0.148 A 
ATOM     63  C   UNL A   1      43.157  25.961  25.375  1.00  0.00     0.002 A 
ATOM     64  C   UNL A   1      42.029  24.154  26.538  1.00  0.00     0.091 A 
ATOM     65  F   UNL A   1      40.879  24.623  28.576  1.00  0.00    -0.205 F 
ATOM     66  C   UNL A   1      42.785  24.620  25.452  1.00  0.00     0.022 A 
BRANCH  64  67
ATOM     67  S   UNL A   1      41.672  22.395  26.586  1.00  0.00     0.127 S 
ATOM     68  O   UNL A   1      42.342  21.993  27.824  1.00  0.00    -0.237 OA
ATOM     69  O   UNL A   1      40.211  22.382  26.652  1.00  0.00    -0.237 OA
ATOM     70  O   UNL A   1      42.235  21.834  25.367  1.00  0.00    -0.744 OA
ENDBRANCH  64  67
ENDBRANCH  46  60
BRANCH  47  71
ATOM     71  C   UNL A   1      39.391  32.009  35.259  1.00  0.00     0.023 A 
ATOM     72  C   UNL A   1      38.490  31.406  36.159  1.00  0.00     0.012 A 
ATOM     73  C   UNL A   1      39.835  33.322  35.513  1.00  0.00     0.148 A 
ATOM     74  C   UNL A   1      38.004  32.112  37.262  1.00  0.00     0.002 A 
ATOM     75  C   UNL A   1      39.394  33.998  36.644  1.00  0.00     0.091 A 
ATOM     76  F   UNL A   1      40.674  33.889  34.635  1.00  0.00    -0.205 F 
ATOM     77  C   UNL A   1      38.461  33.403  37.508  1.00  0.00     0.022 A 
BRANCH  75  78
ATOM     78  S   UNL A   1      40.018  35.617  37.106  1.00  0.00     0.127 S 
ATOM     79  O   UNL A   1      39.624  36.429  35.958  1.00  0.00    -0.237 OA
ATOM     80  O   UNL A   1      39.272  35.886  38.337  1.00  0.00    -0.237 OA
ATOM     81  O   UNL A   1      41.452  35.444  37.298  1.00  0.00    -0.744 OA
ENDBRANCH  75  78
ENDBRANCH  47  71
BRANCH  59  82
ATOM     82  C   UNL A   1      44.886  27.916  33.889  1.00  0.00     0.023 A 
ATOM     83  C   UNL A   1      46.005  28.765  33.992  1.00  0.00     0.012 A 
ATOM     84  C   UNL A   1      44.856  26.718  34.632  1.00  0.00     0.148 A 
ATOM     85  C   UNL A   1      47.087  28.418  34.800  1.00  0.00     0.002 A 
ATOM     86  C   UNL A   1      45.916  26.403  35.475  1.00  0.00     0.091 A 
ATOM     87  F   UNL A   1      43.787  25.918  34.512  1.00  0.00    -0.205 F 
ATOM     88  C   UNL A   1      47.037  27.245  35.551  1.00  0.00     0.022 A 
BRANCH  86  89
ATOM     89  S   UNL A   1      45.901  24.967  36.555  1.00  0.00     0.127 S 
ATOM     90  O   UNL A   1      44.643  25.151  37.279  1.00  0.00    -0.237 OA
ATOM     91  O   UNL A   1      45.897  23.861  35.598  1.00  0.00    -0.237 OA
ATOM     92  O   UNL A   1      47.104  25.061  37.371  1.00  0.00    -0.744 OA
ENDBRANCH  86  89
ENDBRANCH  59  82
ENDBRANCH  33  34
ENDBRANCH  26  28
ENDBRANCH  25  26
ENDBRANCH  24  25
ENDBRANCH   1  24
TORSDOF 19
ENDMDL
MODEL 2
REMARK VINA RESULT:     -11.2      5.034     11.383
REMARK SMILES O=C(CS(=O)(=O)NCc1ccc(N2CCOCC2)nc1)OCCOC(=O)c1ccc(-c2c3nc(c(-c4cccc(S(=O)(=O)[O-])c4F)c4ccc([nH]4)c(-c4cccc(S(=O)(=O)[O-])c4F)c4nc(c(-c5cccc(S(=O)(=O)[O-])c5F)c5ccc2[nH]5)C=C4)C=C3)cc1
REMARK SMILES IDX 22 1 21 2 2 3 1 4 3 5 4 6 5 7 6 8 7 9 8 11 9 12 10 13 20 14
REMARK SMILES IDX 11 15 19 16 12 17 13 18 14 19 18 20 15 21 17 22 16 23 23 24
REMARK SMILES IDX 24 25 25 26 26 27 27 28 28 29 89 30 29 31 88 32 30 33 31 34
REMARK SMILES IDX 32 35 82 36 33 37 87 38 81 39 83 40 34 41 86 42 80 43 79 44
REMARK SMILES IDX 35 46 67 47 47 48 66 49 48 50 51 51 65 52 84 53 49 54 50 55
REMARK SMILES IDX 64 57 85 58 52 59 36 60 37 61 45 62 38 63 40 64 46 65 39 66
REMARK SMILES IDX 41 67 42 68 43 69 44 70 68 71 69 72 77 73 70 74 72 75 78 76
REMARK SMILES IDX 71 77 73 78 74 79 75 80 76 81 53 82 54 83 62 84 55 85 57 86
REMARK SMILES IDX 63 87 56 88 58 89 59 90 60 91 61 92
REMARK H PARENT 7 10 83 45 51 56
REMARK Flexibility Score: inf
ROOT
ATOM      1  C   UNL A   1      33.247  34.200  28.143  1.00  0.00     0.274 C 
ENDROOT
BRANCH   1   2
ATOM      2  O   UNL A   1      32.973  34.610  29.500  1.00  0.00    -0.461 OA
BRANCH   2   3
ATOM      3  C   UNL A   1      32.834  35.880  29.934  1.00  0.00     0.322 C 
ATOM      4  O   UNL A   1      32.916  36.796  29.114  1.00  0.00    -0.251 OA
BRANCH   3   5
ATOM      5  C   UNL A   1      32.636  36.179  31.373  1.00  0.00     0.276 C 
BRANCH   5   6
ATOM      6  S   UNL A   1      33.844  35.418  32.398  1.00  0.00     0.222 S 
ATOM      7  O   UNL A   1      34.308  36.375  33.374  1.00  0.00    -0.212 OA
ATOM      8  O   UNL A   1      33.264  34.171  32.848  1.00  0.00    -0.212 OA
BRANCH   6   9
ATOM      9  N   UNL A   1      35.086  34.950  31.403  1.00  0.00    -0.210 NA
ATOM     10  H   UNL A   1      35.747  35.726  31.417  1.00  0.00     0.141 HD
BRANCH   9  11
ATOM     11  C   UNL A   1      35.903  33.745  31.557  1.00  0.00     0.135 C 
BRANCH  11  12
ATOM     12  C   UNL A   1      37.318  33.856  31.084  1.00  0.00    -0.015 A 
ATOM     13  C   UNL A   1      38.306  34.381  31.913  1.00  0.00     0.010 A 
ATOM     14  C   UNL A   1      37.688  33.529  29.786  1.00  0.00     0.118 A 
ATOM     15  C   UNL A   1      39.584  34.582  31.405  1.00  0.00     0.047 A 
ATOM     16  N   UNL A   1      38.923  33.732  29.270  1.00  0.00    -0.239 NA
ATOM     17  C   UNL A   1      39.861  34.257  30.081  1.00  0.00     0.128 A 
BRANCH  17  18
ATOM     18  N   UNL A   1      41.114  34.446  29.571  1.00  0.00    -0.352 N 
ATOM     19  C   UNL A   1      42.284  33.916  30.247  1.00  0.00     0.146 C 
ATOM     20  C   UNL A   1      41.332  35.326  28.435  1.00  0.00     0.146 C 
ATOM     21  C   UNL A   1      43.246  35.064  30.569  1.00  0.00     0.181 C 
ATOM     22  C   UNL A   1      42.364  36.403  28.827  1.00  0.00     0.181 C 
ATOM     23  O   UNL A   1      43.562  35.830  29.391  1.00  0.00    -0.378 OA
ENDBRANCH  17  18
ENDBRANCH  11  12
ENDBRANCH   9  11
ENDBRANCH   6   9
ENDBRANCH   5   6
ENDBRANCH   3   5
ENDBRANCH   2   3
ENDBRANCH   1   2
BRANCH   1  24
ATOM     24  C   UNL A   1      34.469  33.282  28.083  1.00  0.00     0.275 C 
BRANCH  24  25
ATOM     25  O   UNL A   1      34.150  31.994  28.641  1.00  0.00    -0.458 OA
BRANCH  25  26
ATOM     26  C   UNL A   1      34.469  30.915  27.875  1.00  0.00     0.338 C 
ATOM     27  O   UNL A   1      33.941  30.576  26.837  1.00  0.00    -0.246 OA
BRANCH  26  28
ATOM     28  C   UNL A   1      35.741  30.351  28.391  1.00  0.00     0.060 A 
ATOM     29  C   UNL A   1      36.903  30.505  27.621  1.00  0.00     0.016 A 
ATOM     30  C   UNL A   1      35.810  29.756  29.653  1.00  0.00     0.016 A 
ATOM     31  C   UNL A   1      38.138  30.074  28.118  1.00  0.00     0.010 A 
ATOM     32  C   UNL A   1      37.041  29.313  30.141  1.00  0.00     0.010 A 
ATOM     33  C   UNL A   1      38.211  29.462  29.376  1.00  0.00    -0.014 A 
BRANCH  33  34
ATOM     34  C   UNL A   1      39.476  28.862  29.870  1.00  0.00     0.031 A 
ATOM     35  C   UNL A   1      40.224  29.564  30.968  1.00  0.00     0.074 A 
ATOM     36  C   UNL A   1      40.001  27.766  29.291  1.00  0.00     0.049 A 
ATOM     37  N   UNL A   1      41.401  29.296  31.469  1.00  0.00    -0.248 NA
ATOM     38  C   UNL A   1      39.560  30.730  31.576  1.00  0.00     0.031 C 
ATOM     39  C   UNL A   1      39.385  27.001  28.208  1.00  0.00     0.029 A 
ATOM     40  N   UNL A   1      41.205  27.136  29.505  1.00  0.00    -0.354 N 
ATOM     41  C   UNL A   1      41.641  30.283  32.417  1.00  0.00     0.074 A 
ATOM     42  C   UNL A   1      40.482  31.149  32.432  1.00  0.00     0.031 C 
ATOM     43  C   UNL A   1      40.238  26.036  27.818  1.00  0.00     0.029 A 
ATOM     44  C   UNL A   1      41.469  26.134  28.599  1.00  0.00     0.049 A 
ATOM     45  H   UNL A   1      41.818  27.378  30.237  1.00  0.00     0.167 HD
ATOM     46  C   UNL A   1      42.728  30.453  33.203  1.00  0.00     0.034 A 
ATOM     47  C   UNL A   1      42.591  25.412  28.395  1.00  0.00     0.034 A 
ATOM     48  C   UNL A   1      43.874  29.585  33.203  1.00  0.00     0.049 A 
ATOM     49  C   UNL A   1      43.799  25.643  29.273  1.00  0.00     0.074 A 
ATOM     50  C   UNL A   1      44.980  29.632  34.034  1.00  0.00     0.029 A 
ATOM     51  N   UNL A   1      44.081  28.543  32.317  1.00  0.00    -0.354 N 
ATOM     52  N   UNL A   1      43.942  26.467  30.282  1.00  0.00    -0.248 NA
ATOM     53  C   UNL A   1      44.994  24.828  28.996  1.00  0.00     0.031 C 
ATOM     54  C   UNL A   1      45.881  28.649  33.615  1.00  0.00     0.029 A 
ATOM     55  C   UNL A   1      45.314  27.962  32.554  1.00  0.00     0.049 A 
ATOM     56  H   UNL A   1      43.445  28.257  31.622  1.00  0.00     0.167 HD
ATOM     57  C   UNL A   1      45.226  26.248  30.776  1.00  0.00     0.074 A 
ATOM     58  C   UNL A   1      45.810  25.194  29.976  1.00  0.00     0.031 C 
ATOM     59  C   UNL A   1      45.870  26.875  31.791  1.00  0.00     0.034 A 
BRANCH  46  60
ATOM     60  C   UNL A   1      42.745  31.626  34.143  1.00  0.00     0.023 A 
ATOM     61  C   UNL A   1      43.263  32.863  33.714  1.00  0.00     0.012 A 
ATOM     62  C   UNL A   1      42.150  31.523  35.415  1.00  0.00     0.148 A 
ATOM     63  C   UNL A   1      43.202  33.980  34.545  1.00  0.00     0.002 A 
ATOM     64  C   UNL A   1      42.054  32.651  36.220  1.00  0.00     0.091 A 
ATOM     65  F   UNL A   1      41.685  30.330  35.808  1.00  0.00    -0.205 F 
ATOM     66  C   UNL A   1      42.586  33.876  35.791  1.00  0.00     0.022 A 
BRANCH  64  67
ATOM     67  S   UNL A   1      41.207  32.641  37.804  1.00  0.00     0.127 S 
ATOM     68  O   UNL A   1      41.311  34.046  38.200  1.00  0.00    -0.237 OA
ATOM     69  O   UNL A   1      39.862  32.212  37.427  1.00  0.00    -0.237 OA
ATOM     70  O   UNL A   1      41.936  31.704  38.647  1.00  0.00    -0.744 OA
ENDBRANCH  64  67
ENDBRANCH  46  60
BRANCH  47  71
ATOM     71  C   UNL A   1      42.652  24.400  27.299  1.00  0.00     0.023 A 
ATOM     72  C   UNL A   1      43.253  24.736  26.070  1.00  0.00     0.012 A 
ATOM     73  C   UNL A   1      42.079  23.122  27.453  1.00  0.00     0.148 A 
ATOM     74  C   UNL A   1      43.242  23.838  25.001  1.00  0.00     0.002 A 
ATOM     75  C   UNL A   1      42.123  22.210  26.405  1.00  0.00     0.091 A 
ATOM     76  F   UNL A   1      41.490  22.826  28.620  1.00  0.00    -0.205 F 
ATOM     77  C   UNL A   1      42.685  22.574  25.171  1.00  0.00     0.022 A 
BRANCH  75  78
ATOM     78  S   UNL A   1      41.538  20.520  26.569  1.00  0.00     0.127 S 
ATOM     79  O   UNL A   1      40.090  20.697  26.498  1.00  0.00    -0.237 OA
ATOM     80  O   UNL A   1      42.140  19.879  25.399  1.00  0.00    -0.237 OA
ATOM     81  O   UNL A   1      42.057  20.049  27.846  1.00  0.00    -0.744 OA
ENDBRANCH  75  78
ENDBRANCH  47  71
BRANCH  59  82
ATOM     82  C   UNL A   1      47.271  26.431  32.132  1.00  0.00     0.023 A 
ATOM     83  C   UNL A   1      47.481  25.509  33.175  1.00  0.00     0.012 A 
ATOM     84  C   UNL A   1      48.367  26.850  31.349  1.00  0.00     0.148 A 
ATOM     85  C   UNL A   1      48.761  25.030  33.452  1.00  0.00     0.002 A 
ATOM     86  C   UNL A   1      49.631  26.331  31.599  1.00  0.00     0.091 A 
ATOM     87  F   UNL A   1      48.148  27.737  30.368  1.00  0.00    -0.205 F 
ATOM     88  C   UNL A   1      49.833  25.430  32.657  1.00  0.00     0.022 A 
BRANCH  86  89
ATOM     89  S   UNL A   1      51.055  26.709  30.568  1.00  0.00     0.127 S 
ATOM     90  O   UNL A   1      52.114  25.949  31.233  1.00  0.00    -0.237 OA
ATOM     91  O   UNL A   1      50.646  26.176  29.269  1.00  0.00    -0.237 OA
ATOM     92  O   UNL A   1      51.212  28.157  30.610  1.00  0.00    -0.744 OA
ENDBRANCH  86  89
ENDBRANCH  59  82
ENDBRANCH  33  34
ENDBRANCH  26  28
ENDBRANCH  25  26
ENDBRANCH  24  25
ENDBRANCH   1  24
TORSDOF 19
ENDMDL
MODEL 3
REMARK VINA RESULT:     -11.1      5.321     10.645
REMARK SMILES O=C(CS(=O)(=O)NCc1ccc(N2CCOCC2)nc1)OCCOC(=O)c1ccc(-c2c3nc(c(-c4cccc(S(=O)(=O)[O-])c4F)c4ccc([nH]4)c(-c4cccc(S(=O)(=O)[O-])c4F)c4nc(c(-c5cccc(S(=O)(=O)[O-])c5F)c5ccc2[nH]5)C=C4)C=C3)cc1
REMARK SMILES IDX 22 1 21 2 2 3 1 4 3 5 4 6 5 7 6 8 7 9 8 11 9 12 10 13 20 14
REMARK SMILES IDX 11 15 19 16 12 17 13 18 14 19 18 20 15 21 17 22 16 23 23 24
REMARK SMILES IDX 24 25 25 26 26 27 27 28 28 29 89 30 29 31 88 32 30 33 31 34
REMARK SMILES IDX 32 35 82 36 33 37 87 38 81 39 83 40 34 41 86 42 80 43 79 44
REMARK SMILES IDX 35 46 67 47 47 48 66 49 48 50 51 51 65 52 84 53 49 54 50 55
REMARK SMILES IDX 64 57 85 58 52 59 36 60 37 61 45 62 38 63 40 64 46 65 39 66
REMARK SMILES IDX 41 67 42 68 43 69 44 70 68 71 69 72 77 73 70 74 72 75 78 76
REMARK SMILES IDX 71 77 73 78 74 79 75 80 76 81 53 82 54 83 62 84 55 85 57 86
REMARK SMILES IDX 63 87 56 88 58 89 59 90 60 91 61 92
REMARK H PARENT 7 10 83 45 51 56
REMARK Flexibility Score: inf
ROOT
ATOM      1  C   UNL A   1      35.078  21.035  24.654  1.00  0.00     0.274 C 
ENDROOT
BRANCH   1   2
ATOM      2  O   UNL A   1      35.333  22.360  24.139  1.00  0.00    -0.461 OA
BRANCH   2   3
ATOM      3  C   UNL A   1      34.871  23.517  24.657  1.00  0.00     0.322 C 
ATOM      4  O   UNL A   1      35.654  24.460  24.784  1.00  0.00    -0.251 OA
BRANCH   3   5
ATOM      5  C   UNL A   1      33.466  23.643  25.114  1.00  0.00     0.276 C 
BRANCH   5   6
ATOM      6  S   UNL A   1      32.312  23.583  23.789  1.00  0.00     0.222 S 
ATOM      7  O   UNL A   1      33.030  23.562  22.537  1.00  0.00    -0.212 OA
ATOM      8  O   UNL A   1      31.397  22.505  24.099  1.00  0.00    -0.212 OA
BRANCH   6   9
ATOM      9  N   UNL A   1      31.381  24.950  23.906  1.00  0.00    -0.210 NA
ATOM     10  H   UNL A   1      30.703  24.750  24.640  1.00  0.00     0.141 HD
BRANCH   9  11
ATOM     11  C   UNL A   1      31.869  26.300  24.191  1.00  0.00     0.135 C 
BRANCH  11  12
ATOM     12  C   UNL A   1      30.910  27.411  23.900  1.00  0.00    -0.015 A 
ATOM     13  C   UNL A   1      29.602  27.140  23.510  1.00  0.00     0.010 A 
ATOM     14  C   UNL A   1      31.301  28.745  23.921  1.00  0.00     0.118 A 
ATOM     15  C   UNL A   1      28.773  28.188  23.132  1.00  0.00     0.047 A 
ATOM     16  N   UNL A   1      30.512  29.777  23.542  1.00  0.00    -0.239 NA
ATOM     17  C   UNL A   1      29.256  29.493  23.151  1.00  0.00     0.128 A 
BRANCH  17  18
ATOM     18  N   UNL A   1      28.449  30.533  22.786  1.00  0.00    -0.352 N 
ATOM     19  C   UNL A   1      27.948  30.651  21.429  1.00  0.00     0.146 C 
ATOM     20  C   UNL A   1      28.206  31.643  23.694  1.00  0.00     0.146 C 
ATOM     21  C   UNL A   1      28.388  31.997  20.843  1.00  0.00     0.181 C 
ATOM     22  C   UNL A   1      28.609  32.958  22.996  1.00  0.00     0.181 C 
ATOM     23  O   UNL A   1      28.000  33.092  21.694  1.00  0.00    -0.378 OA
ENDBRANCH  17  18
ENDBRANCH  11  12
ENDBRANCH   9  11
ENDBRANCH   6   9
ENDBRANCH   5   6
ENDBRANCH   3   5
ENDBRANCH   2   3
ENDBRANCH   1   2
BRANCH   1  24
ATOM     24  C   UNL A   1      36.384  20.321  25.005  1.00  0.00     0.275 C 
BRANCH  24  25
ATOM     25  O   UNL A   1      37.213  21.175  25.814  1.00  0.00    -0.458 OA
BRANCH  25  26
ATOM     26  C   UNL A   1      38.532  20.840  25.881  1.00  0.00     0.338 C 
ATOM     27  O   UNL A   1      39.050  19.832  25.450  1.00  0.00    -0.246 OA
BRANCH  26  28
ATOM     28  C   UNL A   1      39.280  22.032  26.354  1.00  0.00     0.060 A 
ATOM     29  C   UNL A   1      38.793  23.303  26.017  1.00  0.00     0.016 A 
ATOM     30  C   UNL A   1      40.394  21.904  27.187  1.00  0.00     0.016 A 
ATOM     31  C   UNL A   1      39.415  24.449  26.525  1.00  0.00     0.010 A 
ATOM     32  C   UNL A   1      41.021  23.049  27.680  1.00  0.00     0.010 A 
ATOM     33  C   UNL A   1      40.542  24.329  27.348  1.00  0.00    -0.014 A 
BRANCH  33  34
ATOM     34  C   UNL A   1      41.312  25.521  27.783  1.00  0.00     0.031 A 
ATOM     35  C   UNL A   1      40.596  26.600  28.547  1.00  0.00     0.074 A 
ATOM     36  C   UNL A   1      42.599  25.690  27.426  1.00  0.00     0.049 A 
ATOM     37  N   UNL A   1      41.028  27.776  28.919  1.00  0.00    -0.248 NA
ATOM     38  C   UNL A   1      39.203  26.318  28.935  1.00  0.00     0.031 C 
ATOM     39  C   UNL A   1      43.402  24.729  26.672  1.00  0.00     0.029 A 
ATOM     40  N   UNL A   1      43.441  26.761  27.609  1.00  0.00    -0.354 N 
ATOM     41  C   UNL A   1      39.952  28.394  29.542  1.00  0.00     0.074 A 
ATOM     42  C   UNL A   1      38.849  27.458  29.512  1.00  0.00     0.031 C 
ATOM     43  C   UNL A   1      44.605  25.275  26.413  1.00  0.00     0.029 A 
ATOM     44  C   UNL A   1      44.644  26.633  26.954  1.00  0.00     0.049 A 
ATOM     45  H   UNL A   1      43.206  27.545  28.158  1.00  0.00     0.167 HD
ATOM     46  C   UNL A   1      39.888  29.628  30.091  1.00  0.00     0.034 A 
ATOM     47  C   UNL A   1      45.642  27.524  26.772  1.00  0.00     0.034 A 
ATOM     48  C   UNL A   1      40.987  30.554  30.138  1.00  0.00     0.049 A 
ATOM     49  C   UNL A   1      45.530  28.904  27.375  1.00  0.00     0.074 A 
ATOM     50  C   UNL A   1      41.035  31.791  30.756  1.00  0.00     0.029 A 
ATOM     51  N   UNL A   1      42.210  30.366  29.520  1.00  0.00    -0.354 N 
ATOM     52  N   UNL A   1      44.571  29.409  28.113  1.00  0.00    -0.248 NA
ATOM     53  C   UNL A   1      46.648  29.832  27.137  1.00  0.00     0.031 C 
ATOM     54  C   UNL A   1      42.271  32.374  30.468  1.00  0.00     0.029 A 
ATOM     55  C   UNL A   1      43.009  31.480  29.709  1.00  0.00     0.049 A 
ATOM     56  H   UNL A   1      42.474  29.560  29.021  1.00  0.00     0.167 HD
ATOM     57  C   UNL A   1      44.985  30.696  28.450  1.00  0.00     0.074 A 
ATOM     58  C   UNL A   1      46.293  30.885  27.861  1.00  0.00     0.031 C 
ATOM     59  C   UNL A   1      44.333  31.643  29.168  1.00  0.00     0.034 A 
BRANCH  46  60
ATOM     60  C   UNL A   1      38.583  30.068  30.694  1.00  0.00     0.023 A 
ATOM     61  C   UNL A   1      38.320  29.822  32.055  1.00  0.00     0.012 A 
ATOM     62  C   UNL A   1      37.666  30.816  29.930  1.00  0.00     0.148 A 
ATOM     63  C   UNL A   1      37.152  30.303  32.646  1.00  0.00     0.002 A 
ATOM     64  C   UNL A   1      36.527  31.329  30.537  1.00  0.00     0.091 A 
ATOM     65  F   UNL A   1      37.930  31.016  28.632  1.00  0.00    -0.205 F 
ATOM     66  C   UNL A   1      36.265  31.067  31.890  1.00  0.00     0.022 A 
BRANCH  64  67
ATOM     67  S   UNL A   1      35.365  32.392  29.673  1.00  0.00     0.127 S 
ATOM     68  O   UNL A   1      34.879  31.500  28.620  1.00  0.00    -0.237 OA
ATOM     69  O   UNL A   1      34.389  32.689  30.719  1.00  0.00    -0.237 OA
ATOM     70  O   UNL A   1      36.134  33.538  29.208  1.00  0.00    -0.744 OA
ENDBRANCH  64  67
ENDBRANCH  46  60
BRANCH  47  71
ATOM     71  C   UNL A   1      46.846  27.159  25.968  1.00  0.00     0.023 A 
ATOM     72  C   UNL A   1      47.890  26.426  26.566  1.00  0.00     0.012 A 
ATOM     73  C   UNL A   1      46.980  27.571  24.627  1.00  0.00     0.148 A 
ATOM     74  C   UNL A   1      49.063  26.150  25.860  1.00  0.00     0.002 A 
ATOM     75  C   UNL A   1      48.125  27.242  23.911  1.00  0.00     0.091 A 
ATOM     76  F   UNL A   1      45.988  28.287  24.080  1.00  0.00    -0.205 F 
ATOM     77  C   UNL A   1      49.177  26.551  24.532  1.00  0.00     0.022 A 
BRANCH  75  78
ATOM     78  S   UNL A   1      48.310  27.612  22.163  1.00  0.00     0.127 S 
ATOM     79  O   UNL A   1      49.505  28.452  22.161  1.00  0.00    -0.237 OA
ATOM     80  O   UNL A   1      48.494  26.277  21.592  1.00  0.00    -0.237 OA
ATOM     81  O   UNL A   1      47.072  28.269  21.769  1.00  0.00    -0.744 OA
ENDBRANCH  75  78
ENDBRANCH  47  71
BRANCH  59  82
ATOM     82  C   UNL A   1      45.020  32.966  29.397  1.00  0.00     0.023 A 
ATOM     83  C   UNL A   1      45.968  33.096  30.431  1.00  0.00     0.012 A 
ATOM     84  C   UNL A   1      44.800  34.050  28.522  1.00  0.00     0.148 A 
ATOM     85  C   UNL A   1      46.667  34.289  30.607  1.00  0.00     0.002 A 
ATOM     86  C   UNL A   1      45.537  35.219  28.672  1.00  0.00     0.091 A 
ATOM     87  F   UNL A   1      43.885  33.911  27.551  1.00  0.00    -0.205 F 
ATOM     88  C   UNL A   1      46.462  35.345  29.721  1.00  0.00     0.022 A 
BRANCH  86  89
ATOM     89  S   UNL A   1      45.415  36.596  27.523  1.00  0.00     0.127 S 
ATOM     90  O   UNL A   1      46.493  37.468  27.988  1.00  0.00    -0.237 OA
ATOM     91  O   UNL A   1      45.666  35.947  26.237  1.00  0.00    -0.237 OA
ATOM     92  O   UNL A   1      44.070  37.136  27.680  1.00  0.00    -0.744 OA
ENDBRANCH  86  89
ENDBRANCH  59  82
ENDBRANCH  33  34
ENDBRANCH  26  28
ENDBRANCH  25  26
ENDBRANCH  24  25
ENDBRANCH   1  24
TORSDOF 19
ENDMDL
