MODEL 1
REMARK VINA RESULT:     -13.1      0.000      0.000
REMARK SMILES CCn1ccc2cc(S(=O)(=O)N3CCC[C@@H](C(=O)OCCOC(=O)c4ccc(-c5c6nc(c(-c7cccc(S(=O)(=O)[O-])c7F)c7ccc([nH]7)c(-c7cccc(S(=O)(=O)[O-])c7F)c7nc(c(-c8cccc(S(=O)(=O)[O-])c8F)c8ccc5[nH]8)C=C7)C=C6)cc4)C3)ccc21
REMARK SMILES IDX 20 1 19 2 17 3 18 4 16 5 12 6 13 7 88 8 14 9 15 10 9 11
REMARK SMILES IDX 10 12 11 13 8 14 3 15 4 16 91 17 5 18 6 19 90 20 7 21 89 22
REMARK SMILES IDX 2 23 1 24 21 25 22 26 23 27 24 28 25 29 26 30 87 31 27 32
REMARK SMILES IDX 86 33 28 34 29 35 30 36 80 37 31 38 85 39 79 40 81 41 32 42
REMARK SMILES IDX 84 43 78 44 77 45 33 47 65 48 45 49 64 50 46 51 49 52 63 53
REMARK SMILES IDX 82 54 47 55 48 56 62 58 83 59 50 60 34 61 35 62 43 63 36 64
REMARK SMILES IDX 38 65 44 66 37 67 39 68 40 69 41 70 42 71 66 72 67 73 75 74
REMARK SMILES IDX 68 75 70 76 76 77 69 78 71 79 72 80 73 81 74 82 51 83 52 84
REMARK SMILES IDX 60 85 53 86 55 87 61 88 54 89 56 90 57 91 58 92 59 93
REMARK H PARENT 81 46 49 57
REMARK Flexibility Score: inf
ROOT
ATOM      1  C   UNL A   1      34.038  20.828  26.048  1.00  0.00     0.274 C 
ENDROOT
BRANCH   1   2
ATOM      2  O   UNL A   1      33.089  21.799  25.550  1.00  0.00    -0.462 OA
BRANCH   2   3
ATOM      3  C   UNL A   1      32.317  21.407  24.501  1.00  0.00     0.310 C 
ATOM      4  O   UNL A   1      32.056  20.242  24.229  1.00  0.00    -0.252 OA
BRANCH   3   5
ATOM      5  C   UNL A   1      31.888  22.590  23.641  1.00  0.00     0.114 C 
ATOM      6  N   UNL A   1      32.186  25.063  24.240  1.00  0.00    -0.197 NA
ATOM      7  C   UNL A   1      33.294  25.174  23.278  1.00  0.00     0.102 C 
ATOM      8  C   UNL A   1      31.639  23.743  24.607  1.00  0.00     0.117 C 
ATOM      9  C   UNL A   1      33.044  24.269  22.087  1.00  0.00     0.018 C 
ATOM     10  C   UNL A   1      32.935  22.840  22.571  1.00  0.00     0.018 C 
BRANCH   6  11
ATOM     11  S   UNL A   1      32.066  26.274  25.435  1.00  0.00     0.243 S 
ATOM     12  O   UNL A   1      33.404  26.760  25.675  1.00  0.00    -0.207 OA
ATOM     13  O   UNL A   1      31.280  25.710  26.518  1.00  0.00    -0.207 OA
BRANCH  11  14
ATOM     14  C   UNL A   1      31.148  27.663  24.775  1.00  0.00     0.083 A 
ATOM     15  N   UNL A   1      28.812  30.488  22.838  1.00  0.00    -0.348 N 
ATOM     16  C   UNL A   1      27.754  29.728  22.399  1.00  0.00     0.087 A 
ATOM     17  C   UNL A   1      29.638  29.719  23.637  1.00  0.00     0.048 A 
ATOM     18  C   UNL A   1      27.992  28.424  22.764  1.00  0.00     0.028 A 
ATOM     19  C   UNL A   1      29.206  28.397  23.502  1.00  0.00     0.001 A 
ATOM     20  C   UNL A   1      30.766  30.047  24.403  1.00  0.00     0.028 A 
ATOM     21  C   UNL A   1      29.983  27.357  24.053  1.00  0.00     0.032 A 
ATOM     22  C   UNL A   1      31.509  28.997  24.973  1.00  0.00     0.024 A 
BRANCH  15  23
ATOM     23  C   UNL A   1      29.111  31.813  22.316  1.00  0.00     0.119 C 
ATOM     24  C   UNL A   1      28.127  32.294  21.267  1.00  0.00     0.027 C 
ENDBRANCH  15  23
ENDBRANCH  11  14
ENDBRANCH   6  11
ENDBRANCH   3   5
ENDBRANCH   2   3
ENDBRANCH   1   2
BRANCH   1  25
ATOM     25  C   UNL A   1      35.149  20.580  25.025  1.00  0.00     0.275 C 
BRANCH  25  26
ATOM     26  O   UNL A   1      36.298  21.354  25.393  1.00  0.00    -0.458 OA
BRANCH  26  27
ATOM     27  C   UNL A   1      37.498  20.734  25.295  1.00  0.00     0.338 C 
ATOM     28  O   UNL A   1      37.725  19.684  24.718  1.00  0.00    -0.246 OA
BRANCH  27  29
ATOM     29  C   UNL A   1      38.536  21.704  25.716  1.00  0.00     0.060 A 
ATOM     30  C   UNL A   1      39.803  21.296  26.153  1.00  0.00     0.016 A 
ATOM     31  C   UNL A   1      38.123  23.020  25.907  1.00  0.00     0.016 A 
ATOM     32  C   UNL A   1      40.564  22.143  26.959  1.00  0.00     0.010 A 
ATOM     33  C   UNL A   1      38.889  23.861  26.705  1.00  0.00     0.010 A 
ATOM     34  C   UNL A   1      40.060  23.395  27.321  1.00  0.00    -0.014 A 
BRANCH  34  35
ATOM     35  C   UNL A   1      40.891  24.350  28.065  1.00  0.00     0.031 A 
ATOM     36  C   UNL A   1      40.221  25.650  28.104  1.00  0.00     0.074 A 
ATOM     37  C   UNL A   1      42.073  24.208  28.708  1.00  0.00     0.049 A 
ATOM     38  N   UNL A   1      40.241  26.508  27.138  1.00  0.00    -0.248 NA
ATOM     39  C   UNL A   1      39.252  25.942  29.169  1.00  0.00     0.031 C 
ATOM     40  C   UNL A   1      42.756  22.961  29.003  1.00  0.00     0.029 A 
ATOM     41  N   UNL A   1      42.880  25.140  29.323  1.00  0.00    -0.354 N 
ATOM     42  C   UNL A   1      39.613  27.602  27.685  1.00  0.00     0.074 A 
ATOM     43  C   UNL A   1      38.756  27.104  28.736  1.00  0.00     0.031 C 
ATOM     44  C   UNL A   1      43.722  23.174  29.933  1.00  0.00     0.029 A 
ATOM     45  C   UNL A   1      43.886  24.597  30.130  1.00  0.00     0.049 A 
ATOM     46  H   UNL A   1      42.758  26.110  29.204  1.00  0.00     0.167 HD
ATOM     47  C   UNL A   1      40.213  28.817  27.595  1.00  0.00     0.034 A 
ATOM     48  C   UNL A   1      44.851  25.239  30.842  1.00  0.00     0.034 A 
ATOM     49  C   UNL A   1      41.356  28.807  26.720  1.00  0.00     0.049 A 
ATOM     50  C   UNL A   1      45.124  26.485  30.092  1.00  0.00     0.074 A 
ATOM     51  C   UNL A   1      41.593  28.641  25.373  1.00  0.00     0.029 A 
ATOM     52  N   UNL A   1      42.542  28.592  27.373  1.00  0.00    -0.354 N 
ATOM     53  N   UNL A   1      45.679  26.505  28.909  1.00  0.00    -0.248 NA
ATOM     54  C   UNL A   1      44.549  27.747  30.547  1.00  0.00     0.031 C 
ATOM     55  C   UNL A   1      42.955  28.246  25.243  1.00  0.00     0.029 A 
ATOM     56  C   UNL A   1      43.524  28.186  26.511  1.00  0.00     0.049 A 
ATOM     57  H   UNL A   1      42.671  28.716  28.340  1.00  0.00     0.167 HD
ATOM     58  C   UNL A   1      45.109  27.611  28.314  1.00  0.00     0.074 A 
ATOM     59  C   UNL A   1      44.594  28.430  29.401  1.00  0.00     0.031 C 
ATOM     60  C   UNL A   1      44.741  27.581  27.006  1.00  0.00     0.034 A 
BRANCH  47  61
ATOM     61  C   UNL A   1      40.096  29.854  28.668  1.00  0.00     0.023 A 
ATOM     62  C   UNL A   1      41.075  29.867  29.672  1.00  0.00     0.012 A 
ATOM     63  C   UNL A   1      38.948  30.654  28.855  1.00  0.00     0.148 A 
ATOM     64  C   UNL A   1      40.939  30.690  30.793  1.00  0.00     0.002 A 
ATOM     65  C   UNL A   1      38.872  31.550  29.906  1.00  0.00     0.091 A 
ATOM     66  F   UNL A   1      37.862  30.441  28.102  1.00  0.00    -0.205 F 
ATOM     67  C   UNL A   1      39.857  31.559  30.892  1.00  0.00     0.022 A 
BRANCH  65  68
ATOM     68  S   UNL A   1      37.532  32.738  30.010  1.00  0.00     0.127 S 
ATOM     69  O   UNL A   1      37.677  33.450  28.745  1.00  0.00    -0.237 OA
ATOM     70  O   UNL A   1      36.364  31.862  30.106  1.00  0.00    -0.237 OA
ATOM     71  O   UNL A   1      37.801  33.507  31.220  1.00  0.00    -0.744 OA
ENDBRANCH  65  68
ENDBRANCH  47  61
BRANCH  48  72
ATOM     72  C   UNL A   1      45.666  24.895  32.048  1.00  0.00     0.023 A 
ATOM     73  C   UNL A   1      46.972  25.433  32.179  1.00  0.00     0.012 A 
ATOM     74  C   UNL A   1      45.097  24.305  33.197  1.00  0.00     0.148 A 
ATOM     75  C   UNL A   1      47.650  25.451  33.405  1.00  0.00     0.002 A 
ATOM     76  C   UNL A   1      45.781  24.319  34.420  1.00  0.00     0.091 A 
ATOM     77  F   UNL A   1      43.852  23.814  33.120  1.00  0.00    -0.205 F 
ATOM     78  C   UNL A   1      47.048  24.906  34.530  1.00  0.00     0.022 A 
BRANCH  76  79
ATOM     79  S   UNL A   1      45.066  23.645  35.927  1.00  0.00     0.127 S 
ATOM     80  O   UNL A   1      44.298  22.499  35.431  1.00  0.00    -0.237 OA
ATOM     81  O   UNL A   1      46.254  23.288  36.697  1.00  0.00    -0.237 OA
ATOM     82  O   UNL A   1      44.248  24.720  36.470  1.00  0.00    -0.744 OA
ENDBRANCH  76  79
ENDBRANCH  48  72
BRANCH  60  83
ATOM     83  C   UNL A   1      45.514  26.720  26.061  1.00  0.00     0.023 A 
ATOM     84  C   UNL A   1      46.810  27.044  25.626  1.00  0.00     0.012 A 
ATOM     85  C   UNL A   1      44.983  25.449  25.782  1.00  0.00     0.148 A 
ATOM     86  C   UNL A   1      47.577  26.095  24.943  1.00  0.00     0.002 A 
ATOM     87  C   UNL A   1      45.761  24.499  25.140  1.00  0.00     0.091 A 
ATOM     88  F   UNL A   1      43.738  25.179  26.204  1.00  0.00    -0.205 F 
ATOM     89  C   UNL A   1      47.060  24.819  24.714  1.00  0.00     0.022 A 
BRANCH  87  90
ATOM     90  S   UNL A   1      45.213  22.801  24.950  1.00  0.00     0.127 S 
ATOM     91  O   UNL A   1      44.154  22.933  23.951  1.00  0.00    -0.237 OA
ATOM     92  O   UNL A   1      46.428  22.139  24.473  1.00  0.00    -0.237 OA
ATOM     93  O   UNL A   1      44.774  22.368  26.270  1.00  0.00    -0.744 OA
ENDBRANCH  87  90
ENDBRANCH  60  83
ENDBRANCH  34  35
ENDBRANCH  27  29
ENDBRANCH  26  27
ENDBRANCH  25  26
ENDBRANCH   1  25
TORSDOF 17
ENDMDL
MODEL 2
REMARK VINA RESULT:     -12.8      1.352      2.146
REMARK SMILES CCn1ccc2cc(S(=O)(=O)N3CCC[C@@H](C(=O)OCCOC(=O)c4ccc(-c5c6nc(c(-c7cccc(S(=O)(=O)[O-])c7F)c7ccc([nH]7)c(-c7cccc(S(=O)(=O)[O-])c7F)c7nc(c(-c8cccc(S(=O)(=O)[O-])c8F)c8ccc5[nH]8)C=C7)C=C6)cc4)C3)ccc21
REMARK SMILES IDX 20 1 19 2 17 3 18 4 16 5 12 6 13 7 88 8 14 9 15 10 9 11
REMARK SMILES IDX 10 12 11 13 8 14 3 15 4 16 91 17 5 18 6 19 90 20 7 21 89 22
REMARK SMILES IDX 2 23 1 24 21 25 22 26 23 27 24 28 25 29 26 30 87 31 27 32
REMARK SMILES IDX 86 33 28 34 29 35 30 36 80 37 31 38 85 39 79 40 81 41 32 42
REMARK SMILES IDX 84 43 78 44 77 45 33 47 65 48 45 49 64 50 46 51 49 52 63 53
REMARK SMILES IDX 82 54 47 55 48 56 62 58 83 59 50 60 34 61 35 62 43 63 36 64
REMARK SMILES IDX 38 65 44 66 37 67 39 68 40 69 41 70 42 71 66 72 67 73 75 74
REMARK SMILES IDX 68 75 70 76 76 77 69 78 71 79 72 80 73 81 74 82 51 83 52 84
REMARK SMILES IDX 60 85 53 86 55 87 61 88 54 89 56 90 57 91 58 92 59 93
REMARK H PARENT 81 46 49 57
REMARK Flexibility Score: inf
ROOT
ATOM      1  C   UNL A   1      33.886  21.422  25.738  1.00  0.00     0.274 C 
ENDROOT
BRANCH   1   2
ATOM      2  O   UNL A   1      33.469  22.600  25.010  1.00  0.00    -0.462 OA
BRANCH   2   3
ATOM      3  C   UNL A   1      32.140  22.703  24.735  1.00  0.00     0.310 C 
ATOM      4  O   UNL A   1      31.246  22.341  25.490  1.00  0.00    -0.252 OA
BRANCH   3   5
ATOM      5  C   UNL A   1      31.892  23.240  23.330  1.00  0.00     0.114 C 
ATOM      6  N   UNL A   1      31.268  25.653  22.737  1.00  0.00    -0.197 NA
ATOM      7  C   UNL A   1      32.633  25.897  22.246  1.00  0.00     0.102 C 
ATOM      8  C   UNL A   1      30.950  24.427  23.494  1.00  0.00     0.117 C 
ATOM      9  C   UNL A   1      33.197  24.636  21.622  1.00  0.00     0.018 C 
ATOM     10  C   UNL A   1      33.224  23.541  22.666  1.00  0.00     0.018 C 
BRANCH   6  11
ATOM     11  S   UNL A   1      30.313  27.018  23.102  1.00  0.00     0.243 S 
ATOM     12  O   UNL A   1      29.087  26.527  23.685  1.00  0.00    -0.207 OA
ATOM     13  O   UNL A   1      30.284  27.835  21.902  1.00  0.00    -0.207 OA
BRANCH  11  14
ATOM     14  C   UNL A   1      31.119  27.976  24.382  1.00  0.00     0.083 A 
ATOM     15  N   UNL A   1      32.860  30.675  27.004  1.00  0.00    -0.348 N 
ATOM     16  C   UNL A   1      32.082  31.793  26.820  1.00  0.00     0.087 A 
ATOM     17  C   UNL A   1      32.329  29.613  26.295  1.00  0.00     0.048 A 
ATOM     18  C   UNL A   1      31.153  31.502  25.849  1.00  0.00     0.028 A 
ATOM     19  C   UNL A   1      31.332  30.144  25.471  1.00  0.00     0.001 A 
ATOM     20  C   UNL A   1      32.678  28.256  26.242  1.00  0.00     0.028 A 
ATOM     21  C   UNL A   1      30.742  29.324  24.487  1.00  0.00     0.032 A 
ATOM     22  C   UNL A   1      32.053  27.447  25.275  1.00  0.00     0.024 A 
BRANCH  15  23
ATOM     23  C   UNL A   1      34.166  30.711  27.646  1.00  0.00     0.119 C 
ATOM     24  C   UNL A   1      34.402  31.955  28.482  1.00  0.00     0.027 C 
ENDBRANCH  15  23
ENDBRANCH  11  14
ENDBRANCH   6  11
ENDBRANCH   3   5
ENDBRANCH   2   3
ENDBRANCH   1   2
BRANCH   1  25
ATOM     25  C   UNL A   1      35.130  20.801  25.099  1.00  0.00     0.275 C 
BRANCH  25  26
ATOM     26  O   UNL A   1      36.281  21.559  25.497  1.00  0.00    -0.458 OA
BRANCH  26  27
ATOM     27  C   UNL A   1      37.482  20.951  25.349  1.00  0.00     0.338 C 
ATOM     28  O   UNL A   1      37.703  19.925  24.729  1.00  0.00    -0.246 OA
BRANCH  27  29
ATOM     29  C   UNL A   1      38.523  21.913  25.782  1.00  0.00     0.060 A 
ATOM     30  C   UNL A   1      39.805  21.499  26.167  1.00  0.00     0.016 A 
ATOM     31  C   UNL A   1      38.105  23.216  26.038  1.00  0.00     0.016 A 
ATOM     32  C   UNL A   1      40.581  22.319  26.987  1.00  0.00     0.010 A 
ATOM     33  C   UNL A   1      38.886  24.030  26.850  1.00  0.00     0.010 A 
ATOM     34  C   UNL A   1      40.077  23.550  27.414  1.00  0.00    -0.014 A 
BRANCH  34  35
ATOM     35  C   UNL A   1      40.920  24.480  28.175  1.00  0.00     0.031 A 
ATOM     36  C   UNL A   1      40.251  25.779  28.265  1.00  0.00     0.074 A 
ATOM     37  C   UNL A   1      42.111  24.318  28.794  1.00  0.00     0.049 A 
ATOM     38  N   UNL A   1      40.257  26.667  27.326  1.00  0.00    -0.248 NA
ATOM     39  C   UNL A   1      39.299  26.037  29.354  1.00  0.00     0.031 C 
ATOM     40  C   UNL A   1      42.799  23.063  29.039  1.00  0.00     0.029 A 
ATOM     41  N   UNL A   1      42.929  25.231  29.425  1.00  0.00    -0.354 N 
ATOM     42  C   UNL A   1      39.638  27.743  27.917  1.00  0.00     0.074 A 
ATOM     43  C   UNL A   1      38.798  27.213  28.965  1.00  0.00     0.031 C 
ATOM     44  C   UNL A   1      43.779  23.246  29.960  1.00  0.00     0.029 A 
ATOM     45  C   UNL A   1      43.947  24.662  30.199  1.00  0.00     0.049 A 
ATOM     46  H   UNL A   1      42.806  26.203  29.339  1.00  0.00     0.167 HD
ATOM     47  C   UNL A   1      40.238  28.960  27.856  1.00  0.00     0.034 A 
ATOM     48  C   UNL A   1      44.924  25.281  30.916  1.00  0.00     0.034 A 
ATOM     49  C   UNL A   1      41.366  28.977  26.963  1.00  0.00     0.049 A 
ATOM     50  C   UNL A   1      45.186  26.550  30.201  1.00  0.00     0.074 A 
ATOM     51  C   UNL A   1      41.583  28.854  25.608  1.00  0.00     0.029 A 
ATOM     52  N   UNL A   1      42.563  28.742  27.590  1.00  0.00    -0.354 N 
ATOM     53  N   UNL A   1      45.722  26.607  29.011  1.00  0.00    -0.248 NA
ATOM     54  C   UNL A   1      44.619  27.797  30.704  1.00  0.00     0.031 C 
ATOM     55  C   UNL A   1      42.942  28.463  25.444  1.00  0.00     0.029 A 
ATOM     56  C   UNL A   1      43.531  28.363  26.701  1.00  0.00     0.049 A 
ATOM     57  H   UNL A   1      42.707  28.836  28.559  1.00  0.00     0.167 HD
ATOM     58  C   UNL A   1      45.143  27.732  28.460  1.00  0.00     0.074 A 
ATOM     59  C   UNL A   1      44.646  28.516  29.580  1.00  0.00     0.031 C 
ATOM     60  C   UNL A   1      44.755  27.743  27.157  1.00  0.00     0.034 A 
BRANCH  47  61
ATOM     61  C   UNL A   1      40.138  29.963  28.963  1.00  0.00     0.023 A 
ATOM     62  C   UNL A   1      41.068  29.875  30.009  1.00  0.00     0.012 A 
ATOM     63  C   UNL A   1      39.037  30.830  29.130  1.00  0.00     0.148 A 
ATOM     64  C   UNL A   1      40.934  30.664  31.154  1.00  0.00     0.002 A 
ATOM     65  C   UNL A   1      38.970  31.691  30.211  1.00  0.00     0.091 A 
ATOM     66  F   UNL A   1      37.976  30.718  28.321  1.00  0.00    -0.205 F 
ATOM     67  C   UNL A   1      39.907  31.599  31.239  1.00  0.00     0.022 A 
BRANCH  65  68
ATOM     68  S   UNL A   1      37.707  32.961  30.302  1.00  0.00     0.127 S 
ATOM     69  O   UNL A   1      36.576  32.208  30.834  1.00  0.00    -0.237 OA
ATOM     70  O   UNL A   1      38.314  33.918  31.228  1.00  0.00    -0.237 OA
ATOM     71  O   UNL A   1      37.570  33.457  28.938  1.00  0.00    -0.744 OA
ENDBRANCH  65  68
ENDBRANCH  47  61
BRANCH  48  72
ATOM     72  C   UNL A   1      45.758  24.900  32.097  1.00  0.00     0.023 A 
ATOM     73  C   UNL A   1      47.057  25.450  32.235  1.00  0.00     0.012 A 
ATOM     74  C   UNL A   1      45.210  24.255  33.227  1.00  0.00     0.148 A 
ATOM     75  C   UNL A   1      47.749  25.427  33.453  1.00  0.00     0.002 A 
ATOM     76  C   UNL A   1      45.908  24.228  34.442  1.00  0.00     0.091 A 
ATOM     77  F   UNL A   1      43.970  23.750  33.144  1.00  0.00    -0.205 F 
ATOM     78  C   UNL A   1      47.168  24.828  34.562  1.00  0.00     0.022 A 
BRANCH  76  79
ATOM     79  S   UNL A   1      45.220  23.483  35.928  1.00  0.00     0.127 S 
ATOM     80  O   UNL A   1      44.713  22.199  35.435  1.00  0.00    -0.237 OA
ATOM     81  O   UNL A   1      46.393  23.379  36.790  1.00  0.00    -0.237 OA
ATOM     82  O   UNL A   1      44.181  24.405  36.365  1.00  0.00    -0.744 OA
ENDBRANCH  76  79
ENDBRANCH  48  72
BRANCH  60  83
ATOM     83  C   UNL A   1      45.512  26.911  26.173  1.00  0.00     0.023 A 
ATOM     84  C   UNL A   1      46.782  27.273  25.692  1.00  0.00     0.012 A 
ATOM     85  C   UNL A   1      45.004  25.630  25.901  1.00  0.00     0.148 A 
ATOM     86  C   UNL A   1      47.546  26.352  24.970  1.00  0.00     0.002 A 
ATOM     87  C   UNL A   1      45.781  24.707  25.219  1.00  0.00     0.091 A 
ATOM     88  F   UNL A   1      43.784  25.323  26.369  1.00  0.00    -0.205 F 
ATOM     89  C   UNL A   1      47.054  25.066  24.747  1.00  0.00     0.022 A 
BRANCH  87  90
ATOM     90  S   UNL A   1      45.269  22.997  25.033  1.00  0.00     0.127 S 
ATOM     91  O   UNL A   1      45.113  22.574  26.422  1.00  0.00    -0.237 OA
ATOM     92  O   UNL A   1      44.016  23.133  24.288  1.00  0.00    -0.237 OA
ATOM     93  O   UNL A   1      46.336  22.334  24.294  1.00  0.00    -0.744 OA
ENDBRANCH  87  90
ENDBRANCH  60  83
ENDBRANCH  34  35
ENDBRANCH  27  29
ENDBRANCH  26  27
ENDBRANCH  25  26
ENDBRANCH   1  25
TORSDOF 17
ENDMDL
MODEL 3
REMARK VINA RESULT:     -12.7      3.573      8.254
REMARK SMILES CCn1ccc2cc(S(=O)(=O)N3CCC[C@@H](C(=O)OCCOC(=O)c4ccc(-c5c6nc(c(-c7cccc(S(=O)(=O)[O-])c7F)c7ccc([nH]7)c(-c7cccc(S(=O)(=O)[O-])c7F)c7nc(c(-c8cccc(S(=O)(=O)[O-])c8F)c8ccc5[nH]8)C=C7)C=C6)cc4)C3)ccc21
REMARK SMILES IDX 20 1 19 2 17 3 18 4 16 5 12 6 13 7 88 8 14 9 15 10 9 11
REMARK SMILES IDX 10 12 11 13 8 14 3 15 4 16 91 17 5 18 6 19 90 20 7 21 89 22
REMARK SMILES IDX 2 23 1 24 21 25 22 26 23 27 24 28 25 29 26 30 87 31 27 32
REMARK SMILES IDX 86 33 28 34 29 35 30 36 80 37 31 38 85 39 79 40 81 41 32 42
REMARK SMILES IDX 84 43 78 44 77 45 33 47 65 48 45 49 64 50 46 51 49 52 63 53
REMARK SMILES IDX 82 54 47 55 48 56 62 58 83 59 50 60 34 61 35 62 43 63 36 64
REMARK SMILES IDX 38 65 44 66 37 67 39 68 40 69 41 70 42 71 66 72 67 73 75 74
REMARK SMILES IDX 68 75 70 76 76 77 69 78 71 79 72 80 73 81 74 82 51 83 52 84
REMARK SMILES IDX 60 85 53 86 55 87 61 88 54 89 56 90 57 91 58 92 59 93
REMARK H PARENT 81 46 49 57
REMARK Flexibility Score: inf
ROOT
ATOM      1  C   UNL A   1      32.910  31.132  27.126  1.00  0.00     0.274 C 
ENDROOT
BRANCH   1   2
ATOM      2  O   UNL A   1      33.080  30.113  26.113  1.00  0.00    -0.462 OA
BRANCH   2   3
ATOM      3  C   UNL A   1      32.944  28.823  26.525  1.00  0.00     0.310 C 
ATOM      4  O   UNL A   1      33.519  28.340  27.491  1.00  0.00    -0.252 OA
BRANCH   3   5
ATOM      5  C   UNL A   1      32.059  28.018  25.580  1.00  0.00     0.114 C 
ATOM      6  N   UNL A   1      32.675  25.780  24.495  1.00  0.00    -0.197 NA
ATOM      7  C   UNL A   1      31.781  25.072  25.424  1.00  0.00     0.102 C 
ATOM      8  C   UNL A   1      33.008  27.201  24.710  1.00  0.00     0.117 C 
ATOM      9  C   UNL A   1      30.577  25.934  25.751  1.00  0.00     0.018 C 
ATOM     10  C   UNL A   1      31.054  27.219  26.390  1.00  0.00     0.018 C 
BRANCH   6  11
ATOM     11  S   UNL A   1      33.860  24.854  23.692  1.00  0.00     0.243 S 
ATOM     12  O   UNL A   1      35.044  24.884  24.516  1.00  0.00    -0.207 OA
ATOM     13  O   UNL A   1      33.901  25.333  22.322  1.00  0.00    -0.207 OA
BRANCH  11  14
ATOM     14  C   UNL A   1      33.336  23.142  23.644  1.00  0.00     0.083 A 
ATOM     15  N   UNL A   1      32.564  19.078  23.932  1.00  0.00    -0.348 N 
ATOM     16  C   UNL A   1      32.912  18.815  25.236  1.00  0.00     0.087 A 
ATOM     17  C   UNL A   1      32.631  20.439  23.697  1.00  0.00     0.048 A 
ATOM     18  C   UNL A   1      33.377  19.984  25.790  1.00  0.00     0.028 A 
ATOM     19  C   UNL A   1      33.254  21.006  24.812  1.00  0.00     0.001 A 
ATOM     20  C   UNL A   1      32.274  21.214  22.583  1.00  0.00     0.028 A 
ATOM     21  C   UNL A   1      33.634  22.364  24.774  1.00  0.00     0.032 A 
ATOM     22  C   UNL A   1      32.633  22.574  22.579  1.00  0.00     0.024 A 
BRANCH  15  23
ATOM     23  C   UNL A   1      32.405  18.039  22.925  1.00  0.00     0.119 C 
ATOM     24  C   UNL A   1      33.519  17.009  22.929  1.00  0.00     0.027 C 
ENDBRANCH  15  23
ENDBRANCH  11  14
ENDBRANCH   6  11
ENDBRANCH   3   5
ENDBRANCH   2   3
ENDBRANCH   1   2
BRANCH   1  25
ATOM     25  C   UNL A   1      34.252  31.784  27.469  1.00  0.00     0.275 C 
BRANCH  25  26
ATOM     26  O   UNL A   1      34.417  31.779  28.894  1.00  0.00    -0.458 OA
BRANCH  26  27
ATOM     27  C   UNL A   1      35.361  32.612  29.393  1.00  0.00     0.338 C 
ATOM     28  O   UNL A   1      35.198  33.772  29.733  1.00  0.00    -0.246 OA
BRANCH  27  29
ATOM     29  C   UNL A   1      36.533  31.784  29.764  1.00  0.00     0.060 A 
ATOM     30  C   UNL A   1      37.832  32.307  29.803  1.00  0.00     0.016 A 
ATOM     31  C   UNL A   1      36.333  30.407  29.824  1.00  0.00     0.016 A 
ATOM     32  C   UNL A   1      38.928  31.450  29.691  1.00  0.00     0.010 A 
ATOM     33  C   UNL A   1      37.429  29.559  29.719  1.00  0.00     0.010 A 
ATOM     34  C   UNL A   1      38.722  30.075  29.546  1.00  0.00    -0.014 A 
BRANCH  34  35
ATOM     35  C   UNL A   1      39.857  29.145  29.549  1.00  0.00     0.031 A 
ATOM     36  C   UNL A   1      40.329  28.959  30.922  1.00  0.00     0.074 A 
ATOM     37  C   UNL A   1      40.460  28.454  28.555  1.00  0.00     0.049 A 
ATOM     38  N   UNL A   1      41.106  29.784  31.542  1.00  0.00    -0.248 NA
ATOM     39  C   UNL A   1      39.717  27.928  31.772  1.00  0.00     0.031 C 
ATOM     40  C   UNL A   1      39.985  28.302  27.191  1.00  0.00     0.029 A 
ATOM     41  N   UNL A   1      41.584  27.656  28.567  1.00  0.00    -0.354 N 
ATOM     42  C   UNL A   1      41.381  29.124  32.717  1.00  0.00     0.074 A 
ATOM     43  C   UNL A   1      40.282  28.217  32.948  1.00  0.00     0.031 C 
ATOM     44  C   UNL A   1      40.651  27.289  26.581  1.00  0.00     0.029 A 
ATOM     45  C   UNL A   1      41.755  26.874  27.419  1.00  0.00     0.049 A 
ATOM     46  H   UNL A   1      42.215  27.638  29.322  1.00  0.00     0.167 HD
ATOM     47  C   UNL A   1      42.674  28.993  33.109  1.00  0.00     0.034 A 
ATOM     48  C   UNL A   1      42.762  26.012  27.113  1.00  0.00     0.034 A 
ATOM     49  C   UNL A   1      43.577  29.784  32.314  1.00  0.00     0.049 A 
ATOM     50  C   UNL A   1      43.956  26.550  27.801  1.00  0.00     0.074 A 
ATOM     51  C   UNL A   1      43.826  31.121  32.100  1.00  0.00     0.029 A 
ATOM     52  N   UNL A   1      44.130  29.093  31.267  1.00  0.00    -0.354 N 
ATOM     53  N   UNL A   1      44.528  27.678  27.472  1.00  0.00    -0.248 NA
ATOM     54  C   UNL A   1      44.402  25.953  29.056  1.00  0.00     0.031 C 
ATOM     55  C   UNL A   1      44.487  31.218  30.842  1.00  0.00     0.029 A 
ATOM     56  C   UNL A   1      44.637  29.938  30.318  1.00  0.00     0.049 A 
ATOM     57  H   UNL A   1      44.158  28.111  31.205  1.00  0.00     0.167 HD
ATOM     58  C   UNL A   1      45.026  28.140  28.673  1.00  0.00     0.074 A 
ATOM     59  C   UNL A   1      45.097  26.980  29.548  1.00  0.00     0.031 C 
ATOM     60  C   UNL A   1      44.954  29.460  28.991  1.00  0.00     0.034 A 
BRANCH  47  61
ATOM     61  C   UNL A   1      43.176  27.789  33.844  1.00  0.00     0.023 A 
ATOM     62  C   UNL A   1      43.683  26.726  33.083  1.00  0.00     0.012 A 
ATOM     63  C   UNL A   1      42.953  27.569  35.220  1.00  0.00     0.148 A 
ATOM     64  C   UNL A   1      44.009  25.507  33.685  1.00  0.00     0.002 A 
ATOM     65  C   UNL A   1      43.383  26.405  35.831  1.00  0.00     0.091 A 
ATOM     66  F   UNL A   1      42.190  28.423  35.913  1.00  0.00    -0.205 F 
ATOM     67  C   UNL A   1      43.894  25.359  35.064  1.00  0.00     0.022 A 
BRANCH  65  68
ATOM     68  S   UNL A   1      43.326  26.222  37.614  1.00  0.00     0.127 S 
ATOM     69  O   UNL A   1      44.041  24.964  37.800  1.00  0.00    -0.237 OA
ATOM     70  O   UNL A   1      44.039  27.421  38.059  1.00  0.00    -0.237 OA
ATOM     71  O   UNL A   1      41.906  26.215  37.949  1.00  0.00    -0.744 OA
ENDBRANCH  65  68
ENDBRANCH  47  61
BRANCH  48  72
ATOM     72  C   UNL A   1      42.885  24.820  26.219  1.00  0.00     0.023 A 
ATOM     73  C   UNL A   1      43.895  24.800  25.224  1.00  0.00     0.012 A 
ATOM     74  C   UNL A   1      42.243  23.596  26.506  1.00  0.00     0.148 A 
ATOM     75  C   UNL A   1      44.298  23.614  24.597  1.00  0.00     0.002 A 
ATOM     76  C   UNL A   1      42.645  22.413  25.872  1.00  0.00     0.091 A 
ATOM     77  F   UNL A   1      41.305  23.569  27.464  1.00  0.00    -0.205 F 
ATOM     78  C   UNL A   1      43.683  22.416  24.932  1.00  0.00     0.022 A 
BRANCH  76  79
ATOM     79  S   UNL A   1      41.906  20.818  26.258  1.00  0.00     0.127 S 
ATOM     80  O   UNL A   1      42.240  20.647  27.675  1.00  0.00    -0.237 OA
ATOM     81  O   UNL A   1      40.491  21.065  25.997  1.00  0.00    -0.237 OA
ATOM     82  O   UNL A   1      42.568  19.872  25.372  1.00  0.00    -0.744 OA
ENDBRANCH  76  79
ENDBRANCH  48  72
BRANCH  60  83
ATOM     83  C   UNL A   1      45.006  30.468  27.890  1.00  0.00     0.023 A 
ATOM     84  C   UNL A   1      43.854  30.935  27.233  1.00  0.00     0.012 A 
ATOM     85  C   UNL A   1      46.239  31.106  27.671  1.00  0.00     0.148 A 
ATOM     86  C   UNL A   1      43.932  32.046  26.388  1.00  0.00     0.002 A 
ATOM     87  C   UNL A   1      46.303  32.230  26.864  1.00  0.00     0.091 A 
ATOM     88  F   UNL A   1      47.318  30.626  28.308  1.00  0.00    -0.205 F 
ATOM     89  C   UNL A   1      45.151  32.702  26.216  1.00  0.00     0.022 A 
BRANCH  87  90
ATOM     90  S   UNL A   1      47.803  33.205  26.721  1.00  0.00     0.127 S 
ATOM     91  O   UNL A   1      48.795  32.188  26.380  1.00  0.00    -0.237 OA
ATOM     92  O   UNL A   1      47.468  34.125  25.633  1.00  0.00    -0.237 OA
ATOM     93  O   UNL A   1      47.991  33.850  28.014  1.00  0.00    -0.744 OA
ENDBRANCH  87  90
ENDBRANCH  60  83
ENDBRANCH  34  35
ENDBRANCH  27  29
ENDBRANCH  26  27
ENDBRANCH  25  26
ENDBRANCH   1  25
TORSDOF 17
ENDMDL
