MODEL 1
REMARK VINA RESULT:     -11.3      0.000      0.000
REMARK SMILES O=C(OCCOC(=O)c1cccc2nc(Cl)c(Cl)nc12)c1ccc(-c2c3nc(c(-c4cccc(S(=O)(=O)[O-])c4F)c4ccc([nH]4)c(-c4cccc(S(=O)(=O)[O-])c4F)c4nc(c(-c5cccc(S(=O)(=O)[O-])c5F)c5ccc2[nH]5)C=C4)C=C3)cc1
REMARK SMILES IDX 3 1 2 2 1 3 21 4 22 5 83 6 23 7 82 8 24 9 25 10 26 11 76 12
REMARK SMILES IDX 27 13 81 14 75 15 77 16 28 17 80 18 74 19 73 20 29 22 61 23
REMARK SMILES IDX 41 24 60 25 42 26 45 27 59 28 78 29 43 30 44 31 58 33 79 34
REMARK SMILES IDX 46 35 30 36 31 37 39 38 32 39 34 40 40 41 33 42 35 43 36 44
REMARK SMILES IDX 37 45 38 46 62 47 63 48 71 49 64 50 66 51 72 52 65 53 67 54
REMARK SMILES IDX 68 55 69 56 70 57 47 58 48 59 56 60 49 61 51 62 57 63 50 64
REMARK SMILES IDX 52 65 53 66 54 67 55 68 4 69 5 70 6 71 7 72 8 73 9 74 10 75
REMARK SMILES IDX 20 76 11 77 13 78 19 79 12 80 14 81 17 82 15 83 18 84 16 85
REMARK H PARENT 77 21 45 32
REMARK Flexibility Score: inf
ROOT
ATOM      1  O   UNL A   1      34.335  31.954  27.919  1.00  0.00    -0.458 OA
ENDROOT
BRANCH   1   2
ATOM      2  C   UNL A   1      34.702  30.669  27.683  1.00  0.00     0.338 C 
ATOM      3  O   UNL A   1      33.888  29.880  27.210  1.00  0.00    -0.246 OA
BRANCH   2   4
ATOM      4  C   UNL A   1      35.999  30.129  28.189  1.00  0.00     0.060 A 
ATOM      5  C   UNL A   1      37.089  30.219  27.311  1.00  0.00     0.016 A 
ATOM      6  C   UNL A   1      36.219  29.581  29.455  1.00  0.00     0.016 A 
ATOM      7  C   UNL A   1      38.324  29.654  27.636  1.00  0.00     0.010 A 
ATOM      8  C   UNL A   1      37.460  29.034  29.797  1.00  0.00     0.010 A 
ATOM      9  C   UNL A   1      38.520  29.050  28.887  1.00  0.00    -0.014 A 
BRANCH   9  10
ATOM     10  C   UNL A   1      39.887  28.686  29.327  1.00  0.00     0.031 A 
ATOM     11  C   UNL A   1      40.665  29.478  30.336  1.00  0.00     0.074 A 
ATOM     12  C   UNL A   1      40.447  27.618  28.726  1.00  0.00     0.049 A 
ATOM     13  N   UNL A   1      41.780  29.154  30.939  1.00  0.00    -0.248 NA
ATOM     14  C   UNL A   1      40.131  30.786  30.743  1.00  0.00     0.031 C 
ATOM     15  C   UNL A   1      39.812  26.832  27.662  1.00  0.00     0.029 A 
ATOM     16  N   UNL A   1      41.668  27.028  28.894  1.00  0.00    -0.354 N 
ATOM     17  C   UNL A   1      42.048  30.181  31.835  1.00  0.00     0.074 A 
ATOM     18  C   UNL A   1      40.996  31.160  31.683  1.00  0.00     0.031 C 
ATOM     19  C   UNL A   1      40.649  25.865  27.271  1.00  0.00     0.029 A 
ATOM     20  C   UNL A   1      41.887  25.983  28.029  1.00  0.00     0.049 A 
ATOM     21  H   UNL A   1      42.324  27.321  29.566  1.00  0.00     0.167 HD
ATOM     22  C   UNL A   1      43.083  30.287  32.702  1.00  0.00     0.034 A 
ATOM     23  C   UNL A   1      42.974  25.214  27.845  1.00  0.00     0.034 A 
ATOM     24  C   UNL A   1      44.203  29.385  32.722  1.00  0.00     0.049 A 
ATOM     25  C   UNL A   1      44.163  25.432  28.725  1.00  0.00     0.074 A 
ATOM     26  C   UNL A   1      45.311  29.410  33.550  1.00  0.00     0.029 A 
ATOM     27  N   UNL A   1      44.397  28.348  31.823  1.00  0.00    -0.354 N 
ATOM     28  N   UNL A   1      44.302  26.282  29.713  1.00  0.00    -0.248 NA
ATOM     29  C   UNL A   1      45.333  24.579  28.487  1.00  0.00     0.031 C 
ATOM     30  C   UNL A   1      46.203  28.428  33.111  1.00  0.00     0.029 A 
ATOM     31  C   UNL A   1      45.631  27.763  32.037  1.00  0.00     0.049 A 
ATOM     32  H   UNL A   1      43.751  28.069  31.134  1.00  0.00     0.167 HD
ATOM     33  C   UNL A   1      45.567  26.058  30.231  1.00  0.00     0.074 A 
ATOM     34  C   UNL A   1      46.153  24.984  29.450  1.00  0.00     0.031 C 
ATOM     35  C   UNL A   1      46.187  26.687  31.258  1.00  0.00     0.034 A 
BRANCH  22  36
ATOM     36  C   UNL A   1      43.068  31.395  33.720  1.00  0.00     0.023 A 
ATOM     37  C   UNL A   1      43.593  32.652  33.356  1.00  0.00     0.012 A 
ATOM     38  C   UNL A   1      42.408  31.252  34.955  1.00  0.00     0.148 A 
ATOM     39  C   UNL A   1      43.455  33.752  34.203  1.00  0.00     0.002 A 
ATOM     40  C   UNL A   1      42.262  32.356  35.787  1.00  0.00     0.091 A 
ATOM     41  F   UNL A   1      41.920  30.046  35.278  1.00  0.00    -0.205 F 
ATOM     42  C   UNL A   1      42.782  33.607  35.412  1.00  0.00     0.022 A 
BRANCH  40  43
ATOM     43  S   UNL A   1      41.390  32.288  37.357  1.00  0.00     0.127 S 
ATOM     44  O   UNL A   1      40.080  31.787  36.941  1.00  0.00    -0.237 OA
ATOM     45  O   UNL A   1      42.196  31.333  38.115  1.00  0.00    -0.237 OA
ATOM     46  O   UNL A   1      41.388  33.648  37.876  1.00  0.00    -0.744 OA
ENDBRANCH  40  43
ENDBRANCH  22  36
BRANCH  23  47
ATOM     47  C   UNL A   1      42.926  24.161  26.801  1.00  0.00     0.023 A 
ATOM     48  C   UNL A   1      43.683  24.315  25.627  1.00  0.00     0.012 A 
ATOM     49  C   UNL A   1      42.259  22.943  27.044  1.00  0.00     0.148 A 
ATOM     50  C   UNL A   1      43.783  23.268  24.712  1.00  0.00     0.002 A 
ATOM     51  C   UNL A   1      42.398  21.891  26.150  1.00  0.00     0.091 A 
ATOM     52  F   UNL A   1      41.548  22.826  28.176  1.00  0.00    -0.205 F 
ATOM     53  C   UNL A   1      43.155  22.052  24.980  1.00  0.00     0.022 A 
BRANCH  51  54
ATOM     54  S   UNL A   1      41.733  20.254  26.478  1.00  0.00     0.127 S 
ATOM     55  O   UNL A   1      42.319  19.951  27.780  1.00  0.00    -0.237 OA
ATOM     56  O   UNL A   1      40.293  20.511  26.493  1.00  0.00    -0.237 OA
ATOM     57  O   UNL A   1      42.183  19.416  25.375  1.00  0.00    -0.744 OA
ENDBRANCH  51  54
ENDBRANCH  23  47
BRANCH  35  58
ATOM     58  C   UNL A   1      47.575  26.241  31.610  1.00  0.00     0.023 A 
ATOM     59  C   UNL A   1      48.673  26.766  30.902  1.00  0.00     0.012 A 
ATOM     60  C   UNL A   1      47.791  25.403  32.720  1.00  0.00     0.148 A 
ATOM     61  C   UNL A   1      49.974  26.456  31.295  1.00  0.00     0.002 A 
ATOM     62  C   UNL A   1      49.089  25.130  33.128  1.00  0.00     0.091 A 
ATOM     63  F   UNL A   1      46.723  24.913  33.365  1.00  0.00    -0.205 F 
ATOM     64  C   UNL A   1      50.182  25.651  32.413  1.00  0.00     0.022 A 
BRANCH  62  65
ATOM     65  S   UNL A   1      49.455  24.172  34.601  1.00  0.00     0.127 S 
ATOM     66  O   UNL A   1      48.883  22.871  34.258  1.00  0.00    -0.237 OA
ATOM     67  O   UNL A   1      50.917  24.207  34.634  1.00  0.00    -0.237 OA
ATOM     68  O   UNL A   1      48.802  24.861  35.706  1.00  0.00    -0.744 OA
ENDBRANCH  62  65
ENDBRANCH  35  58
ENDBRANCH   9  10
ENDBRANCH   2   4
ENDBRANCH   1   2
BRANCH   1  69
ATOM     69  C   UNL A   1      35.191  33.042  28.305  1.00  0.00     0.275 C 
BRANCH  69  70
ATOM     70  C   UNL A   1      34.785  34.402  27.735  1.00  0.00     0.275 C 
BRANCH  70  71
ATOM     71  O   UNL A   1      34.471  35.372  28.745  1.00  0.00    -0.458 OA
BRANCH  71  72
ATOM     72  C   UNL A   1      33.413  35.076  29.546  1.00  0.00     0.340 C 
ATOM     73  O   UNL A   1      32.438  34.405  29.251  1.00  0.00    -0.246 OA
BRANCH  72  74
ATOM     74  C   UNL A   1      33.614  35.730  30.852  1.00  0.00     0.088 A 
ATOM     75  C   UNL A   1      33.158  37.045  31.019  1.00  0.00     0.018 A 
ATOM     76  C   UNL A   1      34.277  35.038  31.875  1.00  0.00     0.105 A 
ATOM     77  C   UNL A   1      33.373  37.693  32.225  1.00  0.00     0.003 A 
ATOM     78  C   UNL A   1      34.521  35.738  33.088  1.00  0.00     0.091 A 
ATOM     79  N   UNL A   1      34.743  33.772  31.721  1.00  0.00    -0.230 NA
ATOM     80  C   UNL A   1      34.066  37.040  33.242  1.00  0.00     0.031 A 
ATOM     81  N   UNL A   1      35.223  35.196  34.100  1.00  0.00    -0.231 NA
ATOM     82  C   UNL A   1      35.454  33.242  32.743  1.00  0.00     0.167 A 
ATOM     83  C   UNL A   1      35.698  33.946  33.907  1.00  0.00     0.167 A 
ATOM     84  Cl  UNL A   1      36.037  31.657  32.438  1.00  0.00    -0.059 Cl
ATOM     85  Cl  UNL A   1      36.630  33.351  35.220  1.00  0.00    -0.059 Cl
ENDBRANCH  72  74
ENDBRANCH  71  72
ENDBRANCH  70  71
ENDBRANCH  69  70
ENDBRANCH   1  69
TORSDOF 14
ENDMDL
MODEL 2
REMARK VINA RESULT:     -11.2      0.308      7.763
REMARK SMILES O=C(OCCOC(=O)c1cccc2nc(Cl)c(Cl)nc12)c1ccc(-c2c3nc(c(-c4cccc(S(=O)(=O)[O-])c4F)c4ccc([nH]4)c(-c4cccc(S(=O)(=O)[O-])c4F)c4nc(c(-c5cccc(S(=O)(=O)[O-])c5F)c5ccc2[nH]5)C=C4)C=C3)cc1
REMARK SMILES IDX 3 1 2 2 1 3 21 4 22 5 83 6 23 7 82 8 24 9 25 10 26 11 76 12
REMARK SMILES IDX 27 13 81 14 75 15 77 16 28 17 80 18 74 19 73 20 29 22 61 23
REMARK SMILES IDX 41 24 60 25 42 26 45 27 59 28 78 29 43 30 44 31 58 33 79 34
REMARK SMILES IDX 46 35 30 36 31 37 39 38 32 39 34 40 40 41 33 42 35 43 36 44
REMARK SMILES IDX 37 45 38 46 62 47 63 48 71 49 64 50 66 51 72 52 65 53 67 54
REMARK SMILES IDX 68 55 69 56 70 57 47 58 48 59 56 60 49 61 51 62 57 63 50 64
REMARK SMILES IDX 52 65 53 66 54 67 55 68 4 69 5 70 6 71 7 72 8 73 9 74 10 75
REMARK SMILES IDX 20 76 11 77 13 78 19 79 12 80 14 81 17 82 15 83 18 84 16 85
REMARK H PARENT 77 21 45 32
REMARK Flexibility Score: inf
ROOT
ATOM      1  O   UNL A   1      34.353  32.027  27.905  1.00  0.00    -0.458 OA
ENDROOT
BRANCH   1   2
ATOM      2  C   UNL A   1      34.610  30.701  27.777  1.00  0.00     0.338 C 
ATOM      3  O   UNL A   1      33.704  29.932  27.464  1.00  0.00    -0.246 OA
BRANCH   2   4
ATOM      4  C   UNL A   1      35.910  30.118  28.224  1.00  0.00     0.060 A 
ATOM      5  C   UNL A   1      36.953  30.147  27.287  1.00  0.00     0.016 A 
ATOM      6  C   UNL A   1      36.176  29.584  29.488  1.00  0.00     0.016 A 
ATOM      7  C   UNL A   1      38.181  29.539  27.557  1.00  0.00     0.010 A 
ATOM      8  C   UNL A   1      37.412  28.993  29.774  1.00  0.00     0.010 A 
ATOM      9  C   UNL A   1      38.421  28.950  28.808  1.00  0.00    -0.014 A 
BRANCH   9  10
ATOM     10  C   UNL A   1      39.794  28.538  29.181  1.00  0.00     0.031 A 
ATOM     11  C   UNL A   1      40.467  27.319  28.623  1.00  0.00     0.074 A 
ATOM     12  C   UNL A   1      40.413  29.288  30.113  1.00  0.00     0.049 A 
ATOM     13  N   UNL A   1      41.723  26.967  28.724  1.00  0.00    -0.248 NA
ATOM     14  C   UNL A   1      39.651  26.381  27.838  1.00  0.00     0.031 C 
ATOM     15  C   UNL A   1      39.811  30.442  30.791  1.00  0.00     0.029 A 
ATOM     16  N   UNL A   1      41.656  29.184  30.672  1.00  0.00    -0.354 N 
ATOM     17  C   UNL A   1      41.862  25.807  27.971  1.00  0.00     0.074 A 
ATOM     18  C   UNL A   1      40.556  25.492  27.437  1.00  0.00     0.031 C 
ATOM     19  C   UNL A   1      40.685  30.937  31.674  1.00  0.00     0.029 A 
ATOM     20  C   UNL A   1      41.889  30.119  31.650  1.00  0.00     0.049 A 
ATOM     21  H   UNL A   1      42.318  28.508  30.401  1.00  0.00     0.167 HD
ATOM     22  C   UNL A   1      42.982  25.080  27.752  1.00  0.00     0.034 A 
ATOM     23  C   UNL A   1      42.948  30.291  32.461  1.00  0.00     0.034 A 
ATOM     24  C   UNL A   1      44.232  25.318  28.423  1.00  0.00     0.049 A 
ATOM     25  C   UNL A   1      44.130  29.391  32.297  1.00  0.00     0.074 A 
ATOM     26  C   UNL A   1      45.425  24.631  28.285  1.00  0.00     0.029 A 
ATOM     27  N   UNL A   1      44.426  26.265  29.417  1.00  0.00    -0.354 N 
ATOM     28  N   UNL A   1      44.309  28.432  31.421  1.00  0.00    -0.248 NA
ATOM     29  C   UNL A   1      45.261  29.604  33.206  1.00  0.00     0.031 C 
ATOM     30  C   UNL A   1      46.321  25.121  29.239  1.00  0.00     0.029 A 
ATOM     31  C   UNL A   1      45.699  26.142  29.942  1.00  0.00     0.049 A 
ATOM     32  H   UNL A   1      43.756  26.926  29.707  1.00  0.00     0.167 HD
ATOM     33  C   UNL A   1      45.581  27.935  31.659  1.00  0.00     0.074 A 
ATOM     34  C   UNL A   1      46.131  28.706  32.758  1.00  0.00     0.031 C 
ATOM     35  C   UNL A   1      46.230  26.930  31.025  1.00  0.00     0.034 A 
BRANCH  22  36
ATOM     36  C   UNL A   1      42.941  23.967  26.740  1.00  0.00     0.023 A 
ATOM     37  C   UNL A   1      43.648  24.130  25.531  1.00  0.00     0.012 A 
ATOM     38  C   UNL A   1      42.352  22.724  27.036  1.00  0.00     0.148 A 
ATOM     39  C   UNL A   1      43.776  23.068  24.634  1.00  0.00     0.002 A 
ATOM     40  C   UNL A   1      42.495  21.667  26.144  1.00  0.00     0.091 A 
ATOM     41  F   UNL A   1      41.684  22.597  28.191  1.00  0.00    -0.205 F 
ATOM     42  C   UNL A   1      43.209  21.836  24.945  1.00  0.00     0.022 A 
BRANCH  40  43
ATOM     43  S   UNL A   1      41.827  20.028  26.456  1.00  0.00     0.127 S 
ATOM     44  O   UNL A   1      42.354  19.277  25.316  1.00  0.00    -0.237 OA
ATOM     45  O   UNL A   1      42.433  19.690  27.742  1.00  0.00    -0.237 OA
ATOM     46  O   UNL A   1      40.379  20.180  26.472  1.00  0.00    -0.744 OA
ENDBRANCH  40  43
ENDBRANCH  22  36
BRANCH  23  47
ATOM     47  C   UNL A   1      42.904  31.391  33.456  1.00  0.00     0.023 A 
ATOM     48  C   UNL A   1      43.293  32.687  33.072  1.00  0.00     0.012 A 
ATOM     49  C   UNL A   1      42.331  31.184  34.727  1.00  0.00     0.148 A 
ATOM     50  C   UNL A   1      43.103  33.763  33.939  1.00  0.00     0.002 A 
ATOM     51  C   UNL A   1      42.105  32.266  35.566  1.00  0.00     0.091 A 
ATOM     52  F   UNL A   1      41.968  29.937  35.061  1.00  0.00    -0.205 F 
ATOM     53  C   UNL A   1      42.496  33.556  35.177  1.00  0.00     0.022 A 
BRANCH  51  54
ATOM     54  S   UNL A   1      41.215  32.112  37.119  1.00  0.00     0.127 S 
ATOM     55  O   UNL A   1      42.113  31.257  37.891  1.00  0.00    -0.237 OA
ATOM     56  O   UNL A   1      41.148  33.503  37.568  1.00  0.00    -0.237 OA
ATOM     57  O   UNL A   1      39.926  31.526  36.780  1.00  0.00    -0.744 OA
ENDBRANCH  51  54
ENDBRANCH  23  47
BRANCH  35  58
ATOM     58  C   UNL A   1      47.614  26.592  31.495  1.00  0.00     0.023 A 
ATOM     59  C   UNL A   1      48.717  27.285  30.960  1.00  0.00     0.012 A 
ATOM     60  C   UNL A   1      47.802  25.683  32.552  1.00  0.00     0.148 A 
ATOM     61  C   UNL A   1      49.995  27.070  31.471  1.00  0.00     0.002 A 
ATOM     62  C   UNL A   1      49.072  25.503  33.081  1.00  0.00     0.091 A 
ATOM     63  F   UNL A   1      46.732  25.033  33.032  1.00  0.00    -0.205 F 
ATOM     64  C   UNL A   1      50.171  26.192  32.538  1.00  0.00     0.022 A 
BRANCH  62  65
ATOM     65  S   UNL A   1      49.384  24.456  34.505  1.00  0.00     0.127 S 
ATOM     66  O   UNL A   1      50.749  24.840  34.862  1.00  0.00    -0.237 OA
ATOM     67  O   UNL A   1      48.357  24.904  35.446  1.00  0.00    -0.237 OA
ATOM     68  O   UNL A   1      49.230  23.084  34.042  1.00  0.00    -0.744 OA
ENDBRANCH  62  65
ENDBRANCH  35  58
ENDBRANCH   9  10
ENDBRANCH   2   4
ENDBRANCH   1   2
BRANCH   1  69
ATOM     69  C   UNL A   1      35.309  33.077  28.123  1.00  0.00     0.275 C 
BRANCH  69  70
ATOM     70  C   UNL A   1      34.824  34.471  27.721  1.00  0.00     0.275 C 
BRANCH  70  71
ATOM     71  O   UNL A   1      34.608  35.343  28.840  1.00  0.00    -0.458 OA
BRANCH  71  72
ATOM     72  C   UNL A   1      33.500  35.090  29.587  1.00  0.00     0.340 C 
ATOM     73  O   UNL A   1      32.508  34.472  29.237  1.00  0.00    -0.246 OA
BRANCH  72  74
ATOM     74  C   UNL A   1      33.671  35.717  30.910  1.00  0.00     0.088 A 
ATOM     75  C   UNL A   1      33.192  37.020  31.100  1.00  0.00     0.018 A 
ATOM     76  C   UNL A   1      34.330  35.012  31.927  1.00  0.00     0.105 A 
ATOM     77  C   UNL A   1      33.378  37.644  32.324  1.00  0.00     0.003 A 
ATOM     78  C   UNL A   1      34.544  35.688  33.160  1.00  0.00     0.091 A 
ATOM     79  N   UNL A   1      34.818  33.758  31.752  1.00  0.00    -0.230 NA
ATOM     80  C   UNL A   1      34.067  36.979  33.336  1.00  0.00     0.031 A 
ATOM     81  N   UNL A   1      35.240  35.133  34.169  1.00  0.00    -0.231 NA
ATOM     82  C   UNL A   1      35.523  33.215  32.773  1.00  0.00     0.167 A 
ATOM     83  C   UNL A   1      35.738  33.896  33.956  1.00  0.00     0.167 A 
ATOM     84  Cl  UNL A   1      36.135  31.647  32.440  1.00  0.00    -0.059 Cl
ATOM     85  Cl  UNL A   1      36.660  33.286  35.269  1.00  0.00    -0.059 Cl
ENDBRANCH  72  74
ENDBRANCH  71  72
ENDBRANCH  70  71
ENDBRANCH  69  70
ENDBRANCH   1  69
TORSDOF 14
ENDMDL
MODEL 3
REMARK VINA RESULT:     -11.1      4.242      9.910
REMARK SMILES O=C(OCCOC(=O)c1cccc2nc(Cl)c(Cl)nc12)c1ccc(-c2c3nc(c(-c4cccc(S(=O)(=O)[O-])c4F)c4ccc([nH]4)c(-c4cccc(S(=O)(=O)[O-])c4F)c4nc(c(-c5cccc(S(=O)(=O)[O-])c5F)c5ccc2[nH]5)C=C4)C=C3)cc1
REMARK SMILES IDX 3 1 2 2 1 3 21 4 22 5 83 6 23 7 82 8 24 9 25 10 26 11 76 12
REMARK SMILES IDX 27 13 81 14 75 15 77 16 28 17 80 18 74 19 73 20 29 22 61 23
REMARK SMILES IDX 41 24 60 25 42 26 45 27 59 28 78 29 43 30 44 31 58 33 79 34
REMARK SMILES IDX 46 35 30 36 31 37 39 38 32 39 34 40 40 41 33 42 35 43 36 44
REMARK SMILES IDX 37 45 38 46 62 47 63 48 71 49 64 50 66 51 72 52 65 53 67 54
REMARK SMILES IDX 68 55 69 56 70 57 47 58 48 59 56 60 49 61 51 62 57 63 50 64
REMARK SMILES IDX 52 65 53 66 54 67 55 68 4 69 5 70 6 71 7 72 8 73 9 74 10 75
REMARK SMILES IDX 20 76 11 77 13 78 19 79 12 80 14 81 17 82 15 83 18 84 16 85
REMARK H PARENT 77 21 45 32
REMARK Flexibility Score: inf
ROOT
ATOM      1  O   UNL A   1      32.553  33.181  26.961  1.00  0.00    -0.458 OA
ENDROOT
BRANCH   1   2
ATOM      2  C   UNL A   1      33.159  33.783  28.015  1.00  0.00     0.338 C 
ATOM      3  O   UNL A   1      32.788  34.897  28.377  1.00  0.00    -0.246 OA
BRANCH   2   4
ATOM      4  C   UNL A   1      34.412  33.229  28.608  1.00  0.00     0.060 A 
ATOM      5  C   UNL A   1      34.260  32.485  29.786  1.00  0.00     0.016 A 
ATOM      6  C   UNL A   1      35.698  33.360  28.075  1.00  0.00     0.016 A 
ATOM      7  C   UNL A   1      35.370  32.006  30.485  1.00  0.00     0.010 A 
ATOM      8  C   UNL A   1      36.814  32.863  28.758  1.00  0.00     0.010 A 
ATOM      9  C   UNL A   1      36.664  32.195  29.976  1.00  0.00    -0.014 A 
BRANCH   9  10
ATOM     10  C   UNL A   1      37.809  31.472  30.575  1.00  0.00     0.031 A 
ATOM     11  C   UNL A   1      38.512  30.335  29.894  1.00  0.00     0.074 A 
ATOM     12  C   UNL A   1      38.170  31.844  31.819  1.00  0.00     0.049 A 
ATOM     13  N   UNL A   1      39.637  29.757  30.229  1.00  0.00    -0.248 NA
ATOM     14  C   UNL A   1      37.902  29.780  28.677  1.00  0.00     0.031 C 
ATOM     15  C   UNL A   1      37.491  32.877  32.610  1.00  0.00     0.029 A 
ATOM     16  N   UNL A   1      39.162  31.391  32.642  1.00  0.00    -0.354 N 
ATOM     17  C   UNL A   1      39.901  28.819  29.239  1.00  0.00     0.074 A 
ATOM     18  C   UNL A   1      38.805  28.879  28.299  1.00  0.00     0.031 C 
ATOM     19  C   UNL A   1      38.085  32.976  33.804  1.00  0.00     0.029 A 
ATOM     20  C   UNL A   1      39.159  31.995  33.875  1.00  0.00     0.049 A 
ATOM     21  H   UNL A   1      39.812  30.700  32.379  1.00  0.00     0.167 HD
ATOM     22  C   UNL A   1      40.964  27.988  29.135  1.00  0.00     0.034 A 
ATOM     23  C   UNL A   1      39.922  31.772  34.960  1.00  0.00     0.034 A 
ATOM     24  C   UNL A   1      41.957  27.830  30.164  1.00  0.00     0.049 A 
ATOM     25  C   UNL A   1      41.011  30.753  34.872  1.00  0.00     0.074 A 
ATOM     26  C   UNL A   1      43.068  27.005  30.165  1.00  0.00     0.029 A 
ATOM     27  N   UNL A   1      41.914  28.448  31.404  1.00  0.00    -0.354 N 
ATOM     28  N   UNL A   1      41.369  30.028  33.840  1.00  0.00    -0.248 NA
ATOM     29  C   UNL A   1      41.816  30.531  36.079  1.00  0.00     0.031 C 
ATOM     30  C   UNL A   1      43.660  27.077  31.429  1.00  0.00     0.029 A 
ATOM     31  C   UNL A   1      42.943  27.980  32.199  1.00  0.00     0.049 A 
ATOM     32  H   UNL A   1      41.249  29.120  31.677  1.00  0.00     0.167 HD
ATOM     33  C   UNL A   1      42.454  29.276  34.262  1.00  0.00     0.074 A 
ATOM     34  C   UNL A   1      42.699  29.639  35.646  1.00  0.00     0.031 C 
ATOM     35  C   UNL A   1      43.177  28.366  33.567  1.00  0.00     0.034 A 
BRANCH  22  36
ATOM     36  C   UNL A   1      41.143  27.190  27.872  1.00  0.00     0.023 A 
ATOM     37  C   UNL A   1      41.673  27.836  26.736  1.00  0.00     0.012 A 
ATOM     38  C   UNL A   1      40.943  25.797  27.846  1.00  0.00     0.148 A 
ATOM     39  C   UNL A   1      42.010  27.106  25.596  1.00  0.00     0.002 A 
ATOM     40  C   UNL A   1      41.293  25.075  26.711  1.00  0.00     0.091 A 
ATOM     41  F   UNL A   1      40.434  25.208  28.937  1.00  0.00    -0.205 F 
ATOM     42  C   UNL A   1      41.829  25.726  25.587  1.00  0.00     0.022 A 
BRANCH  40  43
ATOM     43  S   UNL A   1      41.126  23.289  26.600  1.00  0.00     0.127 S 
ATOM     44  O   UNL A   1      41.674  22.864  27.888  1.00  0.00    -0.237 OA
ATOM     45  O   UNL A   1      39.680  23.123  26.467  1.00  0.00    -0.237 OA
ATOM     46  O   UNL A   1      41.906  22.883  25.439  1.00  0.00    -0.744 OA
ENDBRANCH  40  43
ENDBRANCH  22  36
BRANCH  23  47
ATOM     47  C   UNL A   1      39.668  32.577  36.180  1.00  0.00     0.023 A 
ATOM     48  C   UNL A   1      40.242  33.855  36.298  1.00  0.00     0.012 A 
ATOM     49  C   UNL A   1      38.735  32.141  37.143  1.00  0.00     0.148 A 
ATOM     50  C   UNL A   1      39.884  34.691  37.355  1.00  0.00     0.002 A 
ATOM     51  C   UNL A   1      38.351  32.996  38.167  1.00  0.00     0.091 A 
ATOM     52  F   UNL A   1      38.203  30.918  36.999  1.00  0.00    -0.205 F 
ATOM     53  C   UNL A   1      38.929  34.269  38.279  1.00  0.00     0.022 A 
BRANCH  51  54
ATOM     54  S   UNL A   1      37.038  32.586  39.322  1.00  0.00     0.127 S 
ATOM     55  O   UNL A   1      37.407  31.231  39.723  1.00  0.00    -0.237 OA
ATOM     56  O   UNL A   1      37.215  33.606  40.355  1.00  0.00    -0.237 OA
ATOM     57  O   UNL A   1      35.797  32.702  38.568  1.00  0.00    -0.744 OA
ENDBRANCH  51  54
ENDBRANCH  23  47
BRANCH  35  58
ATOM     58  C   UNL A   1      44.309  27.687  34.280  1.00  0.00     0.023 A 
ATOM     59  C   UNL A   1      45.572  28.308  34.325  1.00  0.00     0.012 A 
ATOM     60  C   UNL A   1      44.082  26.504  35.007  1.00  0.00     0.148 A 
ATOM     61  C   UNL A   1      46.600  27.752  35.084  1.00  0.00     0.002 A 
ATOM     62  C   UNL A   1      45.099  25.977  35.790  1.00  0.00     0.091 A 
ATOM     63  F   UNL A   1      42.870  25.934  34.934  1.00  0.00    -0.205 F 
ATOM     64  C   UNL A   1      46.360  26.597  35.826  1.00  0.00     0.022 A 
BRANCH  62  65
ATOM     65  S   UNL A   1      44.861  24.542  36.842  1.00  0.00     0.127 S 
ATOM     66  O   UNL A   1      44.547  23.505  35.861  1.00  0.00    -0.237 OA
ATOM     67  O   UNL A   1      46.172  24.407  37.477  1.00  0.00    -0.237 OA
ATOM     68  O   UNL A   1      43.774  24.880  37.751  1.00  0.00    -0.744 OA
ENDBRANCH  62  65
ENDBRANCH  35  58
ENDBRANCH   9  10
ENDBRANCH   2   4
ENDBRANCH   1   2
BRANCH   1  69
ATOM     69  C   UNL A   1      31.985  31.862  26.927  1.00  0.00     0.275 C 
BRANCH  69  70
ATOM     70  C   UNL A   1      33.012  30.729  26.891  1.00  0.00     0.275 C 
BRANCH  70  71
ATOM     71  O   UNL A   1      32.827  29.828  25.790  1.00  0.00    -0.458 OA
BRANCH  71  72
ATOM     72  C   UNL A   1      31.947  28.812  25.995  1.00  0.00     0.340 C 
ATOM     73  O   UNL A   1      31.529  28.411  27.068  1.00  0.00    -0.246 OA
BRANCH  72  74
ATOM     74  C   UNL A   1      31.585  28.234  24.688  1.00  0.00     0.088 A 
ATOM     75  C   UNL A   1      32.212  27.046  24.285  1.00  0.00     0.018 A 
ATOM     76  C   UNL A   1      30.653  28.895  23.875  1.00  0.00     0.105 A 
ATOM     77  C   UNL A   1      31.916  26.507  23.042  1.00  0.00     0.003 A 
ATOM     78  C   UNL A   1      30.397  28.343  22.590  1.00  0.00     0.091 A 
ATOM     79  N   UNL A   1      30.053  30.056  24.243  1.00  0.00    -0.230 NA
ATOM     80  C   UNL A   1      31.025  27.169  22.201  1.00  0.00     0.031 A 
ATOM     81  N   UNL A   1      29.587  28.946  21.700  1.00  0.00    -0.231 NA
ATOM     82  C   UNL A   1      29.247  30.655  23.336  1.00  0.00     0.167 A 
ATOM     83  C   UNL A   1      29.026  30.114  22.083  1.00  0.00     0.167 A 
ATOM     84  Cl  UNL A   1      28.570  32.136  23.876  1.00  0.00    -0.059 Cl
ATOM     85  Cl  UNL A   1      28.055  30.844  20.871  1.00  0.00    -0.059 Cl
ENDBRANCH  72  74
ENDBRANCH  71  72
ENDBRANCH  70  71
ENDBRANCH  69  70
ENDBRANCH   1  69
TORSDOF 14
ENDMDL
