MODEL 1
REMARK VINA RESULT:     -11.6      0.000      0.000
REMARK SMILES C[C@@H](Oc1ccc(-c2ccccc2)cc1)C(=O)N1CCC[C@H](C(=O)OCCOC(=O)c2ccc(-c3c4nc(c(-c5cccc(S(=O)(=O)[O-])c5F)c5ccc([nH]5)c(-c5cccc(S(=O)(=O)[O-])c5F)c5nc(c(-c6cccc(S(=O)(=O)[O-])c6F)c6ccc3[nH]6)C=C5)C=C4)cc2)C1
REMARK SMILES IDX 26 1 25 2 23 3 24 4 22 5 18 6 19 7 94 8 20 9 21 10 16 11
REMARK SMILES IDX 17 12 2 13 1 14 3 15 4 16 5 17 15 18 6 19 14 20 7 21 8 22
REMARK SMILES IDX 9 23 13 24 10 25 12 26 11 27 27 28 28 29 29 30 30 31 31 32
REMARK SMILES IDX 32 33 93 34 33 35 92 36 34 37 35 38 36 39 86 40 37 41 91 42
REMARK SMILES IDX 85 43 87 44 38 45 90 46 84 47 83 48 39 50 71 51 51 52 70 53
REMARK SMILES IDX 52 54 55 55 69 56 88 57 53 58 54 59 68 61 89 62 56 63 40 64
REMARK SMILES IDX 41 65 49 66 42 67 44 68 50 69 43 70 45 71 46 72 47 73 48 74
REMARK SMILES IDX 72 75 73 76 81 77 74 78 76 79 82 80 75 81 77 82 78 83 79 84
REMARK SMILES IDX 80 85 57 86 58 87 66 88 59 89 61 90 67 91 60 92 62 93 63 94
REMARK SMILES IDX 64 95 65 96
REMARK H PARENT 87 49 55 60
REMARK Flexibility Score: inf
ROOT
ATOM      1  C   UNL A   1      35.428  20.920  24.642  1.00  0.00     0.274 C 
ENDROOT
BRANCH   1   2
ATOM      2  O   UNL A   1      34.698  20.863  25.882  1.00  0.00    -0.462 OA
BRANCH   2   3
ATOM      3  C   UNL A   1      33.352  20.994  25.829  1.00  0.00     0.310 C 
ATOM      4  O   UNL A   1      32.617  20.357  25.080  1.00  0.00    -0.252 OA
BRANCH   3   5
ATOM      5  C   UNL A   1      32.814  22.058  26.776  1.00  0.00     0.119 C 
ATOM      6  N   UNL A   1      32.203  23.646  25.019  1.00  0.00    -0.339 N 
ATOM      7  C   UNL A   1      33.166  24.652  25.455  1.00  0.00     0.119 C 
ATOM      8  C   UNL A   1      31.675  22.792  26.080  1.00  0.00     0.134 C 
ATOM      9  C   UNL A   1      34.306  24.076  26.288  1.00  0.00     0.022 C 
ATOM     10  C   UNL A   1      33.834  23.059  27.328  1.00  0.00     0.019 C 
BRANCH   6  11
ATOM     11  C   UNL A   1      31.802  23.614  23.687  1.00  0.00     0.263 C 
ATOM     12  O   UNL A   1      30.777  23.015  23.341  1.00  0.00    -0.271 OA
BRANCH  11  13
ATOM     13  C   UNL A   1      32.695  24.268  22.611  1.00  0.00     0.259 C 
ATOM     14  C   UNL A   1      33.351  23.276  21.655  1.00  0.00     0.064 C 
BRANCH  13  15
ATOM     15  O   UNL A   1      31.858  25.204  21.917  1.00  0.00    -0.481 OA
BRANCH  15  16
ATOM     16  C   UNL A   1      31.769  26.416  22.531  1.00  0.00     0.120 A 
ATOM     17  C   UNL A   1      32.910  27.189  22.722  1.00  0.00     0.047 A 
ATOM     18  C   UNL A   1      30.563  26.770  23.116  1.00  0.00     0.047 A 
ATOM     19  C   UNL A   1      32.840  28.334  23.522  1.00  0.00     0.012 A 
ATOM     20  C   UNL A   1      30.495  27.914  23.906  1.00  0.00     0.012 A 
ATOM     21  C   UNL A   1      31.635  28.702  24.146  1.00  0.00    -0.018 A 
BRANCH  21  22
ATOM     22  C   UNL A   1      31.557  29.841  25.075  1.00  0.00    -0.018 A 
ATOM     23  C   UNL A   1      32.367  29.919  26.218  1.00  0.00     0.009 A 
ATOM     24  C   UNL A   1      30.667  30.900  24.823  1.00  0.00     0.009 A 
ATOM     25  C   UNL A   1      32.303  31.030  27.065  1.00  0.00     0.001 A 
ATOM     26  C   UNL A   1      30.602  32.009  25.667  1.00  0.00     0.001 A 
ATOM     27  C   UNL A   1      31.425  32.076  26.786  1.00  0.00     0.000 A 
ENDBRANCH  21  22
ENDBRANCH  15  16
ENDBRANCH  13  15
ENDBRANCH  11  13
ENDBRANCH   6  11
ENDBRANCH   3   5
ENDBRANCH   2   3
ENDBRANCH   1   2
BRANCH   1  28
ATOM     28  C   UNL A   1      36.895  20.557  24.873  1.00  0.00     0.275 C 
BRANCH  28  29
ATOM     29  O   UNL A   1      37.552  21.568  25.654  1.00  0.00    -0.458 OA
BRANCH  29  30
ATOM     30  C   UNL A   1      38.820  21.274  26.023  1.00  0.00     0.338 C 
ATOM     31  O   UNL A   1      39.428  20.235  25.843  1.00  0.00    -0.246 OA
BRANCH  30  32
ATOM     32  C   UNL A   1      39.435  22.470  26.605  1.00  0.00     0.060 A 
ATOM     33  C   UNL A   1      39.008  23.726  26.164  1.00  0.00     0.016 A 
ATOM     34  C   UNL A   1      40.483  22.343  27.512  1.00  0.00     0.016 A 
ATOM     35  C   UNL A   1      39.653  24.874  26.610  1.00  0.00     0.010 A 
ATOM     36  C   UNL A   1      41.118  23.495  27.971  1.00  0.00     0.010 A 
ATOM     37  C   UNL A   1      40.720  24.762  27.507  1.00  0.00    -0.014 A 
BRANCH  37  38
ATOM     38  C   UNL A   1      41.482  25.956  27.930  1.00  0.00     0.031 A 
ATOM     39  C   UNL A   1      40.780  27.024  28.717  1.00  0.00     0.074 A 
ATOM     40  C   UNL A   1      42.762  26.107  27.548  1.00  0.00     0.049 A 
ATOM     41  N   UNL A   1      41.173  28.236  28.998  1.00  0.00    -0.248 NA
ATOM     42  C   UNL A   1      39.448  26.680  29.245  1.00  0.00     0.031 C 
ATOM     43  C   UNL A   1      43.545  25.116  26.809  1.00  0.00     0.029 A 
ATOM     44  N   UNL A   1      43.615  27.170  27.693  1.00  0.00    -0.354 N 
ATOM     45  C   UNL A   1      40.118  28.822  29.685  1.00  0.00     0.074 A 
ATOM     46  C   UNL A   1      39.070  27.829  29.788  1.00  0.00     0.031 C 
ATOM     47  C   UNL A   1      44.753  25.632  26.533  1.00  0.00     0.029 A 
ATOM     48  C   UNL A   1      44.807  27.004  27.028  1.00  0.00     0.049 A 
ATOM     49  H   UNL A   1      43.395  27.972  28.221  1.00  0.00     0.167 HD
ATOM     50  C   UNL A   1      40.037  30.078  30.185  1.00  0.00     0.034 A 
ATOM     51  C   UNL A   1      45.806  27.878  26.806  1.00  0.00     0.034 A 
ATOM     52  C   UNL A   1      41.102  31.038  30.103  1.00  0.00     0.049 A 
ATOM     53  C   UNL A   1      45.685  29.274  27.357  1.00  0.00     0.074 A 
ATOM     54  C   UNL A   1      41.138  32.330  30.598  1.00  0.00     0.029 A 
ATOM     55  N   UNL A   1      42.322  30.810  29.486  1.00  0.00    -0.354 N 
ATOM     56  N   UNL A   1      44.710  29.800  28.058  1.00  0.00    -0.248 NA
ATOM     57  C   UNL A   1      46.807  30.188  27.106  1.00  0.00     0.031 C 
ATOM     58  C   UNL A   1      42.379  32.885  30.271  1.00  0.00     0.029 A 
ATOM     59  C   UNL A   1      43.123  31.933  29.589  1.00  0.00     0.049 A 
ATOM     60  H   UNL A   1      42.582  29.972  29.040  1.00  0.00     0.167 HD
ATOM     61  C   UNL A   1      45.116  31.093  28.367  1.00  0.00     0.074 A 
ATOM     62  C   UNL A   1      46.431  31.266  27.783  1.00  0.00     0.031 C 
ATOM     63  C   UNL A   1      44.457  32.055  29.059  1.00  0.00     0.034 A 
BRANCH  50  64
ATOM     64  C   UNL A   1      38.761  30.471  30.880  1.00  0.00     0.023 A 
ATOM     65  C   UNL A   1      38.583  30.159  32.242  1.00  0.00     0.012 A 
ATOM     66  C   UNL A   1      37.755  31.183  30.197  1.00  0.00     0.148 A 
ATOM     67  C   UNL A   1      37.413  30.521  32.907  1.00  0.00     0.002 A 
ATOM     68  C   UNL A   1      36.608  31.577  30.876  1.00  0.00     0.091 A 
ATOM     69  F   UNL A   1      37.929  31.447  28.893  1.00  0.00    -0.205 F 
ATOM     70  C   UNL A   1      36.431  31.238  32.228  1.00  0.00     0.022 A 
BRANCH  68  71
ATOM     71  S   UNL A   1      35.322  32.564  30.103  1.00  0.00     0.127 S 
ATOM     72  O   UNL A   1      35.004  31.762  28.923  1.00  0.00    -0.237 OA
ATOM     73  O   UNL A   1      34.280  32.578  31.130  1.00  0.00    -0.237 OA
ATOM     74  O   UNL A   1      35.924  33.864  29.837  1.00  0.00    -0.744 OA
ENDBRANCH  68  71
ENDBRANCH  50  64
BRANCH  51  75
ATOM     75  C   UNL A   1      47.016  27.445  26.053  1.00  0.00     0.023 A 
ATOM     76  C   UNL A   1      47.116  27.749  24.681  1.00  0.00     0.012 A 
ATOM     77  C   UNL A   1      48.084  26.783  26.689  1.00  0.00     0.148 A 
ATOM     78  C   UNL A   1      48.247  27.382  23.952  1.00  0.00     0.002 A 
ATOM     79  C   UNL A   1      49.231  26.467  25.969  1.00  0.00     0.091 A 
ATOM     80  F   UNL A   1      47.964  26.486  27.991  1.00  0.00    -0.205 F 
ATOM     81  C   UNL A   1      49.309  26.752  24.597  1.00  0.00     0.022 A 
BRANCH  79  82
ATOM     82  S   UNL A   1      50.696  25.773  26.745  1.00  0.00     0.127 S 
ATOM     83  O   UNL A   1      50.175  24.533  27.312  1.00  0.00    -0.237 OA
ATOM     84  O   UNL A   1      51.592  25.600  25.601  1.00  0.00    -0.237 OA
ATOM     85  O   UNL A   1      51.140  26.774  27.706  1.00  0.00    -0.744 OA
ENDBRANCH  79  82
ENDBRANCH  51  75
BRANCH  63  86
ATOM     86  C   UNL A   1      45.164  33.364  29.281  1.00  0.00     0.023 A 
ATOM     87  C   UNL A   1      46.036  33.512  30.376  1.00  0.00     0.012 A 
ATOM     88  C   UNL A   1      45.041  34.408  28.343  1.00  0.00     0.148 A 
ATOM     89  C   UNL A   1      46.762  34.690  30.546  1.00  0.00     0.002 A 
ATOM     90  C   UNL A   1      45.801  35.560  28.494  1.00  0.00     0.091 A 
ATOM     91  F   UNL A   1      44.189  34.250  27.319  1.00  0.00    -0.205 F 
ATOM     92  C   UNL A   1      46.656  35.706  29.599  1.00  0.00     0.022 A 
BRANCH  90  93
ATOM     93  S   UNL A   1      45.800  36.878  27.273  1.00  0.00     0.127 S 
ATOM     94  O   UNL A   1      46.391  36.212  26.115  1.00  0.00    -0.237 OA
ATOM     95  O   UNL A   1      44.374  37.180  27.142  1.00  0.00    -0.237 OA
ATOM     96  O   UNL A   1      46.594  37.957  27.847  1.00  0.00    -0.744 OA
ENDBRANCH  90  93
ENDBRANCH  63  86
ENDBRANCH  37  38
ENDBRANCH  30  32
ENDBRANCH  29  30
ENDBRANCH  28  29
ENDBRANCH   1  28
TORSDOF 19
ENDMDL
MODEL 2
REMARK VINA RESULT:     -11.3      1.867      7.711
REMARK SMILES C[C@@H](Oc1ccc(-c2ccccc2)cc1)C(=O)N1CCC[C@H](C(=O)OCCOC(=O)c2ccc(-c3c4nc(c(-c5cccc(S(=O)(=O)[O-])c5F)c5ccc([nH]5)c(-c5cccc(S(=O)(=O)[O-])c5F)c5nc(c(-c6cccc(S(=O)(=O)[O-])c6F)c6ccc3[nH]6)C=C5)C=C4)cc2)C1
REMARK SMILES IDX 26 1 25 2 23 3 24 4 22 5 18 6 19 7 94 8 20 9 21 10 16 11
REMARK SMILES IDX 17 12 2 13 1 14 3 15 4 16 5 17 15 18 6 19 14 20 7 21 8 22
REMARK SMILES IDX 9 23 13 24 10 25 12 26 11 27 27 28 28 29 29 30 30 31 31 32
REMARK SMILES IDX 32 33 93 34 33 35 92 36 34 37 35 38 36 39 86 40 37 41 91 42
REMARK SMILES IDX 85 43 87 44 38 45 90 46 84 47 83 48 39 50 71 51 51 52 70 53
REMARK SMILES IDX 52 54 55 55 69 56 88 57 53 58 54 59 68 61 89 62 56 63 40 64
REMARK SMILES IDX 41 65 49 66 42 67 44 68 50 69 43 70 45 71 46 72 47 73 48 74
REMARK SMILES IDX 72 75 73 76 81 77 74 78 76 79 82 80 75 81 77 82 78 83 79 84
REMARK SMILES IDX 80 85 57 86 58 87 66 88 59 89 61 90 67 91 60 92 62 93 63 94
REMARK SMILES IDX 64 95 65 96
REMARK H PARENT 87 49 55 60
REMARK Flexibility Score: inf
ROOT
ATOM      1  C   UNL A   1      37.526  20.498  24.686  1.00  0.00     0.274 C 
ENDROOT
BRANCH   1   2
ATOM      2  O   UNL A   1      36.265  20.477  25.383  1.00  0.00    -0.462 OA
BRANCH   2   3
ATOM      3  C   UNL A   1      35.448  21.547  25.243  1.00  0.00     0.310 C 
ATOM      4  O   UNL A   1      34.701  21.734  24.288  1.00  0.00    -0.252 OA
BRANCH   3   5
ATOM      5  C   UNL A   1      35.566  22.547  26.385  1.00  0.00     0.119 C 
ATOM      6  N   UNL A   1      33.395  23.604  25.994  1.00  0.00    -0.339 N 
ATOM      7  C   UNL A   1      33.975  24.897  25.647  1.00  0.00     0.119 C 
ATOM      8  C   UNL A   1      34.173  22.809  26.941  1.00  0.00     0.134 C 
ATOM      9  C   UNL A   1      35.429  24.805  25.195  1.00  0.00     0.022 C 
ATOM     10  C   UNL A   1      36.269  23.869  26.064  1.00  0.00     0.019 C 
BRANCH   6  11
ATOM     11  C   UNL A   1      32.149  23.253  25.483  1.00  0.00     0.263 C 
ATOM     12  O   UNL A   1      31.574  22.221  25.850  1.00  0.00    -0.271 OA
BRANCH  11  13
ATOM     13  C   UNL A   1      31.510  24.124  24.381  1.00  0.00     0.259 C 
ATOM     14  C   UNL A   1      30.895  23.328  23.233  1.00  0.00     0.064 C 
BRANCH  13  15
ATOM     15  O   UNL A   1      30.538  24.947  25.040  1.00  0.00    -0.481 OA
BRANCH  15  16
ATOM     16  C   UNL A   1      30.223  26.078  24.353  1.00  0.00     0.120 A 
ATOM     17  C   UNL A   1      31.184  27.064  24.148  1.00  0.00     0.047 A 
ATOM     18  C   UNL A   1      28.893  26.303  24.028  1.00  0.00     0.047 A 
ATOM     19  C   UNL A   1      30.801  28.299  23.615  1.00  0.00     0.012 A 
ATOM     20  C   UNL A   1      28.517  27.531  23.492  1.00  0.00     0.012 A 
ATOM     21  C   UNL A   1      29.457  28.560  23.300  1.00  0.00    -0.018 A 
BRANCH  21  22
ATOM     22  C   UNL A   1      29.010  29.884  22.837  1.00  0.00    -0.018 A 
ATOM     23  C   UNL A   1      29.093  31.020  23.655  1.00  0.00     0.009 A 
ATOM     24  C   UNL A   1      28.499  30.043  21.536  1.00  0.00     0.009 A 
ATOM     25  C   UNL A   1      28.699  32.275  23.180  1.00  0.00     0.001 A 
ATOM     26  C   UNL A   1      28.106  31.294  21.060  1.00  0.00     0.001 A 
ATOM     27  C   UNL A   1      28.211  32.411  21.881  1.00  0.00     0.000 A 
ENDBRANCH  21  22
ENDBRANCH  15  16
ENDBRANCH  13  15
ENDBRANCH  11  13
ENDBRANCH   6  11
ENDBRANCH   3   5
ENDBRANCH   2   3
ENDBRANCH   1   2
BRANCH   1  28
ATOM     28  C   UNL A   1      38.617  21.086  25.580  1.00  0.00     0.275 C 
BRANCH  28  29
ATOM     29  O   UNL A   1      39.248  20.055  26.357  1.00  0.00    -0.458 OA
BRANCH  29  30
ATOM     30  C   UNL A   1      40.598  20.021  26.275  1.00  0.00     0.338 C 
ATOM     31  O   UNL A   1      41.303  19.080  25.960  1.00  0.00    -0.246 OA
BRANCH  30  32
ATOM     32  C   UNL A   1      41.124  21.366  26.526  1.00  0.00     0.060 A 
ATOM     33  C   UNL A   1      40.827  21.987  27.743  1.00  0.00     0.016 A 
ATOM     34  C   UNL A   1      41.829  22.035  25.529  1.00  0.00     0.016 A 
ATOM     35  C   UNL A   1      41.212  23.304  27.962  1.00  0.00     0.010 A 
ATOM     36  C   UNL A   1      42.229  23.350  25.756  1.00  0.00     0.010 A 
ATOM     37  C   UNL A   1      41.904  23.997  26.963  1.00  0.00    -0.014 A 
BRANCH  37  38
ATOM     38  C   UNL A   1      42.248  25.424  27.131  1.00  0.00     0.031 A 
ATOM     39  C   UNL A   1      43.614  25.894  26.723  1.00  0.00     0.074 A 
ATOM     40  C   UNL A   1      41.371  26.264  27.707  1.00  0.00     0.049 A 
ATOM     41  N   UNL A   1      44.207  27.028  26.979  1.00  0.00    -0.248 NA
ATOM     42  C   UNL A   1      44.423  24.951  25.932  1.00  0.00     0.031 C 
ATOM     43  C   UNL A   1      40.009  25.914  28.111  1.00  0.00     0.029 A 
ATOM     44  N   UNL A   1      41.512  27.572  28.092  1.00  0.00    -0.354 N 
ATOM     45  C   UNL A   1      45.479  26.917  26.433  1.00  0.00     0.074 A 
ATOM     46  C   UNL A   1      45.569  25.608  25.822  1.00  0.00     0.031 C 
ATOM     47  C   UNL A   1      39.450  26.972  28.720  1.00  0.00     0.029 A 
ATOM     48  C   UNL A   1      40.432  28.049  28.796  1.00  0.00     0.049 A 
ATOM     49  H   UNL A   1      42.307  28.114  27.885  1.00  0.00     0.167 HD
ATOM     50  C   UNL A   1      46.479  27.829  26.441  1.00  0.00     0.034 A 
ATOM     51  C   UNL A   1      40.274  29.207  29.464  1.00  0.00     0.034 A 
ATOM     52  C   UNL A   1      46.359  29.137  27.023  1.00  0.00     0.049 A 
ATOM     53  C   UNL A   1      41.407  30.199  29.475  1.00  0.00     0.074 A 
ATOM     54  C   UNL A   1      47.299  30.151  27.066  1.00  0.00     0.029 A 
ATOM     55  N   UNL A   1      45.224  29.613  27.663  1.00  0.00    -0.354 N 
ATOM     56  N   UNL A   1      42.584  30.110  28.903  1.00  0.00    -0.248 NA
ATOM     57  C   UNL A   1      41.184  31.457  30.201  1.00  0.00     0.031 C 
ATOM     58  C   UNL A   1      46.734  31.238  27.741  1.00  0.00     0.029 A 
ATOM     59  C   UNL A   1      45.436  30.908  28.102  1.00  0.00     0.049 A 
ATOM     60  H   UNL A   1      44.390  29.105  27.787  1.00  0.00     0.167 HD
ATOM     61  C   UNL A   1      43.228  31.313  29.166  1.00  0.00     0.074 A 
ATOM     62  C   UNL A   1      42.305  32.118  29.941  1.00  0.00     0.031 C 
ATOM     63  C   UNL A   1      44.474  31.712  28.810  1.00  0.00     0.034 A 
BRANCH  50  64
ATOM     64  C   UNL A   1      47.779  27.447  25.786  1.00  0.00     0.023 A 
ATOM     65  C   UNL A   1      48.824  26.912  26.565  1.00  0.00     0.012 A 
ATOM     66  C   UNL A   1      47.954  27.583  24.394  1.00  0.00     0.148 A 
ATOM     67  C   UNL A   1      50.033  26.545  25.976  1.00  0.00     0.002 A 
ATOM     68  C   UNL A   1      49.147  27.177  23.807  1.00  0.00     0.091 A 
ATOM     69  F   UNL A   1      46.960  28.121  23.672  1.00  0.00    -0.205 F 
ATOM     70  C   UNL A   1      50.191  26.667  24.597  1.00  0.00     0.022 A 
BRANCH  68  71
ATOM     71  S   UNL A   1      49.414  27.232  22.032  1.00  0.00     0.127 S 
ATOM     72  O   UNL A   1      49.020  28.603  21.716  1.00  0.00    -0.237 OA
ATOM     73  O   UNL A   1      50.851  26.971  21.925  1.00  0.00    -0.237 OA
ATOM     74  O   UNL A   1      48.568  26.188  21.470  1.00  0.00    -0.744 OA
ENDBRANCH  68  71
ENDBRANCH  50  64
BRANCH  51  75
ATOM     75  C   UNL A   1      38.984  29.498  30.150  1.00  0.00     0.023 A 
ATOM     76  C   UNL A   1      38.746  28.951  31.425  1.00  0.00     0.012 A 
ATOM     77  C   UNL A   1      38.017  30.346  29.575  1.00  0.00     0.148 A 
ATOM     78  C   UNL A   1      37.560  29.225  32.107  1.00  0.00     0.002 A 
ATOM     79  C   UNL A   1      36.861  30.658  30.282  1.00  0.00     0.091 A 
ATOM     80  F   UNL A   1      38.253  30.844  28.353  1.00  0.00    -0.205 F 
ATOM     81  C   UNL A   1      36.624  30.087  31.541  1.00  0.00     0.022 A 
BRANCH  79  82
ATOM     82  S   UNL A   1      35.663  31.858  29.689  1.00  0.00     0.127 S 
ATOM     83  O   UNL A   1      34.925  32.173  30.908  1.00  0.00    -0.237 OA
ATOM     84  O   UNL A   1      36.526  32.932  29.196  1.00  0.00    -0.237 OA
ATOM     85  O   UNL A   1      34.907  31.174  28.648  1.00  0.00    -0.744 OA
ENDBRANCH  79  82
ENDBRANCH  51  75
BRANCH  63  86
ATOM     86  C   UNL A   1      44.900  33.102  29.199  1.00  0.00     0.023 A 
ATOM     87  C   UNL A   1      45.522  33.321  30.442  1.00  0.00     0.012 A 
ATOM     88  C   UNL A   1      44.777  34.167  28.284  1.00  0.00     0.148 A 
ATOM     89  C   UNL A   1      45.999  34.587  30.779  1.00  0.00     0.002 A 
ATOM     90  C   UNL A   1      45.294  35.414  28.609  1.00  0.00     0.091 A 
ATOM     91  F   UNL A   1      44.163  33.937  27.115  1.00  0.00    -0.205 F 
ATOM     92  C   UNL A   1      45.898  35.628  29.859  1.00  0.00     0.022 A 
BRANCH  90  93
ATOM     93  S   UNL A   1      45.294  36.785  27.448  1.00  0.00     0.127 S 
ATOM     94  O   UNL A   1      43.868  36.935  27.165  1.00  0.00    -0.237 OA
ATOM     95  O   UNL A   1      45.875  37.867  28.244  1.00  0.00    -0.237 OA
ATOM     96  O   UNL A   1      46.113  36.357  26.322  1.00  0.00    -0.744 OA
ENDBRANCH  90  93
ENDBRANCH  63  86
ENDBRANCH  37  38
ENDBRANCH  30  32
ENDBRANCH  29  30
ENDBRANCH  28  29
ENDBRANCH   1  28
TORSDOF 19
ENDMDL
MODEL 3
REMARK VINA RESULT:     -11.2      1.772      2.476
REMARK SMILES C[C@@H](Oc1ccc(-c2ccccc2)cc1)C(=O)N1CCC[C@H](C(=O)OCCOC(=O)c2ccc(-c3c4nc(c(-c5cccc(S(=O)(=O)[O-])c5F)c5ccc([nH]5)c(-c5cccc(S(=O)(=O)[O-])c5F)c5nc(c(-c6cccc(S(=O)(=O)[O-])c6F)c6ccc3[nH]6)C=C5)C=C4)cc2)C1
REMARK SMILES IDX 26 1 25 2 23 3 24 4 22 5 18 6 19 7 94 8 20 9 21 10 16 11
REMARK SMILES IDX 17 12 2 13 1 14 3 15 4 16 5 17 15 18 6 19 14 20 7 21 8 22
REMARK SMILES IDX 9 23 13 24 10 25 12 26 11 27 27 28 28 29 29 30 30 31 31 32
REMARK SMILES IDX 32 33 93 34 33 35 92 36 34 37 35 38 36 39 86 40 37 41 91 42
REMARK SMILES IDX 85 43 87 44 38 45 90 46 84 47 83 48 39 50 71 51 51 52 70 53
REMARK SMILES IDX 52 54 55 55 69 56 88 57 53 58 54 59 68 61 89 62 56 63 40 64
REMARK SMILES IDX 41 65 49 66 42 67 44 68 50 69 43 70 45 71 46 72 47 73 48 74
REMARK SMILES IDX 72 75 73 76 81 77 74 78 76 79 82 80 75 81 77 82 78 83 79 84
REMARK SMILES IDX 80 85 57 86 58 87 66 88 59 89 61 90 67 91 60 92 62 93 63 94
REMARK SMILES IDX 64 95 65 96
REMARK H PARENT 87 49 55 60
REMARK Flexibility Score: inf
ROOT
ATOM      1  C   UNL A   1      37.534  20.756  25.086  1.00  0.00     0.274 C 
ENDROOT
BRANCH   1   2
ATOM      2  O   UNL A   1      36.627  21.814  24.723  1.00  0.00    -0.462 OA
BRANCH   2   3
ATOM      3  C   UNL A   1      35.822  22.315  25.689  1.00  0.00     0.310 C 
ATOM      4  O   UNL A   1      35.798  23.492  26.037  1.00  0.00    -0.252 OA
BRANCH   3   5
ATOM      5  C   UNL A   1      34.952  21.257  26.354  1.00  0.00     0.119 C 
ATOM      6  N   UNL A   1      32.957  21.725  25.018  1.00  0.00    -0.339 N 
ATOM      7  C   UNL A   1      32.174  22.177  26.163  1.00  0.00     0.119 C 
ATOM      8  C   UNL A   1      33.972  20.719  25.319  1.00  0.00     0.134 C 
ATOM      9  C   UNL A   1      33.030  22.625  27.342  1.00  0.00     0.022 C 
ATOM     10  C   UNL A   1      34.205  21.686  27.621  1.00  0.00     0.019 C 
BRANCH   6  11
ATOM     11  C   UNL A   1      32.649  22.202  23.747  1.00  0.00     0.263 C 
ATOM     12  O   UNL A   1      32.246  21.442  22.858  1.00  0.00    -0.271 OA
BRANCH  11  13
ATOM     13  C   UNL A   1      32.893  23.690  23.417  1.00  0.00     0.259 C 
ATOM     14  C   UNL A   1      34.257  23.977  22.794  1.00  0.00     0.064 C 
BRANCH  13  15
ATOM     15  O   UNL A   1      31.818  24.085  22.553  1.00  0.00    -0.481 OA
BRANCH  15  16
ATOM     16  C   UNL A   1      31.292  25.302  22.859  1.00  0.00     0.120 A 
ATOM     17  C   UNL A   1      30.252  25.404  23.778  1.00  0.00     0.047 A 
ATOM     18  C   UNL A   1      31.685  26.398  22.104  1.00  0.00     0.047 A 
ATOM     19  C   UNL A   1      29.591  26.627  23.938  1.00  0.00     0.012 A 
ATOM     20  C   UNL A   1      31.029  27.614  22.270  1.00  0.00     0.012 A 
ATOM     21  C   UNL A   1      29.955  27.746  23.169  1.00  0.00    -0.018 A 
BRANCH  21  22
ATOM     22  C   UNL A   1      29.210  29.013  23.240  1.00  0.00    -0.018 A 
ATOM     23  C   UNL A   1      27.862  29.100  22.864  1.00  0.00     0.009 A 
ATOM     24  C   UNL A   1      29.840  30.178  23.712  1.00  0.00     0.009 A 
ATOM     25  C   UNL A   1      27.163  30.306  22.978  1.00  0.00     0.001 A 
ATOM     26  C   UNL A   1      29.145  31.383  23.826  1.00  0.00     0.001 A 
ATOM     27  C   UNL A   1      27.804  31.445  23.463  1.00  0.00     0.000 A 
ENDBRANCH  21  22
ENDBRANCH  15  16
ENDBRANCH  13  15
ENDBRANCH  11  13
ENDBRANCH   6  11
ENDBRANCH   3   5
ENDBRANCH   2   3
ENDBRANCH   1   2
BRANCH   1  28
ATOM     28  C   UNL A   1      38.808  21.336  25.698  1.00  0.00     0.275 C 
BRANCH  28  29
ATOM     29  O   UNL A   1      39.543  20.321  26.401  1.00  0.00    -0.458 OA
BRANCH  29  30
ATOM     30  C   UNL A   1      40.861  20.256  26.101  1.00  0.00     0.338 C 
ATOM     31  O   UNL A   1      41.441  19.392  25.470  1.00  0.00    -0.246 OA
BRANCH  30  32
ATOM     32  C   UNL A   1      41.516  21.480  26.569  1.00  0.00     0.060 A 
ATOM     33  C   UNL A   1      41.692  21.664  27.944  1.00  0.00     0.016 A 
ATOM     34  C   UNL A   1      41.872  22.471  25.659  1.00  0.00     0.016 A 
ATOM     35  C   UNL A   1      42.203  22.864  28.425  1.00  0.00     0.010 A 
ATOM     36  C   UNL A   1      42.399  23.668  26.141  1.00  0.00     0.010 A 
ATOM     37  C   UNL A   1      42.547  23.877  27.524  1.00  0.00    -0.014 A 
BRANCH  37  38
ATOM     38  C   UNL A   1      43.008  25.195  28.008  1.00  0.00     0.031 A 
ATOM     39  C   UNL A   1      41.995  26.176  28.519  1.00  0.00     0.074 A 
ATOM     40  C   UNL A   1      44.309  25.526  27.921  1.00  0.00     0.049 A 
ATOM     41  N   UNL A   1      42.134  27.448  28.779  1.00  0.00    -0.248 NA
ATOM     42  C   UNL A   1      40.637  25.655  28.753  1.00  0.00     0.031 C 
ATOM     43  C   UNL A   1      45.378  24.635  27.469  1.00  0.00     0.029 A 
ATOM     44  N   UNL A   1      44.942  26.716  28.167  1.00  0.00    -0.354 N 
ATOM     45  C   UNL A   1      40.873  27.894  29.152  1.00  0.00     0.074 A 
ATOM     46  C   UNL A   1      39.981  26.755  29.095  1.00  0.00     0.031 C 
ATOM     47  C   UNL A   1      46.531  25.320  27.436  1.00  0.00     0.029 A 
ATOM     48  C   UNL A   1      46.271  26.706  27.811  1.00  0.00     0.049 A 
ATOM     49  H   UNL A   1      44.492  27.499  28.560  1.00  0.00     0.167 HD
ATOM     50  C   UNL A   1      40.497  29.144  29.511  1.00  0.00     0.034 A 
ATOM     51  C   UNL A   1      47.161  27.715  27.752  1.00  0.00     0.034 A 
ATOM     52  C   UNL A   1      41.404  30.255  29.596  1.00  0.00     0.049 A 
ATOM     53  C   UNL A   1      46.715  29.100  28.140  1.00  0.00     0.074 A 
ATOM     54  C   UNL A   1      41.137  31.559  29.974  1.00  0.00     0.029 A 
ATOM     55  N   UNL A   1      42.757  30.191  29.299  1.00  0.00    -0.354 N 
ATOM     56  N   UNL A   1      45.535  29.500  28.551  1.00  0.00    -0.248 NA
ATOM     57  C   UNL A   1      47.724  30.166  28.078  1.00  0.00     0.031 C 
ATOM     58  C   UNL A   1      42.330  32.285  29.896  1.00  0.00     0.029 A 
ATOM     59  C   UNL A   1      43.342  31.430  29.488  1.00  0.00     0.049 A 
ATOM     60  H   UNL A   1      43.232  29.383  28.997  1.00  0.00     0.167 HD
ATOM     61  C   UNL A   1      45.669  30.854  28.834  1.00  0.00     0.074 A 
ATOM     62  C   UNL A   1      47.048  31.203  28.556  1.00  0.00     0.031 C 
ATOM     63  C   UNL A   1      44.734  31.733  29.271  1.00  0.00     0.034 A 
BRANCH  50  64
ATOM     64  C   UNL A   1      39.049  29.366  29.858  1.00  0.00     0.023 A 
ATOM     65  C   UNL A   1      38.594  29.093  31.163  1.00  0.00     0.012 A 
ATOM     66  C   UNL A   1      38.148  29.880  28.904  1.00  0.00     0.148 A 
ATOM     67  C   UNL A   1      37.258  29.300  31.507  1.00  0.00     0.002 A 
ATOM     68  C   UNL A   1      36.827  30.122  29.265  1.00  0.00     0.091 A 
ATOM     69  F   UNL A   1      38.592  30.106  27.659  1.00  0.00    -0.205 F 
ATOM     70  C   UNL A   1      36.378  29.823  30.563  1.00  0.00     0.022 A 
BRANCH  68  71
ATOM     71  S   UNL A   1      35.641  30.859  28.137  1.00  0.00     0.127 S 
ATOM     72  O   UNL A   1      36.369  32.037  27.670  1.00  0.00    -0.237 OA
ATOM     73  O   UNL A   1      35.473  29.809  27.131  1.00  0.00    -0.237 OA
ATOM     74  O   UNL A   1      34.450  31.129  28.931  1.00  0.00    -0.744 OA
ENDBRANCH  68  71
ENDBRANCH  50  64
BRANCH  51  75
ATOM     75  C   UNL A   1      48.565  27.441  27.338  1.00  0.00     0.023 A 
ATOM     76  C   UNL A   1      49.460  26.886  28.272  1.00  0.00     0.012 A 
ATOM     77  C   UNL A   1      49.006  27.679  26.022  1.00  0.00     0.148 A 
ATOM     78  C   UNL A   1      50.775  26.592  27.909  1.00  0.00     0.002 A 
ATOM     79  C   UNL A   1      50.301  27.335  25.652  1.00  0.00     0.091 A 
ATOM     80  F   UNL A   1      48.145  28.225  25.151  1.00  0.00    -0.205 F 
ATOM     81  C   UNL A   1      51.192  26.806  26.598  1.00  0.00     0.022 A 
BRANCH  79  82
ATOM     82  S   UNL A   1      50.884  27.454  23.956  1.00  0.00     0.127 S 
ATOM     83  O   UNL A   1      49.796  26.816  23.220  1.00  0.00    -0.237 OA
ATOM     84  O   UNL A   1      50.988  28.901  23.771  1.00  0.00    -0.237 OA
ATOM     85  O   UNL A   1      52.163  26.755  23.932  1.00  0.00    -0.744 OA
ENDBRANCH  79  82
ENDBRANCH  51  75
BRANCH  63  86
ATOM     86  C   UNL A   1      45.175  33.147  29.538  1.00  0.00     0.023 A 
ATOM     87  C   UNL A   1      45.744  33.480  30.782  1.00  0.00     0.012 A 
ATOM     88  C   UNL A   1      45.119  34.115  28.517  1.00  0.00     0.148 A 
ATOM     89  C   UNL A   1      46.235  34.764  31.012  1.00  0.00     0.002 A 
ATOM     90  C   UNL A   1      45.650  35.379  28.738  1.00  0.00     0.091 A 
ATOM     91  F   UNL A   1      44.555  33.779  27.347  1.00  0.00    -0.205 F 
ATOM     92  C   UNL A   1      46.201  35.708  29.988  1.00  0.00     0.022 A 
BRANCH  90  93
ATOM     93  S   UNL A   1      45.736  36.625  27.447  1.00  0.00     0.127 S 
ATOM     94  O   UNL A   1      44.321  36.878  27.183  1.00  0.00    -0.237 OA
ATOM     95  O   UNL A   1      46.437  37.720  28.117  1.00  0.00    -0.237 OA
ATOM     96  O   UNL A   1      46.477  36.015  26.350  1.00  0.00    -0.744 OA
ENDBRANCH  90  93
ENDBRANCH  63  86
ENDBRANCH  37  38
ENDBRANCH  30  32
ENDBRANCH  29  30
ENDBRANCH  28  29
ENDBRANCH   1  28
TORSDOF 19
ENDMDL
