MODEL 1
REMARK VINA RESULT:     -10.5      0.000      0.000
REMARK SMILES O=C(OCCOC(=O)[C@H]1CC[C@H](CNS(=O)(=O)C[C@H]2CCCO2)O1)c1ccc(-c2c3nc(c(-c4cccc(S(=O)(=O)[O-])c4F)c4ccc([nH]4)c(-c4cccc(S(=O)(=O)[O-])c4F)c4nc(c(-c5cccc(S(=O)(=O)[O-])c5F)c5ccc2[nH]5)C=C4)C=C3)cc1
REMARK SMILES IDX 5 1 4 2 3 3 2 4 1 5 25 6 26 7 87 8 27 9 86 10 28 11 29 12
REMARK SMILES IDX 30 13 80 14 31 15 85 16 79 17 81 18 32 19 84 20 78 21 77 22
REMARK SMILES IDX 33 24 65 25 45 26 64 27 46 28 49 29 63 30 82 31 47 32 48 33
REMARK SMILES IDX 62 35 83 36 50 37 34 38 35 39 43 40 36 41 38 42 44 43 37 44
REMARK SMILES IDX 39 45 40 46 41 47 42 48 66 49 67 50 75 51 68 52 70 53 76 54
REMARK SMILES IDX 69 55 71 56 72 57 73 58 74 59 51 60 52 61 60 62 53 63 55 64
REMARK SMILES IDX 61 65 54 66 56 67 57 68 58 69 59 70 6 71 7 72 8 73 9 74
REMARK SMILES IDX 10 75 24 76 11 77 12 78 13 79 14 80 15 82 16 83 17 84 18 85
REMARK SMILES IDX 19 86 20 87 23 88 21 89 22 90
REMARK H PARENT 81 23 49 34 14 81
REMARK Flexibility Score: inf
ROOT
ATOM      1  C   UNL A   1      32.542  30.790  26.559  1.00  0.00     0.274 C 
ENDROOT
BRANCH   1   2
ATOM      2  C   UNL A   1      31.772  32.073  26.887  1.00  0.00     0.275 C 
BRANCH   2   3
ATOM      3  O   UNL A   1      32.603  33.247  26.930  1.00  0.00    -0.458 OA
BRANCH   3   4
ATOM      4  C   UNL A   1      33.278  33.779  27.981  1.00  0.00     0.338 C 
ATOM      5  O   UNL A   1      32.965  34.902  28.373  1.00  0.00    -0.246 OA
BRANCH   4   6
ATOM      6  C   UNL A   1      34.499  33.141  28.573  1.00  0.00     0.060 A 
ATOM      7  C   UNL A   1      35.824  33.428  28.231  1.00  0.00     0.016 A 
ATOM      8  C   UNL A   1      34.274  32.186  29.585  1.00  0.00     0.016 A 
ATOM      9  C   UNL A   1      36.894  32.867  28.933  1.00  0.00     0.010 A 
ATOM     10  C   UNL A   1      35.342  31.602  30.280  1.00  0.00     0.010 A 
ATOM     11  C   UNL A   1      36.659  31.953  29.958  1.00  0.00    -0.014 A 
BRANCH  11  12
ATOM     12  C   UNL A   1      37.800  31.226  30.548  1.00  0.00     0.031 A 
ATOM     13  C   UNL A   1      38.182  31.575  31.951  1.00  0.00     0.074 A 
ATOM     14  C   UNL A   1      38.460  30.273  29.867  1.00  0.00     0.049 A 
ATOM     15  N   UNL A   1      39.128  31.079  32.695  1.00  0.00    -0.248 NA
ATOM     16  C   UNL A   1      37.366  32.611  32.608  1.00  0.00     0.031 C 
ATOM     17  C   UNL A   1      38.122  29.815  28.524  1.00  0.00     0.029 A 
ATOM     18  N   UNL A   1      39.572  29.542  30.197  1.00  0.00    -0.354 N 
ATOM     19  C   UNL A   1      39.035  31.753  33.904  1.00  0.00     0.074 A 
ATOM     20  C   UNL A   1      37.953  32.702  33.789  1.00  0.00     0.031 C 
ATOM     21  C   UNL A   1      39.055  28.944  28.104  1.00  0.00     0.029 A 
ATOM     22  C   UNL A   1      40.054  28.779  29.158  1.00  0.00     0.049 A 
ATOM     23  H   UNL A   1      39.984  29.559  31.091  1.00  0.00     0.167 HD
ATOM     24  C   UNL A   1      39.786  31.587  35.015  1.00  0.00     0.034 A 
ATOM     25  C   UNL A   1      41.186  28.053  29.066  1.00  0.00     0.034 A 
ATOM     26  C   UNL A   1      40.884  30.669  35.093  1.00  0.00     0.049 A 
ATOM     27  C   UNL A   1      42.061  27.941  30.288  1.00  0.00     0.074 A 
ATOM     28  C   UNL A   1      41.711  30.405  36.166  1.00  0.00     0.029 A 
ATOM     29  N   UNL A   1      41.337  29.897  34.031  1.00  0.00    -0.354 N 
ATOM     30  N   UNL A   1      41.892  28.486  31.469  1.00  0.00    -0.248 NA
ATOM     31  C   UNL A   1      43.248  27.080  30.190  1.00  0.00     0.031 C 
ATOM     32  C   UNL A   1      42.695  29.509  35.738  1.00  0.00     0.029 A 
ATOM     33  C   UNL A   1      42.448  29.173  34.415  1.00  0.00     0.049 A 
ATOM     34  H   UNL A   1      40.926  29.870  33.137  1.00  0.00     0.167 HD
ATOM     35  C   UNL A   1      42.921  28.002  32.268  1.00  0.00     0.074 A 
ATOM     36  C   UNL A   1      43.710  27.117  31.435  1.00  0.00     0.031 C 
ATOM     37  C   UNL A   1      43.184  28.261  33.573  1.00  0.00     0.034 A 
BRANCH  24  38
ATOM     38  C   UNL A   1      39.446  32.456  36.191  1.00  0.00     0.023 A 
ATOM     39  C   UNL A   1      40.092  33.699  36.362  1.00  0.00     0.012 A 
ATOM     40  C   UNL A   1      38.531  32.013  37.162  1.00  0.00     0.148 A 
ATOM     41  C   UNL A   1      39.879  34.456  37.513  1.00  0.00     0.002 A 
ATOM     42  C   UNL A   1      38.285  32.796  38.280  1.00  0.00     0.091 A 
ATOM     43  F   UNL A   1      37.953  30.815  36.997  1.00  0.00    -0.205 F 
ATOM     44  C   UNL A   1      38.972  34.007  38.469  1.00  0.00     0.022 A 
BRANCH  42  45
ATOM     45  S   UNL A   1      37.084  32.336  39.532  1.00  0.00     0.127 S 
ATOM     46  O   UNL A   1      37.216  33.434  40.486  1.00  0.00    -0.237 OA
ATOM     47  O   UNL A   1      35.835  32.336  38.770  1.00  0.00    -0.237 OA
ATOM     48  O   UNL A   1      37.496  31.027  40.021  1.00  0.00    -0.744 OA
ENDBRANCH  42  45
ENDBRANCH  24  38
BRANCH  25  49
ATOM     49  C   UNL A   1      41.531  27.366  27.788  1.00  0.00     0.023 A 
ATOM     50  C   UNL A   1      41.970  28.113  26.678  1.00  0.00     0.012 A 
ATOM     51  C   UNL A   1      41.468  25.961  27.684  1.00  0.00     0.148 A 
ATOM     52  C   UNL A   1      42.315  27.477  25.483  1.00  0.00     0.002 A 
ATOM     53  C   UNL A   1      41.864  25.331  26.510  1.00  0.00     0.091 A 
ATOM     54  F   UNL A   1      41.039  25.267  28.748  1.00  0.00    -0.205 F 
ATOM     55  C   UNL A   1      42.271  26.088  25.402  1.00  0.00     0.022 A 
BRANCH  53  56
ATOM     56  S   UNL A   1      41.982  23.544  26.363  1.00  0.00     0.127 S 
ATOM     57  O   UNL A   1      40.577  23.149  26.389  1.00  0.00    -0.237 OA
ATOM     58  O   UNL A   1      42.643  23.395  25.066  1.00  0.00    -0.237 OA
ATOM     59  O   UNL A   1      42.790  23.111  27.494  1.00  0.00    -0.744 OA
ENDBRANCH  53  56
ENDBRANCH  25  49
BRANCH  37  60
ATOM     60  C   UNL A   1      44.339  27.544  34.216  1.00  0.00     0.023 A 
ATOM     61  C   UNL A   1      45.616  28.136  34.243  1.00  0.00     0.012 A 
ATOM     62  C   UNL A   1      44.109  26.349  34.929  1.00  0.00     0.148 A 
ATOM     63  C   UNL A   1      46.652  27.542  34.963  1.00  0.00     0.002 A 
ATOM     64  C   UNL A   1      45.129  25.796  35.689  1.00  0.00     0.091 A 
ATOM     65  F   UNL A   1      42.888  25.798  34.872  1.00  0.00    -0.205 F 
ATOM     66  C   UNL A   1      46.403  26.384  35.700  1.00  0.00     0.022 A 
BRANCH  64  67
ATOM     67  S   UNL A   1      44.868  24.379  36.761  1.00  0.00     0.127 S 
ATOM     68  O   UNL A   1      46.208  24.169  37.308  1.00  0.00    -0.237 OA
ATOM     69  O   UNL A   1      43.892  24.895  37.720  1.00  0.00    -0.237 OA
ATOM     70  O   UNL A   1      44.373  23.309  35.906  1.00  0.00    -0.744 OA
ENDBRANCH  64  67
ENDBRANCH  37  60
ENDBRANCH  11  12
ENDBRANCH   4   6
ENDBRANCH   3   4
ENDBRANCH   2   3
ENDBRANCH   1   2
BRANCH   1  71
ATOM     71  O   UNL A   1      31.674  29.657  26.416  1.00  0.00    -0.460 OA
BRANCH  71  72
ATOM     72  C   UNL A   1      31.681  29.040  25.193  1.00  0.00     0.335 C 
ATOM     73  O   UNL A   1      31.566  29.619  24.120  1.00  0.00    -0.249 OA
BRANCH  72  74
ATOM     74  C   UNL A   1      31.916  27.534  25.367  1.00  0.00     0.228 C 
ATOM     75  C   UNL A   1      30.816  26.830  26.127  1.00  0.00     0.047 C 
ATOM     76  O   UNL A   1      32.048  26.880  24.098  1.00  0.00    -0.362 OA
ATOM     77  C   UNL A   1      29.957  26.277  25.023  1.00  0.00     0.037 C 
ATOM     78  C   UNL A   1      30.968  25.943  23.936  1.00  0.00     0.134 C 
BRANCH  78  79
ATOM     79  C   UNL A   1      31.539  24.506  23.972  1.00  0.00     0.130 C 
BRANCH  79  80
ATOM     80  N   UNL A   1      30.729  23.639  24.857  1.00  0.00    -0.213 NA
ATOM     81  H   UNL A   1      30.149  23.051  24.259  1.00  0.00     0.141 HD
BRANCH  80  82
ATOM     82  S   UNL A   1      31.538  22.625  25.922  1.00  0.00     0.214 S 
ATOM     83  O   UNL A   1      31.081  22.954  27.255  1.00  0.00    -0.212 OA
ATOM     84  O   UNL A   1      31.413  21.288  25.389  1.00  0.00    -0.212 OA
BRANCH  82  85
ATOM     85  C   UNL A   1      33.247  23.068  25.833  1.00  0.00     0.185 C 
BRANCH  85  86
ATOM     86  C   UNL A   1      34.242  22.150  25.140  1.00  0.00     0.134 C 
ATOM     87  C   UNL A   1      34.907  22.488  23.815  1.00  0.00     0.035 C 
ATOM     88  O   UNL A   1      35.299  21.852  26.081  1.00  0.00    -0.377 OA
ATOM     89  C   UNL A   1      36.337  22.805  24.176  1.00  0.00     0.031 C 
ATOM     90  C   UNL A   1      36.565  22.031  25.450  1.00  0.00     0.160 C 
ENDBRANCH  85  86
ENDBRANCH  82  85
ENDBRANCH  80  82
ENDBRANCH  79  80
ENDBRANCH  78  79
ENDBRANCH  72  74
ENDBRANCH  71  72
ENDBRANCH   1  71
TORSDOF 19
ENDMDL
MODEL 2
REMARK VINA RESULT:     -10.5      2.152      3.438
REMARK SMILES O=C(OCCOC(=O)[C@H]1CC[C@H](CNS(=O)(=O)C[C@H]2CCCO2)O1)c1ccc(-c2c3nc(c(-c4cccc(S(=O)(=O)[O-])c4F)c4ccc([nH]4)c(-c4cccc(S(=O)(=O)[O-])c4F)c4nc(c(-c5cccc(S(=O)(=O)[O-])c5F)c5ccc2[nH]5)C=C4)C=C3)cc1
REMARK SMILES IDX 5 1 4 2 3 3 2 4 1 5 25 6 26 7 87 8 27 9 86 10 28 11 29 12
REMARK SMILES IDX 30 13 80 14 31 15 85 16 79 17 81 18 32 19 84 20 78 21 77 22
REMARK SMILES IDX 33 24 65 25 45 26 64 27 46 28 49 29 63 30 82 31 47 32 48 33
REMARK SMILES IDX 62 35 83 36 50 37 34 38 35 39 43 40 36 41 38 42 44 43 37 44
REMARK SMILES IDX 39 45 40 46 41 47 42 48 66 49 67 50 75 51 68 52 70 53 76 54
REMARK SMILES IDX 69 55 71 56 72 57 73 58 74 59 51 60 52 61 60 62 53 63 55 64
REMARK SMILES IDX 61 65 54 66 56 67 57 68 58 69 59 70 6 71 7 72 8 73 9 74
REMARK SMILES IDX 10 75 24 76 11 77 12 78 13 79 14 80 15 82 16 83 17 84 18 85
REMARK SMILES IDX 19 86 20 87 23 88 21 89 22 90
REMARK H PARENT 81 23 49 34 14 81
REMARK Flexibility Score: inf
ROOT
ATOM      1  C   UNL A   1      32.289  31.140  26.404  1.00  0.00     0.274 C 
ENDROOT
BRANCH   1   2
ATOM      2  C   UNL A   1      31.816  32.315  27.264  1.00  0.00     0.275 C 
BRANCH   2   3
ATOM      3  O   UNL A   1      32.654  33.481  27.156  1.00  0.00    -0.458 OA
BRANCH   3   4
ATOM      4  C   UNL A   1      33.531  33.991  28.058  1.00  0.00     0.338 C 
ATOM      5  O   UNL A   1      33.528  35.204  28.260  1.00  0.00    -0.246 OA
BRANCH   4   6
ATOM      6  C   UNL A   1      34.618  33.174  28.689  1.00  0.00     0.060 A 
ATOM      7  C   UNL A   1      34.436  32.111  29.578  1.00  0.00     0.016 A 
ATOM      8  C   UNL A   1      35.938  33.503  28.321  1.00  0.00     0.016 A 
ATOM      9  C   UNL A   1      35.512  31.332  30.012  1.00  0.00     0.010 A 
ATOM     10  C   UNL A   1      37.026  32.740  28.767  1.00  0.00     0.010 A 
ATOM     11  C   UNL A   1      36.809  31.642  29.609  1.00  0.00    -0.014 A 
BRANCH  11  12
ATOM     12  C   UNL A   1      37.944  30.934  30.234  1.00  0.00     0.031 A 
ATOM     13  C   UNL A   1      38.320  31.336  31.624  1.00  0.00     0.074 A 
ATOM     14  C   UNL A   1      38.602  29.951  29.595  1.00  0.00     0.049 A 
ATOM     15  N   UNL A   1      39.259  30.866  32.392  1.00  0.00    -0.248 NA
ATOM     16  C   UNL A   1      37.506  32.401  32.235  1.00  0.00     0.031 C 
ATOM     17  C   UNL A   1      38.269  29.441  28.269  1.00  0.00     0.029 A 
ATOM     18  N   UNL A   1      39.709  29.228  29.960  1.00  0.00    -0.354 N 
ATOM     19  C   UNL A   1      39.164  31.587  33.573  1.00  0.00     0.074 A 
ATOM     20  C   UNL A   1      38.086  32.536  33.415  1.00  0.00     0.031 C 
ATOM     21  C   UNL A   1      39.200  28.549  27.890  1.00  0.00     0.029 A 
ATOM     22  C   UNL A   1      40.193  28.422  28.955  1.00  0.00     0.049 A 
ATOM     23  H   UNL A   1      40.116  29.279  30.855  1.00  0.00     0.167 HD
ATOM     24  C   UNL A   1      39.907  31.462  34.694  1.00  0.00     0.034 A 
ATOM     25  C   UNL A   1      41.321  27.687  28.898  1.00  0.00     0.034 A 
ATOM     26  C   UNL A   1      41.001  30.543  34.814  1.00  0.00     0.049 A 
ATOM     27  C   UNL A   1      42.189  27.619  30.128  1.00  0.00     0.074 A 
ATOM     28  C   UNL A   1      41.820  30.317  35.902  1.00  0.00     0.029 A 
ATOM     29  N   UNL A   1      41.455  29.727  33.786  1.00  0.00    -0.354 N 
ATOM     30  N   UNL A   1      42.016  28.213  31.286  1.00  0.00    -0.248 NA
ATOM     31  C   UNL A   1      43.373  26.750  30.071  1.00  0.00     0.031 C 
ATOM     32  C   UNL A   1      42.802  29.400  35.516  1.00  0.00     0.029 A 
ATOM     33  C   UNL A   1      42.560  29.013  34.205  1.00  0.00     0.049 A 
ATOM     34  H   UNL A   1      41.049  29.666  32.892  1.00  0.00     0.167 HD
ATOM     35  C   UNL A   1      43.038  27.756  32.109  1.00  0.00     0.074 A 
ATOM     36  C   UNL A   1      43.828  26.834  31.316  1.00  0.00     0.031 C 
ATOM     37  C   UNL A   1      43.296  28.065  33.404  1.00  0.00     0.034 A 
BRANCH  24  38
ATOM     38  C   UNL A   1      39.566  32.379  35.833  1.00  0.00     0.023 A 
ATOM     39  C   UNL A   1      38.708  31.937  36.863  1.00  0.00     0.012 A 
ATOM     40  C   UNL A   1      40.045  33.700  35.850  1.00  0.00     0.148 A 
ATOM     41  C   UNL A   1      38.284  32.817  37.857  1.00  0.00     0.002 A 
ATOM     42  C   UNL A   1      39.659  34.556  36.873  1.00  0.00     0.091 A 
ATOM     43  F   UNL A   1      40.832  34.109  34.845  1.00  0.00    -0.205 F 
ATOM     44  C   UNL A   1      38.763  34.124  37.865  1.00  0.00     0.022 A 
BRANCH  42  45
ATOM     45  S   UNL A   1      40.277  36.235  37.006  1.00  0.00     0.127 S 
ATOM     46  O   UNL A   1      39.525  36.736  38.154  1.00  0.00    -0.237 OA
ATOM     47  O   UNL A   1      41.701  36.016  37.258  1.00  0.00    -0.237 OA
ATOM     48  O   UNL A   1      39.978  36.875  35.732  1.00  0.00    -0.744 OA
ENDBRANCH  42  45
ENDBRANCH  24  38
BRANCH  25  49
ATOM     49  C   UNL A   1      41.669  26.948  27.650  1.00  0.00     0.023 A 
ATOM     50  C   UNL A   1      42.210  27.636  26.547  1.00  0.00     0.012 A 
ATOM     51  C   UNL A   1      41.508  25.550  27.571  1.00  0.00     0.148 A 
ATOM     52  C   UNL A   1      42.558  26.950  25.381  1.00  0.00     0.002 A 
ATOM     53  C   UNL A   1      41.907  24.867  26.428  1.00  0.00     0.091 A 
ATOM     54  F   UNL A   1      40.983  24.913  28.627  1.00  0.00    -0.205 F 
ATOM     55  C   UNL A   1      42.416  25.567  25.324  1.00  0.00     0.022 A 
BRANCH  53  56
ATOM     56  S   UNL A   1      41.899  23.072  26.321  1.00  0.00     0.127 S 
ATOM     57  O   UNL A   1      40.469  22.782  26.271  1.00  0.00    -0.237 OA
ATOM     58  O   UNL A   1      42.621  22.846  25.068  1.00  0.00    -0.237 OA
ATOM     59  O   UNL A   1      42.606  22.607  27.505  1.00  0.00    -0.744 OA
ENDBRANCH  53  56
ENDBRANCH  25  49
BRANCH  37  60
ATOM     60  C   UNL A   1      44.444  27.368  34.082  1.00  0.00     0.023 A 
ATOM     61  C   UNL A   1      45.716  27.971  34.123  1.00  0.00     0.012 A 
ATOM     62  C   UNL A   1      44.210  26.184  34.810  1.00  0.00     0.148 A 
ATOM     63  C   UNL A   1      46.741  27.398  34.873  1.00  0.00     0.002 A 
ATOM     64  C   UNL A   1      45.219  25.652  35.599  1.00  0.00     0.091 A 
ATOM     65  F   UNL A   1      42.995  25.622  34.738  1.00  0.00    -0.205 F 
ATOM     66  C   UNL A   1      46.488  26.251  35.625  1.00  0.00     0.022 A 
BRANCH  64  67
ATOM     67  S   UNL A   1      44.949  24.251  36.690  1.00  0.00     0.127 S 
ATOM     68  O   UNL A   1      44.090  24.836  37.718  1.00  0.00    -0.237 OA
ATOM     69  O   UNL A   1      44.280  23.297  35.805  1.00  0.00    -0.237 OA
ATOM     70  O   UNL A   1      46.267  23.833  37.148  1.00  0.00    -0.744 OA
ENDBRANCH  64  67
ENDBRANCH  37  60
ENDBRANCH  11  12
ENDBRANCH   4   6
ENDBRANCH   3   4
ENDBRANCH   2   3
ENDBRANCH   1   2
BRANCH   1  71
ATOM     71  O   UNL A   1      32.779  30.049  27.196  1.00  0.00    -0.460 OA
BRANCH  71  72
ATOM     72  C   UNL A   1      32.031  28.901  27.173  1.00  0.00     0.335 C 
ATOM     73  O   UNL A   1      31.239  28.568  28.046  1.00  0.00    -0.249 OA
BRANCH  72  74
ATOM     74  C   UNL A   1      32.289  28.134  25.870  1.00  0.00     0.228 C 
ATOM     75  C   UNL A   1      33.617  27.414  25.840  1.00  0.00     0.047 C 
ATOM     76  O   UNL A   1      31.266  27.159  25.633  1.00  0.00    -0.362 OA
ATOM     77  C   UNL A   1      33.242  26.017  26.251  1.00  0.00     0.037 C 
ATOM     78  C   UNL A   1      31.852  25.845  25.655  1.00  0.00     0.134 C 
BRANCH  78  79
ATOM     79  C   UNL A   1      31.805  25.248  24.229  1.00  0.00     0.130 C 
BRANCH  79  80
ATOM     80  N   UNL A   1      30.874  26.013  23.368  1.00  0.00    -0.213 NA
ATOM     81  H   UNL A   1      30.364  26.660  23.971  1.00  0.00     0.141 HD
BRANCH  80  82
ATOM     82  S   UNL A   1      31.524  26.913  22.109  1.00  0.00     0.214 S 
ATOM     83  O   UNL A   1      32.846  27.330  22.523  1.00  0.00    -0.212 OA
ATOM     84  O   UNL A   1      31.317  26.142  20.905  1.00  0.00    -0.212 OA
BRANCH  82  85
ATOM     85  C   UNL A   1      30.535  28.373  21.976  1.00  0.00     0.185 C 
BRANCH  85  86
ATOM     86  C   UNL A   1      29.637  28.797  23.127  1.00  0.00     0.134 C 
ATOM     87  C   UNL A   1      29.755  30.143  23.825  1.00  0.00     0.035 C 
ATOM     88  O   UNL A   1      28.265  28.666  22.690  1.00  0.00    -0.377 OA
ATOM     89  C   UNL A   1      28.548  30.920  23.362  1.00  0.00     0.031 C 
ATOM     90  C   UNL A   1      27.542  29.849  23.021  1.00  0.00     0.160 C 
ENDBRANCH  85  86
ENDBRANCH  82  85
ENDBRANCH  80  82
ENDBRANCH  79  80
ENDBRANCH  78  79
ENDBRANCH  72  74
ENDBRANCH  71  72
ENDBRANCH   1  71
TORSDOF 19
ENDMDL
MODEL 3
REMARK VINA RESULT:     -10.5      5.348     10.937
REMARK SMILES O=C(OCCOC(=O)[C@H]1CC[C@H](CNS(=O)(=O)C[C@H]2CCCO2)O1)c1ccc(-c2c3nc(c(-c4cccc(S(=O)(=O)[O-])c4F)c4ccc([nH]4)c(-c4cccc(S(=O)(=O)[O-])c4F)c4nc(c(-c5cccc(S(=O)(=O)[O-])c5F)c5ccc2[nH]5)C=C4)C=C3)cc1
REMARK SMILES IDX 5 1 4 2 3 3 2 4 1 5 25 6 26 7 87 8 27 9 86 10 28 11 29 12
REMARK SMILES IDX 30 13 80 14 31 15 85 16 79 17 81 18 32 19 84 20 78 21 77 22
REMARK SMILES IDX 33 24 65 25 45 26 64 27 46 28 49 29 63 30 82 31 47 32 48 33
REMARK SMILES IDX 62 35 83 36 50 37 34 38 35 39 43 40 36 41 38 42 44 43 37 44
REMARK SMILES IDX 39 45 40 46 41 47 42 48 66 49 67 50 75 51 68 52 70 53 76 54
REMARK SMILES IDX 69 55 71 56 72 57 73 58 74 59 51 60 52 61 60 62 53 63 55 64
REMARK SMILES IDX 61 65 54 66 56 67 57 68 58 69 59 70 6 71 7 72 8 73 9 74
REMARK SMILES IDX 10 75 24 76 11 77 12 78 13 79 14 80 15 82 16 83 17 84 18 85
REMARK SMILES IDX 19 86 20 87 23 88 21 89 22 90
REMARK H PARENT 81 23 49 34 14 81
REMARK Flexibility Score: inf
ROOT
ATOM      1  C   UNL A   1      36.997  21.134  24.380  1.00  0.00     0.274 C 
ENDROOT
BRANCH   1   2
ATOM      2  C   UNL A   1      37.666  21.124  25.758  1.00  0.00     0.275 C 
BRANCH   2   3
ATOM      3  O   UNL A   1      39.084  20.881  25.706  1.00  0.00    -0.458 OA
BRANCH   3   4
ATOM      4  C   UNL A   1      40.047  21.242  26.592  1.00  0.00     0.338 C 
ATOM      5  O   UNL A   1      40.557  20.371  27.295  1.00  0.00    -0.246 OA
BRANCH   4   6
ATOM      6  C   UNL A   1      40.395  22.672  26.879  1.00  0.00     0.060 A 
ATOM      7  C   UNL A   1      39.920  23.788  26.184  1.00  0.00     0.016 A 
ATOM      8  C   UNL A   1      41.260  22.896  27.969  1.00  0.00     0.016 A 
ATOM      9  C   UNL A   1      40.206  25.088  26.612  1.00  0.00     0.010 A 
ATOM     10  C   UNL A   1      41.570  24.196  28.392  1.00  0.00     0.010 A 
ATOM     11  C   UNL A   1      41.031  25.297  27.715  1.00  0.00    -0.014 A 
BRANCH  11  12
ATOM     12  C   UNL A   1      41.479  26.669  28.026  1.00  0.00     0.031 A 
ATOM     13  C   UNL A   1      42.909  27.001  27.744  1.00  0.00     0.074 A 
ATOM     14  C   UNL A   1      40.637  27.592  28.522  1.00  0.00     0.049 A 
ATOM     15  N   UNL A   1      43.542  28.126  27.914  1.00  0.00    -0.248 NA
ATOM     16  C   UNL A   1      43.727  25.919  27.171  1.00  0.00     0.031 C 
ATOM     17  C   UNL A   1      39.214  27.386  28.766  1.00  0.00     0.029 A 
ATOM     18  N   UNL A   1      40.863  28.879  28.940  1.00  0.00    -0.354 N 
ATOM     19  C   UNL A   1      44.839  27.886  27.485  1.00  0.00     0.074 A 
ATOM     20  C   UNL A   1      44.907  26.506  27.063  1.00  0.00     0.031 C 
ATOM     21  C   UNL A   1      38.706  28.472  29.372  1.00  0.00     0.029 A 
ATOM     22  C   UNL A   1      39.772  29.455  29.551  1.00  0.00     0.049 A 
ATOM     23  H   UNL A   1      41.720  29.345  28.814  1.00  0.00     0.167 HD
ATOM     24  C   UNL A   1      45.880  28.745  27.442  1.00  0.00     0.034 A 
ATOM     25  C   UNL A   1      39.661  30.631  30.201  1.00  0.00     0.034 A 
ATOM     26  C   UNL A   1      45.802  30.099  27.907  1.00  0.00     0.049 A 
ATOM     27  C   UNL A   1      40.855  31.549  30.218  1.00  0.00     0.074 A 
ATOM     28  C   UNL A   1      46.786  31.068  27.904  1.00  0.00     0.029 A 
ATOM     29  N   UNL A   1      44.681  30.660  28.503  1.00  0.00    -0.354 N 
ATOM     30  N   UNL A   1      42.044  31.358  29.695  1.00  0.00    -0.248 NA
ATOM     31  C   UNL A   1      40.689  32.860  30.863  1.00  0.00     0.031 C 
ATOM     32  C   UNL A   1      46.273  32.200  28.545  1.00  0.00     0.029 A 
ATOM     33  C   UNL A   1      44.953  31.955  28.896  1.00  0.00     0.049 A 
ATOM     34  H   UNL A   1      43.818  30.202  28.627  1.00  0.00     0.167 HD
ATOM     35  C   UNL A   1      42.752  32.535  29.906  1.00  0.00     0.074 A 
ATOM     36  C   UNL A   1      41.857  33.437  30.605  1.00  0.00     0.031 C 
ATOM     37  C   UNL A   1      44.023  32.845  29.548  1.00  0.00     0.034 A 
BRANCH  24  38
ATOM     38  C   UNL A   1      47.177  28.205  26.912  1.00  0.00     0.023 A 
ATOM     39  C   UNL A   1      48.267  28.001  27.784  1.00  0.00     0.012 A 
ATOM     40  C   UNL A   1      47.335  27.957  25.537  1.00  0.00     0.148 A 
ATOM     41  C   UNL A   1      49.512  27.620  27.286  1.00  0.00     0.002 A 
ATOM     42  C   UNL A   1      48.564  27.528  25.055  1.00  0.00     0.091 A 
ATOM     43  F   UNL A   1      46.297  28.188  24.721  1.00  0.00    -0.205 F 
ATOM     44  C   UNL A   1      49.658  27.379  25.923  1.00  0.00     0.022 A 
BRANCH  42  45
ATOM     45  S   UNL A   1      48.831  27.126  23.327  1.00  0.00     0.127 S 
ATOM     46  O   UNL A   1      48.297  28.312  22.661  1.00  0.00    -0.237 OA
ATOM     47  O   UNL A   1      50.287  26.996  23.267  1.00  0.00    -0.237 OA
ATOM     48  O   UNL A   1      48.102  25.889  23.085  1.00  0.00    -0.744 OA
ENDBRANCH  42  45
ENDBRANCH  24  38
BRANCH  25  49
ATOM     49  C   UNL A   1      38.374  31.004  30.855  1.00  0.00     0.023 A 
ATOM     50  C   UNL A   1      38.153  30.696  32.211  1.00  0.00     0.012 A 
ATOM     51  C   UNL A   1      37.382  31.710  30.144  1.00  0.00     0.148 A 
ATOM     52  C   UNL A   1      36.958  31.059  32.838  1.00  0.00     0.002 A 
ATOM     53  C   UNL A   1      36.219  32.116  30.789  1.00  0.00     0.091 A 
ATOM     54  F   UNL A   1      37.606  31.988  28.852  1.00  0.00    -0.205 F 
ATOM     55  C   UNL A   1      35.997  31.776  32.131  1.00  0.00     0.022 A 
BRANCH  53  56
ATOM     56  S   UNL A   1      34.994  33.170  30.002  1.00  0.00     0.127 S 
ATOM     57  O   UNL A   1      35.836  34.145  29.316  1.00  0.00    -0.237 OA
ATOM     58  O   UNL A   1      34.305  32.221  29.126  1.00  0.00    -0.237 OA
ATOM     59  O   UNL A   1      34.168  33.685  31.084  1.00  0.00    -0.744 OA
ENDBRANCH  53  56
ENDBRANCH  25  49
BRANCH  37  60
ATOM     60  C   UNL A   1      44.523  34.231  29.846  1.00  0.00     0.023 A 
ATOM     61  C   UNL A   1      45.327  34.467  30.978  1.00  0.00     0.012 A 
ATOM     62  C   UNL A   1      44.317  35.265  28.910  1.00  0.00     0.148 A 
ATOM     63  C   UNL A   1      45.910  35.718  31.177  1.00  0.00     0.002 A 
ATOM     64  C   UNL A   1      44.948  36.487  29.086  1.00  0.00     0.091 A 
ATOM     65  F   UNL A   1      43.533  35.017  27.851  1.00  0.00    -0.205 F 
ATOM     66  C   UNL A   1      45.737  36.720  30.223  1.00  0.00     0.022 A 
BRANCH  64  67
ATOM     67  S   UNL A   1      44.878  37.791  27.853  1.00  0.00     0.127 S 
ATOM     68  O   UNL A   1      45.548  37.161  26.715  1.00  0.00    -0.237 OA
ATOM     69  O   UNL A   1      43.437  37.980  27.686  1.00  0.00    -0.237 OA
ATOM     70  O   UNL A   1      45.578  38.932  28.428  1.00  0.00    -0.744 OA
ENDBRANCH  64  67
ENDBRANCH  37  60
ENDBRANCH  11  12
ENDBRANCH   4   6
ENDBRANCH   3   4
ENDBRANCH   2   3
ENDBRANCH   1   2
BRANCH   1  71
ATOM     71  O   UNL A   1      35.763  21.865  24.381  1.00  0.00    -0.460 OA
BRANCH  71  72
ATOM     72  C   UNL A   1      35.644  22.852  23.439  1.00  0.00     0.335 C 
ATOM     73  O   UNL A   1      36.559  23.256  22.733  1.00  0.00    -0.249 OA
BRANCH  72  74
ATOM     74  C   UNL A   1      34.187  23.328  23.360  1.00  0.00     0.228 C 
ATOM     75  C   UNL A   1      33.729  24.090  24.581  1.00  0.00     0.047 C 
ATOM     76  O   UNL A   1      33.981  24.175  22.222  1.00  0.00    -0.362 OA
ATOM     77  C   UNL A   1      33.917  25.522  24.165  1.00  0.00     0.037 C 
ATOM     78  C   UNL A   1      33.610  25.490  22.675  1.00  0.00     0.134 C 
BRANCH  78  79
ATOM     79  C   UNL A   1      32.136  25.758  22.290  1.00  0.00     0.130 C 
BRANCH  79  80
ATOM     80  N   UNL A   1      31.890  27.209  22.125  1.00  0.00    -0.213 NA
ATOM     81  H   UNL A   1      31.538  27.352  21.178  1.00  0.00     0.141 HD
BRANCH  80  82
ATOM     82  S   UNL A   1      30.810  27.949  23.175  1.00  0.00     0.214 S 
ATOM     83  O   UNL A   1      29.584  27.181  23.137  1.00  0.00    -0.212 OA
ATOM     84  O   UNL A   1      31.526  28.169  24.410  1.00  0.00    -0.212 OA
BRANCH  82  85
ATOM     85  C   UNL A   1      30.451  29.537  22.485  1.00  0.00     0.185 C 
BRANCH  85  86
ATOM     86  C   UNL A   1      29.031  30.079  22.511  1.00  0.00     0.134 C 
ATOM     87  C   UNL A   1      28.659  31.416  23.135  1.00  0.00     0.035 C 
ATOM     88  O   UNL A   1      28.539  30.096  21.152  1.00  0.00    -0.377 OA
ATOM     89  C   UNL A   1      28.361  32.315  21.962  1.00  0.00     0.031 C 
ATOM     90  C   UNL A   1      27.937  31.359  20.875  1.00  0.00     0.160 C 
ENDBRANCH  85  86
ENDBRANCH  82  85
ENDBRANCH  80  82
ENDBRANCH  79  80
ENDBRANCH  78  79
ENDBRANCH  72  74
ENDBRANCH  71  72
ENDBRANCH   1  71
TORSDOF 19
ENDMDL
