MODEL 1
REMARK VINA RESULT:     -11.8      0.000      0.000
REMARK SMILES [NH3+]Cc1c(-c2ccccc2)c(C(=O)OCCOC(=O)c2ccc(-c3c4nc(c(-c5cccc(S(=O)(=O)[O-])c5F)c5ccc([nH]5)c(-c5cccc(S(=O)(=O)[O-])c5F)c5nc(c(-c6cccc(S(=O)(=O)[O-])c6F)c6ccc3[nH]6)C=C5)C=C4)cc2)c2ccccn12
REMARK SMILES IDX 16 1 15 2 14 3 12 4 13 5 11 6 3 7 4 8 88 9 83 10 87 11 84 12
REMARK SMILES IDX 86 13 85 14 2 15 1 16 5 20 6 21 10 22 7 23 9 24 8 25 17 26
REMARK SMILES IDX 18 27 19 28 20 29 21 30 82 31 22 32 81 33 23 34 24 35 25 36
REMARK SMILES IDX 75 37 26 38 80 39 74 40 76 41 27 42 79 43 73 44 72 45 28 47
REMARK SMILES IDX 60 48 40 49 59 50 41 51 44 52 58 53 77 54 42 55 43 56 57 58
REMARK SMILES IDX 78 59 45 60 29 61 30 62 38 63 31 64 33 65 39 66 32 67 34 68
REMARK SMILES IDX 35 69 36 70 37 71 61 72 62 73 70 74 63 75 65 76 71 77 64 78
REMARK SMILES IDX 66 79 67 80 68 81 69 82 46 83 47 84 55 85 48 86 50 87 56 88
REMARK SMILES IDX 49 89 51 90 52 91 53 92 54 93
REMARK H PARENT 1 17 1 18 1 19 76 46 44 57
REMARK Flexibility Score: inf
ROOT
ATOM      1  C   UNL A   1      35.403  20.893  25.019  1.00  0.00     0.275 C 
ENDROOT
BRANCH   1   2
ATOM      2  C   UNL A   1      35.152  22.208  24.292  1.00  0.00     0.275 C 
BRANCH   2   3
ATOM      3  O   UNL A   1      34.903  23.252  25.256  1.00  0.00    -0.458 OA
BRANCH   3   4
ATOM      4  C   UNL A   1      34.376  24.409  24.755  1.00  0.00     0.341 C 
ATOM      5  O   UNL A   1      34.904  25.074  23.872  1.00  0.00    -0.246 OA
BRANCH   4   6
ATOM      6  C   UNL A   1      33.186  24.856  25.468  1.00  0.00     0.093 A 
ATOM      7  C   UNL A   1      30.993  25.281  25.945  1.00  0.00     0.086 A 
ATOM      8  C   UNL A   1      31.870  24.252  25.581  1.00  0.00     0.024 A 
ATOM      9  N   UNL A   1      31.772  26.406  26.256  1.00  0.00    -0.314 N 
ATOM     10  C   UNL A   1      33.105  26.124  26.001  1.00  0.00     0.061 A 
ATOM     11  C   UNL A   1      31.366  27.692  26.654  1.00  0.00     0.092 A 
ATOM     12  C   UNL A   1      34.068  27.167  26.165  1.00  0.00     0.027 A 
ATOM     13  C   UNL A   1      32.271  28.678  26.788  1.00  0.00     0.018 A 
ATOM     14  C   UNL A   1      33.670  28.394  26.537  1.00  0.00     0.004 A 
BRANCH   7  15
ATOM     15  C   UNL A   1      29.500  25.409  25.990  1.00  0.00     0.315 C 
BRANCH  15  16
ATOM     16  N   UNL A   1      28.891  25.884  24.766  1.00  0.00    -0.353 N 
ATOM     17  H   UNL A   1      27.897  25.656  24.769  1.00  0.00     0.344 HD
ATOM     18  H   UNL A   1      29.339  25.436  23.966  1.00  0.00     0.344 HD
ATOM     19  H   UNL A   1      29.008  26.895  24.697  1.00  0.00     0.344 HD
ENDBRANCH  15  16
ENDBRANCH   7  15
BRANCH   8  20
ATOM     20  C   UNL A   1      31.494  22.963  24.970  1.00  0.00    -0.015 A 
ATOM     21  C   UNL A   1      31.795  21.358  25.768  1.00  0.00     0.009 A 
ATOM     22  C   UNL A   1      31.534  23.025  23.205  1.00  0.00     0.009 A 
ATOM     23  C   UNL A   1      32.251  19.788  24.569  1.00  0.00     0.001 A 
ATOM     24  C   UNL A   1      31.911  21.636  22.176  1.00  0.00     0.001 A 
ATOM     25  C   UNL A   1      32.292  20.043  22.795  1.00  0.00     0.000 A 
ENDBRANCH   8  20
ENDBRANCH   4   6
ENDBRANCH   3   4
ENDBRANCH   2   3
ENDBRANCH   1   2
BRANCH   1  26
ATOM     26  O   UNL A   1      36.492  21.092  25.934  1.00  0.00    -0.458 OA
BRANCH  26  27
ATOM     27  C   UNL A   1      37.701  20.856  25.391  1.00  0.00     0.338 C 
ATOM     28  O   UNL A   1      38.001  19.994  24.580  1.00  0.00    -0.246 OA
BRANCH  27  29
ATOM     29  C   UNL A   1      38.667  21.848  25.838  1.00  0.00     0.060 A 
ATOM     30  C   UNL A   1      40.081  21.415  26.860  1.00  0.00     0.016 A 
ATOM     31  C   UNL A   1      38.144  23.518  25.799  1.00  0.00     0.016 A 
ATOM     32  C   UNL A   1      40.953  22.888  27.943  1.00  0.00     0.010 A 
ATOM     33  C   UNL A   1      38.951  24.811  26.698  1.00  0.00     0.010 A 
ATOM     34  C   UNL A   1      40.343  24.583  27.768  1.00  0.00    -0.014 A 
BRANCH  34  35
ATOM     35  C   UNL A   1      41.139  25.818  28.196  1.00  0.00     0.031 A 
ATOM     36  C   UNL A   1      40.477  26.973  28.947  1.00  0.00     0.074 A 
ATOM     37  C   UNL A   1      42.404  26.031  27.752  1.00  0.00     0.049 A 
ATOM     38  N   UNL A   1      40.908  28.201  29.138  1.00  0.00    -0.248 NA
ATOM     39  C   UNL A   1      39.139  26.744  29.510  1.00  0.00     0.031 C 
ATOM     40  C   UNL A   1      43.187  25.124  26.931  1.00  0.00     0.029 A 
ATOM     41  N   UNL A   1      43.262  27.111  27.882  1.00  0.00    -0.354 N 
ATOM     42  C   UNL A   1      39.867  28.899  29.750  1.00  0.00     0.074 A 
ATOM     43  C   UNL A   1      38.763  27.969  29.854  1.00  0.00     0.031 C 
ATOM     44  C   UNL A   1      44.383  25.630  26.643  1.00  0.00     0.029 A 
ATOM     45  C   UNL A   1      44.456  26.960  27.198  1.00  0.00     0.049 A 
ATOM     46  H   UNL A   1      43.044  27.911  28.411  1.00  0.00     0.167 HD
ATOM     47  C   UNL A   1      39.837  30.173  30.227  1.00  0.00     0.034 A 
ATOM     48  C   UNL A   1      45.512  27.767  26.984  1.00  0.00     0.034 A 
ATOM     49  C   UNL A   1      40.980  31.051  30.251  1.00  0.00     0.049 A 
ATOM     50  C   UNL A   1      45.511  29.111  27.623  1.00  0.00     0.074 A 
ATOM     51  C   UNL A   1      41.101  32.295  30.851  1.00  0.00     0.029 A 
ATOM     52  N   UNL A   1      42.209  30.774  29.671  1.00  0.00    -0.354 N 
ATOM     53  N   UNL A   1      44.547  29.691  28.291  1.00  0.00    -0.248 NA
ATOM     54  C   UNL A   1      46.751  29.891  27.533  1.00  0.00     0.031 C 
ATOM     55  C   UNL A   1      42.397  32.772  30.624  1.00  0.00     0.029 A 
ATOM     56  C   UNL A   1      43.094  31.816  29.904  1.00  0.00     0.049 A 
ATOM     57  H   UNL A   1      42.422  29.956  29.166  1.00  0.00     0.167 HD
ATOM     58  C   UNL A   1      45.073  30.888  28.740  1.00  0.00     0.074 A 
ATOM     59  C   UNL A   1      46.446  30.944  28.278  1.00  0.00     0.031 C 
ATOM     60  C   UNL A   1      44.465  31.853  29.469  1.00  0.00     0.034 A 
BRANCH  47  61
ATOM     61  C   UNL A   1      38.547  30.679  30.850  1.00  0.00     0.023 A 
ATOM     62  C   UNL A   1      38.333  30.531  32.237  1.00  0.00     0.012 A 
ATOM     63  C   UNL A   1      37.577  31.363  30.083  1.00  0.00     0.148 A 
ATOM     64  C   UNL A   1      37.157  30.988  32.836  1.00  0.00     0.002 A 
ATOM     65  C   UNL A   1      36.430  31.861  30.697  1.00  0.00     0.091 A 
ATOM     66  F   UNL A   1      37.790  31.511  28.768  1.00  0.00    -0.205 F 
ATOM     67  C   UNL A   1      36.210  31.658  32.068  1.00  0.00     0.022 A 
BRANCH  65  68
ATOM     68  S   UNL A   1      35.183  32.818  29.820  1.00  0.00     0.127 S 
ATOM     69  O   UNL A   1      35.980  33.921  29.285  1.00  0.00    -0.237 OA
ATOM     70  O   UNL A   1      34.715  31.864  28.814  1.00  0.00    -0.237 OA
ATOM     71  O   UNL A   1      34.188  33.192  30.814  1.00  0.00    -0.744 OA
ENDBRANCH  65  68
ENDBRANCH  47  61
BRANCH  48  72
ATOM     72  C   UNL A   1      46.690  27.251  26.220  1.00  0.00     0.023 A 
ATOM     73  C   UNL A   1      46.803  27.556  24.851  1.00  0.00     0.012 A 
ATOM     74  C   UNL A   1      47.753  26.581  26.862  1.00  0.00     0.148 A 
ATOM     75  C   UNL A   1      47.939  27.189  24.129  1.00  0.00     0.002 A 
ATOM     76  C   UNL A   1      48.908  26.271  26.150  1.00  0.00     0.091 A 
ATOM     77  F   UNL A   1      47.634  26.305  28.168  1.00  0.00    -0.205 F 
ATOM     78  C   UNL A   1      48.997  26.560  24.780  1.00  0.00     0.022 A 
BRANCH  76  79
ATOM     79  S   UNL A   1      50.381  25.613  26.946  1.00  0.00     0.127 S 
ATOM     80  O   UNL A   1      50.687  26.657  27.919  1.00  0.00    -0.237 OA
ATOM     81  O   UNL A   1      49.886  24.361  27.522  1.00  0.00    -0.237 OA
ATOM     82  O   UNL A   1      51.353  25.431  25.877  1.00  0.00    -0.744 OA
ENDBRANCH  76  79
ENDBRANCH  48  72
BRANCH  60  83
ATOM     83  C   UNL A   1      45.301  33.040  29.846  1.00  0.00     0.023 A 
ATOM     84  C   UNL A   1      46.048  33.025  31.041  1.00  0.00     0.012 A 
ATOM     85  C   UNL A   1      45.362  34.162  29.000  1.00  0.00     0.148 A 
ATOM     86  C   UNL A   1      46.817  34.128  31.405  1.00  0.00     0.002 A 
ATOM     87  C   UNL A   1      46.171  35.236  29.345  1.00  0.00     0.091 A 
ATOM     88  F   UNL A   1      44.617  34.165  27.885  1.00  0.00    -0.205 F 
ATOM     89  C   UNL A   1      46.887  35.228  30.552  1.00  0.00     0.022 A 
BRANCH  87  90
ATOM     90  S   UNL A   1      46.393  36.653  28.266  1.00  0.00     0.127 S 
ATOM     91  O   UNL A   1      47.356  37.454  29.020  1.00  0.00    -0.237 OA
ATOM     92  O   UNL A   1      46.930  36.035  27.054  1.00  0.00    -0.237 OA
ATOM     93  O   UNL A   1      45.074  37.251  28.106  1.00  0.00    -0.744 OA
ENDBRANCH  87  90
ENDBRANCH  60  83
ENDBRANCH  34  35
ENDBRANCH  27  29
ENDBRANCH  26  27
ENDBRANCH   1  26
TORSDOF 17
ENDMDL
MODEL 2
REMARK VINA RESULT:     -11.7      5.304      7.891
REMARK SMILES [NH3+]Cc1c(-c2ccccc2)c(C(=O)OCCOC(=O)c2ccc(-c3c4nc(c(-c5cccc(S(=O)(=O)[O-])c5F)c5ccc([nH]5)c(-c5cccc(S(=O)(=O)[O-])c5F)c5nc(c(-c6cccc(S(=O)(=O)[O-])c6F)c6ccc3[nH]6)C=C5)C=C4)cc2)c2ccccn12
REMARK SMILES IDX 16 1 15 2 14 3 12 4 13 5 11 6 3 7 4 8 88 9 83 10 87 11 84 12
REMARK SMILES IDX 86 13 85 14 2 15 1 16 5 20 6 21 10 22 7 23 9 24 8 25 17 26
REMARK SMILES IDX 18 27 19 28 20 29 21 30 82 31 22 32 81 33 23 34 24 35 25 36
REMARK SMILES IDX 75 37 26 38 80 39 74 40 76 41 27 42 79 43 73 44 72 45 28 47
REMARK SMILES IDX 60 48 40 49 59 50 41 51 44 52 58 53 77 54 42 55 43 56 57 58
REMARK SMILES IDX 78 59 45 60 29 61 30 62 38 63 31 64 33 65 39 66 32 67 34 68
REMARK SMILES IDX 35 69 36 70 37 71 61 72 62 73 70 74 63 75 65 76 71 77 64 78
REMARK SMILES IDX 66 79 67 80 68 81 69 82 46 83 47 84 55 85 48 86 50 87 56 88
REMARK SMILES IDX 49 89 51 90 52 91 53 92 54 93
REMARK H PARENT 1 17 1 18 1 19 76 46 44 57
REMARK Flexibility Score: inf
ROOT
ATOM      1  C   UNL A   1      31.319  31.393  26.276  1.00  0.00     0.275 C 
ENDROOT
BRANCH   1   2
ATOM      2  C   UNL A   1      31.241  30.223  25.303  1.00  0.00     0.275 C 
BRANCH   2   3
ATOM      3  O   UNL A   1      32.111  29.164  25.754  1.00  0.00    -0.458 OA
BRANCH   3   4
ATOM      4  C   UNL A   1      31.634  27.894  25.589  1.00  0.00     0.341 C 
ATOM      5  O   UNL A   1      30.894  27.332  26.388  1.00  0.00    -0.246 OA
BRANCH   4   6
ATOM      6  C   UNL A   1      32.200  27.212  24.432  1.00  0.00     0.093 A 
ATOM      7  C   UNL A   1      32.337  26.013  22.493  1.00  0.00     0.086 A 
ATOM      8  C   UNL A   1      31.740  27.147  23.056  1.00  0.00     0.024 A 
ATOM      9  N   UNL A   1      33.288  25.539  23.410  1.00  0.00    -0.314 N 
ATOM     10  C   UNL A   1      33.223  26.299  24.568  1.00  0.00     0.061 A 
ATOM     11  C   UNL A   1      34.134  24.420  23.325  1.00  0.00     0.092 A 
ATOM     12  C   UNL A   1      34.047  25.930  25.675  1.00  0.00     0.027 A 
ATOM     13  C   UNL A   1      34.894  24.061  24.374  1.00  0.00     0.018 A 
ATOM     14  C   UNL A   1      34.846  24.854  25.587  1.00  0.00     0.004 A 
BRANCH   7  15
ATOM     15  C   UNL A   1      32.116  25.239  21.228  1.00  0.00     0.315 C 
BRANCH  15  16
ATOM     16  N   UNL A   1      32.568  25.899  20.022  1.00  0.00    -0.353 N 
ATOM     17  H   UNL A   1      33.461  26.357  20.199  1.00  0.00     0.344 HD
ATOM     18  H   UNL A   1      31.880  26.596  19.737  1.00  0.00     0.344 HD
ATOM     19  H   UNL A   1      32.680  25.209  19.278  1.00  0.00     0.344 HD
ENDBRANCH  15  16
ENDBRANCH   7  15
BRANCH   8  20
ATOM     20  C   UNL A   1      30.541  27.842  22.548  1.00  0.00    -0.015 A 
ATOM     21  C   UNL A   1      30.558  29.569  21.983  1.00  0.00     0.009 A 
ATOM     22  C   UNL A   1      29.055  27.230  23.281  1.00  0.00     0.009 A 
ATOM     23  C   UNL A   1      28.901  30.684  22.330  1.00  0.00     0.001 A 
ATOM     24  C   UNL A   1      27.610  28.214  23.553  1.00  0.00     0.001 A 
ATOM     25  C   UNL A   1      27.495  29.909  23.129  1.00  0.00     0.000 A 
ENDBRANCH   8  20
ENDBRANCH   4   6
ENDBRANCH   3   4
ENDBRANCH   2   3
ENDBRANCH   1   2
BRANCH   1  26
ATOM     26  O   UNL A   1      32.675  31.865  26.296  1.00  0.00    -0.458 OA
BRANCH  26  27
ATOM     27  C   UNL A   1      32.923  32.751  27.278  1.00  0.00     0.338 C 
ATOM     28  O   UNL A   1      32.277  33.746  27.568  1.00  0.00    -0.246 OA
BRANCH  27  29
ATOM     29  C   UNL A   1      34.072  32.335  28.067  1.00  0.00     0.060 A 
ATOM     30  C   UNL A   1      35.500  33.399  28.315  1.00  0.00     0.016 A 
ATOM     31  C   UNL A   1      34.259  30.614  28.325  1.00  0.00     0.016 A 
ATOM     32  C   UNL A   1      37.252  32.527  28.834  1.00  0.00     0.010 A 
ATOM     33  C   UNL A   1      35.777  29.867  28.842  1.00  0.00     0.010 A 
ATOM     34  C   UNL A   1      37.292  30.740  29.120  1.00  0.00    -0.014 A 
BRANCH  34  35
ATOM     35  C   UNL A   1      38.408  30.030  29.887  1.00  0.00     0.031 A 
ATOM     36  C   UNL A   1      38.789  30.444  31.308  1.00  0.00     0.074 A 
ATOM     37  C   UNL A   1      39.238  29.148  29.272  1.00  0.00     0.049 A 
ATOM     38  N   UNL A   1      39.871  30.161  32.000  1.00  0.00    -0.248 NA
ATOM     39  C   UNL A   1      37.868  31.334  32.030  1.00  0.00     0.031 C 
ATOM     40  C   UNL A   1      39.136  28.695  27.896  1.00  0.00     0.029 A 
ATOM     41  N   UNL A   1      40.380  28.494  29.703  1.00  0.00    -0.354 N 
ATOM     42  C   UNL A   1      39.799  30.905  33.178  1.00  0.00     0.074 A 
ATOM     43  C   UNL A   1      38.588  31.691  33.085  1.00  0.00     0.031 C 
ATOM     44  C   UNL A   1      40.113  27.847  27.584  1.00  0.00     0.029 A 
ATOM     45  C   UNL A   1      40.989  27.730  28.724  1.00  0.00     0.049 A 
ATOM     46  H   UNL A   1      40.727  28.566  30.622  1.00  0.00     0.167 HD
ATOM     47  C   UNL A   1      40.626  30.905  34.258  1.00  0.00     0.034 A 
ATOM     48  C   UNL A   1      42.130  27.017  28.678  1.00  0.00     0.034 A 
ATOM     49  C   UNL A   1      41.753  30.018  34.409  1.00  0.00     0.049 A 
ATOM     50  C   UNL A   1      42.955  26.928  29.914  1.00  0.00     0.074 A 
ATOM     51  C   UNL A   1      42.556  29.825  35.522  1.00  0.00     0.029 A 
ATOM     52  N   UNL A   1      42.225  29.156  33.430  1.00  0.00    -0.354 N 
ATOM     53  N   UNL A   1      42.789  27.562  31.046  1.00  0.00    -0.248 NA
ATOM     54  C   UNL A   1      44.086  25.994  29.893  1.00  0.00     0.031 C 
ATOM     55  C   UNL A   1      43.519  28.858  35.212  1.00  0.00     0.029 A 
ATOM     56  C   UNL A   1      43.302  28.428  33.914  1.00  0.00     0.049 A 
ATOM     57  H   UNL A   1      41.851  29.076  32.523  1.00  0.00     0.167 HD
ATOM     58  C   UNL A   1      43.768  27.073  31.893  1.00  0.00     0.074 A 
ATOM     59  C   UNL A   1      44.515  26.081  31.145  1.00  0.00     0.031 C 
ATOM     60  C   UNL A   1      44.020  27.423  33.176  1.00  0.00     0.034 A 
BRANCH  47  61
ATOM     61  C   UNL A   1      40.301  31.834  35.415  1.00  0.00     0.023 A 
ATOM     62  C   UNL A   1      41.069  33.001  35.613  1.00  0.00     0.012 A 
ATOM     63  C   UNL A   1      39.196  31.597  36.262  1.00  0.00     0.148 A 
ATOM     64  C   UNL A   1      40.792  33.874  36.667  1.00  0.00     0.002 A 
ATOM     65  C   UNL A   1      38.895  32.499  37.281  1.00  0.00     0.091 A 
ATOM     66  F   UNL A   1      38.463  30.493  36.063  1.00  0.00    -0.205 F 
ATOM     67  C   UNL A   1      39.702  33.627  37.496  1.00  0.00     0.022 A 
BRANCH  65  68
ATOM     68  S   UNL A   1      37.461  32.326  38.354  1.00  0.00     0.127 S 
ATOM     69  O   UNL A   1      37.893  33.056  39.545  1.00  0.00    -0.237 OA
ATOM     70  O   UNL A   1      36.414  32.994  37.580  1.00  0.00    -0.237 OA
ATOM     71  O   UNL A   1      37.263  30.895  38.537  1.00  0.00    -0.744 OA
ENDBRANCH  65  68
ENDBRANCH  47  61
BRANCH  48  72
ATOM     72  C   UNL A   1      42.468  26.248  27.440  1.00  0.00     0.023 A 
ATOM     73  C   UNL A   1      43.298  26.844  26.471  1.00  0.00     0.012 A 
ATOM     74  C   UNL A   1      42.089  24.898  27.280  1.00  0.00     0.148 A 
ATOM     75  C   UNL A   1      43.727  26.122  25.357  1.00  0.00     0.002 A 
ATOM     76  C   UNL A   1      42.569  24.167  26.197  1.00  0.00     0.091 A 
ATOM     77  F   UNL A   1      41.306  24.342  28.215  1.00  0.00    -0.205 F 
ATOM     78  C   UNL A   1      43.375  24.781  25.227  1.00  0.00     0.022 A 
BRANCH  76  79
ATOM     79  S   UNL A   1      42.304  22.395  26.040  1.00  0.00     0.127 S 
ATOM     80  O   UNL A   1      43.040  22.090  24.816  1.00  0.00    -0.237 OA
ATOM     81  O   UNL A   1      42.914  21.883  27.268  1.00  0.00    -0.237 OA
ATOM     82  O   UNL A   1      40.860  22.221  25.977  1.00  0.00    -0.744 OA
ENDBRANCH  76  79
ENDBRANCH  48  72
BRANCH  60  83
ATOM     83  C   UNL A   1      45.135  26.692  33.866  1.00  0.00     0.023 A 
ATOM     84  C   UNL A   1      46.449  27.195  33.809  1.00  0.00     0.012 A 
ATOM     85  C   UNL A   1      44.869  25.515  34.590  1.00  0.00     0.148 A 
ATOM     86  C   UNL A   1      47.491  26.516  34.436  1.00  0.00     0.002 A 
ATOM     87  C   UNL A   1      45.904  24.873  35.255  1.00  0.00     0.091 A 
ATOM     88  F   UNL A   1      43.615  25.040  34.602  1.00  0.00    -0.205 F 
ATOM     89  C   UNL A   1      47.217  25.363  35.167  1.00  0.00     0.022 A 
BRANCH  87  90
ATOM     90  S   UNL A   1      45.629  23.436  36.294  1.00  0.00     0.127 S 
ATOM     91  O   UNL A   1      44.988  24.033  37.465  1.00  0.00    -0.237 OA
ATOM     92  O   UNL A   1      44.744  22.620  35.463  1.00  0.00    -0.237 OA
ATOM     93  O   UNL A   1      46.943  22.852  36.532  1.00  0.00    -0.744 OA
ENDBRANCH  87  90
ENDBRANCH  60  83
ENDBRANCH  34  35
ENDBRANCH  27  29
ENDBRANCH  26  27
ENDBRANCH   1  26
TORSDOF 17
ENDMDL
MODEL 3
REMARK VINA RESULT:     -11.6      4.778      9.689
REMARK SMILES [NH3+]Cc1c(-c2ccccc2)c(C(=O)OCCOC(=O)c2ccc(-c3c4nc(c(-c5cccc(S(=O)(=O)[O-])c5F)c5ccc([nH]5)c(-c5cccc(S(=O)(=O)[O-])c5F)c5nc(c(-c6cccc(S(=O)(=O)[O-])c6F)c6ccc3[nH]6)C=C5)C=C4)cc2)c2ccccn12
REMARK SMILES IDX 16 1 15 2 14 3 12 4 13 5 11 6 3 7 4 8 88 9 83 10 87 11 84 12
REMARK SMILES IDX 86 13 85 14 2 15 1 16 5 20 6 21 10 22 7 23 9 24 8 25 17 26
REMARK SMILES IDX 18 27 19 28 20 29 21 30 82 31 22 32 81 33 23 34 24 35 25 36
REMARK SMILES IDX 75 37 26 38 80 39 74 40 76 41 27 42 79 43 73 44 72 45 28 47
REMARK SMILES IDX 60 48 40 49 59 50 41 51 44 52 58 53 77 54 42 55 43 56 57 58
REMARK SMILES IDX 78 59 45 60 29 61 30 62 38 63 31 64 33 65 39 66 32 67 34 68
REMARK SMILES IDX 35 69 36 70 37 71 61 72 62 73 70 74 63 75 65 76 71 77 64 78
REMARK SMILES IDX 66 79 67 80 68 81 69 82 46 83 47 84 55 85 48 86 50 87 56 88
REMARK SMILES IDX 49 89 51 90 52 91 53 92 54 93
REMARK H PARENT 1 17 1 18 1 19 76 46 44 57
REMARK Flexibility Score: inf
ROOT
ATOM      1  C   UNL A   1      31.780  29.007  25.788  1.00  0.00     0.275 C 
ENDROOT
BRANCH   1   2
ATOM      2  C   UNL A   1      32.642  27.875  25.243  1.00  0.00     0.275 C 
BRANCH   2   3
ATOM      3  O   UNL A   1      32.882  26.907  26.285  1.00  0.00    -0.458 OA
BRANCH   3   4
ATOM      4  C   UNL A   1      32.263  25.699  26.128  1.00  0.00     0.341 C 
ATOM      5  O   UNL A   1      31.384  25.279  26.872  1.00  0.00    -0.246 OA
BRANCH   4   6
ATOM      6  C   UNL A   1      32.843  24.888  25.065  1.00  0.00     0.093 A 
ATOM      7  C   UNL A   1      33.006  23.570  23.207  1.00  0.00     0.086 A 
ATOM      8  C   UNL A   1      32.505  24.798  23.656  1.00  0.00     0.024 A 
ATOM      9  N   UNL A   1      33.803  23.041  24.234  1.00  0.00    -0.314 N 
ATOM     10  C   UNL A   1      33.729  23.870  25.343  1.00  0.00     0.061 A 
ATOM     11  C   UNL A   1      34.509  21.826  24.284  1.00  0.00     0.092 A 
ATOM     12  C   UNL A   1      34.397  23.471  26.541  1.00  0.00     0.027 A 
ATOM     13  C   UNL A   1      35.120  21.442  25.418  1.00  0.00     0.018 A 
ATOM     14  C   UNL A   1      35.060  22.305  26.581  1.00  0.00     0.004 A 
BRANCH   7  15
ATOM     15  C   UNL A   1      32.806  22.755  21.965  1.00  0.00     0.315 C 
BRANCH  15  16
ATOM     16  N   UNL A   1      31.787  21.733  22.063  1.00  0.00    -0.353 N 
ATOM     17  H   UNL A   1      30.873  22.172  22.178  1.00  0.00     0.344 HD
ATOM     18  H   UNL A   1      31.980  21.136  22.868  1.00  0.00     0.344 HD
ATOM     19  H   UNL A   1      31.788  21.167  21.214  1.00  0.00     0.344 HD
ENDBRANCH  15  16
ENDBRANCH   7  15
BRANCH   8  20
ATOM     20  C   UNL A   1      31.452  25.599  23.002  1.00  0.00    -0.015 A 
ATOM     21  C   UNL A   1      31.785  27.169  22.148  1.00  0.00     0.009 A 
ATOM     22  C   UNL A   1      29.882  25.405  23.785  1.00  0.00     0.009 A 
ATOM     23  C   UNL A   1      30.361  28.609  22.250  1.00  0.00     0.001 A 
ATOM     24  C   UNL A   1      28.643  26.667  23.842  1.00  0.00     0.001 A 
ATOM     25  C   UNL A   1      28.840  28.254  23.130  1.00  0.00     0.000 A 
ENDBRANCH   8  20
ENDBRANCH   4   6
ENDBRANCH   3   4
ENDBRANCH   2   3
ENDBRANCH   1   2
BRANCH   1  26
ATOM     26  O   UNL A   1      32.505  30.235  25.623  1.00  0.00    -0.458 OA
BRANCH  26  27
ATOM     27  C   UNL A   1      32.369  31.085  26.658  1.00  0.00     0.338 C 
ATOM     28  O   UNL A   1      31.388  31.747  26.958  1.00  0.00    -0.246 OA
BRANCH  27  29
ATOM     29  C   UNL A   1      33.562  31.076  27.490  1.00  0.00     0.060 A 
ATOM     30  C   UNL A   1      34.529  32.561  27.794  1.00  0.00     0.016 A 
ATOM     31  C   UNL A   1      34.319  29.519  27.752  1.00  0.00     0.016 A 
ATOM     32  C   UNL A   1      36.454  32.335  28.378  1.00  0.00     0.010 A 
ATOM     33  C   UNL A   1      35.982  29.330  28.325  1.00  0.00     0.010 A 
ATOM     34  C   UNL A   1      37.095  30.665  28.662  1.00  0.00    -0.014 A 
BRANCH  34  35
ATOM     35  C   UNL A   1      38.359  30.370  29.470  1.00  0.00     0.031 A 
ATOM     36  C   UNL A   1      39.409  29.377  28.973  1.00  0.00     0.074 A 
ATOM     37  C   UNL A   1      38.504  30.814  30.745  1.00  0.00     0.049 A 
ATOM     38  N   UNL A   1      40.385  28.792  29.634  1.00  0.00    -0.248 NA
ATOM     39  C   UNL A   1      39.327  28.939  27.572  1.00  0.00     0.031 C 
ATOM     40  C   UNL A   1      37.576  31.674  31.461  1.00  0.00     0.029 A 
ATOM     41  N   UNL A   1      39.469  30.571  31.708  1.00  0.00    -0.354 N 
ATOM     42  C   UNL A   1      40.957  27.864  28.763  1.00  0.00     0.074 A 
ATOM     43  C   UNL A   1      40.187  27.929  27.540  1.00  0.00     0.031 C 
ATOM     44  C   UNL A   1      37.989  31.914  32.703  1.00  0.00     0.029 A 
ATOM     45  C   UNL A   1      39.199  31.162  32.930  1.00  0.00     0.049 A 
ATOM     46  H   UNL A   1      40.272  30.028  31.540  1.00  0.00     0.167 HD
ATOM     47  C   UNL A   1      42.047  27.067  28.935  1.00  0.00     0.034 A 
ATOM     48  C   UNL A   1      39.801  31.123  34.133  1.00  0.00     0.034 A 
ATOM     49  C   UNL A   1      42.897  27.106  30.100  1.00  0.00     0.049 A 
ATOM     50  C   UNL A   1      41.063  30.345  34.264  1.00  0.00     0.074 A 
ATOM     51  C   UNL A   1      44.106  26.461  30.307  1.00  0.00     0.029 A 
ATOM     52  N   UNL A   1      42.644  27.846  31.245  1.00  0.00    -0.354 N 
ATOM     53  N   UNL A   1      41.632  29.569  33.378  1.00  0.00    -0.248 NA
ATOM     54  C   UNL A   1      41.796  30.475  35.528  1.00  0.00     0.031 C 
ATOM     55  C   UNL A   1      44.577  26.801  31.580  1.00  0.00     0.029 A 
ATOM     56  C   UNL A   1      43.675  27.679  32.158  1.00  0.00     0.049 A 
ATOM     57  H   UNL A   1      41.848  28.406  31.390  1.00  0.00     0.167 HD
ATOM     58  C   UNL A   1      42.815  29.148  33.958  1.00  0.00     0.074 A 
ATOM     59  C   UNL A   1      42.887  29.767  35.267  1.00  0.00     0.031 C 
ATOM     60  C   UNL A   1      43.754  28.320  33.444  1.00  0.00     0.034 A 
BRANCH  47  61
ATOM     61  C   UNL A   1      42.446  26.138  27.802  1.00  0.00     0.023 A 
ATOM     62  C   UNL A   1      43.402  26.559  26.854  1.00  0.00     0.012 A 
ATOM     63  C   UNL A   1      41.933  24.825  27.711  1.00  0.00     0.148 A 
ATOM     64  C   UNL A   1      43.789  25.725  25.803  1.00  0.00     0.002 A 
ATOM     65  C   UNL A   1      42.362  23.980  26.689  1.00  0.00     0.091 A 
ATOM     66  F   UNL A   1      41.034  24.425  28.621  1.00  0.00    -0.205 F 
ATOM     67  C   UNL A   1      43.275  24.435  25.724  1.00  0.00     0.022 A 
BRANCH  65  68
ATOM     68  S   UNL A   1      41.831  22.266  26.543  1.00  0.00     0.127 S 
ATOM     69  O   UNL A   1      42.261  21.714  27.826  1.00  0.00    -0.237 OA
ATOM     70  O   UNL A   1      40.382  22.405  26.398  1.00  0.00    -0.237 OA
ATOM     71  O   UNL A   1      42.512  21.731  25.373  1.00  0.00    -0.744 OA
ENDBRANCH  65  68
ENDBRANCH  47  61
BRANCH  48  72
ATOM     72  C   UNL A   1      39.256  31.947  35.256  1.00  0.00     0.023 A 
ATOM     73  C   UNL A   1      38.367  31.352  36.172  1.00  0.00     0.012 A 
ATOM     74  C   UNL A   1      39.709  33.261  35.498  1.00  0.00     0.148 A 
ATOM     75  C   UNL A   1      37.923  32.052  37.294  1.00  0.00     0.002 A 
ATOM     76  C   UNL A   1      39.309  33.932  36.650  1.00  0.00     0.091 A 
ATOM     77  F   UNL A   1      40.562  33.811  34.623  1.00  0.00    -0.205 F 
ATOM     78  C   UNL A   1      38.404  33.335  37.542  1.00  0.00     0.022 A 
BRANCH  76  79
ATOM     79  S   UNL A   1      40.008  35.518  37.133  1.00  0.00     0.127 S 
ATOM     80  O   UNL A   1      39.366  35.747  38.424  1.00  0.00    -0.237 OA
ATOM     81  O   UNL A   1      41.439  35.214  37.203  1.00  0.00    -0.237 OA
ATOM     82  O   UNL A   1      39.648  36.442  36.067  1.00  0.00    -0.744 OA
ENDBRANCH  76  79
ENDBRANCH  48  72
BRANCH  60  83
ATOM     83  C   UNL A   1      44.965  28.066  34.294  1.00  0.00     0.023 A 
ATOM     84  C   UNL A   1      46.085  28.915  34.196  1.00  0.00     0.012 A 
ATOM     85  C   UNL A   1      44.980  26.994  35.205  1.00  0.00     0.148 A 
ATOM     86  C   UNL A   1      47.218  28.679  34.972  1.00  0.00     0.002 A 
ATOM     87  C   UNL A   1      46.093  26.797  36.011  1.00  0.00     0.091 A 
ATOM     88  F   UNL A   1      43.915  26.182  35.256  1.00  0.00    -0.205 F 
ATOM     89  C   UNL A   1      47.217  27.628  35.886  1.00  0.00     0.022 A 
BRANCH  87  90
ATOM     90  S   UNL A   1      46.144  25.527  37.279  1.00  0.00     0.127 S 
ATOM     91  O   UNL A   1      47.515  25.655  37.773  1.00  0.00    -0.237 OA
ATOM     92  O   UNL A   1      45.114  25.983  38.212  1.00  0.00    -0.237 OA
ATOM     93  O   UNL A   1      45.838  24.272  36.606  1.00  0.00    -0.744 OA
ENDBRANCH  87  90
ENDBRANCH  60  83
ENDBRANCH  34  35
ENDBRANCH  27  29
ENDBRANCH  26  27
ENDBRANCH   1  26
TORSDOF 17
ENDMDL
