MODEL 1
REMARK VINA RESULT:     -12.4      0.000      0.000
REMARK SMILES Cc1c(NC(=O)c2ccc(Br)cc2N)cccc1C(=O)OCCOC(=O)c1ccc(-c2c3nc(c(-c4cccc(S(=O)(=O)[O-])c4F)c4ccc([nH]4)c(-c4cccc(S(=O)(=O)[O-])c4F)c4nc(c(-c5cccc(S(=O)(=O)[O-])c5F)c5ccc2[nH]5)C=C4)C=C3)cc1
REMARK SMILES IDX 22 1 21 2 19 3 20 4 18 5 1 6 2 7 3 8 15 9 17 10 16 11 4 12
REMARK SMILES IDX 5 13 6 15 7 16 8 17 13 18 9 19 12 20 10 21 11 22 14 23 23 26
REMARK SMILES IDX 24 27 25 28 26 29 27 30 28 31 89 32 29 33 88 34 30 35 31 36
REMARK SMILES IDX 32 37 82 38 33 39 87 40 81 41 83 42 34 43 86 44 80 45 79 46
REMARK SMILES IDX 35 48 67 49 47 50 66 51 48 52 51 53 65 54 84 55 49 56 50 57
REMARK SMILES IDX 64 59 85 60 52 61 36 62 37 63 45 64 38 65 40 66 46 67 39 68
REMARK SMILES IDX 41 69 42 70 43 71 44 72 68 73 69 74 77 75 70 76 72 77 78 78
REMARK SMILES IDX 71 79 73 80 74 81 75 82 76 83 53 84 54 85 62 86 55 87 57 88
REMARK SMILES IDX 63 89 56 90 58 91 59 92 60 93 61 94
REMARK H PARENT 4 14 14 24 14 25 83 47 51 58
REMARK Flexibility Score: inf
ROOT
ATOM      1  C   UNL A   1      32.340  29.436  26.895  1.00  0.00     0.275 C 
ENDROOT
BRANCH   1   2
ATOM      2  O   UNL A   1      32.003  28.478  25.895  1.00  0.00    -0.458 OA
BRANCH   2   3
ATOM      3  C   UNL A   1      31.469  28.929  24.749  1.00  0.00     0.338 C 
ATOM      4  O   UNL A   1      30.751  29.906  24.615  1.00  0.00    -0.246 OA
BRANCH   3   5
ATOM      5  C   UNL A   1      31.851  28.016  23.647  1.00  0.00     0.065 A 
ATOM      6  C   UNL A   1      29.704  26.675  23.873  1.00  0.00     0.047 C 
ATOM      7  C   UNL A   1      31.073  26.896  23.290  1.00  0.00    -0.013 A 
ATOM      8  C   UNL A   1      31.707  25.921  22.489  1.00  0.00     0.045 A 
ATOM      9  C   UNL A   1      32.874  26.231  21.782  1.00  0.00     0.026 A 
ATOM     10  C   UNL A   1      33.103  28.244  23.058  1.00  0.00     0.016 A 
ATOM     11  C   UNL A   1      33.561  27.409  22.046  1.00  0.00     0.003 A 
BRANCH   8  12
ATOM     12  N   UNL A   1      31.267  24.586  22.577  1.00  0.00    -0.322 N 
ATOM     13  C   UNL A   1      31.907  23.486  23.126  1.00  0.00     0.257 C 
ATOM     14  H   UNL A   1      30.377  24.408  22.194  1.00  0.00     0.170 HD
ATOM     15  O   UNL A   1      31.361  22.382  23.051  1.00  0.00    -0.269 OA
BRANCH  13  16
ATOM     16  C   UNL A   1      33.208  23.566  23.860  1.00  0.00     0.063 A 
ATOM     17  C   UNL A   1      34.299  22.958  23.207  1.00  0.00     0.017 A 
ATOM     18  C   UNL A   1      33.402  24.154  25.130  1.00  0.00     0.045 A 
ATOM     19  C   UNL A   1      35.575  22.976  23.770  1.00  0.00     0.016 A 
ATOM     20  C   UNL A   1      34.702  24.196  25.662  1.00  0.00     0.042 A 
ATOM     21  C   UNL A   1      35.775  23.620  24.985  1.00  0.00     0.020 A 
ATOM     22  Br  UNL A   1      37.503  23.664  25.753  1.00  0.00    -0.051 Br
BRANCH  18  23
ATOM     23  N   UNL A   1      32.361  24.543  25.979  1.00  0.00    -0.398 N 
ATOM     24  H   UNL A   1      32.150  24.007  26.777  1.00  0.00     0.156 HD
ATOM     25  H   UNL A   1      31.839  25.353  25.778  1.00  0.00     0.156 HD
ENDBRANCH  18  23
ENDBRANCH  13  16
ENDBRANCH   8  12
ENDBRANCH   3   5
ENDBRANCH   2   3
ENDBRANCH   1   2
BRANCH   1  26
ATOM     26  C   UNL A   1      33.715  30.140  26.839  1.00  0.00     0.275 C 
BRANCH  26  27
ATOM     27  O   UNL A   1      34.912  29.717  27.566  1.00  0.00    -0.458 OA
BRANCH  27  28
ATOM     28  C   UNL A   1      35.843  30.334  28.327  1.00  0.00     0.338 C 
ATOM     29  O   UNL A   1      35.605  31.367  28.942  1.00  0.00    -0.246 OA
BRANCH  28  30
ATOM     30  C   UNL A   1      37.150  29.699  28.421  1.00  0.00     0.060 A 
ATOM     31  C   UNL A   1      38.006  29.673  27.307  1.00  0.00     0.016 A 
ATOM     32  C   UNL A   1      37.550  29.232  29.663  1.00  0.00     0.016 A 
ATOM     33  C   UNL A   1      39.330  29.286  27.464  1.00  0.00     0.010 A 
ATOM     34  C   UNL A   1      38.882  29.001  29.860  1.00  0.00     0.010 A 
ATOM     35  C   UNL A   1      39.745  28.946  28.748  1.00  0.00    -0.014 A 
BRANCH  35  36
ATOM     36  C   UNL A   1      40.847  28.039  28.998  1.00  0.00     0.031 A 
ATOM     37  C   UNL A   1      40.773  26.606  28.732  1.00  0.00     0.074 A 
ATOM     38  C   UNL A   1      41.980  28.749  29.215  1.00  0.00     0.049 A 
ATOM     39  N   UNL A   1      41.674  25.779  29.118  1.00  0.00    -0.248 NA
ATOM     40  C   UNL A   1      39.661  25.965  28.041  1.00  0.00     0.031 C 
ATOM     41  C   UNL A   1      43.375  28.410  29.044  1.00  0.00     0.029 A 
ATOM     42  N   UNL A   1      42.016  30.052  29.745  1.00  0.00    -0.354 N 
ATOM     43  C   UNL A   1      41.441  24.580  28.478  1.00  0.00     0.074 A 
ATOM     44  C   UNL A   1      40.107  24.705  27.942  1.00  0.00     0.031 C 
ATOM     45  C   UNL A   1      44.109  29.325  29.714  1.00  0.00     0.029 A 
ATOM     46  C   UNL A   1      43.182  30.152  30.486  1.00  0.00     0.049 A 
ATOM     47  H   UNL A   1      41.341  30.758  29.615  1.00  0.00     0.167 HD
ATOM     48  C   UNL A   1      42.491  23.719  28.351  1.00  0.00     0.034 A 
ATOM     49  C   UNL A   1      43.102  30.254  31.848  1.00  0.00     0.034 A 
ATOM     50  C   UNL A   1      43.650  24.255  29.093  1.00  0.00     0.049 A 
ATOM     51  C   UNL A   1      43.701  29.017  32.487  1.00  0.00     0.074 A 
ATOM     52  C   UNL A   1      44.732  25.018  28.684  1.00  0.00     0.029 A 
ATOM     53  N   UNL A   1      43.595  24.361  30.481  1.00  0.00    -0.354 N 
ATOM     54  N   UNL A   1      43.883  27.888  31.860  1.00  0.00    -0.248 NA
ATOM     55  C   UNL A   1      44.148  28.969  33.871  1.00  0.00     0.031 C 
ATOM     56  C   UNL A   1      45.239  25.696  29.830  1.00  0.00     0.029 A 
ATOM     57  C   UNL A   1      44.497  25.314  30.938  1.00  0.00     0.049 A 
ATOM     58  H   UNL A   1      43.000  23.830  31.059  1.00  0.00     0.167 HD
ATOM     59  C   UNL A   1      44.393  26.958  32.716  1.00  0.00     0.074 A 
ATOM     60  C   UNL A   1      44.588  27.701  33.953  1.00  0.00     0.031 C 
ATOM     61  C   UNL A   1      44.567  25.648  32.360  1.00  0.00     0.034 A 
BRANCH  48  62
ATOM     62  C   UNL A   1      42.632  22.560  27.368  1.00  0.00     0.023 A 
ATOM     63  C   UNL A   1      41.799  21.436  27.598  1.00  0.00     0.012 A 
ATOM     64  C   UNL A   1      43.550  22.426  26.295  1.00  0.00     0.148 A 
ATOM     65  C   UNL A   1      41.901  20.246  26.867  1.00  0.00     0.002 A 
ATOM     66  C   UNL A   1      43.649  21.238  25.556  1.00  0.00     0.091 A 
ATOM     67  F   UNL A   1      44.351  23.438  25.971  1.00  0.00    -0.205 F 
ATOM     68  C   UNL A   1      42.834  20.142  25.848  1.00  0.00     0.022 A 
BRANCH  66  69
ATOM     69  S   UNL A   1      44.827  21.015  24.204  1.00  0.00     0.127 S 
ATOM     70  O   UNL A   1      46.110  21.178  24.889  1.00  0.00    -0.237 OA
ATOM     71  O   UNL A   1      44.543  19.649  23.765  1.00  0.00    -0.237 OA
ATOM     72  O   UNL A   1      44.527  22.048  23.221  1.00  0.00    -0.744 OA
ENDBRANCH  66  69
ENDBRANCH  48  62
BRANCH  49  73
ATOM     73  C   UNL A   1      41.876  30.977  32.363  1.00  0.00     0.023 A 
ATOM     74  C   UNL A   1      41.652  32.304  31.905  1.00  0.00     0.012 A 
ATOM     75  C   UNL A   1      40.801  30.312  32.985  1.00  0.00     0.148 A 
ATOM     76  C   UNL A   1      40.384  32.895  31.954  1.00  0.00     0.002 A 
ATOM     77  C   UNL A   1      39.535  30.911  33.030  1.00  0.00     0.091 A 
ATOM     78  F   UNL A   1      40.996  29.082  33.476  1.00  0.00    -0.205 F 
ATOM     79  C   UNL A   1      39.318  32.189  32.499  1.00  0.00     0.022 A 
BRANCH  77  80
ATOM     80  S   UNL A   1      38.107  29.982  33.622  1.00  0.00     0.127 S 
ATOM     81  O   UNL A   1      36.973  30.710  33.049  1.00  0.00    -0.237 OA
ATOM     82  O   UNL A   1      38.294  28.655  33.052  1.00  0.00    -0.237 OA
ATOM     83  O   UNL A   1      38.246  30.104  35.069  1.00  0.00    -0.744 OA
ENDBRANCH  77  80
ENDBRANCH  49  73
BRANCH  61  84
ATOM     84  C   UNL A   1      44.821  24.549  33.362  1.00  0.00     0.023 A 
ATOM     85  C   UNL A   1      43.890  23.515  33.581  1.00  0.00     0.012 A 
ATOM     86  C   UNL A   1      46.081  24.422  33.993  1.00  0.00     0.148 A 
ATOM     87  C   UNL A   1      44.153  22.459  34.453  1.00  0.00     0.002 A 
ATOM     88  C   UNL A   1      46.387  23.296  34.748  1.00  0.00     0.091 A 
ATOM     89  F   UNL A   1      46.995  25.396  33.870  1.00  0.00    -0.205 F 
ATOM     90  C   UNL A   1      45.412  22.335  35.020  1.00  0.00     0.022 A 
BRANCH  88  91
ATOM     91  S   UNL A   1      48.087  22.958  35.224  1.00  0.00     0.127 S 
ATOM     92  O   UNL A   1      48.308  23.939  36.283  1.00  0.00    -0.237 OA
ATOM     93  O   UNL A   1      48.016  21.569  35.682  1.00  0.00    -0.237 OA
ATOM     94  O   UNL A   1      48.857  23.140  34.001  1.00  0.00    -0.744 OA
ENDBRANCH  88  91
ENDBRANCH  61  84
ENDBRANCH  35  36
ENDBRANCH  28  30
ENDBRANCH  27  28
ENDBRANCH  26  27
ENDBRANCH   1  26
TORSDOF 17
ENDMDL
MODEL 2
REMARK VINA RESULT:     -12.4      4.261      9.919
REMARK SMILES Cc1c(NC(=O)c2ccc(Br)cc2N)cccc1C(=O)OCCOC(=O)c1ccc(-c2c3nc(c(-c4cccc(S(=O)(=O)[O-])c4F)c4ccc([nH]4)c(-c4cccc(S(=O)(=O)[O-])c4F)c4nc(c(-c5cccc(S(=O)(=O)[O-])c5F)c5ccc2[nH]5)C=C4)C=C3)cc1
REMARK SMILES IDX 22 1 21 2 19 3 20 4 18 5 1 6 2 7 3 8 15 9 17 10 16 11 4 12
REMARK SMILES IDX 5 13 6 15 7 16 8 17 13 18 9 19 12 20 10 21 11 22 14 23 23 26
REMARK SMILES IDX 24 27 25 28 26 29 27 30 28 31 89 32 29 33 88 34 30 35 31 36
REMARK SMILES IDX 32 37 82 38 33 39 87 40 81 41 83 42 34 43 86 44 80 45 79 46
REMARK SMILES IDX 35 48 67 49 47 50 66 51 48 52 51 53 65 54 84 55 49 56 50 57
REMARK SMILES IDX 64 59 85 60 52 61 36 62 37 63 45 64 38 65 40 66 46 67 39 68
REMARK SMILES IDX 41 69 42 70 43 71 44 72 68 73 69 74 77 75 70 76 72 77 78 78
REMARK SMILES IDX 71 79 73 80 74 81 75 82 76 83 53 84 54 85 62 86 55 87 57 88
REMARK SMILES IDX 63 89 56 90 58 91 59 92 60 93 61 94
REMARK H PARENT 4 14 14 24 14 25 83 47 51 58
REMARK Flexibility Score: inf
ROOT
ATOM      1  C   UNL A   1      37.560  21.426  25.121  1.00  0.00     0.275 C 
ENDROOT
BRANCH   1   2
ATOM      2  O   UNL A   1      36.341  21.361  25.857  1.00  0.00    -0.458 OA
BRANCH   2   3
ATOM      3  C   UNL A   1      35.543  22.440  25.846  1.00  0.00     0.338 C 
ATOM      4  O   UNL A   1      35.676  23.449  26.518  1.00  0.00    -0.246 OA
BRANCH   3   5
ATOM      5  C   UNL A   1      34.420  22.201  24.911  1.00  0.00     0.065 A 
ATOM      6  C   UNL A   1      35.650  23.307  22.983  1.00  0.00     0.047 C 
ATOM      7  C   UNL A   1      34.420  22.689  23.589  1.00  0.00    -0.013 A 
ATOM      8  C   UNL A   1      33.174  22.710  22.927  1.00  0.00     0.045 A 
ATOM      9  C   UNL A   1      32.103  21.944  23.402  1.00  0.00     0.026 A 
ATOM     10  C   UNL A   1      33.286  21.576  25.451  1.00  0.00     0.016 A 
ATOM     11  C   UNL A   1      32.169  21.351  24.656  1.00  0.00     0.003 A 
BRANCH   8  12
ATOM     12  N   UNL A   1      32.965  23.665  21.913  1.00  0.00    -0.322 N 
ATOM     13  C   UNL A   1      32.528  24.977  22.021  1.00  0.00     0.257 C 
ATOM     14  H   UNL A   1      33.157  23.358  20.997  1.00  0.00     0.170 HD
ATOM     15  O   UNL A   1      32.361  25.633  20.989  1.00  0.00    -0.269 OA
BRANCH  13  16
ATOM     16  C   UNL A   1      32.296  25.668  23.325  1.00  0.00     0.063 A 
ATOM     17  C   UNL A   1      33.424  26.317  23.866  1.00  0.00     0.017 A 
ATOM     18  C   UNL A   1      31.079  25.685  24.043  1.00  0.00     0.045 A 
ATOM     19  C   UNL A   1      33.343  27.019  25.069  1.00  0.00     0.016 A 
ATOM     20  C   UNL A   1      31.007  26.430  25.233  1.00  0.00     0.042 A 
ATOM     21  C   UNL A   1      32.126  27.094  25.734  1.00  0.00     0.020 A 
ATOM     22  Br  UNL A   1      31.998  28.054  27.358  1.00  0.00    -0.051 Br
BRANCH  18  23
ATOM     23  N   UNL A   1      29.983  24.867  23.745  1.00  0.00    -0.398 N 
ATOM     24  H   UNL A   1      29.401  24.542  24.469  1.00  0.00     0.156 HD
ATOM     25  H   UNL A   1      29.796  24.617  22.812  1.00  0.00     0.156 HD
ENDBRANCH  18  23
ENDBRANCH  13  16
ENDBRANCH   8  12
ENDBRANCH   3   5
ENDBRANCH   2   3
ENDBRANCH   1   2
BRANCH   1  26
ATOM     26  C   UNL A   1      38.869  21.806  25.851  1.00  0.00     0.275 C 
BRANCH  26  27
ATOM     27  O   UNL A   1      39.107  23.064  26.559  1.00  0.00    -0.458 OA
BRANCH  27  28
ATOM     28  C   UNL A   1      40.080  23.543  27.366  1.00  0.00     0.338 C 
ATOM     29  O   UNL A   1      41.027  22.856  27.729  1.00  0.00    -0.246 OA
BRANCH  28  30
ATOM     30  C   UNL A   1      39.981  24.940  27.765  1.00  0.00     0.060 A 
ATOM     31  C   UNL A   1      40.475  25.953  26.924  1.00  0.00     0.016 A 
ATOM     32  C   UNL A   1      39.292  25.229  28.932  1.00  0.00     0.016 A 
ATOM     33  C   UNL A   1      40.167  27.280  27.191  1.00  0.00     0.010 A 
ATOM     34  C   UNL A   1      38.854  26.510  29.116  1.00  0.00     0.010 A 
ATOM     35  C   UNL A   1      39.362  27.537  28.296  1.00  0.00    -0.014 A 
BRANCH  35  36
ATOM     36  C   UNL A   1      39.401  28.795  29.015  1.00  0.00     0.031 A 
ATOM     37  C   UNL A   1      38.563  29.937  28.662  1.00  0.00     0.074 A 
ATOM     38  C   UNL A   1      40.076  28.634  30.177  1.00  0.00     0.049 A 
ATOM     39  N   UNL A   1      38.723  31.102  29.175  1.00  0.00    -0.248 NA
ATOM     40  C   UNL A   1      37.494  29.886  27.672  1.00  0.00     0.031 C 
ATOM     41  C   UNL A   1      40.020  29.354  31.430  1.00  0.00     0.029 A 
ATOM     42  N   UNL A   1      41.091  27.682  30.385  1.00  0.00    -0.354 N 
ATOM     43  C   UNL A   1      37.620  31.858  28.842  1.00  0.00     0.074 A 
ATOM     44  C   UNL A   1      36.965  31.111  27.796  1.00  0.00     0.031 C 
ATOM     45  C   UNL A   1      41.118  29.029  32.145  1.00  0.00     0.029 A 
ATOM     46  C   UNL A   1      41.993  28.244  31.275  1.00  0.00     0.049 A 
ATOM     47  H   UNL A   1      41.149  26.787  29.978  1.00  0.00     0.167 HD
ATOM     48  C   UNL A   1      37.330  32.933  29.632  1.00  0.00     0.034 A 
ATOM     49  C   UNL A   1      43.243  28.584  30.834  1.00  0.00     0.034 A 
ATOM     50  C   UNL A   1      38.410  33.109  30.624  1.00  0.00     0.049 A 
ATOM     51  C   UNL A   1      43.410  30.089  30.891  1.00  0.00     0.074 A 
ATOM     52  C   UNL A   1      38.538  32.675  31.933  1.00  0.00     0.029 A 
ATOM     53  N   UNL A   1      39.689  33.464  30.200  1.00  0.00    -0.354 N 
ATOM     54  N   UNL A   1      42.417  30.932  30.956  1.00  0.00    -0.248 NA
ATOM     55  C   UNL A   1      44.708  30.749  30.893  1.00  0.00     0.031 C 
ATOM     56  C   UNL A   1      39.928  32.639  32.242  1.00  0.00     0.029 A 
ATOM     57  C   UNL A   1      40.641  33.090  31.142  1.00  0.00     0.049 A 
ATOM     58  H   UNL A   1      39.890  33.918  29.350  1.00  0.00     0.167 HD
ATOM     59  C   UNL A   1      42.890  32.209  30.946  1.00  0.00     0.074 A 
ATOM     60  C   UNL A   1      44.337  32.040  30.957  1.00  0.00     0.031 C 
ATOM     61  C   UNL A   1      42.064  33.299  30.880  1.00  0.00     0.034 A 
BRANCH  48  62
ATOM     62  C   UNL A   1      35.998  33.668  29.755  1.00  0.00     0.023 A 
ATOM     63  C   UNL A   1      35.394  34.077  28.540  1.00  0.00     0.012 A 
ATOM     64  C   UNL A   1      35.322  34.068  30.935  1.00  0.00     0.148 A 
ATOM     65  C   UNL A   1      34.242  34.873  28.489  1.00  0.00     0.002 A 
ATOM     66  C   UNL A   1      34.163  34.857  30.887  1.00  0.00     0.091 A 
ATOM     67  F   UNL A   1      35.785  33.702  32.128  1.00  0.00    -0.205 F 
ATOM     68  C   UNL A   1      33.628  35.271  29.665  1.00  0.00     0.022 A 
BRANCH  66  69
ATOM     69  S   UNL A   1      33.290  35.415  32.367  1.00  0.00     0.127 S 
ATOM     70  O   UNL A   1      32.259  36.286  31.802  1.00  0.00    -0.237 OA
ATOM     71  O   UNL A   1      32.787  34.160  32.925  1.00  0.00    -0.237 OA
ATOM     72  O   UNL A   1      34.277  36.100  33.194  1.00  0.00    -0.744 OA
ENDBRANCH  66  69
ENDBRANCH  48  62
BRANCH  49  73
ATOM     73  C   UNL A   1      43.794  27.701  29.735  1.00  0.00     0.023 A 
ATOM     74  C   UNL A   1      43.935  26.314  30.011  1.00  0.00     0.012 A 
ATOM     75  C   UNL A   1      43.854  28.106  28.387  1.00  0.00     0.148 A 
ATOM     76  C   UNL A   1      44.011  25.363  28.986  1.00  0.00     0.002 A 
ATOM     77  C   UNL A   1      43.930  27.148  27.366  1.00  0.00     0.091 A 
ATOM     78  F   UNL A   1      43.778  29.411  28.097  1.00  0.00    -0.205 F 
ATOM     79  C   UNL A   1      43.988  25.779  27.661  1.00  0.00     0.022 A 
BRANCH  77  80
ATOM     80  S   UNL A   1      43.785  27.641  25.639  1.00  0.00     0.127 S 
ATOM     81  O   UNL A   1      45.132  28.110  25.309  1.00  0.00    -0.237 OA
ATOM     82  O   UNL A   1      43.414  26.411  24.955  1.00  0.00    -0.237 OA
ATOM     83  O   UNL A   1      42.771  28.688  25.707  1.00  0.00    -0.744 OA
ENDBRANCH  77  80
ENDBRANCH  49  73
BRANCH  61  84
ATOM     84  C   UNL A   1      42.557  34.687  30.550  1.00  0.00     0.023 A 
ATOM     85  C   UNL A   1      43.176  35.503  31.516  1.00  0.00     0.012 A 
ATOM     86  C   UNL A   1      42.569  35.150  29.214  1.00  0.00     0.148 A 
ATOM     87  C   UNL A   1      43.697  36.757  31.196  1.00  0.00     0.002 A 
ATOM     88  C   UNL A   1      43.213  36.335  28.879  1.00  0.00     0.091 A 
ATOM     89  F   UNL A   1      41.949  34.448  28.252  1.00  0.00    -0.205 F 
ATOM     90  C   UNL A   1      43.738  37.165  29.871  1.00  0.00     0.022 A 
BRANCH  88  91
ATOM     91  S   UNL A   1      43.556  36.727  27.159  1.00  0.00     0.127 S 
ATOM     92  O   UNL A   1      42.228  37.060  26.651  1.00  0.00    -0.237 OA
ATOM     93  O   UNL A   1      44.471  37.864  27.270  1.00  0.00    -0.237 OA
ATOM     94  O   UNL A   1      44.172  35.521  26.621  1.00  0.00    -0.744 OA
ENDBRANCH  88  91
ENDBRANCH  61  84
ENDBRANCH  35  36
ENDBRANCH  28  30
ENDBRANCH  27  28
ENDBRANCH  26  27
ENDBRANCH   1  26
TORSDOF 17
ENDMDL
MODEL 3
REMARK VINA RESULT:     -12.4      4.074      9.854
REMARK SMILES Cc1c(NC(=O)c2ccc(Br)cc2N)cccc1C(=O)OCCOC(=O)c1ccc(-c2c3nc(c(-c4cccc(S(=O)(=O)[O-])c4F)c4ccc([nH]4)c(-c4cccc(S(=O)(=O)[O-])c4F)c4nc(c(-c5cccc(S(=O)(=O)[O-])c5F)c5ccc2[nH]5)C=C4)C=C3)cc1
REMARK SMILES IDX 22 1 21 2 19 3 20 4 18 5 1 6 2 7 3 8 15 9 17 10 16 11 4 12
REMARK SMILES IDX 5 13 6 15 7 16 8 17 13 18 9 19 12 20 10 21 11 22 14 23 23 26
REMARK SMILES IDX 24 27 25 28 26 29 27 30 28 31 89 32 29 33 88 34 30 35 31 36
REMARK SMILES IDX 32 37 82 38 33 39 87 40 81 41 83 42 34 43 86 44 80 45 79 46
REMARK SMILES IDX 35 48 67 49 47 50 66 51 48 52 51 53 65 54 84 55 49 56 50 57
REMARK SMILES IDX 64 59 85 60 52 61 36 62 37 63 45 64 38 65 40 66 46 67 39 68
REMARK SMILES IDX 41 69 42 70 43 71 44 72 68 73 69 74 77 75 70 76 72 77 78 78
REMARK SMILES IDX 71 79 73 80 74 81 75 82 76 83 53 84 54 85 62 86 55 87 57 88
REMARK SMILES IDX 63 89 56 90 58 91 59 92 60 93 61 94
REMARK H PARENT 4 14 14 24 14 25 83 47 51 58
REMARK Flexibility Score: inf
ROOT
ATOM      1  C   UNL A   1      37.176  21.779  24.905  1.00  0.00     0.275 C 
ENDROOT
BRANCH   1   2
ATOM      2  O   UNL A   1      35.827  21.949  24.478  1.00  0.00    -0.458 OA
BRANCH   2   3
ATOM      3  C   UNL A   1      35.587  22.826  23.491  1.00  0.00     0.338 C 
ATOM      4  O   UNL A   1      36.391  23.237  22.671  1.00  0.00    -0.246 OA
BRANCH   3   5
ATOM      5  C   UNL A   1      34.178  23.274  23.575  1.00  0.00     0.065 A 
ATOM      6  C   UNL A   1      34.770  25.195  25.129  1.00  0.00     0.047 C 
ATOM      7  C   UNL A   1      33.768  24.327  24.418  1.00  0.00    -0.013 A 
ATOM      8  C   UNL A   1      32.385  24.420  24.680  1.00  0.00     0.045 A 
ATOM      9  C   UNL A   1      31.460  23.767  23.858  1.00  0.00     0.026 A 
ATOM     10  C   UNL A   1      33.240  22.504  22.873  1.00  0.00     0.016 A 
ATOM     11  C   UNL A   1      31.889  22.825  22.931  1.00  0.00     0.003 A 
BRANCH   8  12
ATOM     12  N   UNL A   1      31.965  25.003  25.891  1.00  0.00    -0.322 N 
ATOM     13  C   UNL A   1      31.417  26.257  26.117  1.00  0.00     0.257 C 
ATOM     14  H   UNL A   1      32.076  24.441  26.692  1.00  0.00     0.170 HD
ATOM     15  O   UNL A   1      31.165  26.594  27.277  1.00  0.00    -0.269 OA
BRANCH  13  16
ATOM     16  C   UNL A   1      31.060  27.214  25.026  1.00  0.00     0.063 A 
ATOM     17  C   UNL A   1      29.835  26.952  24.380  1.00  0.00     0.017 A 
ATOM     18  C   UNL A   1      31.853  28.299  24.591  1.00  0.00     0.045 A 
ATOM     19  C   UNL A   1      29.370  27.779  23.357  1.00  0.00     0.016 A 
ATOM     20  C   UNL A   1      31.349  29.143  23.585  1.00  0.00     0.042 A 
ATOM     21  C   UNL A   1      30.119  28.888  22.983  1.00  0.00     0.020 A 
ATOM     22  Br  UNL A   1      29.493  30.025  21.607  1.00  0.00    -0.051 Br
BRANCH  18  23
ATOM     23  N   UNL A   1      33.186  28.495  24.967  1.00  0.00    -0.398 N 
ATOM     24  H   UNL A   1      33.852  27.788  24.805  1.00  0.00     0.156 HD
ATOM     25  H   UNL A   1      33.458  29.338  25.395  1.00  0.00     0.156 HD
ENDBRANCH  18  23
ENDBRANCH  13  16
ENDBRANCH   8  12
ENDBRANCH   3   5
ENDBRANCH   2   3
ENDBRANCH   1   2
BRANCH   1  26
ATOM     26  C   UNL A   1      37.852  22.885  25.746  1.00  0.00     0.275 C 
BRANCH  26  27
ATOM     27  O   UNL A   1      39.081  22.725  26.522  1.00  0.00    -0.458 OA
BRANCH  27  28
ATOM     28  C   UNL A   1      40.273  23.361  26.576  1.00  0.00     0.338 C 
ATOM     29  O   UNL A   1      41.308  22.848  26.166  1.00  0.00    -0.246 OA
BRANCH  28  30
ATOM     30  C   UNL A   1      40.279  24.714  27.115  1.00  0.00     0.060 A 
ATOM     31  C   UNL A   1      40.855  25.764  26.380  1.00  0.00     0.016 A 
ATOM     32  C   UNL A   1      39.606  24.936  28.304  1.00  0.00     0.016 A 
ATOM     33  C   UNL A   1      40.649  27.078  26.779  1.00  0.00     0.010 A 
ATOM     34  C   UNL A   1      39.266  26.222  28.617  1.00  0.00     0.010 A 
ATOM     35  C   UNL A   1      39.857  27.284  27.905  1.00  0.00    -0.014 A 
BRANCH  35  36
ATOM     36  C   UNL A   1      39.987  28.457  28.746  1.00  0.00     0.031 A 
ATOM     37  C   UNL A   1      39.057  29.581  28.692  1.00  0.00     0.074 A 
ATOM     38  C   UNL A   1      40.877  28.210  29.736  1.00  0.00     0.049 A 
ATOM     39  N   UNL A   1      39.270  30.690  29.300  1.00  0.00    -0.248 NA
ATOM     40  C   UNL A   1      37.821  29.576  27.918  1.00  0.00     0.031 C 
ATOM     41  C   UNL A   1      41.035  28.785  31.053  1.00  0.00     0.029 A 
ATOM     42  N   UNL A   1      41.946  27.300  29.639  1.00  0.00    -0.354 N 
ATOM     43  C   UNL A   1      38.097  31.413  29.268  1.00  0.00     0.074 A 
ATOM     44  C   UNL A   1      37.282  30.748  28.281  1.00  0.00     0.031 C 
ATOM     45  C   UNL A   1      42.260  28.447  31.510  1.00  0.00     0.029 A 
ATOM     46  C   UNL A   1      42.981  27.813  30.406  1.00  0.00     0.049 A 
ATOM     47  H   UNL A   1      41.958  26.460  29.126  1.00  0.00     0.167 HD
ATOM     48  C   UNL A   1      37.925  32.377  30.219  1.00  0.00     0.034 A 
ATOM     49  C   UNL A   1      44.110  28.270  29.784  1.00  0.00     0.034 A 
ATOM     50  C   UNL A   1      39.167  32.506  31.007  1.00  0.00     0.049 A 
ATOM     51  C   UNL A   1      44.232  29.767  29.986  1.00  0.00     0.074 A 
ATOM     52  C   UNL A   1      39.558  31.941  32.210  1.00  0.00     0.029 A 
ATOM     53  N   UNL A   1      40.328  32.978  30.398  1.00  0.00    -0.354 N 
ATOM     54  N   UNL A   1      43.239  30.540  30.332  1.00  0.00    -0.248 NA
ATOM     55  C   UNL A   1      45.481  30.497  29.825  1.00  0.00     0.031 C 
ATOM     56  C   UNL A   1      40.982  31.951  32.249  1.00  0.00     0.029 A 
ATOM     57  C   UNL A   1      41.455  32.560  31.096  1.00  0.00     0.049 A 
ATOM     58  H   UNL A   1      40.347  33.533  29.585  1.00  0.00     0.167 HD
ATOM     59  C   UNL A   1      43.655  31.836  30.385  1.00  0.00     0.074 A 
ATOM     60  C   UNL A   1      45.083  31.750  30.107  1.00  0.00     0.031 C 
ATOM     61  C   UNL A   1      42.794  32.877  30.602  1.00  0.00     0.034 A 
BRANCH  48  62
ATOM     62  C   UNL A   1      36.615  33.016  30.672  1.00  0.00     0.023 A 
ATOM     63  C   UNL A   1      36.209  32.739  32.002  1.00  0.00     0.012 A 
ATOM     64  C   UNL A   1      35.705  33.789  29.908  1.00  0.00     0.148 A 
ATOM     65  C   UNL A   1      34.973  33.141  32.523  1.00  0.00     0.002 A 
ATOM     66  C   UNL A   1      34.470  34.201  30.430  1.00  0.00     0.091 A 
ATOM     67  F   UNL A   1      36.008  34.138  28.659  1.00  0.00    -0.205 F 
ATOM     68  C   UNL A   1      34.097  33.867  31.734  1.00  0.00     0.022 A 
BRANCH  66  69
ATOM     69  S   UNL A   1      33.268  35.158  29.479  1.00  0.00     0.127 S 
ATOM     70  O   UNL A   1      32.897  34.217  28.422  1.00  0.00    -0.237 OA
ATOM     71  O   UNL A   1      32.218  35.409  30.465  1.00  0.00    -0.237 OA
ATOM     72  O   UNL A   1      33.966  36.350  29.014  1.00  0.00    -0.744 OA
ENDBRANCH  66  69
ENDBRANCH  48  62
BRANCH  49  73
ATOM     73  C   UNL A   1      44.473  27.545  28.506  1.00  0.00     0.023 A 
ATOM     74  C   UNL A   1      44.171  28.188  27.274  1.00  0.00     0.012 A 
ATOM     75  C   UNL A   1      45.370  26.460  28.471  1.00  0.00     0.148 A 
ATOM     76  C   UNL A   1      44.824  27.842  26.084  1.00  0.00     0.002 A 
ATOM     77  C   UNL A   1      46.019  26.120  27.277  1.00  0.00     0.091 A 
ATOM     78  F   UNL A   1      45.633  25.799  29.606  1.00  0.00    -0.205 F 
ATOM     79  C   UNL A   1      45.765  26.820  26.090  1.00  0.00     0.022 A 
BRANCH  77  80
ATOM     80  S   UNL A   1      47.328  24.880  27.269  1.00  0.00     0.127 S 
ATOM     81  O   UNL A   1      47.993  25.103  25.984  1.00  0.00    -0.237 OA
ATOM     82  O   UNL A   1      48.150  25.235  28.417  1.00  0.00    -0.237 OA
ATOM     83  O   UNL A   1      46.569  23.638  27.360  1.00  0.00    -0.744 OA
ENDBRANCH  77  80
ENDBRANCH  49  73
BRANCH  61  84
ATOM     84  C   UNL A   1      43.164  34.319  30.351  1.00  0.00     0.023 A 
ATOM     85  C   UNL A   1      43.651  35.148  31.380  1.00  0.00     0.012 A 
ATOM     86  C   UNL A   1      43.198  34.838  29.036  1.00  0.00     0.148 A 
ATOM     87  C   UNL A   1      44.061  36.459  31.136  1.00  0.00     0.002 A 
ATOM     88  C   UNL A   1      43.739  36.092  28.782  1.00  0.00     0.091 A 
ATOM     89  F   UNL A   1      42.700  34.122  28.017  1.00  0.00    -0.205 F 
ATOM     90  C   UNL A   1      44.129  36.925  29.832  1.00  0.00     0.022 A 
BRANCH  88  91
ATOM     91  S   UNL A   1      44.128  36.589  27.099  1.00  0.00     0.127 S 
ATOM     92  O   UNL A   1      42.801  36.726  26.507  1.00  0.00    -0.237 OA
ATOM     93  O   UNL A   1      44.842  37.851  27.299  1.00  0.00    -0.237 OA
ATOM     94  O   UNL A   1      44.962  35.513  26.580  1.00  0.00    -0.744 OA
ENDBRANCH  88  91
ENDBRANCH  61  84
ENDBRANCH  35  36
ENDBRANCH  28  30
ENDBRANCH  27  28
ENDBRANCH  26  27
ENDBRANCH   1  26
TORSDOF 17
ENDMDL
