MODEL 1
REMARK VINA RESULT:     -12.7      0.000      0.000
REMARK SMILES CC1=C(C)C[C@@H](C(=O)NNC(=O)c2ccccc2C)[C@@H](C(=O)OCCOC(=O)c2ccc(-c3c4nc(c(-c5cccc(S(=O)(=O)[O-])c5F)c5ccc([nH]5)c(-c5cccc(S(=O)(=O)[O-])c5F)c5nc(c(-c6cccc(S(=O)(=O)[O-])c6F)c6ccc3[nH]6)C=C5)C=C4)cc2)C1
REMARK SMILES IDX 24 1 23 2 21 3 22 4 20 5 1 6 2 7 3 8 92 9 4 10 5 11 6 12
REMARK SMILES IDX 7 13 8 14 9 15 10 17 11 18 12 20 13 21 14 22 18 23 15 24
REMARK SMILES IDX 17 25 19 26 16 27 25 28 26 29 27 30 28 31 29 32 30 33 91 34
REMARK SMILES IDX 31 35 90 36 32 37 33 38 34 39 84 40 35 41 89 42 83 43 85 44
REMARK SMILES IDX 36 45 88 46 82 47 81 48 37 50 69 51 49 52 68 53 50 54 53 55
REMARK SMILES IDX 67 56 86 57 51 58 52 59 66 61 87 62 54 63 38 64 39 65 47 66
REMARK SMILES IDX 40 67 42 68 48 69 41 70 43 71 44 72 45 73 46 74 70 75 71 76
REMARK SMILES IDX 79 77 72 78 74 79 80 80 73 81 75 82 76 83 77 84 78 85 55 86
REMARK SMILES IDX 56 87 64 88 57 89 59 90 65 91 58 92 60 93 61 94 62 95 63 96
REMARK H PARENT 9 16 10 19 85 49 53 60
REMARK Flexibility Score: inf
ROOT
ATOM      1  C   UNL A   1      34.101  31.946  27.771  1.00  0.00     0.274 C 
ENDROOT
BRANCH   1   2
ATOM      2  O   UNL A   1      33.497  30.639  27.854  1.00  0.00    -0.462 OA
BRANCH   2   3
ATOM      3  C   UNL A   1      33.938  29.681  27.018  1.00  0.00     0.310 C 
ATOM      4  O   UNL A   1      34.884  28.946  27.291  1.00  0.00    -0.252 OA
BRANCH   3   5
ATOM      5  C   UNL A   1      33.180  29.583  25.682  1.00  0.00     0.116 C 
ATOM      6  C   UNL A   1      33.681  27.991  22.088  1.00  0.00     0.039 C 
ATOM      7  C   UNL A   1      32.959  28.554  23.299  1.00  0.00    -0.073 C 
ATOM      8  C   UNL A   1      31.610  28.616  23.386  1.00  0.00    -0.074 C 
ATOM      9  C   UNL A   1      33.880  28.978  24.444  1.00  0.00     0.046 C 
ATOM     10  C   UNL A   1      30.635  28.084  22.361  1.00  0.00     0.039 C 
ATOM     11  C   UNL A   1      30.919  29.189  24.592  1.00  0.00     0.045 C 
ATOM     12  C   UNL A   1      31.714  29.134  25.882  1.00  0.00     0.099 C 
BRANCH  12  13
ATOM     13  C   UNL A   1      31.440  27.959  26.837  1.00  0.00     0.242 C 
ATOM     14  O   UNL A   1      31.142  28.252  28.004  1.00  0.00    -0.273 OA
ATOM     15  N   UNL A   1      31.486  26.620  26.539  1.00  0.00    -0.267 N 
ATOM     16  H   UNL A   1      31.381  25.997  27.293  1.00  0.00     0.191 HD
BRANCH  15  17
ATOM     17  N   UNL A   1      31.663  26.052  25.281  1.00  0.00    -0.263 N 
ATOM     18  C   UNL A   1      32.065  24.754  24.969  1.00  0.00     0.269 C 
ATOM     19  H   UNL A   1      31.482  26.642  24.514  1.00  0.00     0.191 HD
ATOM     20  O   UNL A   1      31.964  24.322  23.820  1.00  0.00    -0.267 OA
BRANCH  18  21
ATOM     21  C   UNL A   1      32.743  23.853  25.941  1.00  0.00     0.044 A 
ATOM     22  C   UNL A   1      34.150  23.763  25.821  1.00  0.00     0.014 A 
ATOM     23  C   UNL A   1      32.093  23.049  26.881  1.00  0.00    -0.038 A 
ATOM     24  C   UNL A   1      34.910  22.982  26.694  1.00  0.00     0.001 A 
ATOM     25  C   UNL A   1      32.872  22.268  27.760  1.00  0.00     0.004 A 
ATOM     26  C   UNL A   1      30.602  22.945  26.965  1.00  0.00     0.045 C 
ATOM     27  C   UNL A   1      34.268  22.242  27.676  1.00  0.00     0.000 A 
ENDBRANCH  18  21
ENDBRANCH  15  17
ENDBRANCH  12  13
ENDBRANCH   3   5
ENDBRANCH   2   3
ENDBRANCH   1   2
BRANCH   1  28
ATOM     28  C   UNL A   1      33.191  33.182  27.989  1.00  0.00     0.275 C 
BRANCH  28  29
ATOM     29  O   UNL A   1      33.560  34.332  28.806  1.00  0.00    -0.458 OA
BRANCH  29  30
ATOM     30  C   UNL A   1      33.891  34.413  30.115  1.00  0.00     0.338 C 
ATOM     31  O   UNL A   1      33.255  34.986  30.973  1.00  0.00    -0.246 OA
BRANCH  30  32
ATOM     32  C   UNL A   1      35.138  33.761  30.448  1.00  0.00     0.060 A 
ATOM     33  C   UNL A   1      36.279  34.092  29.710  1.00  0.00     0.016 A 
ATOM     34  C   UNL A   1      35.157  32.918  31.550  1.00  0.00     0.016 A 
ATOM     35  C   UNL A   1      37.496  33.578  30.066  1.00  0.00     0.010 A 
ATOM     36  C   UNL A   1      36.376  32.440  31.940  1.00  0.00     0.010 A 
ATOM     37  C   UNL A   1      37.501  32.722  31.142  1.00  0.00    -0.014 A 
BRANCH  37  38
ATOM     38  C   UNL A   1      38.616  31.834  31.316  1.00  0.00     0.031 A 
ATOM     39  C   UNL A   1      38.478  30.465  30.812  1.00  0.00     0.074 A 
ATOM     40  C   UNL A   1      39.656  32.531  31.829  1.00  0.00     0.049 A 
ATOM     41  N   UNL A   1      39.033  29.438  31.352  1.00  0.00    -0.248 NA
ATOM     42  C   UNL A   1      37.543  30.092  29.737  1.00  0.00     0.031 C 
ATOM     43  C   UNL A   1      41.080  32.403  31.652  1.00  0.00     0.029 A 
ATOM     44  N   UNL A   1      39.531  33.616  32.719  1.00  0.00    -0.354 N 
ATOM     45  C   UNL A   1      38.975  28.462  30.376  1.00  0.00     0.074 A 
ATOM     46  C   UNL A   1      37.827  28.793  29.574  1.00  0.00     0.031 C 
ATOM     47  C   UNL A   1      41.702  33.191  32.554  1.00  0.00     0.029 A 
ATOM     48  C   UNL A   1      40.698  33.718  33.473  1.00  0.00     0.049 A 
ATOM     49  H   UNL A   1      38.746  34.206  32.796  1.00  0.00     0.167 HD
ATOM     50  C   UNL A   1      40.126  27.786  30.097  1.00  0.00     0.034 A 
ATOM     51  C   UNL A   1      40.712  33.622  34.842  1.00  0.00     0.034 A 
ATOM     52  C   UNL A   1      41.201  28.294  30.969  1.00  0.00     0.049 A 
ATOM     53  C   UNL A   1      41.358  32.307  35.237  1.00  0.00     0.074 A 
ATOM     54  C   UNL A   1      42.185  29.243  30.732  1.00  0.00     0.029 A 
ATOM     55  N   UNL A   1      41.125  28.143  32.347  1.00  0.00    -0.354 N 
ATOM     56  N   UNL A   1      41.570  31.341  34.395  1.00  0.00    -0.248 NA
ATOM     57  C   UNL A   1      41.692  31.941  36.610  1.00  0.00     0.031 C 
ATOM     58  C   UNL A   1      42.688  29.677  31.983  1.00  0.00     0.029 A 
ATOM     59  C   UNL A   1      41.992  29.019  32.981  1.00  0.00     0.049 A 
ATOM     60  H   UNL A   1      40.537  27.503  32.809  1.00  0.00     0.167 HD
ATOM     61  C   UNL A   1      41.945  30.220  35.069  1.00  0.00     0.074 A 
ATOM     62  C   UNL A   1      42.051  30.656  36.451  1.00  0.00     0.031 C 
ATOM     63  C   UNL A   1      42.089  29.023  34.433  1.00  0.00     0.034 A 
BRANCH  50  64
ATOM     64  C   UNL A   1      40.442  27.042  28.806  1.00  0.00     0.023 A 
ATOM     65  C   UNL A   1      39.744  25.826  28.606  1.00  0.00     0.012 A 
ATOM     66  C   UNL A   1      41.354  27.406  27.787  1.00  0.00     0.148 A 
ATOM     67  C   UNL A   1      39.987  24.972  27.532  1.00  0.00     0.002 A 
ATOM     68  C   UNL A   1      41.608  26.543  26.709  1.00  0.00     0.091 A 
ATOM     69  F   UNL A   1      41.949  28.603  27.824  1.00  0.00    -0.205 F 
ATOM     70  C   UNL A   1      40.933  25.322  26.589  1.00  0.00     0.022 A 
BRANCH  68  71
ATOM     71  S   UNL A   1      42.807  26.898  25.411  1.00  0.00     0.127 S 
ATOM     72  O   UNL A   1      42.215  28.069  24.758  1.00  0.00    -0.237 OA
ATOM     73  O   UNL A   1      44.020  27.181  26.174  1.00  0.00    -0.237 OA
ATOM     74  O   UNL A   1      42.863  25.710  24.568  1.00  0.00    -0.744 OA
ENDBRANCH  68  71
ENDBRANCH  50  64
BRANCH  51  75
ATOM     75  C   UNL A   1      39.441  34.078  35.512  1.00  0.00     0.023 A 
ATOM     76  C   UNL A   1      38.389  33.137  35.619  1.00  0.00     0.012 A 
ATOM     77  C   UNL A   1      39.558  35.085  36.478  1.00  0.00     0.148 A 
ATOM     78  C   UNL A   1      37.722  32.997  36.832  1.00  0.00     0.002 A 
ATOM     79  C   UNL A   1      38.948  34.906  37.696  1.00  0.00     0.091 A 
ATOM     80  F   UNL A   1      40.358  36.136  36.272  1.00  0.00    -0.205 F 
ATOM     81  C   UNL A   1      38.076  33.830  37.889  1.00  0.00     0.022 A 
BRANCH  79  82
ATOM     82  S   UNL A   1      39.516  35.915  39.057  1.00  0.00     0.127 S 
ATOM     83  O   UNL A   1      38.801  35.354  40.194  1.00  0.00    -0.237 OA
ATOM     84  O   UNL A   1      40.956  35.672  39.041  1.00  0.00    -0.237 OA
ATOM     85  O   UNL A   1      39.151  37.262  38.645  1.00  0.00    -0.744 OA
ENDBRANCH  79  82
ENDBRANCH  51  75
BRANCH  63  86
ATOM     86  C   UNL A   1      42.395  27.727  35.120  1.00  0.00     0.023 A 
ATOM     87  C   UNL A   1      41.572  27.183  36.117  1.00  0.00     0.012 A 
ATOM     88  C   UNL A   1      43.486  26.946  34.667  1.00  0.00     0.148 A 
ATOM     89  C   UNL A   1      41.877  25.958  36.713  1.00  0.00     0.002 A 
ATOM     90  C   UNL A   1      43.697  25.671  35.161  1.00  0.00     0.091 A 
ATOM     91  F   UNL A   1      44.346  27.445  33.767  1.00  0.00    -0.205 F 
ATOM     92  C   UNL A   1      42.927  25.191  36.219  1.00  0.00     0.022 A 
BRANCH  90  93
ATOM     93  S   UNL A   1      44.853  24.572  34.339  1.00  0.00     0.127 S 
ATOM     94  O   UNL A   1      46.138  25.186  34.661  1.00  0.00    -0.237 OA
ATOM     95  O   UNL A   1      44.601  23.294  35.008  1.00  0.00    -0.237 OA
ATOM     96  O   UNL A   1      44.462  24.593  32.936  1.00  0.00    -0.744 OA
ENDBRANCH  90  93
ENDBRANCH  63  86
ENDBRANCH  37  38
ENDBRANCH  30  32
ENDBRANCH  29  30
ENDBRANCH  28  29
ENDBRANCH   1  28
TORSDOF 17
ENDMDL
MODEL 2
REMARK VINA RESULT:     -12.6      2.047      2.540
REMARK SMILES CC1=C(C)C[C@@H](C(=O)NNC(=O)c2ccccc2C)[C@@H](C(=O)OCCOC(=O)c2ccc(-c3c4nc(c(-c5cccc(S(=O)(=O)[O-])c5F)c5ccc([nH]5)c(-c5cccc(S(=O)(=O)[O-])c5F)c5nc(c(-c6cccc(S(=O)(=O)[O-])c6F)c6ccc3[nH]6)C=C5)C=C4)cc2)C1
REMARK SMILES IDX 24 1 23 2 21 3 22 4 20 5 1 6 2 7 3 8 92 9 4 10 5 11 6 12
REMARK SMILES IDX 7 13 8 14 9 15 10 17 11 18 12 20 13 21 14 22 18 23 15 24
REMARK SMILES IDX 17 25 19 26 16 27 25 28 26 29 27 30 28 31 29 32 30 33 91 34
REMARK SMILES IDX 31 35 90 36 32 37 33 38 34 39 84 40 35 41 89 42 83 43 85 44
REMARK SMILES IDX 36 45 88 46 82 47 81 48 37 50 69 51 49 52 68 53 50 54 53 55
REMARK SMILES IDX 67 56 86 57 51 58 52 59 66 61 87 62 54 63 38 64 39 65 47 66
REMARK SMILES IDX 40 67 42 68 48 69 41 70 43 71 44 72 45 73 46 74 70 75 71 76
REMARK SMILES IDX 79 77 72 78 74 79 80 80 73 81 75 82 76 83 77 84 78 85 55 86
REMARK SMILES IDX 56 87 64 88 57 89 59 90 65 91 58 92 60 93 61 94 62 95 63 96
REMARK H PARENT 9 16 10 19 85 49 53 60
REMARK Flexibility Score: inf
ROOT
ATOM      1  C   UNL A   1      34.137  29.996  27.209  1.00  0.00     0.274 C 
ENDROOT
BRANCH   1   2
ATOM      2  O   UNL A   1      33.630  28.648  27.266  1.00  0.00    -0.462 OA
BRANCH   2   3
ATOM      3  C   UNL A   1      32.338  28.440  26.949  1.00  0.00     0.310 C 
ATOM      4  O   UNL A   1      31.436  28.481  27.782  1.00  0.00    -0.252 OA
BRANCH   3   5
ATOM      5  C   UNL A   1      32.074  28.128  25.466  1.00  0.00     0.116 C 
ATOM      6  C   UNL A   1      34.057  28.084  22.035  1.00  0.00     0.039 C 
ATOM      7  C   UNL A   1      32.988  27.741  23.057  1.00  0.00    -0.073 C 
ATOM      8  C   UNL A   1      32.001  26.847  22.815  1.00  0.00    -0.074 C 
ATOM      9  C   UNL A   1      33.161  28.433  24.411  1.00  0.00     0.046 C 
ATOM     10  C   UNL A   1      31.852  26.018  21.561  1.00  0.00     0.039 C 
ATOM     11  C   UNL A   1      30.948  26.532  23.840  1.00  0.00     0.045 C 
ATOM     12  C   UNL A   1      31.354  26.772  25.282  1.00  0.00     0.099 C 
BRANCH  12  13
ATOM     13  C   UNL A   1      31.864  25.564  26.087  1.00  0.00     0.242 C 
ATOM     14  O   UNL A   1      31.164  25.202  27.044  1.00  0.00    -0.273 OA
ATOM     15  N   UNL A   1      33.008  24.841  25.861  1.00  0.00    -0.267 N 
ATOM     16  H   UNL A   1      33.238  24.160  26.533  1.00  0.00     0.191 HD
BRANCH  15  17
ATOM     17  N   UNL A   1      33.875  24.969  24.781  1.00  0.00    -0.263 N 
ATOM     18  C   UNL A   1      34.252  23.995  23.857  1.00  0.00     0.269 C 
ATOM     19  H   UNL A   1      34.273  25.860  24.653  1.00  0.00     0.191 HD
ATOM     20  O   UNL A   1      34.850  24.303  22.824  1.00  0.00    -0.267 OA
BRANCH  18  21
ATOM     21  C   UNL A   1      34.080  22.535  24.092  1.00  0.00     0.044 A 
ATOM     22  C   UNL A   1      35.186  21.869  24.670  1.00  0.00     0.014 A 
ATOM     23  C   UNL A   1      32.962  21.786  23.714  1.00  0.00    -0.038 A 
ATOM     24  C   UNL A   1      35.141  20.507  24.976  1.00  0.00     0.001 A 
ATOM     25  C   UNL A   1      32.927  20.413  24.033  1.00  0.00     0.004 A 
ATOM     26  C   UNL A   1      31.820  22.369  22.943  1.00  0.00     0.045 C 
ATOM     27  C   UNL A   1      34.001  19.779  24.668  1.00  0.00     0.000 A 
ENDBRANCH  18  21
ENDBRANCH  15  17
ENDBRANCH  12  13
ENDBRANCH   3   5
ENDBRANCH   2   3
ENDBRANCH   1   2
BRANCH   1  28
ATOM     28  C   UNL A   1      33.138  31.159  27.443  1.00  0.00     0.275 C 
BRANCH  28  29
ATOM     29  O   UNL A   1      33.538  32.537  27.703  1.00  0.00    -0.458 OA
BRANCH  29  30
ATOM     30  C   UNL A   1      34.031  33.115  28.823  1.00  0.00     0.338 C 
ATOM     31  O   UNL A   1      33.457  33.930  29.511  1.00  0.00    -0.246 OA
BRANCH  30  32
ATOM     32  C   UNL A   1      35.376  32.701  29.155  1.00  0.00     0.060 A 
ATOM     33  C   UNL A   1      36.429  33.157  28.355  1.00  0.00     0.016 A 
ATOM     34  C   UNL A   1      35.560  31.955  30.311  1.00  0.00     0.016 A 
ATOM     35  C   UNL A   1      37.722  32.875  28.702  1.00  0.00     0.010 A 
ATOM     36  C   UNL A   1      36.850  31.711  30.689  1.00  0.00     0.010 A 
ATOM     37  C   UNL A   1      37.893  32.113  29.834  1.00  0.00    -0.014 A 
BRANCH  37  38
ATOM     38  C   UNL A   1      39.143  31.433  30.028  1.00  0.00     0.031 A 
ATOM     39  C   UNL A   1      39.209  30.016  29.664  1.00  0.00     0.074 A 
ATOM     40  C   UNL A   1      40.077  32.333  30.415  1.00  0.00     0.049 A 
ATOM     41  N   UNL A   1      39.943  29.148  30.266  1.00  0.00    -0.248 NA
ATOM     42  C   UNL A   1      38.304  29.393  28.682  1.00  0.00     0.031 C 
ATOM     43  C   UNL A   1      41.494  32.412  30.174  1.00  0.00     0.029 A 
ATOM     44  N   UNL A   1      39.813  33.470  31.206  1.00  0.00    -0.354 N 
ATOM     45  C   UNL A   1      40.005  28.081  29.391  1.00  0.00     0.074 A 
ATOM     46  C   UNL A   1      38.788  28.145  28.626  1.00  0.00     0.031 C 
ATOM     47  C   UNL A   1      42.017  33.376  30.962  1.00  0.00     0.029 A 
ATOM     48  C   UNL A   1      40.977  33.829  31.881  1.00  0.00     0.049 A 
ATOM     49  H   UNL A   1      38.947  33.934  31.270  1.00  0.00     0.167 HD
ATOM     50  C   UNL A   1      41.238  27.569  29.113  1.00  0.00     0.034 A 
ATOM     51  C   UNL A   1      41.061  33.876  33.250  1.00  0.00     0.034 A 
ATOM     52  C   UNL A   1      42.251  28.325  29.873  1.00  0.00     0.049 A 
ATOM     53  C   UNL A   1      41.925  32.726  33.730  1.00  0.00     0.074 A 
ATOM     54  C   UNL A   1      43.058  29.388  29.495  1.00  0.00     0.029 A 
ATOM     55  N   UNL A   1      42.254  28.305  31.261  1.00  0.00    -0.354 N 
ATOM     56  N   UNL A   1      42.258  31.725  32.972  1.00  0.00    -0.248 NA
ATOM     57  C   UNL A   1      42.368  32.558  35.111  1.00  0.00     0.031 C 
ATOM     58  C   UNL A   1      43.533  30.020  30.670  1.00  0.00     0.029 A 
ATOM     59  C   UNL A   1      42.993  29.367  31.762  1.00  0.00     0.049 A 
ATOM     60  H   UNL A   1      41.796  27.631  31.813  1.00  0.00     0.167 HD
ATOM     61  C   UNL A   1      42.835  30.751  33.727  1.00  0.00     0.074 A 
ATOM     62  C   UNL A   1      42.924  31.336  35.054  1.00  0.00     0.031 C 
ATOM     63  C   UNL A   1      43.145  29.533  33.200  1.00  0.00     0.034 A 
BRANCH  50  64
ATOM     64  C   UNL A   1      41.619  26.757  27.883  1.00  0.00     0.023 A 
ATOM     65  C   UNL A   1      41.680  27.475  26.663  1.00  0.00     0.012 A 
ATOM     66  C   UNL A   1      41.905  25.374  27.801  1.00  0.00     0.148 A 
ATOM     67  C   UNL A   1      41.913  26.870  25.430  1.00  0.00     0.002 A 
ATOM     68  C   UNL A   1      42.131  24.760  26.559  1.00  0.00     0.091 A 
ATOM     69  F   UNL A   1      42.009  24.649  28.920  1.00  0.00    -0.205 F 
ATOM     70  C   UNL A   1      42.123  25.505  25.373  1.00  0.00     0.022 A 
BRANCH  68  71
ATOM     71  S   UNL A   1      42.429  22.993  26.361  1.00  0.00     0.127 S 
ATOM     72  O   UNL A   1      41.141  22.418  26.759  1.00  0.00    -0.237 OA
ATOM     73  O   UNL A   1      42.725  22.883  24.935  1.00  0.00    -0.237 OA
ATOM     74  O   UNL A   1      43.532  22.661  27.254  1.00  0.00    -0.744 OA
ENDBRANCH  68  71
ENDBRANCH  50  64
BRANCH  51  75
ATOM     75  C   UNL A   1      39.760  34.193  33.943  1.00  0.00     0.023 A 
ATOM     76  C   UNL A   1      38.718  33.241  33.835  1.00  0.00     0.012 A 
ATOM     77  C   UNL A   1      39.828  35.005  35.082  1.00  0.00     0.148 A 
ATOM     78  C   UNL A   1      38.009  32.876  34.975  1.00  0.00     0.002 A 
ATOM     79  C   UNL A   1      39.177  34.601  36.222  1.00  0.00     0.091 A 
ATOM     80  F   UNL A   1      40.621  36.082  35.104  1.00  0.00    -0.205 F 
ATOM     81  C   UNL A   1      38.313  33.502  36.180  1.00  0.00     0.022 A 
BRANCH  79  82
ATOM     82  S   UNL A   1      39.681  35.345  37.766  1.00  0.00     0.127 S 
ATOM     83  O   UNL A   1      41.071  34.929  37.884  1.00  0.00    -0.237 OA
ATOM     84  O   UNL A   1      39.474  36.766  37.506  1.00  0.00    -0.237 OA
ATOM     85  O   UNL A   1      38.740  34.787  38.726  1.00  0.00    -0.744 OA
ENDBRANCH  79  82
ENDBRANCH  51  75
BRANCH  63  86
ATOM     86  C   UNL A   1      43.683  28.378  33.987  1.00  0.00     0.023 A 
ATOM     87  C   UNL A   1      45.052  28.205  34.242  1.00  0.00     0.012 A 
ATOM     88  C   UNL A   1      42.779  27.487  34.614  1.00  0.00     0.148 A 
ATOM     89  C   UNL A   1      45.511  27.129  35.005  1.00  0.00     0.002 A 
ATOM     90  C   UNL A   1      43.233  26.513  35.486  1.00  0.00     0.091 A 
ATOM     91  F   UNL A   1      41.465  27.562  34.351  1.00  0.00    -0.205 F 
ATOM     92  C   UNL A   1      44.600  26.296  35.646  1.00  0.00     0.022 A 
BRANCH  90  93
ATOM     93  S   UNL A   1      42.070  25.632  36.530  1.00  0.00     0.127 S 
ATOM     94  O   UNL A   1      41.601  24.575  35.640  1.00  0.00    -0.237 OA
ATOM     95  O   UNL A   1      42.921  25.174  37.630  1.00  0.00    -0.237 OA
ATOM     96  O   UNL A   1      41.083  26.631  36.921  1.00  0.00    -0.744 OA
ENDBRANCH  90  93
ENDBRANCH  63  86
ENDBRANCH  37  38
ENDBRANCH  30  32
ENDBRANCH  29  30
ENDBRANCH  28  29
ENDBRANCH   1  28
TORSDOF 17
ENDMDL
MODEL 3
REMARK VINA RESULT:     -12.3      5.103     10.751
REMARK SMILES CC1=C(C)C[C@@H](C(=O)NNC(=O)c2ccccc2C)[C@@H](C(=O)OCCOC(=O)c2ccc(-c3c4nc(c(-c5cccc(S(=O)(=O)[O-])c5F)c5ccc([nH]5)c(-c5cccc(S(=O)(=O)[O-])c5F)c5nc(c(-c6cccc(S(=O)(=O)[O-])c6F)c6ccc3[nH]6)C=C5)C=C4)cc2)C1
REMARK SMILES IDX 24 1 23 2 21 3 22 4 20 5 1 6 2 7 3 8 92 9 4 10 5 11 6 12
REMARK SMILES IDX 7 13 8 14 9 15 10 17 11 18 12 20 13 21 14 22 18 23 15 24
REMARK SMILES IDX 17 25 19 26 16 27 25 28 26 29 27 30 28 31 29 32 30 33 91 34
REMARK SMILES IDX 31 35 90 36 32 37 33 38 34 39 84 40 35 41 89 42 83 43 85 44
REMARK SMILES IDX 36 45 88 46 82 47 81 48 37 50 69 51 49 52 68 53 50 54 53 55
REMARK SMILES IDX 67 56 86 57 51 58 52 59 66 61 87 62 54 63 38 64 39 65 47 66
REMARK SMILES IDX 40 67 42 68 48 69 41 70 43 71 44 72 45 73 46 74 70 75 71 76
REMARK SMILES IDX 79 77 72 78 74 79 80 80 73 81 75 82 76 83 77 84 78 85 55 86
REMARK SMILES IDX 56 87 64 88 57 89 59 90 65 91 58 92 60 93 61 94 62 95 63 96
REMARK H PARENT 9 16 10 19 85 49 53 60
REMARK Flexibility Score: inf
ROOT
ATOM      1  C   UNL A   1      39.417  21.931  26.365  1.00  0.00     0.274 C 
ENDROOT
BRANCH   1   2
ATOM      2  O   UNL A   1      38.373  22.241  25.421  1.00  0.00    -0.462 OA
BRANCH   2   3
ATOM      3  C   UNL A   1      37.343  23.001  25.838  1.00  0.00     0.310 C 
ATOM      4  O   UNL A   1      37.475  24.180  26.157  1.00  0.00    -0.252 OA
BRANCH   3   5
ATOM      5  C   UNL A   1      35.986  22.278  25.904  1.00  0.00     0.116 C 
ATOM      6  C   UNL A   1      32.380  22.856  27.444  1.00  0.00     0.039 C 
ATOM      7  C   UNL A   1      33.454  22.312  26.519  1.00  0.00    -0.073 C 
ATOM      8  C   UNL A   1      33.181  21.485  25.483  1.00  0.00    -0.074 C 
ATOM      9  C   UNL A   1      34.863  22.834  26.809  1.00  0.00     0.046 C 
ATOM     10  C   UNL A   1      31.803  21.045  25.046  1.00  0.00     0.039 C 
ATOM     11  C   UNL A   1      34.265  20.952  24.587  1.00  0.00     0.045 C 
ATOM     12  C   UNL A   1      35.518  21.801  24.509  1.00  0.00     0.099 C 
BRANCH  12  13
ATOM     13  C   UNL A   1      35.642  22.780  23.329  1.00  0.00     0.242 C 
ATOM     14  O   UNL A   1      36.723  22.782  22.723  1.00  0.00    -0.273 OA
ATOM     15  N   UNL A   1      34.685  23.650  22.870  1.00  0.00    -0.267 N 
ATOM     16  H   UNL A   1      34.963  24.279  22.166  1.00  0.00     0.191 HD
BRANCH  15  17
ATOM     17  N   UNL A   1      33.363  23.736  23.295  1.00  0.00    -0.263 N 
ATOM     18  C   UNL A   1      32.563  24.872  23.406  1.00  0.00     0.269 C 
ATOM     19  H   UNL A   1      32.938  22.884  23.551  1.00  0.00     0.191 HD
ATOM     20  O   UNL A   1      31.348  24.773  23.582  1.00  0.00    -0.267 OA
BRANCH  18  21
ATOM     21  C   UNL A   1      33.111  26.256  23.445  1.00  0.00     0.044 A 
ATOM     22  C   UNL A   1      33.325  26.870  22.189  1.00  0.00     0.014 A 
ATOM     23  C   UNL A   1      33.496  26.936  24.604  1.00  0.00    -0.038 A 
ATOM     24  C   UNL A   1      33.800  28.179  22.087  1.00  0.00     0.001 A 
ATOM     25  C   UNL A   1      33.970  28.259  24.487  1.00  0.00     0.004 A 
ATOM     26  C   UNL A   1      33.470  26.304  25.960  1.00  0.00     0.045 C 
ATOM     27  C   UNL A   1      34.111  28.881  23.242  1.00  0.00     0.000 A 
ENDBRANCH  18  21
ENDBRANCH  15  17
ENDBRANCH  12  13
ENDBRANCH   3   5
ENDBRANCH   2   3
ENDBRANCH   1   2
BRANCH   1  28
ATOM     28  C   UNL A   1      40.128  20.559  26.238  1.00  0.00     0.275 C 
BRANCH  28  29
ATOM     29  O   UNL A   1      41.538  20.340  26.537  1.00  0.00    -0.458 OA
BRANCH  29  30
ATOM     30  C   UNL A   1      42.645  20.958  26.065  1.00  0.00     0.338 C 
ATOM     31  O   UNL A   1      43.439  20.486  25.280  1.00  0.00    -0.246 OA
BRANCH  30  32
ATOM     32  C   UNL A   1      42.856  22.282  26.606  1.00  0.00     0.060 A 
ATOM     33  C   UNL A   1      42.791  22.452  27.993  1.00  0.00     0.016 A 
ATOM     34  C   UNL A   1      43.214  23.294  25.727  1.00  0.00     0.016 A 
ATOM     35  C   UNL A   1      43.092  23.666  28.547  1.00  0.00     0.010 A 
ATOM     36  C   UNL A   1      43.563  24.495  26.277  1.00  0.00     0.010 A 
ATOM     37  C   UNL A   1      43.419  24.670  27.666  1.00  0.00    -0.014 A 
BRANCH  37  38
ATOM     38  C   UNL A   1      43.335  26.034  28.109  1.00  0.00     0.031 A 
ATOM     39  C   UNL A   1      42.060  26.730  27.922  1.00  0.00     0.074 A 
ATOM     40  C   UNL A   1      44.482  26.359  28.749  1.00  0.00     0.049 A 
ATOM     41  N   UNL A   1      41.953  27.990  27.688  1.00  0.00    -0.248 NA
ATOM     42  C   UNL A   1      40.769  26.031  27.802  1.00  0.00     0.031 C 
ATOM     43  C   UNL A   1      44.748  27.242  29.855  1.00  0.00     0.029 A 
ATOM     44  N   UNL A   1      45.754  25.848  28.421  1.00  0.00    -0.354 N 
ATOM     45  C   UNL A   1      40.632  28.283  27.968  1.00  0.00     0.074 A 
ATOM     46  C   UNL A   1      39.913  27.059  27.730  1.00  0.00     0.031 C 
ATOM     47  C   UNL A   1      46.084  27.396  29.977  1.00  0.00     0.029 A 
ATOM     48  C   UNL A   1      46.725  26.760  28.830  1.00  0.00     0.049 A 
ATOM     49  H   UNL A   1      45.927  24.987  27.977  1.00  0.00     0.167 HD
ATOM     50  C   UNL A   1      40.384  29.350  28.780  1.00  0.00     0.034 A 
ATOM     51  C   UNL A   1      47.612  27.345  27.961  1.00  0.00     0.034 A 
ATOM     52  C   UNL A   1      41.668  29.963  29.167  1.00  0.00     0.049 A 
ATOM     53  C   UNL A   1      47.249  28.809  27.800  1.00  0.00     0.074 A 
ATOM     54  C   UNL A   1      42.442  29.798  30.306  1.00  0.00     0.029 A 
ATOM     55  N   UNL A   1      42.495  30.536  28.210  1.00  0.00    -0.354 N 
ATOM     56  N   UNL A   1      46.116  29.307  28.195  1.00  0.00    -0.248 NA
ATOM     57  C   UNL A   1      48.069  29.779  27.081  1.00  0.00     0.031 C 
ATOM     58  C   UNL A   1      43.750  30.259  30.020  1.00  0.00     0.029 A 
ATOM     59  C   UNL A   1      43.784  30.675  28.702  1.00  0.00     0.049 A 
ATOM     60  H   UNL A   1      42.207  30.805  27.308  1.00  0.00     0.167 HD
ATOM     61  C   UNL A   1      45.982  30.575  27.720  1.00  0.00     0.074 A 
ATOM     62  C   UNL A   1      47.251  30.844  27.065  1.00  0.00     0.031 C 
ATOM     63  C   UNL A   1      44.819  31.270  27.870  1.00  0.00     0.034 A 
BRANCH  50  64
ATOM     64  C   UNL A   1      39.120  29.586  29.594  1.00  0.00     0.023 A 
ATOM     65  C   UNL A   1      38.827  28.610  30.579  1.00  0.00     0.012 A 
ATOM     66  C   UNL A   1      38.192  30.649  29.483  1.00  0.00     0.148 A 
ATOM     67  C   UNL A   1      37.660  28.617  31.341  1.00  0.00     0.002 A 
ATOM     68  C   UNL A   1      37.012  30.654  30.243  1.00  0.00     0.091 A 
ATOM     69  F   UNL A   1      38.461  31.685  28.682  1.00  0.00    -0.205 F 
ATOM     70  C   UNL A   1      36.741  29.633  31.162  1.00  0.00     0.022 A 
BRANCH  68  71
ATOM     71  S   UNL A   1      35.746  31.931  30.108  1.00  0.00     0.127 S 
ATOM     72  O   UNL A   1      34.977  31.478  28.946  1.00  0.00    -0.237 OA
ATOM     73  O   UNL A   1      35.042  31.810  31.382  1.00  0.00    -0.237 OA
ATOM     74  O   UNL A   1      36.453  33.189  29.903  1.00  0.00    -0.744 OA
ENDBRANCH  68  71
ENDBRANCH  50  64
BRANCH  51  75
ATOM     75  C   UNL A   1      47.947  26.506  26.754  1.00  0.00     0.023 A 
ATOM     76  C   UNL A   1      47.218  26.754  25.567  1.00  0.00     0.012 A 
ATOM     77  C   UNL A   1      49.257  26.020  26.663  1.00  0.00     0.148 A 
ATOM     78  C   UNL A   1      47.900  26.861  24.359  1.00  0.00     0.002 A 
ATOM     79  C   UNL A   1      49.944  26.188  25.484  1.00  0.00     0.091 A 
ATOM     80  F   UNL A   1      49.876  25.524  27.739  1.00  0.00    -0.205 F 
ATOM     81  C   UNL A   1      49.278  26.663  24.351  1.00  0.00     0.022 A 
BRANCH  79  82
ATOM     82  S   UNL A   1      51.723  26.044  25.542  1.00  0.00     0.127 S 
ATOM     83  O   UNL A   1      52.093  27.027  26.549  1.00  0.00    -0.237 OA
ATOM     84  O   UNL A   1      51.907  24.649  25.932  1.00  0.00    -0.237 OA
ATOM     85  O   UNL A   1      52.123  26.321  24.170  1.00  0.00    -0.744 OA
ENDBRANCH  79  82
ENDBRANCH  51  75
BRANCH  63  86
ATOM     86  C   UNL A   1      44.559  32.625  27.286  1.00  0.00     0.023 A 
ATOM     87  C   UNL A   1      44.323  32.830  25.918  1.00  0.00     0.012 A 
ATOM     88  C   UNL A   1      44.414  33.735  28.153  1.00  0.00     0.148 A 
ATOM     89  C   UNL A   1      44.056  34.106  25.418  1.00  0.00     0.002 A 
ATOM     90  C   UNL A   1      44.006  34.965  27.667  1.00  0.00     0.091 A 
ATOM     91  F   UNL A   1      44.695  33.613  29.459  1.00  0.00    -0.205 F 
ATOM     92  C   UNL A   1      43.874  35.170  26.295  1.00  0.00     0.022 A 
BRANCH  90  93
ATOM     93  S   UNL A   1      43.493  36.253  28.806  1.00  0.00     0.127 S 
ATOM     94  O   UNL A   1      44.663  37.126  28.826  1.00  0.00    -0.237 OA
ATOM     95  O   UNL A   1      42.320  36.816  28.135  1.00  0.00    -0.237 OA
ATOM     96  O   UNL A   1      43.187  35.557  30.050  1.00  0.00    -0.744 OA
ENDBRANCH  90  93
ENDBRANCH  63  86
ENDBRANCH  37  38
ENDBRANCH  30  32
ENDBRANCH  29  30
ENDBRANCH  28  29
ENDBRANCH   1  28
TORSDOF 17
ENDMDL
