MODEL 1
REMARK VINA RESULT:     -11.6      0.000      0.000
REMARK SMILES COc1cccc(-c2c(C(=O)OCCOC(=O)c3ccc(-c4c5nc(c(-c6cccc(S(=O)(=O)[O-])c6F)c6ccc([nH]6)c(-c6cccc(S(=O)(=O)[O-])c6F)c6nc(c(-c7cccc(S(=O)(=O)[O-])c7F)c7ccc4[nH]7)C=C6)C=C5)cc3)nnn2-c2ccc(OC(F)(F)F)cc2)c1
REMARK SMILES IDX 13 1 12 2 10 3 11 4 9 5 8 6 83 7 81 8 82 9 7 10 3 11 4 12
REMARK SMILES IDX 95 13 5 14 6 15 2 16 1 17 84 18 85 19 94 20 86 21 93 22
REMARK SMILES IDX 87 23 88 24 89 25 90 26 91 27 92 28 14 29 15 30 16 31 17 32
REMARK SMILES IDX 18 33 19 34 80 35 20 36 79 37 21 38 22 39 23 40 73 41 24 42
REMARK SMILES IDX 78 43 72 44 74 45 25 46 77 47 71 48 70 49 26 51 58 52 38 53
REMARK SMILES IDX 57 54 39 55 42 56 56 57 75 58 40 59 41 60 55 62 76 63 43 64
REMARK SMILES IDX 27 65 28 66 36 67 29 68 31 69 37 70 30 71 32 72 33 73 34 74
REMARK SMILES IDX 35 75 59 76 60 77 68 78 61 79 63 80 69 81 62 82 64 83 65 84
REMARK SMILES IDX 66 85 67 86 44 87 45 88 53 89 46 90 48 91 54 92 47 93 49 94
REMARK SMILES IDX 50 95 51 96 52 97
REMARK H PARENT 74 50 42 61
REMARK Flexibility Score: inf
ROOT
ATOM      1  C   UNL A   1      33.590  31.850  27.684  1.00  0.00     0.275 C 
ENDROOT
BRANCH   1   2
ATOM      2  O   UNL A   1      33.321  30.451  27.493  1.00  0.00    -0.457 OA
BRANCH   2   3
ATOM      3  C   UNL A   1      32.250  30.133  26.709  1.00  0.00     0.361 C 
ATOM      4  O   UNL A   1      31.659  30.944  26.001  1.00  0.00    -0.244 OA
BRANCH   3   5
ATOM      5  C   UNL A   1      31.899  28.718  26.764  1.00  0.00     0.198 A 
ATOM      6  C   UNL A   1      32.114  27.716  25.822  1.00  0.00     0.109 A 
ATOM      7  N   UNL A   1      31.605  26.585  26.453  1.00  0.00    -0.212 N 
ATOM      8  N   UNL A   1      31.186  28.198  27.820  1.00  0.00    -0.122 NA
ATOM      9  N   UNL A   1      30.921  26.927  27.564  1.00  0.00    -0.061 NA
BRANCH   6  10
ATOM     10  C   UNL A   1      32.689  27.725  24.474  1.00  0.00     0.007 A 
ATOM     11  C   UNL A   1      33.080  26.607  22.344  1.00  0.00     0.119 A 
ATOM     12  C   UNL A   1      33.908  27.663  21.957  1.00  0.00     0.046 A 
ATOM     13  C   UNL A   1      32.459  26.649  23.593  1.00  0.00     0.056 A 
ATOM     14  C   UNL A   1      34.108  28.754  22.801  1.00  0.00     0.005 A 
ATOM     15  C   UNL A   1      33.510  28.779  24.059  1.00  0.00     0.011 A 
BRANCH  11  16
ATOM     16  O   UNL A   1      33.000  25.585  21.438  1.00  0.00    -0.497 OA
ATOM     17  C   UNL A   1      32.997  24.262  21.961  1.00  0.00     0.278 C 
ENDBRANCH  11  16
ENDBRANCH   6  10
BRANCH   7  18
ATOM     18  C   UNL A   1      31.842  25.225  26.144  1.00  0.00     0.067 A 
ATOM     19  C   UNL A   1      33.105  24.667  26.341  1.00  0.00     0.032 A 
ATOM     20  C   UNL A   1      30.803  24.449  25.619  1.00  0.00     0.032 A 
ATOM     21  C   UNL A   1      33.295  23.307  26.078  1.00  0.00     0.049 A 
ATOM     22  C   UNL A   1      31.015  23.104  25.318  1.00  0.00     0.049 A 
ATOM     23  C   UNL A   1      32.255  22.517  25.568  1.00  0.00     0.129 A 
BRANCH  23  24
ATOM     24  O   UNL A   1      32.575  21.206  25.361  1.00  0.00    -0.406 OA
BRANCH  24  25
ATOM     25  C   UNL A   1      33.132  20.861  24.104  1.00  0.00     0.573 C 
ATOM     26  F   UNL A   1      34.152  21.681  23.771  1.00  0.00    -0.132 F 
ATOM     27  F   UNL A   1      33.565  19.582  24.097  1.00  0.00    -0.132 F 
ATOM     28  F   UNL A   1      32.177  20.982  23.155  1.00  0.00    -0.132 F 
ENDBRANCH  24  25
ENDBRANCH  23  24
ENDBRANCH   7  18
ENDBRANCH   3   5
ENDBRANCH   2   3
ENDBRANCH   1   2
BRANCH   1  29
ATOM     29  C   UNL A   1      35.088  32.112  27.703  1.00  0.00     0.275 C 
BRANCH  29  30
ATOM     30  O   UNL A   1      35.701  31.497  28.833  1.00  0.00    -0.458 OA
BRANCH  30  31
ATOM     31  C   UNL A   1      36.454  32.325  29.594  1.00  0.00     0.338 C 
ATOM     32  O   UNL A   1      36.350  33.538  29.679  1.00  0.00    -0.246 OA
BRANCH  31  33
ATOM     33  C   UNL A   1      37.583  31.572  30.143  1.00  0.00     0.060 A 
ATOM     34  C   UNL A   1      38.829  32.208  30.177  1.00  0.00     0.016 A 
ATOM     35  C   UNL A   1      37.447  30.191  30.338  1.00  0.00     0.016 A 
ATOM     36  C   UNL A   1      39.964  31.427  30.258  1.00  0.00     0.010 A 
ATOM     37  C   UNL A   1      38.578  29.414  30.398  1.00  0.00     0.010 A 
ATOM     38  C   UNL A   1      39.820  30.037  30.294  1.00  0.00    -0.014 A 
BRANCH  38  39
ATOM     39  C   UNL A   1      41.012  29.218  30.291  1.00  0.00     0.031 A 
ATOM     40  C   UNL A   1      41.541  28.921  31.639  1.00  0.00     0.074 A 
ATOM     41  C   UNL A   1      41.477  28.653  29.162  1.00  0.00     0.049 A 
ATOM     42  N   UNL A   1      42.681  29.267  32.135  1.00  0.00    -0.248 NA
ATOM     43  C   UNL A   1      40.629  28.282  32.600  1.00  0.00     0.031 C 
ATOM     44  C   UNL A   1      40.831  28.635  27.845  1.00  0.00     0.029 A 
ATOM     45  N   UNL A   1      42.556  27.841  28.997  1.00  0.00    -0.354 N 
ATOM     46  C   UNL A   1      42.717  28.686  33.400  1.00  0.00     0.074 A 
ATOM     47  C   UNL A   1      41.373  28.279  33.705  1.00  0.00     0.031 C 
ATOM     48  C   UNL A   1      41.394  27.661  27.095  1.00  0.00     0.029 A 
ATOM     49  C   UNL A   1      42.507  27.088  27.831  1.00  0.00     0.049 A 
ATOM     50  H   UNL A   1      43.298  27.790  29.641  1.00  0.00     0.167 HD
ATOM     51  C   UNL A   1      43.893  28.340  33.986  1.00  0.00     0.034 A 
ATOM     52  C   UNL A   1      43.276  26.014  27.534  1.00  0.00     0.034 A 
ATOM     53  C   UNL A   1      45.014  28.977  33.346  1.00  0.00     0.049 A 
ATOM     54  C   UNL A   1      44.464  26.056  28.416  1.00  0.00     0.074 A 
ATOM     55  C   UNL A   1      45.425  30.277  33.145  1.00  0.00     0.029 A 
ATOM     56  N   UNL A   1      45.737  28.199  32.477  1.00  0.00    -0.354 N 
ATOM     57  N   UNL A   1      45.395  26.964  28.331  1.00  0.00    -0.248 NA
ATOM     58  C   UNL A   1      44.441  25.302  29.659  1.00  0.00     0.031 C 
ATOM     59  C   UNL A   1      46.089  30.269  31.884  1.00  0.00     0.029 A 
ATOM     60  C   UNL A   1      46.069  28.962  31.392  1.00  0.00     0.049 A 
ATOM     61  H   UNL A   1      45.975  27.253  32.612  1.00  0.00     0.167 HD
ATOM     62  C   UNL A   1      45.771  27.200  29.647  1.00  0.00     0.074 A 
ATOM     63  C   UNL A   1      45.271  26.049  30.392  1.00  0.00     0.031 C 
ATOM     64  C   UNL A   1      46.185  28.439  30.045  1.00  0.00     0.034 A 
BRANCH  51  65
ATOM     65  C   UNL A   1      44.082  27.132  34.876  1.00  0.00     0.023 A 
ATOM     66  C   UNL A   1      44.617  27.363  36.163  1.00  0.00     0.012 A 
ATOM     67  C   UNL A   1      44.039  25.791  34.432  1.00  0.00     0.148 A 
ATOM     68  C   UNL A   1      45.134  26.322  36.940  1.00  0.00     0.002 A 
ATOM     69  C   UNL A   1      44.476  24.750  35.243  1.00  0.00     0.091 A 
ATOM     70  F   UNL A   1      43.712  25.507  33.168  1.00  0.00    -0.205 F 
ATOM     71  C   UNL A   1      45.056  25.013  36.484  1.00  0.00     0.022 A 
BRANCH  69  72
ATOM     72  S   UNL A   1      44.343  23.038  34.714  1.00  0.00     0.127 S 
ATOM     73  O   UNL A   1      42.925  22.942  34.384  1.00  0.00    -0.237 OA
ATOM     74  O   UNL A   1      45.250  23.005  33.566  1.00  0.00    -0.237 OA
ATOM     75  O   UNL A   1      44.797  22.247  35.851  1.00  0.00    -0.744 OA
ENDBRANCH  69  72
ENDBRANCH  51  65
BRANCH  52  76
ATOM     76  C   UNL A   1      42.955  24.843  26.690  1.00  0.00     0.023 A 
ATOM     77  C   UNL A   1      43.814  24.481  25.637  1.00  0.00     0.012 A 
ATOM     78  C   UNL A   1      41.936  23.938  27.065  1.00  0.00     0.148 A 
ATOM     79  C   UNL A   1      43.676  23.249  24.988  1.00  0.00     0.002 A 
ATOM     80  C   UNL A   1      41.795  22.719  26.410  1.00  0.00     0.091 A 
ATOM     81  F   UNL A   1      41.162  24.239  28.116  1.00  0.00    -0.205 F 
ATOM     82  C   UNL A   1      42.672  22.366  25.378  1.00  0.00     0.022 A 
BRANCH  80  83
ATOM     83  S   UNL A   1      40.532  21.523  26.866  1.00  0.00     0.127 S 
ATOM     84  O   UNL A   1      40.895  20.371  26.038  1.00  0.00    -0.237 OA
ATOM     85  O   UNL A   1      40.778  21.352  28.294  1.00  0.00    -0.237 OA
ATOM     86  O   UNL A   1      39.256  22.133  26.515  1.00  0.00    -0.744 OA
ENDBRANCH  80  83
ENDBRANCH  52  76
BRANCH  64  87
ATOM     87  C   UNL A   1      46.513  29.447  28.971  1.00  0.00     0.023 A 
ATOM     88  C   UNL A   1      47.780  29.486  28.350  1.00  0.00     0.012 A 
ATOM     89  C   UNL A   1      45.478  30.243  28.452  1.00  0.00     0.148 A 
ATOM     90  C   UNL A   1      48.016  30.317  27.253  1.00  0.00     0.002 A 
ATOM     91  C   UNL A   1      45.703  31.032  27.331  1.00  0.00     0.091 A 
ATOM     92  F   UNL A   1      44.277  30.186  29.047  1.00  0.00    -0.205 F 
ATOM     93  C   UNL A   1      46.973  31.080  26.734  1.00  0.00     0.022 A 
BRANCH  91  94
ATOM     94  S   UNL A   1      44.373  31.931  26.528  1.00  0.00     0.127 S 
ATOM     95  O   UNL A   1      44.007  32.912  27.548  1.00  0.00    -0.237 OA
ATOM     96  O   UNL A   1      45.040  32.492  25.351  1.00  0.00    -0.237 OA
ATOM     97  O   UNL A   1      43.349  30.941  26.215  1.00  0.00    -0.744 OA
ENDBRANCH  91  94
ENDBRANCH  64  87
ENDBRANCH  38  39
ENDBRANCH  31  33
ENDBRANCH  30  31
ENDBRANCH  29  30
ENDBRANCH   1  29
TORSDOF 19
ENDMDL
MODEL 2
REMARK VINA RESULT:     -11.5      1.370      1.828
REMARK SMILES COc1cccc(-c2c(C(=O)OCCOC(=O)c3ccc(-c4c5nc(c(-c6cccc(S(=O)(=O)[O-])c6F)c6ccc([nH]6)c(-c6cccc(S(=O)(=O)[O-])c6F)c6nc(c(-c7cccc(S(=O)(=O)[O-])c7F)c7ccc4[nH]7)C=C6)C=C5)cc3)nnn2-c2ccc(OC(F)(F)F)cc2)c1
REMARK SMILES IDX 13 1 12 2 10 3 11 4 9 5 8 6 83 7 81 8 82 9 7 10 3 11 4 12
REMARK SMILES IDX 95 13 5 14 6 15 2 16 1 17 84 18 85 19 94 20 86 21 93 22
REMARK SMILES IDX 87 23 88 24 89 25 90 26 91 27 92 28 14 29 15 30 16 31 17 32
REMARK SMILES IDX 18 33 19 34 80 35 20 36 79 37 21 38 22 39 23 40 73 41 24 42
REMARK SMILES IDX 78 43 72 44 74 45 25 46 77 47 71 48 70 49 26 51 58 52 38 53
REMARK SMILES IDX 57 54 39 55 42 56 56 57 75 58 40 59 41 60 55 62 76 63 43 64
REMARK SMILES IDX 27 65 28 66 36 67 29 68 31 69 37 70 30 71 32 72 33 73 34 74
REMARK SMILES IDX 35 75 59 76 60 77 68 78 61 79 63 80 69 81 62 82 64 83 65 84
REMARK SMILES IDX 66 85 67 86 44 87 45 88 53 89 46 90 48 91 54 92 47 93 49 94
REMARK SMILES IDX 50 95 51 96 52 97
REMARK H PARENT 74 50 42 61
REMARK Flexibility Score: inf
ROOT
ATOM      1  C   UNL A   1      33.847  30.801  27.601  1.00  0.00     0.275 C 
ENDROOT
BRANCH   1   2
ATOM      2  O   UNL A   1      33.372  30.746  26.245  1.00  0.00    -0.457 OA
BRANCH   2   3
ATOM      3  C   UNL A   1      32.095  30.300  26.061  1.00  0.00     0.361 C 
ATOM      4  O   UNL A   1      31.179  31.007  25.650  1.00  0.00    -0.244 OA
BRANCH   3   5
ATOM      5  C   UNL A   1      31.934  28.881  26.361  1.00  0.00     0.198 A 
ATOM      6  C   UNL A   1      32.209  27.772  25.568  1.00  0.00     0.109 A 
ATOM      7  N   UNL A   1      31.896  26.707  26.406  1.00  0.00    -0.212 N 
ATOM      8  N   UNL A   1      31.371  28.460  27.545  1.00  0.00    -0.122 NA
ATOM      9  N   UNL A   1      31.255  27.142  27.510  1.00  0.00    -0.061 NA
BRANCH   6  10
ATOM     10  C   UNL A   1      32.681  27.628  24.187  1.00  0.00     0.007 A 
ATOM     11  C   UNL A   1      32.656  26.426  22.067  1.00  0.00     0.119 A 
ATOM     12  C   UNL A   1      33.684  27.250  21.604  1.00  0.00     0.046 A 
ATOM     13  C   UNL A   1      32.145  26.629  23.351  1.00  0.00     0.056 A 
ATOM     14  C   UNL A   1      34.192  28.270  22.405  1.00  0.00     0.005 A 
ATOM     15  C   UNL A   1      33.700  28.452  23.696  1.00  0.00     0.011 A 
BRANCH  11  16
ATOM     16  O   UNL A   1      32.277  25.444  21.195  1.00  0.00    -0.497 OA
ATOM     17  C   UNL A   1      32.560  25.663  19.818  1.00  0.00     0.278 C 
ENDBRANCH  11  16
ENDBRANCH   6  10
BRANCH   7  18
ATOM     18  C   UNL A   1      32.283  25.351  26.288  1.00  0.00     0.067 A 
ATOM     19  C   UNL A   1      31.329  24.336  26.362  1.00  0.00     0.032 A 
ATOM     20  C   UNL A   1      33.636  25.036  26.117  1.00  0.00     0.032 A 
ATOM     21  C   UNL A   1      31.735  23.009  26.187  1.00  0.00     0.049 A 
ATOM     22  C   UNL A   1      34.035  23.707  25.988  1.00  0.00     0.049 A 
ATOM     23  C   UNL A   1      33.086  22.685  25.998  1.00  0.00     0.129 A 
BRANCH  23  24
ATOM     24  O   UNL A   1      33.342  21.353  25.836  1.00  0.00    -0.406 OA
BRANCH  24  25
ATOM     25  C   UNL A   1      33.173  20.810  24.538  1.00  0.00     0.573 C 
ATOM     26  F   UNL A   1      33.300  21.757  23.582  1.00  0.00    -0.132 F 
ATOM     27  F   UNL A   1      34.060  19.818  24.306  1.00  0.00    -0.132 F 
ATOM     28  F   UNL A   1      31.930  20.289  24.441  1.00  0.00    -0.132 F 
ENDBRANCH  24  25
ENDBRANCH  23  24
ENDBRANCH   7  18
ENDBRANCH   3   5
ENDBRANCH   2   3
ENDBRANCH   1   2
BRANCH   1  29
ATOM     29  C   UNL A   1      33.787  32.223  28.135  1.00  0.00     0.275 C 
BRANCH  29  30
ATOM     30  O   UNL A   1      35.015  32.587  28.762  1.00  0.00    -0.458 OA
BRANCH  30  31
ATOM     31  C   UNL A   1      35.351  31.837  29.837  1.00  0.00     0.338 C 
ATOM     32  O   UNL A   1      34.960  31.987  30.984  1.00  0.00    -0.246 OA
BRANCH  31  33
ATOM     33  C   UNL A   1      36.446  30.939  29.469  1.00  0.00     0.060 A 
ATOM     34  C   UNL A   1      36.512  29.700  30.115  1.00  0.00     0.016 A 
ATOM     35  C   UNL A   1      37.520  31.448  28.725  1.00  0.00     0.016 A 
ATOM     36  C   UNL A   1      37.719  29.033  30.139  1.00  0.00     0.010 A 
ATOM     37  C   UNL A   1      38.726  30.793  28.768  1.00  0.00     0.010 A 
ATOM     38  C   UNL A   1      38.825  29.628  29.525  1.00  0.00    -0.014 A 
BRANCH  38  39
ATOM     39  C   UNL A   1      40.110  28.970  29.626  1.00  0.00     0.031 A 
ATOM     40  C   UNL A   1      40.617  28.850  31.009  1.00  0.00     0.074 A 
ATOM     41  C   UNL A   1      40.686  28.381  28.562  1.00  0.00     0.049 A 
ATOM     42  N   UNL A   1      41.685  29.376  31.509  1.00  0.00    -0.248 NA
ATOM     43  C   UNL A   1      39.754  28.178  31.993  1.00  0.00     0.031 C 
ATOM     44  C   UNL A   1      40.100  28.176  27.233  1.00  0.00     0.029 A 
ATOM     45  N   UNL A   1      41.863  27.702  28.498  1.00  0.00    -0.354 N 
ATOM     46  C   UNL A   1      41.741  28.907  32.818  1.00  0.00     0.074 A 
ATOM     47  C   UNL A   1      40.447  28.357  33.116  1.00  0.00     0.031 C 
ATOM     48  C   UNL A   1      40.810  27.226  26.584  1.00  0.00     0.029 A 
ATOM     49  C   UNL A   1      41.955  26.859  27.398  1.00  0.00     0.049 A 
ATOM     50  H   UNL A   1      42.580  27.797  29.166  1.00  0.00     0.167 HD
ATOM     51  C   UNL A   1      42.927  28.761  33.465  1.00  0.00     0.034 A 
ATOM     52  C   UNL A   1      42.863  25.871  27.215  1.00  0.00     0.034 A 
ATOM     53  C   UNL A   1      43.984  29.482  32.808  1.00  0.00     0.049 A 
ATOM     54  C   UNL A   1      44.000  26.134  28.126  1.00  0.00     0.074 A 
ATOM     55  C   UNL A   1      44.238  30.804  32.512  1.00  0.00     0.029 A 
ATOM     56  N   UNL A   1      44.833  28.736  32.029  1.00  0.00    -0.354 N 
ATOM     57  N   UNL A   1      44.813  27.143  27.993  1.00  0.00    -0.248 NA
ATOM     58  C   UNL A   1      44.022  25.484  29.426  1.00  0.00     0.031 C 
ATOM     59  C   UNL A   1      44.948  30.781  31.276  1.00  0.00     0.029 A 
ATOM     60  C   UNL A   1      45.111  29.446  30.894  1.00  0.00     0.049 A 
ATOM     61  H   UNL A   1      45.181  27.842  32.250  1.00  0.00     0.167 HD
ATOM     62  C   UNL A   1      45.105  27.528  29.295  1.00  0.00     0.074 A 
ATOM     63  C   UNL A   1      44.722  26.386  30.118  1.00  0.00     0.031 C 
ATOM     64  C   UNL A   1      45.345  28.838  29.600  1.00  0.00     0.034 A 
BRANCH  51  65
ATOM     65  C   UNL A   1      43.228  27.661  34.458  1.00  0.00     0.023 A 
ATOM     66  C   UNL A   1      43.533  28.058  35.780  1.00  0.00     0.012 A 
ATOM     67  C   UNL A   1      43.508  26.319  34.113  1.00  0.00     0.148 A 
ATOM     68  C   UNL A   1      44.136  27.182  36.688  1.00  0.00     0.002 A 
ATOM     69  C   UNL A   1      44.028  25.429  35.045  1.00  0.00     0.091 A 
ATOM     70  F   UNL A   1      43.413  25.914  32.844  1.00  0.00    -0.205 F 
ATOM     71  C   UNL A   1      44.377  25.864  36.325  1.00  0.00     0.022 A 
BRANCH  69  72
ATOM     72  S   UNL A   1      44.303  23.702  34.632  1.00  0.00     0.127 S 
ATOM     73  O   UNL A   1      45.381  23.803  33.654  1.00  0.00    -0.237 OA
ATOM     74  O   UNL A   1      44.691  23.141  35.927  1.00  0.00    -0.237 OA
ATOM     75  O   UNL A   1      43.022  23.216  34.136  1.00  0.00    -0.744 OA
ENDBRANCH  69  72
ENDBRANCH  51  65
BRANCH  52  76
ATOM     76  C   UNL A   1      42.724  24.606  26.463  1.00  0.00     0.023 A 
ATOM     77  C   UNL A   1      43.703  24.239  25.521  1.00  0.00     0.012 A 
ATOM     78  C   UNL A   1      41.760  23.642  26.838  1.00  0.00     0.148 A 
ATOM     79  C   UNL A   1      43.733  22.947  24.983  1.00  0.00     0.002 A 
ATOM     80  C   UNL A   1      41.787  22.363  26.293  1.00  0.00     0.091 A 
ATOM     81  F   UNL A   1      40.872  23.957  27.791  1.00  0.00    -0.205 F 
ATOM     82  C   UNL A   1      42.781  22.008  25.373  1.00  0.00     0.022 A 
BRANCH  80  83
ATOM     83  S   UNL A   1      40.600  21.094  26.757  1.00  0.00     0.127 S 
ATOM     84  O   UNL A   1      40.751  21.059  28.213  1.00  0.00    -0.237 OA
ATOM     85  O   UNL A   1      39.344  21.668  26.285  1.00  0.00    -0.237 OA
ATOM     86  O   UNL A   1      41.030  19.877  26.081  1.00  0.00    -0.744 OA
ENDBRANCH  80  83
ENDBRANCH  52  76
BRANCH  64  87
ATOM     87  C   UNL A   1      45.588  29.792  28.456  1.00  0.00     0.023 A 
ATOM     88  C   UNL A   1      44.524  30.402  27.758  1.00  0.00     0.012 A 
ATOM     89  C   UNL A   1      46.902  30.220  28.200  1.00  0.00     0.148 A 
ATOM     90  C   UNL A   1      44.766  31.398  26.810  1.00  0.00     0.002 A 
ATOM     91  C   UNL A   1      47.134  31.245  27.292  1.00  0.00     0.091 A 
ATOM     92  F   UNL A   1      47.901  29.638  28.880  1.00  0.00    -0.205 F 
ATOM     93  C   UNL A   1      46.070  31.830  26.587  1.00  0.00     0.022 A 
BRANCH  91  94
ATOM     94  S   UNL A   1      48.770  31.945  27.057  1.00  0.00     0.127 S 
ATOM     95  O   UNL A   1      49.520  30.803  26.536  1.00  0.00    -0.237 OA
ATOM     96  O   UNL A   1      48.519  33.008  26.082  1.00  0.00    -0.237 OA
ATOM     97  O   UNL A   1      49.194  32.427  28.366  1.00  0.00    -0.744 OA
ENDBRANCH  91  94
ENDBRANCH  64  87
ENDBRANCH  38  39
ENDBRANCH  31  33
ENDBRANCH  30  31
ENDBRANCH  29  30
ENDBRANCH   1  29
TORSDOF 19
ENDMDL
MODEL 3
REMARK VINA RESULT:     -11.0      2.135      2.573
REMARK SMILES COc1cccc(-c2c(C(=O)OCCOC(=O)c3ccc(-c4c5nc(c(-c6cccc(S(=O)(=O)[O-])c6F)c6ccc([nH]6)c(-c6cccc(S(=O)(=O)[O-])c6F)c6nc(c(-c7cccc(S(=O)(=O)[O-])c7F)c7ccc4[nH]7)C=C6)C=C5)cc3)nnn2-c2ccc(OC(F)(F)F)cc2)c1
REMARK SMILES IDX 13 1 12 2 10 3 11 4 9 5 8 6 83 7 81 8 82 9 7 10 3 11 4 12
REMARK SMILES IDX 95 13 5 14 6 15 2 16 1 17 84 18 85 19 94 20 86 21 93 22
REMARK SMILES IDX 87 23 88 24 89 25 90 26 91 27 92 28 14 29 15 30 16 31 17 32
REMARK SMILES IDX 18 33 19 34 80 35 20 36 79 37 21 38 22 39 23 40 73 41 24 42
REMARK SMILES IDX 78 43 72 44 74 45 25 46 77 47 71 48 70 49 26 51 58 52 38 53
REMARK SMILES IDX 57 54 39 55 42 56 56 57 75 58 40 59 41 60 55 62 76 63 43 64
REMARK SMILES IDX 27 65 28 66 36 67 29 68 31 69 37 70 30 71 32 72 33 73 34 74
REMARK SMILES IDX 35 75 59 76 60 77 68 78 61 79 63 80 69 81 62 82 64 83 65 84
REMARK SMILES IDX 66 85 67 86 44 87 45 88 53 89 46 90 48 91 54 92 47 93 49 94
REMARK SMILES IDX 50 95 51 96 52 97
REMARK H PARENT 74 50 42 61
REMARK Flexibility Score: inf
ROOT
ATOM      1  C   UNL A   1      33.584  32.592  27.962  1.00  0.00     0.275 C 
ENDROOT
BRANCH   1   2
ATOM      2  O   UNL A   1      33.409  31.247  27.487  1.00  0.00    -0.457 OA
BRANCH   2   3
ATOM      3  C   UNL A   1      32.180  30.928  26.989  1.00  0.00     0.361 C 
ATOM      4  O   UNL A   1      31.374  31.757  26.574  1.00  0.00    -0.244 OA
BRANCH   3   5
ATOM      5  C   UNL A   1      31.929  29.490  26.958  1.00  0.00     0.198 A 
ATOM      6  C   UNL A   1      31.738  28.648  25.867  1.00  0.00     0.109 A 
ATOM      7  N   UNL A   1      31.590  27.400  26.462  1.00  0.00    -0.212 N 
ATOM      8  N   UNL A   1      31.768  28.767  28.119  1.00  0.00    -0.122 NA
ATOM      9  N   UNL A   1      31.454  27.522  27.799  1.00  0.00    -0.061 NA
BRANCH   6  10
ATOM     10  C   UNL A   1      31.662  28.892  24.423  1.00  0.00     0.007 A 
ATOM     11  C   UNL A   1      30.328  29.241  22.414  1.00  0.00     0.119 A 
ATOM     12  C   UNL A   1      31.495  29.205  21.649  1.00  0.00     0.046 A 
ATOM     13  C   UNL A   1      30.415  29.103  23.801  1.00  0.00     0.056 A 
ATOM     14  C   UNL A   1      32.738  29.042  22.258  1.00  0.00     0.005 A 
ATOM     15  C   UNL A   1      32.820  28.875  23.639  1.00  0.00     0.011 A 
BRANCH  11  16
ATOM     16  O   UNL A   1      29.175  29.370  21.689  1.00  0.00    -0.497 OA
ATOM     17  C   UNL A   1      27.964  29.498  22.424  1.00  0.00     0.278 C 
ENDBRANCH  11  16
ENDBRANCH   6  10
BRANCH   7  18
ATOM     18  C   UNL A   1      31.706  26.122  25.866  1.00  0.00     0.067 A 
ATOM     19  C   UNL A   1      30.569  25.352  25.620  1.00  0.00     0.032 A 
ATOM     20  C   UNL A   1      32.975  25.628  25.543  1.00  0.00     0.032 A 
ATOM     21  C   UNL A   1      30.711  24.117  24.979  1.00  0.00     0.049 A 
ATOM     22  C   UNL A   1      33.108  24.376  24.944  1.00  0.00     0.049 A 
ATOM     23  C   UNL A   1      31.977  23.621  24.636  1.00  0.00     0.129 A 
BRANCH  23  24
ATOM     24  O   UNL A   1      31.971  22.407  24.012  1.00  0.00    -0.406 OA
BRANCH  24  25
ATOM     25  C   UNL A   1      32.491  21.302  24.731  1.00  0.00     0.573 C 
ATOM     26  F   UNL A   1      32.210  21.390  26.050  1.00  0.00    -0.132 F 
ATOM     27  F   UNL A   1      32.012  20.136  24.248  1.00  0.00    -0.132 F 
ATOM     28  F   UNL A   1      33.836  21.287  24.596  1.00  0.00    -0.132 F 
ENDBRANCH  24  25
ENDBRANCH  23  24
ENDBRANCH   7  18
ENDBRANCH   3   5
ENDBRANCH   2   3
ENDBRANCH   1   2
BRANCH   1  29
ATOM     29  C   UNL A   1      34.660  32.649  29.035  1.00  0.00     0.275 C 
BRANCH  29  30
ATOM     30  O   UNL A   1      35.206  31.355  29.281  1.00  0.00    -0.458 OA
BRANCH  30  31
ATOM     31  C   UNL A   1      36.013  31.273  30.364  1.00  0.00     0.338 C 
ATOM     32  O   UNL A   1      35.880  31.867  31.422  1.00  0.00    -0.246 OA
BRANCH  31  33
ATOM     33  C   UNL A   1      37.220  30.528  30.004  1.00  0.00     0.060 A 
ATOM     34  C   UNL A   1      37.206  29.142  30.194  1.00  0.00     0.016 A 
ATOM     35  C   UNL A   1      38.408  31.234  29.766  1.00  0.00     0.016 A 
ATOM     36  C   UNL A   1      38.411  28.479  30.296  1.00  0.00     0.010 A 
ATOM     37  C   UNL A   1      39.607  30.576  29.888  1.00  0.00     0.010 A 
ATOM     38  C   UNL A   1      39.593  29.221  30.213  1.00  0.00    -0.014 A 
BRANCH  38  39
ATOM     39  C   UNL A   1      40.854  28.538  30.406  1.00  0.00     0.031 A 
ATOM     40  C   UNL A   1      41.378  28.624  31.786  1.00  0.00     0.074 A 
ATOM     41  C   UNL A   1      41.391  27.764  29.446  1.00  0.00     0.049 A 
ATOM     42  N   UNL A   1      42.473  29.182  32.183  1.00  0.00    -0.248 NA
ATOM     43  C   UNL A   1      40.507  28.153  32.874  1.00  0.00     0.031 C 
ATOM     44  C   UNL A   1      40.777  27.370  28.173  1.00  0.00     0.029 A 
ATOM     45  N   UNL A   1      42.541  27.038  29.481  1.00  0.00    -0.354 N 
ATOM     46  C   UNL A   1      42.533  28.928  33.550  1.00  0.00     0.074 A 
ATOM     47  C   UNL A   1      41.224  28.484  33.946  1.00  0.00     0.031 C 
ATOM     48  C   UNL A   1      41.440  26.301  27.680  1.00  0.00     0.029 A 
ATOM     49  C   UNL A   1      42.584  26.026  28.531  1.00  0.00     0.049 A 
ATOM     50  H   UNL A   1      43.271  27.212  30.118  1.00  0.00     0.167 HD
ATOM     51  C   UNL A   1      43.723  28.842  34.200  1.00  0.00     0.034 A 
ATOM     52  C   UNL A   1      43.452  24.987  28.501  1.00  0.00     0.034 A 
ATOM     53  C   UNL A   1      44.795  29.406  33.425  1.00  0.00     0.049 A 
ATOM     54  C   UNL A   1      44.612  25.348  29.346  1.00  0.00     0.074 A 
ATOM     55  C   UNL A   1      45.093  30.652  32.916  1.00  0.00     0.029 A 
ATOM     56  N   UNL A   1      45.603  28.511  32.769  1.00  0.00    -0.354 N 
ATOM     57  N   UNL A   1      45.460  26.290  29.044  1.00  0.00    -0.248 NA
ATOM     58  C   UNL A   1      44.631  24.916  30.734  1.00  0.00     0.031 C 
ATOM     59  C   UNL A   1      45.781  30.402  31.693  1.00  0.00     0.029 A 
ATOM     60  C   UNL A   1      45.889  29.018  31.531  1.00  0.00     0.049 A 
ATOM     61  H   UNL A   1      45.922  27.652  33.127  1.00  0.00     0.167 HD
ATOM     62  C   UNL A   1      45.786  26.869  30.263  1.00  0.00     0.074 A 
ATOM     63  C   UNL A   1      45.375  25.891  31.264  1.00  0.00     0.031 C 
ATOM     64  C   UNL A   1      46.080  28.200  30.350  1.00  0.00     0.034 A 
BRANCH  51  65
ATOM     65  C   UNL A   1      43.999  27.906  35.355  1.00  0.00     0.023 A 
ATOM     66  C   UNL A   1      44.443  28.491  36.562  1.00  0.00     0.012 A 
ATOM     67  C   UNL A   1      44.126  26.502  35.241  1.00  0.00     0.148 A 
ATOM     68  C   UNL A   1      45.033  27.729  37.575  1.00  0.00     0.002 A 
ATOM     69  C   UNL A   1      44.635  25.738  36.285  1.00  0.00     0.091 A 
ATOM     70  F   UNL A   1      43.895  25.895  34.074  1.00  0.00    -0.205 F 
ATOM     71  C   UNL A   1      45.122  26.350  37.441  1.00  0.00     0.022 A 
BRANCH  69  72
ATOM     72  S   UNL A   1      44.717  23.947  36.175  1.00  0.00     0.127 S 
ATOM     73  O   UNL A   1      43.341  23.611  35.823  1.00  0.00    -0.237 OA
ATOM     74  O   UNL A   1      45.695  23.755  35.104  1.00  0.00    -0.237 OA
ATOM     75  O   UNL A   1      45.176  23.501  37.484  1.00  0.00    -0.744 OA
ENDBRANCH  69  72
ENDBRANCH  51  65
BRANCH  52  76
ATOM     76  C   UNL A   1      43.254  23.624  27.965  1.00  0.00     0.023 A 
ATOM     77  C   UNL A   1      42.130  22.872  28.356  1.00  0.00     0.012 A 
ATOM     78  C   UNL A   1      44.034  23.150  26.886  1.00  0.00     0.148 A 
ATOM     79  C   UNL A   1      41.783  21.695  27.682  1.00  0.00     0.002 A 
ATOM     80  C   UNL A   1      43.693  21.973  26.227  1.00  0.00     0.091 A 
ATOM     81  F   UNL A   1      45.060  23.897  26.456  1.00  0.00    -0.205 F 
ATOM     82  C   UNL A   1      42.560  21.249  26.615  1.00  0.00     0.022 A 
BRANCH  80  83
ATOM     83  S   UNL A   1      44.638  21.343  24.833  1.00  0.00     0.127 S 
ATOM     84  O   UNL A   1      44.041  20.020  24.638  1.00  0.00    -0.237 OA
ATOM     85  O   UNL A   1      44.326  22.315  23.790  1.00  0.00    -0.237 OA
ATOM     86  O   UNL A   1      46.028  21.313  25.271  1.00  0.00    -0.744 OA
ENDBRANCH  80  83
ENDBRANCH  52  76
BRANCH  64  87
ATOM     87  C   UNL A   1      46.339  28.947  29.064  1.00  0.00     0.023 A 
ATOM     88  C   UNL A   1      45.285  29.447  28.269  1.00  0.00     0.012 A 
ATOM     89  C   UNL A   1      47.659  29.309  28.747  1.00  0.00     0.148 A 
ATOM     90  C   UNL A   1      45.544  30.267  27.170  1.00  0.00     0.002 A 
ATOM     91  C   UNL A   1      47.909  30.165  27.682  1.00  0.00     0.091 A 
ATOM     92  F   UNL A   1      48.649  28.834  29.520  1.00  0.00    -0.205 F 
ATOM     93  C   UNL A   1      46.855  30.638  26.884  1.00  0.00     0.022 A 
BRANCH  91  94
ATOM     94  S   UNL A   1      49.555  30.794  27.342  1.00  0.00     0.127 S 
ATOM     95  O   UNL A   1      49.288  31.832  26.349  1.00  0.00    -0.237 OA
ATOM     96  O   UNL A   1      49.976  31.295  28.652  1.00  0.00    -0.237 OA
ATOM     97  O   UNL A   1      50.330  29.655  26.865  1.00  0.00    -0.744 OA
ENDBRANCH  91  94
ENDBRANCH  64  87
ENDBRANCH  38  39
ENDBRANCH  31  33
ENDBRANCH  30  31
ENDBRANCH  29  30
ENDBRANCH   1  29
TORSDOF 19
ENDMDL
