MODEL 1
REMARK VINA RESULT:     -10.7      0.000      0.000
REMARK SMILES O=C(CS[C@@H]1CCS(=O)(=O)C1)Nc1nc(CC(=O)OCCOC(=O)c2ccc(-c3c4nc(c(-c5cccc(S(=O)(=O)[O-])c5F)c5ccc([nH]5)c(-c5cccc(S(=O)(=O)[O-])c5F)c5nc(c(-c6cccc(S(=O)(=O)[O-])c6F)c6ccc3[nH]6)C=C5)C=C4)cc2)cs1
REMARK SMILES IDX 20 1 19 2 17 3 18 4 16 5 15 6 13 7 14 8 89 9 88 10 12 11
REMARK SMILES IDX 1 12 2 13 3 15 4 16 5 17 6 18 11 19 7 20 8 21 9 22 10 23
REMARK SMILES IDX 21 24 22 25 23 26 24 27 25 28 26 29 87 30 27 31 86 32 28 33
REMARK SMILES IDX 29 34 30 35 80 36 31 37 85 38 79 39 81 40 32 41 84 42 78 43
REMARK SMILES IDX 77 44 33 46 65 47 45 48 64 49 46 50 49 51 63 52 82 53 47 54
REMARK SMILES IDX 48 55 62 57 83 58 50 59 34 60 35 61 43 62 36 63 38 64 44 65
REMARK SMILES IDX 37 66 39 67 40 68 41 69 42 70 66 71 67 72 75 73 68 74 70 75
REMARK SMILES IDX 76 76 69 77 71 78 72 79 73 80 74 81 51 82 52 83 60 84 53 85
REMARK SMILES IDX 55 86 61 87 54 88 56 89 57 90 58 91 59 92
REMARK H PARENT 12 14 81 45 49 56
REMARK Flexibility Score: inf
ROOT
ATOM      1  C   UNL A   1      33.588  31.395  27.668  1.00  0.00     0.274 C 
ENDROOT
BRANCH   1   2
ATOM      2  O   UNL A   1      33.306  30.542  26.543  1.00  0.00    -0.462 OA
BRANCH   2   3
ATOM      3  C   UNL A   1      31.998  30.229  26.334  1.00  0.00     0.312 C 
ATOM      4  O   UNL A   1      31.186  30.976  25.800  1.00  0.00    -0.252 OA
BRANCH   3   5
ATOM      5  C   UNL A   1      31.609  28.864  26.850  1.00  0.00     0.179 C 
BRANCH   5   6
ATOM      6  C   UNL A   1      31.937  27.722  25.946  1.00  0.00     0.065 A 
ATOM      7  C   UNL A   1      32.649  25.668  25.591  1.00  0.00     0.189 A 
ATOM      8  N   UNL A   1      32.424  26.557  26.521  1.00  0.00    -0.224 NA
ATOM      9  S   UNL A   1      32.442  26.195  23.984  1.00  0.00    -0.105 S 
ATOM     10  C   UNL A   1      31.754  27.644  24.577  1.00  0.00     0.093 A 
BRANCH   7  11
ATOM     11  N   UNL A   1      32.983  24.347  25.722  1.00  0.00    -0.301 N 
ATOM     12  O   UNL A   1      31.489  23.874  27.443  1.00  0.00    -0.274 OA
ATOM     13  C   UNL A   1      32.344  23.530  26.626  1.00  0.00     0.236 C 
ATOM     14  H   UNL A   1      33.698  23.974  25.158  1.00  0.00     0.172 HD
BRANCH  13  15
ATOM     15  C   UNL A   1      32.777  22.074  26.609  1.00  0.00     0.170 C 
BRANCH  15  16
ATOM     16  S   UNL A   1      34.566  21.782  26.799  1.00  0.00    -0.148 SA
BRANCH  16  17
ATOM     17  C   UNL A   1      34.999  21.003  25.180  1.00  0.00     0.063 C 
ATOM     18  C   UNL A   1      36.504  20.662  25.168  1.00  0.00     0.031 C 
ATOM     19  C   UNL A   1      34.816  21.903  23.962  1.00  0.00     0.151 C 
ATOM     20  C   UNL A   1      37.298  21.942  24.900  1.00  0.00     0.138 C 
ATOM     21  S   UNL A   1      36.195  23.029  24.023  1.00  0.00     0.151 S 
ATOM     22  O   UNL A   1      35.858  24.120  24.915  1.00  0.00    -0.229 OA
ATOM     23  O   UNL A   1      36.688  23.244  22.681  1.00  0.00    -0.229 OA
ENDBRANCH  16  17
ENDBRANCH  15  16
ENDBRANCH  13  15
ENDBRANCH   7  11
ENDBRANCH   5   6
ENDBRANCH   3   5
ENDBRANCH   2   3
ENDBRANCH   1   2
BRANCH   1  24
ATOM     24  C   UNL A   1      33.431  32.863  27.281  1.00  0.00     0.275 C 
BRANCH  24  25
ATOM     25  O   UNL A   1      32.608  33.537  28.248  1.00  0.00    -0.458 OA
BRANCH  25  26
ATOM     26  C   UNL A   1      33.180  34.583  28.883  1.00  0.00     0.338 C 
ATOM     27  O   UNL A   1      32.780  35.734  28.932  1.00  0.00    -0.246 OA
BRANCH  26  28
ATOM     28  C   UNL A   1      34.399  34.133  29.569  1.00  0.00     0.060 A 
ATOM     29  C   UNL A   1      35.655  34.497  29.075  1.00  0.00     0.016 A 
ATOM     30  C   UNL A   1      34.285  33.261  30.649  1.00  0.00     0.016 A 
ATOM     31  C   UNL A   1      36.808  33.962  29.651  1.00  0.00     0.010 A 
ATOM     32  C   UNL A   1      35.442  32.768  31.255  1.00  0.00     0.010 A 
ATOM     33  C   UNL A   1      36.712  33.097  30.749  1.00  0.00    -0.014 A 
BRANCH  33  34
ATOM     34  C   UNL A   1      37.930  32.527  31.383  1.00  0.00     0.031 A 
ATOM     35  C   UNL A   1      38.656  31.382  30.733  1.00  0.00     0.074 A 
ATOM     36  C   UNL A   1      38.333  32.990  32.583  1.00  0.00     0.049 A 
ATOM     37  N   UNL A   1      39.641  30.658  31.199  1.00  0.00    -0.248 NA
ATOM     38  C   UNL A   1      38.208  30.990  29.386  1.00  0.00     0.031 C 
ATOM     39  C   UNL A   1      37.698  34.078  33.326  1.00  0.00     0.029 A 
ATOM     40  N   UNL A   1      39.349  32.572  33.408  1.00  0.00    -0.354 N 
ATOM     41  C   UNL A   1      39.892  29.689  30.234  1.00  0.00     0.074 A 
ATOM     42  C   UNL A   1      38.962  29.923  29.150  1.00  0.00     0.031 C 
ATOM     43  C   UNL A   1      38.316  34.224  34.507  1.00  0.00     0.029 A 
ATOM     44  C   UNL A   1      39.361  33.211  34.625  1.00  0.00     0.049 A 
ATOM     45  H   UNL A   1      40.005  31.882  33.152  1.00  0.00     0.167 HD
ATOM     46  C   UNL A   1      40.818  28.701  30.248  1.00  0.00     0.034 A 
ATOM     47  C   UNL A   1      40.100  32.984  35.729  1.00  0.00     0.034 A 
ATOM     48  C   UNL A   1      41.776  28.507  31.304  1.00  0.00     0.049 A 
ATOM     49  C   UNL A   1      41.136  31.893  35.706  1.00  0.00     0.074 A 
ATOM     50  C   UNL A   1      42.811  27.589  31.366  1.00  0.00     0.029 A 
ATOM     51  N   UNL A   1      41.814  29.231  32.485  1.00  0.00    -0.354 N 
ATOM     52  N   UNL A   1      41.448  31.073  34.733  1.00  0.00    -0.248 NA
ATOM     53  C   UNL A   1      41.942  31.715  36.922  1.00  0.00     0.031 C 
ATOM     54  C   UNL A   1      43.458  27.742  32.596  1.00  0.00     0.029 A 
ATOM     55  C   UNL A   1      42.843  28.772  33.289  1.00  0.00     0.049 A 
ATOM     56  H   UNL A   1      41.199  29.965  32.717  1.00  0.00     0.167 HD
ATOM     57  C   UNL A   1      42.503  30.301  35.208  1.00  0.00     0.074 A 
ATOM     58  C   UNL A   1      42.794  30.771  36.547  1.00  0.00     0.031 C 
ATOM     59  C   UNL A   1      43.159  29.283  34.598  1.00  0.00     0.034 A 
BRANCH  46  60
ATOM     60  C   UNL A   1      40.869  27.760  29.073  1.00  0.00     0.023 A 
ATOM     61  C   UNL A   1      39.936  26.709  28.977  1.00  0.00     0.012 A 
ATOM     62  C   UNL A   1      41.783  27.972  28.022  1.00  0.00     0.148 A 
ATOM     63  C   UNL A   1      39.925  25.869  27.862  1.00  0.00     0.002 A 
ATOM     64  C   UNL A   1      41.740  27.157  26.896  1.00  0.00     0.091 A 
ATOM     65  F   UNL A   1      42.676  28.966  28.143  1.00  0.00    -0.205 F 
ATOM     66  C   UNL A   1      40.818  26.101  26.819  1.00  0.00     0.022 A 
BRANCH  64  67
ATOM     67  S   UNL A   1      42.793  27.424  25.465  1.00  0.00     0.127 S 
ATOM     68  O   UNL A   1      42.108  28.529  24.796  1.00  0.00    -0.237 OA
ATOM     69  O   UNL A   1      44.069  27.784  26.084  1.00  0.00    -0.237 OA
ATOM     70  O   UNL A   1      42.805  26.164  24.734  1.00  0.00    -0.744 OA
ENDBRANCH  64  67
ENDBRANCH  46  60
BRANCH  47  71
ATOM     71  C   UNL A   1      39.895  33.820  36.946  1.00  0.00     0.023 A 
ATOM     72  C   UNL A   1      40.403  35.132  36.980  1.00  0.00     0.012 A 
ATOM     73  C   UNL A   1      39.177  33.331  38.055  1.00  0.00     0.148 A 
ATOM     74  C   UNL A   1      40.225  35.933  38.109  1.00  0.00     0.002 A 
ATOM     75  C   UNL A   1      38.954  34.154  39.153  1.00  0.00     0.091 A 
ATOM     76  F   UNL A   1      38.718  32.072  38.013  1.00  0.00    -0.205 F 
ATOM     77  C   UNL A   1      39.492  35.449  39.190  1.00  0.00     0.022 A 
BRANCH  75  78
ATOM     78  S   UNL A   1      37.906  33.657  40.524  1.00  0.00     0.127 S 
ATOM     79  O   UNL A   1      38.724  32.634  41.171  1.00  0.00    -0.237 OA
ATOM     80  O   UNL A   1      37.772  34.905  41.276  1.00  0.00    -0.237 OA
ATOM     81  O   UNL A   1      36.666  33.191  39.916  1.00  0.00    -0.744 OA
ENDBRANCH  75  78
ENDBRANCH  47  71
BRANCH  59  82
ATOM     82  C   UNL A   1      44.280  28.623  35.355  1.00  0.00     0.023 A 
ATOM     83  C   UNL A   1      45.603  29.072  35.178  1.00  0.00     0.012 A 
ATOM     84  C   UNL A   1      44.014  27.609  36.297  1.00  0.00     0.148 A 
ATOM     85  C   UNL A   1      46.649  28.500  35.902  1.00  0.00     0.002 A 
ATOM     86  C   UNL A   1      45.055  27.077  37.049  1.00  0.00     0.091 A 
ATOM     87  F   UNL A   1      42.751  27.182  36.438  1.00  0.00    -0.205 F 
ATOM     88  C   UNL A   1      46.374  27.512  36.844  1.00  0.00     0.022 A 
BRANCH  86  89
ATOM     89  S   UNL A   1      44.779  25.871  38.351  1.00  0.00     0.127 S 
ATOM     90  O   UNL A   1      46.125  25.717  38.905  1.00  0.00    -0.237 OA
ATOM     91  O   UNL A   1      43.836  26.566  39.227  1.00  0.00    -0.237 OA
ATOM     92  O   UNL A   1      44.234  24.690  37.695  1.00  0.00    -0.744 OA
ENDBRANCH  86  89
ENDBRANCH  59  82
ENDBRANCH  33  34
ENDBRANCH  26  28
ENDBRANCH  25  26
ENDBRANCH  24  25
ENDBRANCH   1  24
TORSDOF 19
ENDMDL
MODEL 2
REMARK VINA RESULT:     -10.5      5.606      9.649
REMARK SMILES O=C(CS[C@@H]1CCS(=O)(=O)C1)Nc1nc(CC(=O)OCCOC(=O)c2ccc(-c3c4nc(c(-c5cccc(S(=O)(=O)[O-])c5F)c5ccc([nH]5)c(-c5cccc(S(=O)(=O)[O-])c5F)c5nc(c(-c6cccc(S(=O)(=O)[O-])c6F)c6ccc3[nH]6)C=C5)C=C4)cc2)cs1
REMARK SMILES IDX 20 1 19 2 17 3 18 4 16 5 15 6 13 7 14 8 89 9 88 10 12 11
REMARK SMILES IDX 1 12 2 13 3 15 4 16 5 17 6 18 11 19 7 20 8 21 9 22 10 23
REMARK SMILES IDX 21 24 22 25 23 26 24 27 25 28 26 29 87 30 27 31 86 32 28 33
REMARK SMILES IDX 29 34 30 35 80 36 31 37 85 38 79 39 81 40 32 41 84 42 78 43
REMARK SMILES IDX 77 44 33 46 65 47 45 48 64 49 46 50 49 51 63 52 82 53 47 54
REMARK SMILES IDX 48 55 62 57 83 58 50 59 34 60 35 61 43 62 36 63 38 64 44 65
REMARK SMILES IDX 37 66 39 67 40 68 41 69 42 70 66 71 67 72 75 73 68 74 70 75
REMARK SMILES IDX 76 76 69 77 71 78 72 79 73 80 74 81 51 82 52 83 60 84 53 85
REMARK SMILES IDX 55 86 61 87 54 88 56 89 57 90 58 91 59 92
REMARK H PARENT 12 14 81 45 49 56
REMARK Flexibility Score: inf
ROOT
ATOM      1  C   UNL A   1      37.854  19.915  24.894  1.00  0.00     0.274 C 
ENDROOT
BRANCH   1   2
ATOM      2  O   UNL A   1      37.251  20.992  25.636  1.00  0.00    -0.462 OA
BRANCH   2   3
ATOM      3  C   UNL A   1      36.988  22.131  24.940  1.00  0.00     0.312 C 
ATOM      4  O   UNL A   1      37.027  22.220  23.717  1.00  0.00    -0.252 OA
BRANCH   3   5
ATOM      5  C   UNL A   1      36.662  23.318  25.817  1.00  0.00     0.179 C 
BRANCH   5   6
ATOM      6  C   UNL A   1      35.277  23.855  25.675  1.00  0.00     0.065 A 
ATOM      7  C   UNL A   1      33.790  25.164  24.711  1.00  0.00     0.189 A 
ATOM      8  N   UNL A   1      35.048  24.814  24.700  1.00  0.00    -0.224 NA
ATOM      9  S   UNL A   1      32.839  24.497  25.958  1.00  0.00    -0.105 S 
ATOM     10  C   UNL A   1      34.141  23.465  26.362  1.00  0.00     0.093 A 
BRANCH   7  11
ATOM     11  N   UNL A   1      33.106  25.957  23.831  1.00  0.00    -0.301 N 
ATOM     12  O   UNL A   1      34.025  27.976  24.535  1.00  0.00    -0.274 OA
ATOM     13  C   UNL A   1      33.305  27.318  23.784  1.00  0.00     0.236 C 
ATOM     14  H   UNL A   1      32.456  25.544  23.217  1.00  0.00     0.172 HD
BRANCH  13  15
ATOM     15  C   UNL A   1      32.524  28.054  22.709  1.00  0.00     0.170 C 
BRANCH  15  16
ATOM     16  S   UNL A   1      30.849  27.419  22.376  1.00  0.00    -0.148 SA
BRANCH  16  17
ATOM     17  C   UNL A   1      29.870  28.196  23.738  1.00  0.00     0.063 C 
ATOM     18  C   UNL A   1      28.370  27.924  23.503  1.00  0.00     0.031 C 
ATOM     19  C   UNL A   1      29.962  29.717  23.811  1.00  0.00     0.151 C 
ATOM     20  C   UNL A   1      27.857  28.883  22.425  1.00  0.00     0.138 C 
ATOM     21  S   UNL A   1      28.942  30.294  22.470  1.00  0.00     0.151 S 
ATOM     22  O   UNL A   1      29.728  30.277  21.254  1.00  0.00    -0.229 OA
ATOM     23  O   UNL A   1      28.206  31.461  22.905  1.00  0.00    -0.229 OA
ENDBRANCH  16  17
ENDBRANCH  15  16
ENDBRANCH  13  15
ENDBRANCH   7  11
ENDBRANCH   5   6
ENDBRANCH   3   5
ENDBRANCH   2   3
ENDBRANCH   1   2
BRANCH   1  24
ATOM     24  C   UNL A   1      38.930  19.226  25.728  1.00  0.00     0.275 C 
BRANCH  24  25
ATOM     25  O   UNL A   1      40.097  20.062  25.805  1.00  0.00    -0.458 OA
BRANCH  25  26
ATOM     26  C   UNL A   1      40.596  20.266  27.043  1.00  0.00     0.338 C 
ATOM     27  O   UNL A   1      40.794  19.433  27.913  1.00  0.00    -0.246 OA
BRANCH  26  28
ATOM     28  C   UNL A   1      40.916  21.689  27.216  1.00  0.00     0.060 A 
ATOM     29  C   UNL A   1      40.307  22.647  26.401  1.00  0.00     0.016 A 
ATOM     30  C   UNL A   1      41.903  22.056  28.128  1.00  0.00     0.016 A 
ATOM     31  C   UNL A   1      40.708  23.981  26.479  1.00  0.00     0.010 A 
ATOM     32  C   UNL A   1      42.266  23.399  28.239  1.00  0.00     0.010 A 
ATOM     33  C   UNL A   1      41.687  24.370  27.403  1.00  0.00    -0.014 A 
BRANCH  33  34
ATOM     34  C   UNL A   1      42.119  25.788  27.509  1.00  0.00     0.031 A 
ATOM     35  C   UNL A   1      43.451  26.217  26.956  1.00  0.00     0.074 A 
ATOM     36  C   UNL A   1      41.347  26.671  28.173  1.00  0.00     0.049 A 
ATOM     37  N   UNL A   1      44.065  27.366  27.081  1.00  0.00    -0.248 NA
ATOM     38  C   UNL A   1      44.198  25.220  26.172  1.00  0.00     0.031 C 
ATOM     39  C   UNL A   1      40.047  26.370  28.775  1.00  0.00     0.029 A 
ATOM     40  N   UNL A   1      41.564  27.990  28.490  1.00  0.00    -0.354 N 
ATOM     41  C   UNL A   1      45.291  27.213  26.445  1.00  0.00     0.074 A 
ATOM     42  C   UNL A   1      45.332  25.863  25.926  1.00  0.00     0.031 C 
ATOM     43  C   UNL A   1      39.596  27.460  29.413  1.00  0.00     0.029 A 
ATOM     44  C   UNL A   1      40.592  28.522  29.305  1.00  0.00     0.049 A 
ATOM     45  H   UNL A   1      42.339  28.503  28.165  1.00  0.00     0.167 HD
ATOM     46  C   UNL A   1      46.287  28.119  26.300  1.00  0.00     0.034 A 
ATOM     47  C   UNL A   1      40.527  29.714  29.930  1.00  0.00     0.034 A 
ATOM     48  C   UNL A   1      46.219  29.477  26.770  1.00  0.00     0.049 A 
ATOM     49  C   UNL A   1      41.639  30.708  29.731  1.00  0.00     0.074 A 
ATOM     50  C   UNL A   1      47.141  30.495  26.593  1.00  0.00     0.029 A 
ATOM     51  N   UNL A   1      45.179  30.007  27.518  1.00  0.00    -0.354 N 
ATOM     52  N   UNL A   1      42.731  30.591  29.016  1.00  0.00    -0.248 NA
ATOM     53  C   UNL A   1      41.498  32.007  30.403  1.00  0.00     0.031 C 
ATOM     54  C   UNL A   1      46.670  31.632  27.256  1.00  0.00     0.029 A 
ATOM     55  C   UNL A   1      45.442  31.332  27.824  1.00  0.00     0.049 A 
ATOM     56  H   UNL A   1      44.372  29.514  27.791  1.00  0.00     0.167 HD
ATOM     57  C   UNL A   1      43.392  31.809  29.128  1.00  0.00     0.074 A 
ATOM     58  C   UNL A   1      42.563  32.659  29.959  1.00  0.00     0.031 C 
ATOM     59  C   UNL A   1      44.585  32.185  28.605  1.00  0.00     0.034 A 
BRANCH  46  60
ATOM     60  C   UNL A   1      47.538  27.690  25.578  1.00  0.00     0.023 A 
ATOM     61  C   UNL A   1      48.540  26.983  26.273  1.00  0.00     0.012 A 
ATOM     62  C   UNL A   1      47.678  27.907  24.193  1.00  0.00     0.148 A 
ATOM     63  C   UNL A   1      49.673  26.518  25.604  1.00  0.00     0.002 A 
ATOM     64  C   UNL A   1      48.790  27.405  23.526  1.00  0.00     0.091 A 
ATOM     65  F   UNL A   1      46.722  28.598  23.555  1.00  0.00    -0.205 F 
ATOM     66  C   UNL A   1      49.791  26.719  24.232  1.00  0.00     0.022 A 
BRANCH  64  67
ATOM     67  S   UNL A   1      48.997  27.541  21.746  1.00  0.00     0.127 S 
ATOM     68  O   UNL A   1      49.690  28.823  21.626  1.00  0.00    -0.237 OA
ATOM     69  O   UNL A   1      49.822  26.371  21.443  1.00  0.00    -0.237 OA
ATOM     70  O   UNL A   1      47.655  27.502  21.181  1.00  0.00    -0.744 OA
ENDBRANCH  64  67
ENDBRANCH  46  60
BRANCH  47  71
ATOM     71  C   UNL A   1      39.354  30.038  30.791  1.00  0.00     0.023 A 
ATOM     72  C   UNL A   1      39.334  29.603  32.129  1.00  0.00     0.012 A 
ATOM     73  C   UNL A   1      38.274  30.797  30.297  1.00  0.00     0.148 A 
ATOM     74  C   UNL A   1      38.245  29.891  32.953  1.00  0.00     0.002 A 
ATOM     75  C   UNL A   1      37.220  31.130  31.140  1.00  0.00     0.091 A 
ATOM     76  F   UNL A   1      38.301  31.185  29.015  1.00  0.00    -0.205 F 
ATOM     77  C   UNL A   1      37.195  30.663  32.463  1.00  0.00     0.022 A 
BRANCH  75  78
ATOM     78  S   UNL A   1      35.899  32.234  30.629  1.00  0.00     0.127 S 
ATOM     79  O   UNL A   1      35.029  32.223  31.801  1.00  0.00    -0.237 OA
ATOM     80  O   UNL A   1      36.618  33.489  30.406  1.00  0.00    -0.237 OA
ATOM     81  O   UNL A   1      35.344  31.641  29.419  1.00  0.00    -0.744 OA
ENDBRANCH  75  78
ENDBRANCH  47  71
BRANCH  59  82
ATOM     82  C   UNL A   1      45.060  33.586  28.886  1.00  0.00     0.023 A 
ATOM     83  C   UNL A   1      45.728  33.869  30.093  1.00  0.00     0.012 A 
ATOM     84  C   UNL A   1      44.911  34.603  27.923  1.00  0.00     0.148 A 
ATOM     85  C   UNL A   1      46.212  35.151  30.352  1.00  0.00     0.002 A 
ATOM     86  C   UNL A   1      45.437  35.866  28.168  1.00  0.00     0.091 A 
ATOM     87  F   UNL A   1      44.256  34.319  26.788  1.00  0.00    -0.205 F 
ATOM     88  C   UNL A   1      46.077  36.145  29.386  1.00  0.00     0.022 A 
BRANCH  86  89
ATOM     89  S   UNL A   1      45.395  37.179  26.942  1.00  0.00     0.127 S 
ATOM     90  O   UNL A   1      45.914  36.497  25.756  1.00  0.00    -0.237 OA
ATOM     91  O   UNL A   1      43.970  37.506  26.883  1.00  0.00    -0.237 OA
ATOM     92  O   UNL A   1      46.236  38.246  27.468  1.00  0.00    -0.744 OA
ENDBRANCH  86  89
ENDBRANCH  59  82
ENDBRANCH  33  34
ENDBRANCH  26  28
ENDBRANCH  25  26
ENDBRANCH  24  25
ENDBRANCH   1  24
TORSDOF 19
ENDMDL
MODEL 3
REMARK VINA RESULT:     -10.5      1.786      7.850
REMARK SMILES O=C(CS[C@@H]1CCS(=O)(=O)C1)Nc1nc(CC(=O)OCCOC(=O)c2ccc(-c3c4nc(c(-c5cccc(S(=O)(=O)[O-])c5F)c5ccc([nH]5)c(-c5cccc(S(=O)(=O)[O-])c5F)c5nc(c(-c6cccc(S(=O)(=O)[O-])c6F)c6ccc3[nH]6)C=C5)C=C4)cc2)cs1
REMARK SMILES IDX 20 1 19 2 17 3 18 4 16 5 15 6 13 7 14 8 89 9 88 10 12 11
REMARK SMILES IDX 1 12 2 13 3 15 4 16 5 17 6 18 11 19 7 20 8 21 9 22 10 23
REMARK SMILES IDX 21 24 22 25 23 26 24 27 25 28 26 29 87 30 27 31 86 32 28 33
REMARK SMILES IDX 29 34 30 35 80 36 31 37 85 38 79 39 81 40 32 41 84 42 78 43
REMARK SMILES IDX 77 44 33 46 65 47 45 48 64 49 46 50 49 51 63 52 82 53 47 54
REMARK SMILES IDX 48 55 62 57 83 58 50 59 34 60 35 61 43 62 36 63 38 64 44 65
REMARK SMILES IDX 37 66 39 67 40 68 41 69 42 70 66 71 67 72 75 73 68 74 70 75
REMARK SMILES IDX 76 76 69 77 71 78 72 79 73 80 74 81 51 82 52 83 60 84 53 85
REMARK SMILES IDX 55 86 61 87 54 88 56 89 57 90 58 91 59 92
REMARK H PARENT 12 14 81 45 49 56
REMARK Flexibility Score: inf
ROOT
ATOM      1  C   UNL A   1      31.259  31.904  26.733  1.00  0.00     0.274 C 
ENDROOT
BRANCH   1   2
ATOM      2  O   UNL A   1      32.124  30.761  26.876  1.00  0.00    -0.462 OA
BRANCH   2   3
ATOM      3  C   UNL A   1      32.373  30.048  25.744  1.00  0.00     0.312 C 
ATOM      4  O   UNL A   1      33.496  29.796  25.319  1.00  0.00    -0.252 OA
BRANCH   3   5
ATOM      5  C   UNL A   1      31.125  29.602  25.018  1.00  0.00     0.179 C 
BRANCH   5   6
ATOM      6  C   UNL A   1      31.120  28.177  24.574  1.00  0.00     0.065 A 
ATOM      7  C   UNL A   1      31.439  26.028  24.938  1.00  0.00     0.189 A 
ATOM      8  N   UNL A   1      31.511  27.210  25.489  1.00  0.00    -0.224 NA
ATOM      9  S   UNL A   1      31.051  25.996  23.280  1.00  0.00    -0.105 S 
ATOM     10  C   UNL A   1      30.702  27.669  23.357  1.00  0.00     0.093 A 
BRANCH   7  11
ATOM     11  N   UNL A   1      31.584  24.796  25.516  1.00  0.00    -0.301 N 
ATOM     12  O   UNL A   1      33.805  25.073  26.158  1.00  0.00    -0.274 OA
ATOM     13  C   UNL A   1      32.761  24.420  26.123  1.00  0.00     0.236 C 
ATOM     14  H   UNL A   1      30.830  24.165  25.497  1.00  0.00     0.172 HD
BRANCH  13  15
ATOM     15  C   UNL A   1      32.747  23.050  26.779  1.00  0.00     0.170 C 
BRANCH  15  16
ATOM     16  S   UNL A   1      34.339  22.163  26.786  1.00  0.00    -0.148 SA
BRANCH  16  17
ATOM     17  C   UNL A   1      34.337  21.364  25.119  1.00  0.00     0.063 C 
ATOM     18  C   UNL A   1      35.559  20.429  25.005  1.00  0.00     0.031 C 
ATOM     19  C   UNL A   1      34.496  22.324  23.944  1.00  0.00     0.151 C 
ATOM     20  C   UNL A   1      36.804  21.275  24.730  1.00  0.00     0.138 C 
ATOM     21  S   UNL A   1      36.221  22.768  23.957  1.00  0.00     0.151 S 
ATOM     22  O   UNL A   1      36.410  23.850  24.902  1.00  0.00    -0.229 OA
ATOM     23  O   UNL A   1      36.701  22.832  22.595  1.00  0.00    -0.229 OA
ENDBRANCH  16  17
ENDBRANCH  15  16
ENDBRANCH  13  15
ENDBRANCH   7  11
ENDBRANCH   5   6
ENDBRANCH   3   5
ENDBRANCH   2   3
ENDBRANCH   1   2
BRANCH   1  24
ATOM     24  C   UNL A   1      32.079  33.185  26.614  1.00  0.00     0.275 C 
BRANCH  24  25
ATOM     25  O   UNL A   1      32.552  33.584  27.912  1.00  0.00    -0.458 OA
BRANCH  25  26
ATOM     26  C   UNL A   1      33.745  34.217  27.936  1.00  0.00     0.338 C 
ATOM     27  O   UNL A   1      33.996  35.347  27.553  1.00  0.00    -0.246 OA
BRANCH  26  28
ATOM     28  C   UNL A   1      34.755  33.337  28.540  1.00  0.00     0.060 A 
ATOM     29  C   UNL A   1      34.386  32.428  29.536  1.00  0.00     0.016 A 
ATOM     30  C   UNL A   1      36.092  33.494  28.181  1.00  0.00     0.016 A 
ATOM     31  C   UNL A   1      35.366  31.688  30.197  1.00  0.00     0.010 A 
ATOM     32  C   UNL A   1      37.065  32.715  28.810  1.00  0.00     0.010 A 
ATOM     33  C   UNL A   1      36.714  31.821  29.837  1.00  0.00    -0.014 A 
BRANCH  33  34
ATOM     34  C   UNL A   1      37.771  31.032  30.522  1.00  0.00     0.031 A 
ATOM     35  C   UNL A   1      38.081  31.281  31.973  1.00  0.00     0.074 A 
ATOM     36  C   UNL A   1      38.504  30.148  29.817  1.00  0.00     0.049 A 
ATOM     37  N   UNL A   1      39.057  30.805  32.702  1.00  0.00    -0.248 NA
ATOM     38  C   UNL A   1      37.183  32.198  32.696  1.00  0.00     0.031 C 
ATOM     39  C   UNL A   1      38.316  29.836  28.399  1.00  0.00     0.029 A 
ATOM     40  N   UNL A   1      39.582  29.382  30.187  1.00  0.00    -0.354 N 
ATOM     41  C   UNL A   1      38.929  31.406  33.949  1.00  0.00     0.074 A 
ATOM     42  C   UNL A   1      37.774  32.276  33.882  1.00  0.00     0.031 C 
ATOM     43  C   UNL A   1      39.264  28.969  28.011  1.00  0.00     0.029 A 
ATOM     44  C   UNL A   1      40.152  28.699  29.138  1.00  0.00     0.049 A 
ATOM     45  H   UNL A   1      39.914  29.327  31.113  1.00  0.00     0.167 HD
ATOM     46  C   UNL A   1      39.699  31.241  35.050  1.00  0.00     0.034 A 
ATOM     47  C   UNL A   1      41.284  27.970  29.076  1.00  0.00     0.034 A 
ATOM     48  C   UNL A   1      40.814  30.334  35.128  1.00  0.00     0.049 A 
ATOM     49  C   UNL A   1      42.107  27.787  30.323  1.00  0.00     0.074 A 
ATOM     50  C   UNL A   1      41.600  30.032  36.228  1.00  0.00     0.029 A 
ATOM     51  N   UNL A   1      41.309  29.592  34.068  1.00  0.00    -0.354 N 
ATOM     52  N   UNL A   1      41.895  28.257  31.527  1.00  0.00    -0.248 NA
ATOM     53  C   UNL A   1      43.309  26.949  30.209  1.00  0.00     0.031 C 
ATOM     54  C   UNL A   1      42.585  29.126  35.824  1.00  0.00     0.029 A 
ATOM     55  C   UNL A   1      42.398  28.844  34.481  1.00  0.00     0.049 A 
ATOM     56  H   UNL A   1      40.939  29.596  33.155  1.00  0.00     0.167 HD
ATOM     57  C   UNL A   1      42.918  27.751  32.320  1.00  0.00     0.074 A 
ATOM     58  C   UNL A   1      43.735  26.915  31.464  1.00  0.00     0.031 C 
ATOM     59  C   UNL A   1      43.171  27.973  33.634  1.00  0.00     0.034 A 
BRANCH  46  60
ATOM     60  C   UNL A   1      39.356  32.036  36.283  1.00  0.00     0.023 A 
ATOM     61  C   UNL A   1      39.996  33.267  36.523  1.00  0.00     0.012 A 
ATOM     62  C   UNL A   1      38.334  31.605  37.153  1.00  0.00     0.148 A 
ATOM     63  C   UNL A   1      39.641  34.049  37.623  1.00  0.00     0.002 A 
ATOM     64  C   UNL A   1      37.957  32.408  38.223  1.00  0.00     0.091 A 
ATOM     65  F   UNL A   1      37.751  30.421  36.917  1.00  0.00    -0.205 F 
ATOM     66  C   UNL A   1      38.615  33.626  38.464  1.00  0.00     0.022 A 
BRANCH  64  67
ATOM     67  S   UNL A   1      36.594  31.991  39.317  1.00  0.00     0.127 S 
ATOM     68  O   UNL A   1      37.148  32.340  40.625  1.00  0.00    -0.237 OA
ATOM     69  O   UNL A   1      35.536  32.885  38.846  1.00  0.00    -0.237 OA
ATOM     70  O   UNL A   1      36.330  30.574  39.110  1.00  0.00    -0.744 OA
ENDBRANCH  64  67
ENDBRANCH  46  60
BRANCH  47  71
ATOM     71  C   UNL A   1      41.695  27.345  27.788  1.00  0.00     0.023 A 
ATOM     72  C   UNL A   1      42.144  28.161  26.732  1.00  0.00     0.012 A 
ATOM     73  C   UNL A   1      41.669  25.947  27.613  1.00  0.00     0.148 A 
ATOM     74  C   UNL A   1      42.531  27.598  25.515  1.00  0.00     0.002 A 
ATOM     75  C   UNL A   1      42.111  25.390  26.419  1.00  0.00     0.091 A 
ATOM     76  F   UNL A   1      41.219  25.187  28.622  1.00  0.00    -0.205 F 
ATOM     77  C   UNL A   1      42.526  26.214  25.362  1.00  0.00     0.022 A 
BRANCH  75  78
ATOM     78  S   UNL A   1      42.266  23.615  26.191  1.00  0.00     0.127 S 
ATOM     79  O   UNL A   1      43.099  23.238  27.330  1.00  0.00    -0.237 OA
ATOM     80  O   UNL A   1      40.873  23.173  26.273  1.00  0.00    -0.237 OA
ATOM     81  O   UNL A   1      42.869  23.443  24.876  1.00  0.00    -0.744 OA
ENDBRANCH  75  78
ENDBRANCH  47  71
BRANCH  59  82
ATOM     82  C   UNL A   1      44.361  27.280  34.242  1.00  0.00     0.023 A 
ATOM     83  C   UNL A   1      45.633  27.880  34.169  1.00  0.00     0.012 A 
ATOM     84  C   UNL A   1      44.206  26.071  34.950  1.00  0.00     0.148 A 
ATOM     85  C   UNL A   1      46.738  27.273  34.764  1.00  0.00     0.002 A 
ATOM     86  C   UNL A   1      45.303  25.496  35.580  1.00  0.00     0.091 A 
ATOM     87  F   UNL A   1      42.990  25.505  34.992  1.00  0.00    -0.205 F 
ATOM     88  C   UNL A   1      46.572  26.088  35.478  1.00  0.00     0.022 A 
BRANCH  86  89
ATOM     89  S   UNL A   1      45.162  24.024  36.600  1.00  0.00     0.127 S 
ATOM     90  O   UNL A   1      46.566  23.710  36.865  1.00  0.00    -0.237 OA
ATOM     91  O   UNL A   1      44.419  24.517  37.760  1.00  0.00    -0.237 OA
ATOM     92  O   UNL A   1      44.443  23.046  35.796  1.00  0.00    -0.744 OA
ENDBRANCH  86  89
ENDBRANCH  59  82
ENDBRANCH  33  34
ENDBRANCH  26  28
ENDBRANCH  25  26
ENDBRANCH  24  25
ENDBRANCH   1  24
TORSDOF 19
ENDMDL
