MODEL 1
REMARK VINA RESULT:     -11.4      0.000      0.000
REMARK SMILES O=C(OCCOC(=O)c1cc(NC(=S)NC(=O)c2ccccc2F)ccc1Cl)c1ccc(-c2c3nc(c(-c4cccc(S(=O)(=O)[O-])c4F)c4ccc([nH]4)c(-c4cccc(S(=O)(=O)[O-])c4F)c4nc(c(-c5cccc(S(=O)(=O)[O-])c5F)c5ccc2[nH]5)C=C4)C=C3)cc1
REMARK SMILES IDX 5 1 4 2 3 3 2 4 1 5 29 6 30 7 91 8 31 9 90 10 32 11 33 12
REMARK SMILES IDX 34 13 84 14 35 15 89 16 83 17 85 18 36 19 88 20 82 21 81 22
REMARK SMILES IDX 37 24 69 25 49 26 68 27 50 28 53 29 67 30 86 31 51 32 52 33
REMARK SMILES IDX 66 35 87 36 54 37 38 38 39 39 47 40 40 41 42 42 48 43 41 44
REMARK SMILES IDX 43 45 44 46 45 47 46 48 70 49 71 50 79 51 72 52 74 53 80 54
REMARK SMILES IDX 73 55 75 56 76 57 77 58 78 59 55 60 56 61 64 62 57 63 59 64
REMARK SMILES IDX 65 65 58 66 60 67 61 68 62 69 63 70 6 71 7 72 8 73 9 74
REMARK SMILES IDX 10 75 27 76 11 77 26 78 28 79 25 80 12 81 13 83 14 84 15 85
REMARK SMILES IDX 16 86 17 88 18 89 19 90 23 91 20 92 22 93 24 94 21 95
REMARK H PARENT 85 23 53 34 12 82 15 87
REMARK Flexibility Score: inf
ROOT
ATOM      1  C   UNL A   1      37.010  21.544  25.484  1.00  0.00     0.275 C 
ENDROOT
BRANCH   1   2
ATOM      2  C   UNL A   1      38.517  21.237  25.353  1.00  0.00     0.275 C 
BRANCH   2   3
ATOM      3  O   UNL A   1      39.314  21.635  26.464  1.00  0.00    -0.458 OA
BRANCH   3   4
ATOM      4  C   UNL A   1      40.232  22.622  26.433  1.00  0.00     0.338 C 
ATOM      5  O   UNL A   1      41.335  22.364  25.954  1.00  0.00    -0.246 OA
BRANCH   4   6
ATOM      6  C   UNL A   1      39.959  24.012  26.950  1.00  0.00     0.060 A 
ATOM      7  C   UNL A   1      39.610  24.407  28.251  1.00  0.00     0.016 A 
ATOM      8  C   UNL A   1      40.290  25.022  26.054  1.00  0.00     0.016 A 
ATOM      9  C   UNL A   1      39.797  25.720  28.710  1.00  0.00     0.010 A 
ATOM     10  C   UNL A   1      40.557  26.301  26.527  1.00  0.00     0.010 A 
ATOM     11  C   UNL A   1      40.348  26.674  27.873  1.00  0.00    -0.014 A 
BRANCH  11  12
ATOM     12  C   UNL A   1      40.641  28.071  28.315  1.00  0.00     0.031 A 
ATOM     13  C   UNL A   1      42.094  28.443  28.412  1.00  0.00     0.074 A 
ATOM     14  C   UNL A   1      39.705  28.967  28.717  1.00  0.00     0.049 A 
ATOM     15  N   UNL A   1      42.641  29.493  28.956  1.00  0.00    -0.248 NA
ATOM     16  C   UNL A   1      43.071  27.456  27.902  1.00  0.00     0.031 C 
ATOM     17  C   UNL A   1      38.253  28.770  28.738  1.00  0.00     0.029 A 
ATOM     18  N   UNL A   1      39.848  30.241  29.232  1.00  0.00    -0.354 N 
ATOM     19  C   UNL A   1      44.001  29.256  28.856  1.00  0.00     0.074 A 
ATOM     20  C   UNL A   1      44.184  27.884  28.464  1.00  0.00     0.031 C 
ATOM     21  C   UNL A   1      37.652  29.853  29.269  1.00  0.00     0.029 A 
ATOM     22  C   UNL A   1      38.664  30.844  29.613  1.00  0.00     0.049 A 
ATOM     23  H   UNL A   1      40.723  30.684  29.320  1.00  0.00     0.167 HD
ATOM     24  C   UNL A   1      45.015  30.142  28.867  1.00  0.00     0.034 A 
ATOM     25  C   UNL A   1      38.429  32.063  30.151  1.00  0.00     0.034 A 
ATOM     26  C   UNL A   1      44.839  31.538  29.079  1.00  0.00     0.049 A 
ATOM     27  C   UNL A   1      39.588  33.031  30.269  1.00  0.00     0.074 A 
ATOM     28  C   UNL A   1      45.785  32.537  29.007  1.00  0.00     0.029 A 
ATOM     29  N   UNL A   1      43.629  32.130  29.392  1.00  0.00    -0.354 N 
ATOM     30  N   UNL A   1      40.848  32.840  29.967  1.00  0.00    -0.248 NA
ATOM     31  C   UNL A   1      39.284  34.402  30.712  1.00  0.00     0.031 C 
ATOM     32  C   UNL A   1      45.152  33.740  29.321  1.00  0.00     0.029 A 
ATOM     33  C   UNL A   1      43.805  33.488  29.543  1.00  0.00     0.049 A 
ATOM     34  H   UNL A   1      42.773  31.654  29.493  1.00  0.00     0.167 HD
ATOM     35  C   UNL A   1      41.467  34.080  30.101  1.00  0.00     0.074 A 
ATOM     36  C   UNL A   1      40.444  35.014  30.520  1.00  0.00     0.031 C 
ATOM     37  C   UNL A   1      42.762  34.415  29.887  1.00  0.00     0.034 A 
BRANCH  24  38
ATOM     38  C   UNL A   1      46.365  29.615  28.490  1.00  0.00     0.023 A 
ATOM     39  C   UNL A   1      46.746  29.579  27.129  1.00  0.00     0.012 A 
ATOM     40  C   UNL A   1      47.240  29.145  29.476  1.00  0.00     0.148 A 
ATOM     41  C   UNL A   1      47.968  29.031  26.754  1.00  0.00     0.002 A 
ATOM     42  C   UNL A   1      48.482  28.660  29.100  1.00  0.00     0.091 A 
ATOM     43  F   UNL A   1      46.831  29.164  30.752  1.00  0.00    -0.205 F 
ATOM     44  C   UNL A   1      48.840  28.584  27.741  1.00  0.00     0.022 A 
BRANCH  42  45
ATOM     45  S   UNL A   1      49.710  28.145  30.296  1.00  0.00     0.127 S 
ATOM     46  O   UNL A   1      49.583  26.689  30.242  1.00  0.00    -0.237 OA
ATOM     47  O   UNL A   1      50.937  28.677  29.709  1.00  0.00    -0.237 OA
ATOM     48  O   UNL A   1      49.318  28.747  31.563  1.00  0.00    -0.744 OA
ENDBRANCH  42  45
ENDBRANCH  24  38
BRANCH  25  49
ATOM     49  C   UNL A   1      37.046  32.522  30.510  1.00  0.00     0.023 A 
ATOM     50  C   UNL A   1      36.544  32.266  31.804  1.00  0.00     0.012 A 
ATOM     51  C   UNL A   1      36.199  33.133  29.565  1.00  0.00     0.148 A 
ATOM     52  C   UNL A   1      35.214  32.552  32.131  1.00  0.00     0.002 A 
ATOM     53  C   UNL A   1      34.885  33.452  29.909  1.00  0.00     0.091 A 
ATOM     54  F   UNL A   1      36.684  33.374  28.340  1.00  0.00    -0.205 F 
ATOM     55  C   UNL A   1      34.385  33.145  31.186  1.00  0.00     0.022 A 
BRANCH  53  56
ATOM     56  S   UNL A   1      33.759  34.293  28.787  1.00  0.00     0.127 S 
ATOM     57  O   UNL A   1      32.718  34.762  29.696  1.00  0.00    -0.237 OA
ATOM     58  O   UNL A   1      34.617  35.340  28.233  1.00  0.00    -0.237 OA
ATOM     59  O   UNL A   1      33.343  33.283  27.821  1.00  0.00    -0.744 OA
ENDBRANCH  53  56
ENDBRANCH  25  49
BRANCH  37  60
ATOM     60  C   UNL A   1      43.171  35.854  30.032  1.00  0.00     0.023 A 
ATOM     61  C   UNL A   1      43.686  36.319  31.256  1.00  0.00     0.012 A 
ATOM     62  C   UNL A   1      43.201  36.693  28.898  1.00  0.00     0.148 A 
ATOM     63  C   UNL A   1      44.212  37.605  31.353  1.00  0.00     0.002 A 
ATOM     64  C   UNL A   1      43.787  37.947  28.987  1.00  0.00     0.091 A 
ATOM     65  F   UNL A   1      42.692  36.230  27.746  1.00  0.00    -0.205 F 
ATOM     66  C   UNL A   1      44.281  38.410  30.218  1.00  0.00     0.022 A 
BRANCH  64  67
ATOM     67  S   UNL A   1      44.045  38.992  27.550  1.00  0.00     0.127 S 
ATOM     68  O   UNL A   1      44.932  38.164  26.737  1.00  0.00    -0.237 OA
ATOM     69  O   UNL A   1      42.686  39.133  27.025  1.00  0.00    -0.237 OA
ATOM     70  O   UNL A   1      44.632  40.229  28.050  1.00  0.00    -0.744 OA
ENDBRANCH  64  67
ENDBRANCH  37  60
ENDBRANCH  11  12
ENDBRANCH   4   6
ENDBRANCH   3   4
ENDBRANCH   2   3
ENDBRANCH   1   2
BRANCH   1  71
ATOM     71  O   UNL A   1      36.645  22.709  26.281  1.00  0.00    -0.458 OA
BRANCH  71  72
ATOM     72  C   UNL A   1      35.320  23.041  26.225  1.00  0.00     0.339 C 
ATOM     73  O   UNL A   1      34.595  23.047  27.213  1.00  0.00    -0.246 OA
BRANCH  72  74
ATOM     74  C   UNL A   1      34.747  23.236  24.792  1.00  0.00     0.080 A 
ATOM     75  C   UNL A   1      34.412  24.795  23.559  1.00  0.00     0.043 A 
ATOM     76  C   UNL A   1      33.574  21.866  24.547  1.00  0.00     0.055 A 
ATOM     77  C   UNL A   1      33.226  24.902  22.386  1.00  0.00     0.041 A 
ATOM     78  C   UNL A   1      32.299  22.062  23.294  1.00  0.00     0.023 A 
ATOM     79  Cl  UNL A   1      33.632  20.426  25.484  1.00  0.00    -0.083 Cl
ATOM     80  C   UNL A   1      32.153  23.538  22.255  1.00  0.00     0.028 A 
BRANCH  77  81
ATOM     81  N   UNL A   1      33.400  26.167  21.752  1.00  0.00    -0.332 N 
ATOM     82  H   UNL A   1      33.828  26.129  20.866  1.00  0.00     0.169 HD
BRANCH  81  83
ATOM     83  C   UNL A   1      33.056  27.471  22.193  1.00  0.00     0.177 C 
ATOM     84  S   UNL A   1      34.308  28.443  22.756  1.00  0.00    -0.040 S 
BRANCH  83  85
ATOM     85  N   UNL A   1      31.726  28.128  22.149  1.00  0.00    -0.299 N 
ATOM     86  C   UNL A   1      30.264  28.337  22.647  1.00  0.00     0.260 C 
ATOM     87  H   UNL A   1      31.816  28.778  21.416  1.00  0.00     0.172 HD
ATOM     88  O   UNL A   1      29.450  28.887  21.910  1.00  0.00    -0.269 OA
BRANCH  86  89
ATOM     89  C   UNL A   1      29.827  27.876  24.105  1.00  0.00     0.075 A 
ATOM     90  C   UNL A   1      29.667  26.077  24.208  1.00  0.00     0.017 A 
ATOM     91  C   UNL A   1      31.014  28.767  25.081  1.00  0.00     0.135 A 
ATOM     92  C   UNL A   1      30.919  25.165  25.175  1.00  0.00     0.001 A 
ATOM     93  C   UNL A   1      32.229  28.027  26.101  1.00  0.00     0.040 A 
ATOM     94  F   UNL A   1      31.399  29.950  24.558  1.00  0.00    -0.206 F 
ATOM     95  C   UNL A   1      32.295  26.258  26.195  1.00  0.00     0.003 A 
ENDBRANCH  86  89
ENDBRANCH  83  85
ENDBRANCH  81  83
ENDBRANCH  77  81
ENDBRANCH  72  74
ENDBRANCH  71  72
ENDBRANCH   1  71
TORSDOF 18
ENDMDL
MODEL 2
REMARK VINA RESULT:     -10.7      3.006      8.219
REMARK SMILES O=C(OCCOC(=O)c1cc(NC(=S)NC(=O)c2ccccc2F)ccc1Cl)c1ccc(-c2c3nc(c(-c4cccc(S(=O)(=O)[O-])c4F)c4ccc([nH]4)c(-c4cccc(S(=O)(=O)[O-])c4F)c4nc(c(-c5cccc(S(=O)(=O)[O-])c5F)c5ccc2[nH]5)C=C4)C=C3)cc1
REMARK SMILES IDX 5 1 4 2 3 3 2 4 1 5 29 6 30 7 91 8 31 9 90 10 32 11 33 12
REMARK SMILES IDX 34 13 84 14 35 15 89 16 83 17 85 18 36 19 88 20 82 21 81 22
REMARK SMILES IDX 37 24 69 25 49 26 68 27 50 28 53 29 67 30 86 31 51 32 52 33
REMARK SMILES IDX 66 35 87 36 54 37 38 38 39 39 47 40 40 41 42 42 48 43 41 44
REMARK SMILES IDX 43 45 44 46 45 47 46 48 70 49 71 50 79 51 72 52 74 53 80 54
REMARK SMILES IDX 73 55 75 56 76 57 77 58 78 59 55 60 56 61 64 62 57 63 59 64
REMARK SMILES IDX 65 65 58 66 60 67 61 68 62 69 63 70 6 71 7 72 8 73 9 74
REMARK SMILES IDX 10 75 27 76 11 77 26 78 28 79 25 80 12 81 13 83 14 84 15 85
REMARK SMILES IDX 16 86 17 88 18 89 19 90 23 91 20 92 22 93 24 94 21 95
REMARK H PARENT 85 23 53 34 12 82 15 87
REMARK Flexibility Score: inf
ROOT
ATOM      1  C   UNL A   1      37.711  21.411  24.798  1.00  0.00     0.275 C 
ENDROOT
BRANCH   1   2
ATOM      2  C   UNL A   1      38.913  21.661  25.733  1.00  0.00     0.275 C 
BRANCH   2   3
ATOM      3  O   UNL A   1      38.697  22.636  26.749  1.00  0.00    -0.458 OA
BRANCH   3   4
ATOM      4  C   UNL A   1      38.572  23.960  26.525  1.00  0.00     0.338 C 
ATOM      5  O   UNL A   1      37.574  24.347  25.920  1.00  0.00    -0.246 OA
BRANCH   4   6
ATOM      6  C   UNL A   1      39.593  24.969  26.988  1.00  0.00     0.060 A 
ATOM      7  C   UNL A   1      40.268  25.939  26.230  1.00  0.00     0.016 A 
ATOM      8  C   UNL A   1      39.716  25.053  28.370  1.00  0.00     0.016 A 
ATOM      9  C   UNL A   1      40.853  27.073  26.816  1.00  0.00     0.010 A 
ATOM     10  C   UNL A   1      40.216  26.214  28.947  1.00  0.00     0.010 A 
ATOM     11  C   UNL A   1      40.768  27.266  28.183  1.00  0.00    -0.014 A 
BRANCH  11  12
ATOM     12  C   UNL A   1      41.304  28.483  28.866  1.00  0.00     0.031 A 
ATOM     13  C   UNL A   1      40.287  29.500  29.302  1.00  0.00     0.074 A 
ATOM     14  C   UNL A   1      42.623  28.763  29.024  1.00  0.00     0.049 A 
ATOM     15  N   UNL A   1      40.469  30.720  29.720  1.00  0.00    -0.248 NA
ATOM     16  C   UNL A   1      38.864  29.119  29.166  1.00  0.00     0.031 C 
ATOM     17  C   UNL A   1      43.753  27.920  28.623  1.00  0.00     0.029 A 
ATOM     18  N   UNL A   1      43.244  29.881  29.545  1.00  0.00    -0.354 N 
ATOM     19  C   UNL A   1      39.188  31.222  29.866  1.00  0.00     0.074 A 
ATOM     20  C   UNL A   1      38.276  30.297  29.247  1.00  0.00     0.031 C 
ATOM     21  C   UNL A   1      44.912  28.561  28.874  1.00  0.00     0.029 A 
ATOM     22  C   UNL A   1      44.624  29.857  29.476  1.00  0.00     0.049 A 
ATOM     23  H   UNL A   1      42.744  30.635  29.934  1.00  0.00     0.167 HD
ATOM     24  C   UNL A   1      38.764  32.243  30.635  1.00  0.00     0.034 A 
ATOM     25  C   UNL A   1      45.544  30.765  29.879  1.00  0.00     0.034 A 
ATOM     26  C   UNL A   1      39.636  33.068  31.400  1.00  0.00     0.049 A 
ATOM     27  C   UNL A   1      45.064  31.976  30.651  1.00  0.00     0.074 A 
ATOM     28  C   UNL A   1      39.303  34.062  32.294  1.00  0.00     0.029 A 
ATOM     29  N   UNL A   1      41.015  32.979  31.368  1.00  0.00    -0.354 N 
ATOM     30  N   UNL A   1      43.838  32.321  30.956  1.00  0.00    -0.248 NA
ATOM     31  C   UNL A   1      46.090  32.872  31.212  1.00  0.00     0.031 C 
ATOM     32  C   UNL A   1      40.492  34.611  32.775  1.00  0.00     0.029 A 
ATOM     33  C   UNL A   1      41.558  33.924  32.212  1.00  0.00     0.049 A 
ATOM     34  H   UNL A   1      41.531  32.341  30.824  1.00  0.00     0.167 HD
ATOM     35  C   UNL A   1      43.947  33.415  31.809  1.00  0.00     0.074 A 
ATOM     36  C   UNL A   1      45.360  33.683  31.965  1.00  0.00     0.031 C 
ATOM     37  C   UNL A   1      42.966  34.128  32.414  1.00  0.00     0.034 A 
BRANCH  24  38
ATOM     38  C   UNL A   1      37.282  32.397  30.782  1.00  0.00     0.023 A 
ATOM     39  C   UNL A   1      36.628  31.843  31.907  1.00  0.00     0.012 A 
ATOM     40  C   UNL A   1      36.543  33.072  29.803  1.00  0.00     0.148 A 
ATOM     41  C   UNL A   1      35.246  31.917  32.026  1.00  0.00     0.002 A 
ATOM     42  C   UNL A   1      35.172  33.198  29.962  1.00  0.00     0.091 A 
ATOM     43  F   UNL A   1      37.191  33.555  28.735  1.00  0.00    -0.205 F 
ATOM     44  C   UNL A   1      34.520  32.606  31.060  1.00  0.00     0.022 A 
BRANCH  42  45
ATOM     45  S   UNL A   1      34.160  34.140  28.824  1.00  0.00     0.127 S 
ATOM     46  O   UNL A   1      33.761  33.112  27.863  1.00  0.00    -0.237 OA
ATOM     47  O   UNL A   1      33.090  34.611  29.700  1.00  0.00    -0.237 OA
ATOM     48  O   UNL A   1      35.022  35.182  28.284  1.00  0.00    -0.744 OA
ENDBRANCH  42  45
ENDBRANCH  24  38
BRANCH  25  49
ATOM     49  C   UNL A   1      47.016  30.545  29.692  1.00  0.00     0.023 A 
ATOM     50  C   UNL A   1      47.746  29.854  30.683  1.00  0.00     0.012 A 
ATOM     51  C   UNL A   1      47.711  31.078  28.589  1.00  0.00     0.148 A 
ATOM     52  C   UNL A   1      49.139  29.752  30.612  1.00  0.00     0.002 A 
ATOM     53  C   UNL A   1      49.097  30.939  28.504  1.00  0.00     0.091 A 
ATOM     54  F   UNL A   1      47.010  31.731  27.652  1.00  0.00    -0.205 F 
ATOM     55  C   UNL A   1      49.815  30.293  29.523  1.00  0.00     0.022 A 
BRANCH  53  56
ATOM     56  S   UNL A   1      50.053  31.532  27.100  1.00  0.00     0.127 S 
ATOM     57  O   UNL A   1      51.381  31.695  27.684  1.00  0.00    -0.237 OA
ATOM     58  O   UNL A   1      49.921  30.419  26.160  1.00  0.00    -0.237 OA
ATOM     59  O   UNL A   1      49.397  32.762  26.671  1.00  0.00    -0.744 OA
ENDBRANCH  53  56
ENDBRANCH  25  49
BRANCH  37  60
ATOM     60  C   UNL A   1      43.350  35.233  33.357  1.00  0.00     0.023 A 
ATOM     61  C   UNL A   1      43.554  36.536  32.868  1.00  0.00     0.012 A 
ATOM     62  C   UNL A   1      43.338  35.004  34.749  1.00  0.00     0.148 A 
ATOM     63  C   UNL A   1      43.755  37.595  33.751  1.00  0.00     0.002 A 
ATOM     64  C   UNL A   1      43.473  36.073  35.622  1.00  0.00     0.091 A 
ATOM     65  F   UNL A   1      43.154  33.750  35.189  1.00  0.00    -0.205 F 
ATOM     66  C   UNL A   1      43.694  37.368  35.125  1.00  0.00     0.022 A 
BRANCH  64  67
ATOM     67  S   UNL A   1      43.268  35.897  37.397  1.00  0.00     0.127 S 
ATOM     68  O   UNL A   1      41.849  35.564  37.501  1.00  0.00    -0.237 OA
ATOM     69  O   UNL A   1      44.179  34.794  37.703  1.00  0.00    -0.237 OA
ATOM     70  O   UNL A   1      43.651  37.178  37.978  1.00  0.00    -0.744 OA
ENDBRANCH  64  67
ENDBRANCH  37  60
ENDBRANCH  11  12
ENDBRANCH   4   6
ENDBRANCH   3   4
ENDBRANCH   2   3
ENDBRANCH   1   2
BRANCH   1  71
ATOM     71  O   UNL A   1      36.567  20.714  25.373  1.00  0.00    -0.458 OA
BRANCH  71  72
ATOM     72  C   UNL A   1      35.536  21.531  25.749  1.00  0.00     0.339 C 
ATOM     73  O   UNL A   1      35.173  21.646  26.914  1.00  0.00    -0.246 OA
BRANCH  72  74
ATOM     74  C   UNL A   1      34.736  22.168  24.578  1.00  0.00     0.080 A 
ATOM     75  C   UNL A   1      34.574  24.001  23.754  1.00  0.00     0.043 A 
ATOM     76  C   UNL A   1      33.210  21.186  24.442  1.00  0.00     0.055 A 
ATOM     77  C   UNL A   1      33.233  24.632  22.981  1.00  0.00     0.041 A 
ATOM     78  C   UNL A   1      31.792  21.938  23.632  1.00  0.00     0.023 A 
ATOM     79  Cl  UNL A   1      33.080  19.595  25.079  1.00  0.00    -0.083 Cl
ATOM     80  C   UNL A   1      31.828  23.606  22.926  1.00  0.00     0.028 A 
BRANCH  77  81
ATOM     81  N   UNL A   1      33.600  25.936  22.538  1.00  0.00    -0.332 N 
ATOM     82  H   UNL A   1      33.754  26.015  21.569  1.00  0.00     0.169 HD
BRANCH  81  83
ATOM     83  C   UNL A   1      33.780  27.138  23.271  1.00  0.00     0.177 C 
ATOM     84  S   UNL A   1      33.948  28.557  22.383  1.00  0.00    -0.040 S 
BRANCH  83  85
ATOM     85  N   UNL A   1      33.760  27.321  24.743  1.00  0.00    -0.299 N 
ATOM     86  C   UNL A   1      33.140  27.867  26.066  1.00  0.00     0.260 C 
ATOM     87  H   UNL A   1      34.565  26.843  25.045  1.00  0.00     0.172 HD
ATOM     88  O   UNL A   1      33.845  27.960  27.066  1.00  0.00    -0.269 OA
BRANCH  86  89
ATOM     89  C   UNL A   1      31.603  28.270  26.139  1.00  0.00     0.075 A 
ATOM     90  C   UNL A   1      31.234  29.662  25.046  1.00  0.00     0.017 A 
ATOM     91  C   UNL A   1      30.853  26.675  25.911  1.00  0.00     0.135 A 
ATOM     92  C   UNL A   1      30.239  29.329  23.549  1.00  0.00     0.001 A 
ATOM     93  C   UNL A   1      29.829  26.236  24.561  1.00  0.00     0.040 A 
ATOM     94  F   UNL A   1      31.566  25.641  26.405  1.00  0.00    -0.206 F 
ATOM     95  C   UNL A   1      29.489  27.456  23.321  1.00  0.00     0.003 A 
ENDBRANCH  86  89
ENDBRANCH  83  85
ENDBRANCH  81  83
ENDBRANCH  77  81
ENDBRANCH  72  74
ENDBRANCH  71  72
ENDBRANCH   1  71
TORSDOF 18
ENDMDL
MODEL 3
REMARK VINA RESULT:     -10.4      1.881      8.026
REMARK SMILES O=C(OCCOC(=O)c1cc(NC(=S)NC(=O)c2ccccc2F)ccc1Cl)c1ccc(-c2c3nc(c(-c4cccc(S(=O)(=O)[O-])c4F)c4ccc([nH]4)c(-c4cccc(S(=O)(=O)[O-])c4F)c4nc(c(-c5cccc(S(=O)(=O)[O-])c5F)c5ccc2[nH]5)C=C4)C=C3)cc1
REMARK SMILES IDX 5 1 4 2 3 3 2 4 1 5 29 6 30 7 91 8 31 9 90 10 32 11 33 12
REMARK SMILES IDX 34 13 84 14 35 15 89 16 83 17 85 18 36 19 88 20 82 21 81 22
REMARK SMILES IDX 37 24 69 25 49 26 68 27 50 28 53 29 67 30 86 31 51 32 52 33
REMARK SMILES IDX 66 35 87 36 54 37 38 38 39 39 47 40 40 41 42 42 48 43 41 44
REMARK SMILES IDX 43 45 44 46 45 47 46 48 70 49 71 50 79 51 72 52 74 53 80 54
REMARK SMILES IDX 73 55 75 56 76 57 77 58 78 59 55 60 56 61 64 62 57 63 59 64
REMARK SMILES IDX 65 65 58 66 60 67 61 68 62 69 63 70 6 71 7 72 8 73 9 74
REMARK SMILES IDX 10 75 27 76 11 77 26 78 28 79 25 80 12 81 13 83 14 84 15 85
REMARK SMILES IDX 16 86 17 88 18 89 19 90 23 91 20 92 22 93 24 94 21 95
REMARK H PARENT 85 23 53 34 12 82 15 87
REMARK Flexibility Score: inf
ROOT
ATOM      1  C   UNL A   1      37.686  21.352  24.791  1.00  0.00     0.275 C 
ENDROOT
BRANCH   1   2
ATOM      2  C   UNL A   1      38.935  21.497  25.686  1.00  0.00     0.275 C 
BRANCH   2   3
ATOM      3  O   UNL A   1      38.838  22.488  26.704  1.00  0.00    -0.458 OA
BRANCH   3   4
ATOM      4  C   UNL A   1      38.679  23.807  26.476  1.00  0.00     0.338 C 
ATOM      5  O   UNL A   1      37.638  24.173  25.933  1.00  0.00    -0.246 OA
BRANCH   4   6
ATOM      6  C   UNL A   1      39.713  24.836  26.860  1.00  0.00     0.060 A 
ATOM      7  C   UNL A   1      40.318  25.811  26.050  1.00  0.00     0.016 A 
ATOM      8  C   UNL A   1      39.932  24.931  28.228  1.00  0.00     0.016 A 
ATOM      9  C   UNL A   1      40.923  26.958  26.587  1.00  0.00     0.010 A 
ATOM     10  C   UNL A   1      40.453  26.104  28.762  1.00  0.00     0.010 A 
ATOM     11  C   UNL A   1      40.932  27.159  27.956  1.00  0.00    -0.014 A 
BRANCH  11  12
ATOM     12  C   UNL A   1      41.495  28.389  28.592  1.00  0.00     0.031 A 
ATOM     13  C   UNL A   1      40.494  29.398  29.081  1.00  0.00     0.074 A 
ATOM     14  C   UNL A   1      42.817  28.686  28.665  1.00  0.00     0.049 A 
ATOM     15  N   UNL A   1      40.687  30.625  29.475  1.00  0.00    -0.248 NA
ATOM     16  C   UNL A   1      39.070  29.000  29.038  1.00  0.00     0.031 C 
ATOM     17  C   UNL A   1      43.930  27.852  28.203  1.00  0.00     0.029 A 
ATOM     18  N   UNL A   1      43.456  29.817  29.135  1.00  0.00    -0.354 N 
ATOM     19  C   UNL A   1      39.412  31.113  29.696  1.00  0.00     0.074 A 
ATOM     20  C   UNL A   1      38.474  30.172  29.144  1.00  0.00     0.031 C 
ATOM     21  C   UNL A   1      45.095  28.509  28.375  1.00  0.00     0.029 A 
ATOM     22  C   UNL A   1      44.829  29.808  28.981  1.00  0.00     0.049 A 
ATOM     23  H   UNL A   1      42.972  30.568  29.548  1.00  0.00     0.167 HD
ATOM     24  C   UNL A   1      39.024  32.137  30.480  1.00  0.00     0.034 A 
ATOM     25  C   UNL A   1      45.761  30.730  29.316  1.00  0.00     0.034 A 
ATOM     26  C   UNL A   1      39.932  32.980  31.181  1.00  0.00     0.049 A 
ATOM     27  C   UNL A   1      45.316  31.944  30.106  1.00  0.00     0.074 A 
ATOM     28  C   UNL A   1      39.643  33.980  32.084  1.00  0.00     0.029 A 
ATOM     29  N   UNL A   1      41.308  32.907  31.064  1.00  0.00    -0.354 N 
ATOM     30  N   UNL A   1      44.107  32.278  30.483  1.00  0.00    -0.248 NA
ATOM     31  C   UNL A   1      46.364  32.857  30.593  1.00  0.00     0.031 C 
ATOM     32  C   UNL A   1      40.853  34.548  32.485  1.00  0.00     0.029 A 
ATOM     33  C   UNL A   1      41.890  33.866  31.864  1.00  0.00     0.049 A 
ATOM     34  H   UNL A   1      41.796  32.269  30.495  1.00  0.00     0.167 HD
ATOM     35  C   UNL A   1      44.256  33.382  31.317  1.00  0.00     0.074 A 
ATOM     36  C   UNL A   1      45.672  33.667  31.383  1.00  0.00     0.031 C 
ATOM     37  C   UNL A   1      43.306  34.089  31.976  1.00  0.00     0.034 A 
BRANCH  24  38
ATOM     38  C   UNL A   1      37.552  32.276  30.717  1.00  0.00     0.023 A 
ATOM     39  C   UNL A   1      36.978  31.732  31.889  1.00  0.00     0.012 A 
ATOM     40  C   UNL A   1      36.744  32.926  29.777  1.00  0.00     0.148 A 
ATOM     41  C   UNL A   1      35.604  31.791  32.094  1.00  0.00     0.002 A 
ATOM     42  C   UNL A   1      35.384  33.039  30.020  1.00  0.00     0.091 A 
ATOM     43  F   UNL A   1      37.318  33.400  28.663  1.00  0.00    -0.205 F 
ATOM     44  C   UNL A   1      34.810  32.456  31.165  1.00  0.00     0.022 A 
BRANCH  42  45
ATOM     45  S   UNL A   1      34.291  33.950  28.934  1.00  0.00     0.127 S 
ATOM     46  O   UNL A   1      33.182  34.270  29.831  1.00  0.00    -0.237 OA
ATOM     47  O   UNL A   1      35.127  35.088  28.559  1.00  0.00    -0.237 OA
ATOM     48  O   UNL A   1      33.956  33.043  27.844  1.00  0.00    -0.744 OA
ENDBRANCH  42  45
ENDBRANCH  24  38
BRANCH  25  49
ATOM     49  C   UNL A   1      47.221  30.525  29.041  1.00  0.00     0.023 A 
ATOM     50  C   UNL A   1      47.777  31.013  27.839  1.00  0.00     0.012 A 
ATOM     51  C   UNL A   1      48.043  29.784  29.914  1.00  0.00     0.148 A 
ATOM     52  C   UNL A   1      49.098  30.720  27.485  1.00  0.00     0.002 A 
ATOM     53  C   UNL A   1      49.371  29.528  29.573  1.00  0.00     0.091 A 
ATOM     54  F   UNL A   1      47.507  29.325  31.053  1.00  0.00    -0.205 F 
ATOM     55  C   UNL A   1      49.895  29.979  28.350  1.00  0.00     0.022 A 
BRANCH  53  56
ATOM     56  S   UNL A   1      50.506  28.650  30.657  1.00  0.00     0.127 S 
ATOM     57  O   UNL A   1      51.763  28.741  29.920  1.00  0.00    -0.237 OA
ATOM     58  O   UNL A   1      50.441  29.459  31.874  1.00  0.00    -0.237 OA
ATOM     59  O   UNL A   1      49.953  27.308  30.797  1.00  0.00    -0.744 OA
ENDBRANCH  53  56
ENDBRANCH  25  49
BRANCH  37  60
ATOM     60  C   UNL A   1      43.734  35.208  32.882  1.00  0.00     0.023 A 
ATOM     61  C   UNL A   1      44.161  34.928  34.193  1.00  0.00     0.012 A 
ATOM     62  C   UNL A   1      43.872  36.514  32.367  1.00  0.00     0.148 A 
ATOM     63  C   UNL A   1      44.706  35.936  34.985  1.00  0.00     0.002 A 
ATOM     64  C   UNL A   1      44.478  37.496  33.138  1.00  0.00     0.091 A 
ATOM     65  F   UNL A   1      43.447  36.758  31.119  1.00  0.00    -0.205 F 
ATOM     66  C   UNL A   1      44.883  37.211  34.453  1.00  0.00     0.022 A 
BRANCH  64  67
ATOM     67  S   UNL A   1      44.872  39.122  32.488  1.00  0.00     0.127 S 
ATOM     68  O   UNL A   1      46.255  38.940  32.052  1.00  0.00    -0.237 OA
ATOM     69  O   UNL A   1      43.902  39.263  31.403  1.00  0.00    -0.237 OA
ATOM     70  O   UNL A   1      44.687  40.055  33.592  1.00  0.00    -0.744 OA
ENDBRANCH  64  67
ENDBRANCH  37  60
ENDBRANCH  11  12
ENDBRANCH   4   6
ENDBRANCH   3   4
ENDBRANCH   2   3
ENDBRANCH   1   2
BRANCH   1  71
ATOM     71  O   UNL A   1      36.532  20.683  25.379  1.00  0.00    -0.458 OA
BRANCH  71  72
ATOM     72  C   UNL A   1      35.517  21.523  25.746  1.00  0.00     0.339 C 
ATOM     73  O   UNL A   1      35.141  21.642  26.906  1.00  0.00    -0.246 OA
BRANCH  72  74
ATOM     74  C   UNL A   1      34.747  22.183  24.567  1.00  0.00     0.080 A 
ATOM     75  C   UNL A   1      34.613  24.030  23.770  1.00  0.00     0.043 A 
ATOM     76  C   UNL A   1      33.219  21.211  24.379  1.00  0.00     0.055 A 
ATOM     77  C   UNL A   1      33.294  24.681  22.977  1.00  0.00     0.041 A 
ATOM     78  C   UNL A   1      31.825  21.985  23.549  1.00  0.00     0.023 A 
ATOM     79  Cl  UNL A   1      33.067  19.611  24.987  1.00  0.00    -0.083 Cl
ATOM     80  C   UNL A   1      31.885  23.664  22.873  1.00  0.00     0.028 A 
BRANCH  77  81
ATOM     81  N   UNL A   1      33.677  25.990  22.564  1.00  0.00    -0.332 N 
ATOM     82  H   UNL A   1      33.900  26.074  21.609  1.00  0.00     0.169 HD
BRANCH  81  83
ATOM     83  C   UNL A   1      33.789  27.192  23.310  1.00  0.00     0.177 C 
ATOM     84  S   UNL A   1      33.886  28.628  22.438  1.00  0.00    -0.040 S 
BRANCH  83  85
ATOM     85  N   UNL A   1      33.752  27.358  24.784  1.00  0.00    -0.299 N 
ATOM     86  C   UNL A   1      33.120  27.895  26.105  1.00  0.00     0.260 C 
ATOM     87  H   UNL A   1      34.548  26.869  25.091  1.00  0.00     0.172 HD
ATOM     88  O   UNL A   1      33.814  27.970  27.116  1.00  0.00    -0.269 OA
BRANCH  86  89
ATOM     89  C   UNL A   1      31.587  28.312  26.164  1.00  0.00     0.075 A 
ATOM     90  C   UNL A   1      31.240  29.707  25.066  1.00  0.00     0.017 A 
ATOM     91  C   UNL A   1      30.825  26.724  25.930  1.00  0.00     0.135 A 
ATOM     92  C   UNL A   1      30.257  29.382  23.561  1.00  0.00     0.001 A 
ATOM     93  C   UNL A   1      29.809  26.293  24.571  1.00  0.00     0.040 A 
ATOM     94  F   UNL A   1      31.523  25.684  26.431  1.00  0.00    -0.206 F 
ATOM     95  C   UNL A   1      29.491  27.515  23.327  1.00  0.00     0.003 A 
ENDBRANCH  86  89
ENDBRANCH  83  85
ENDBRANCH  81  83
ENDBRANCH  77  81
ENDBRANCH  72  74
ENDBRANCH  71  72
ENDBRANCH   1  71
TORSDOF 18
ENDMDL
