MODEL 1
REMARK VINA RESULT:     -12.5      0.000      0.000
REMARK SMILES O=C(OCCOC(=O)[C@H]1CCCN1C(=O)CN1C(=O)[C@@H]2[C@H](C1=O)[C@H]1C=C[C@@H]2C1)c1ccc(-c2c3nc(c(-c4cccc(S(=O)(=O)[O-])c4F)c4ccc([nH]4)c(-c4cccc(S(=O)(=O)[O-])c4F)c4nc(c(-c5cccc(S(=O)(=O)[O-])c5F)c5ccc2[nH]5)C=C4)C=C3)cc1
REMARK SMILES IDX 4 1 3 2 2 3 1 4 29 5 30 6 91 7 31 8 90 9 32 10 33 11 34 12
REMARK SMILES IDX 84 13 35 14 89 15 83 16 85 17 36 18 88 19 82 20 81 21 37 23
REMARK SMILES IDX 69 24 49 25 68 26 50 27 53 28 67 29 86 30 51 31 52 32 66 34
REMARK SMILES IDX 87 35 54 36 38 37 39 38 47 39 40 40 42 41 48 42 41 43 43 44
REMARK SMILES IDX 44 45 45 46 46 47 70 48 71 49 79 50 72 51 74 52 80 53 73 54
REMARK SMILES IDX 75 55 76 56 77 57 78 58 55 59 56 60 64 61 57 62 59 63 65 64
REMARK SMILES IDX 58 65 60 66 61 67 62 68 63 69 5 70 6 71 7 72 8 73 9 74 10 75
REMARK SMILES IDX 13 76 11 77 12 78 14 79 15 80 16 81 17 82 22 83 18 84 23 85
REMARK SMILES IDX 21 86 20 87 19 88 24 89 27 90 25 91 28 92 26 93
REMARK H PARENT 85 22 53 33
REMARK Flexibility Score: inf
ROOT
ATOM      1  C   UNL A   1      36.114  20.143  25.014  1.00  0.00     0.275 C 
ENDROOT
BRANCH   1   2
ATOM      2  O   UNL A   1      37.413  20.674  24.696  1.00  0.00    -0.458 OA
BRANCH   2   3
ATOM      3  C   UNL A   1      38.587  20.645  25.375  1.00  0.00     0.338 C 
ATOM      4  O   UNL A   1      39.138  19.547  25.460  1.00  0.00    -0.246 OA
BRANCH   3   5
ATOM      5  C   UNL A   1      39.194  21.787  26.170  1.00  0.00     0.060 A 
ATOM      6  C   UNL A   1      40.427  21.790  26.836  1.00  0.00     0.016 A 
ATOM      7  C   UNL A   1      38.559  23.043  26.008  1.00  0.00     0.016 A 
ATOM      8  C   UNL A   1      41.103  23.013  27.080  1.00  0.00     0.010 A 
ATOM      9  C   UNL A   1      39.223  24.262  26.265  1.00  0.00     0.010 A 
ATOM     10  C   UNL A   1      40.551  24.259  26.695  1.00  0.00    -0.014 A 
BRANCH  10  11
ATOM     11  C   UNL A   1      41.346  25.499  26.963  1.00  0.00     0.031 A 
ATOM     12  C   UNL A   1      40.695  26.418  27.926  1.00  0.00     0.074 A 
ATOM     13  C   UNL A   1      42.581  25.815  26.490  1.00  0.00     0.049 A 
ATOM     14  N   UNL A   1      41.162  27.521  28.418  1.00  0.00    -0.248 NA
ATOM     15  C   UNL A   1      39.311  26.091  28.314  1.00  0.00     0.031 C 
ATOM     16  C   UNL A   1      43.256  25.177  25.380  1.00  0.00     0.029 A 
ATOM     17  N   UNL A   1      43.541  26.726  26.903  1.00  0.00    -0.354 N 
ATOM     18  C   UNL A   1      40.095  28.077  29.087  1.00  0.00     0.074 A 
ATOM     19  C   UNL A   1      38.977  27.169  28.996  1.00  0.00     0.031 C 
ATOM     20  C   UNL A   1      44.568  25.449  25.393  1.00  0.00     0.029 A 
ATOM     21  C   UNL A   1      44.777  26.566  26.282  1.00  0.00     0.049 A 
ATOM     22  H   UNL A   1      43.364  27.422  27.576  1.00  0.00     0.167 HD
ATOM     23  C   UNL A   1      40.045  29.287  29.664  1.00  0.00     0.034 A 
ATOM     24  C   UNL A   1      45.916  27.299  26.280  1.00  0.00     0.034 A 
ATOM     25  C   UNL A   1      41.135  30.211  29.671  1.00  0.00     0.049 A 
ATOM     26  C   UNL A   1      45.824  28.626  26.965  1.00  0.00     0.074 A 
ATOM     27  C   UNL A   1      41.171  31.461  30.252  1.00  0.00     0.029 A 
ATOM     28  N   UNL A   1      42.344  30.023  29.020  1.00  0.00    -0.354 N 
ATOM     29  N   UNL A   1      44.832  29.095  27.678  1.00  0.00    -0.248 NA
ATOM     30  C   UNL A   1      46.945  29.560  26.792  1.00  0.00     0.031 C 
ATOM     31  C   UNL A   1      42.379  32.058  29.901  1.00  0.00     0.029 A 
ATOM     32  C   UNL A   1      43.132  31.145  29.179  1.00  0.00     0.049 A 
ATOM     33  H   UNL A   1      42.601  29.215  28.520  1.00  0.00     0.167 HD
ATOM     34  C   UNL A   1      45.194  30.381  28.022  1.00  0.00     0.074 A 
ATOM     35  C   UNL A   1      46.529  30.599  27.500  1.00  0.00     0.031 C 
ATOM     36  C   UNL A   1      44.469  31.312  28.678  1.00  0.00     0.034 A 
BRANCH  23  37
ATOM     37  C   UNL A   1      38.728  29.697  30.218  1.00  0.00     0.023 A 
ATOM     38  C   UNL A   1      38.367  29.368  31.538  1.00  0.00     0.012 A 
ATOM     39  C   UNL A   1      37.843  30.413  29.396  1.00  0.00     0.148 A 
ATOM     40  C   UNL A   1      37.124  29.746  32.033  1.00  0.00     0.002 A 
ATOM     41  C   UNL A   1      36.641  30.847  29.918  1.00  0.00     0.091 A 
ATOM     42  F   UNL A   1      38.196  30.640  28.123  1.00  0.00    -0.205 F 
ATOM     43  C   UNL A   1      36.272  30.506  31.231  1.00  0.00     0.022 A 
BRANCH  41  44
ATOM     44  S   UNL A   1      35.525  31.892  28.986  1.00  0.00     0.127 S 
ATOM     45  O   UNL A   1      34.968  30.942  28.025  1.00  0.00    -0.237 OA
ATOM     46  O   UNL A   1      34.596  32.331  30.026  1.00  0.00    -0.237 OA
ATOM     47  O   UNL A   1      36.345  32.945  28.403  1.00  0.00    -0.744 OA
ENDBRANCH  41  44
ENDBRANCH  23  37
BRANCH  24  48
ATOM     48  C   UNL A   1      47.143  26.953  25.469  1.00  0.00     0.023 A 
ATOM     49  C   UNL A   1      48.175  26.170  26.036  1.00  0.00     0.012 A 
ATOM     50  C   UNL A   1      47.349  27.470  24.171  1.00  0.00     0.148 A 
ATOM     51  C   UNL A   1      49.379  25.951  25.350  1.00  0.00     0.002 A 
ATOM     52  C   UNL A   1      48.506  27.170  23.458  1.00  0.00     0.091 A 
ATOM     53  F   UNL A   1      46.419  28.285  23.655  1.00  0.00    -0.205 F 
ATOM     54  C   UNL A   1      49.537  26.433  24.056  1.00  0.00     0.022 A 
BRANCH  52  55
ATOM     55  S   UNL A   1      48.746  27.674  21.749  1.00  0.00     0.127 S 
ATOM     56  O   UNL A   1      50.191  27.891  21.705  1.00  0.00    -0.237 OA
ATOM     57  O   UNL A   1      48.282  26.493  21.020  1.00  0.00    -0.237 OA
ATOM     58  O   UNL A   1      47.929  28.866  21.570  1.00  0.00    -0.744 OA
ENDBRANCH  52  55
ENDBRANCH  24  48
BRANCH  36  59
ATOM     59  C   UNL A   1      45.142  32.618  28.951  1.00  0.00     0.023 A 
ATOM     60  C   UNL A   1      45.937  32.792  30.097  1.00  0.00     0.012 A 
ATOM     61  C   UNL A   1      45.024  33.651  28.005  1.00  0.00     0.148 A 
ATOM     62  C   UNL A   1      46.584  34.004  30.315  1.00  0.00     0.002 A 
ATOM     63  C   UNL A   1      45.725  34.827  28.195  1.00  0.00     0.091 A 
ATOM     64  F   UNL A   1      44.247  33.449  26.932  1.00  0.00    -0.205 F 
ATOM     65  C   UNL A   1      46.492  35.014  29.357  1.00  0.00     0.022 A 
BRANCH  63  66
ATOM     66  S   UNL A   1      45.735  36.133  26.970  1.00  0.00     0.127 S 
ATOM     67  O   UNL A   1      44.318  36.484  26.899  1.00  0.00    -0.237 OA
ATOM     68  O   UNL A   1      46.587  37.139  27.604  1.00  0.00    -0.237 OA
ATOM     69  O   UNL A   1      46.284  35.549  25.753  1.00  0.00    -0.744 OA
ENDBRANCH  63  66
ENDBRANCH  36  59
ENDBRANCH  10  11
ENDBRANCH   3   5
ENDBRANCH   2   3
ENDBRANCH   1   2
BRANCH   1  70
ATOM     70  C   UNL A   1      34.974  21.098  24.657  1.00  0.00     0.274 C 
BRANCH  70  71
ATOM     71  O   UNL A   1      33.871  20.905  25.537  1.00  0.00    -0.461 OA
BRANCH  71  72
ATOM     72  C   UNL A   1      32.606  21.067  25.053  1.00  0.00     0.328 C 
ATOM     73  O   UNL A   1      31.822  20.150  24.856  1.00  0.00    -0.250 OA
BRANCH  72  74
ATOM     74  C   UNL A   1      32.276  22.562  24.865  1.00  0.00     0.195 C 
ATOM     75  C   UNL A   1      30.943  22.910  25.404  1.00  0.00     0.039 C 
ATOM     76  N   UNL A   1      33.036  23.566  25.581  1.00  0.00    -0.327 N 
ATOM     77  C   UNL A   1      31.165  22.989  26.893  1.00  0.00     0.024 C 
ATOM     78  C   UNL A   1      32.512  23.695  26.949  1.00  0.00     0.120 C 
BRANCH  76  79
ATOM     79  C   UNL A   1      33.544  24.700  24.952  1.00  0.00     0.243 C 
ATOM     80  O   UNL A   1      33.921  24.669  23.781  1.00  0.00    -0.273 OA
BRANCH  79  81
ATOM     81  C   UNL A   1      33.799  25.961  25.794  1.00  0.00     0.228 C 
BRANCH  81  82
ATOM     82  N   UNL A   1      32.943  27.069  25.401  1.00  0.00    -0.273 N 
ATOM     83  C   UNL A   1      31.718  27.214  26.016  1.00  0.00     0.234 C 
ATOM     84  C   UNL A   1      33.230  27.982  24.405  1.00  0.00     0.234 C 
ATOM     85  O   UNL A   1      31.283  26.583  26.949  1.00  0.00    -0.274 OA
ATOM     86  C   UNL A   1      30.935  28.222  25.255  1.00  0.00     0.099 C 
ATOM     87  C   UNL A   1      32.096  29.013  24.336  1.00  0.00     0.099 C 
ATOM     88  O   UNL A   1      34.199  27.956  23.659  1.00  0.00    -0.274 OA
ATOM     89  C   UNL A   1      30.076  27.337  24.103  1.00  0.00     0.025 C 
ATOM     90  C   UNL A   1      31.362  29.035  22.621  1.00  0.00     0.025 C 
ATOM     91  C   UNL A   1      28.939  28.032  23.202  1.00  0.00    -0.027 C 
ATOM     92  C   UNL A   1      31.123  27.587  23.005  1.00  0.00     0.017 C 
ATOM     93  C   UNL A   1      29.533  28.923  22.324  1.00  0.00    -0.027 C 
ENDBRANCH  81  82
ENDBRANCH  79  81
ENDBRANCH  76  79
ENDBRANCH  72  74
ENDBRANCH  71  72
ENDBRANCH  70  71
ENDBRANCH   1  70
TORSDOF 17
ENDMDL
MODEL 2
REMARK VINA RESULT:     -12.5      5.236      8.401
REMARK SMILES O=C(OCCOC(=O)[C@H]1CCCN1C(=O)CN1C(=O)[C@@H]2[C@H](C1=O)[C@H]1C=C[C@@H]2C1)c1ccc(-c2c3nc(c(-c4cccc(S(=O)(=O)[O-])c4F)c4ccc([nH]4)c(-c4cccc(S(=O)(=O)[O-])c4F)c4nc(c(-c5cccc(S(=O)(=O)[O-])c5F)c5ccc2[nH]5)C=C4)C=C3)cc1
REMARK SMILES IDX 4 1 3 2 2 3 1 4 29 5 30 6 91 7 31 8 90 9 32 10 33 11 34 12
REMARK SMILES IDX 84 13 35 14 89 15 83 16 85 17 36 18 88 19 82 20 81 21 37 23
REMARK SMILES IDX 69 24 49 25 68 26 50 27 53 28 67 29 86 30 51 31 52 32 66 34
REMARK SMILES IDX 87 35 54 36 38 37 39 38 47 39 40 40 42 41 48 42 41 43 43 44
REMARK SMILES IDX 44 45 45 46 46 47 70 48 71 49 79 50 72 51 74 52 80 53 73 54
REMARK SMILES IDX 75 55 76 56 77 57 78 58 55 59 56 60 64 61 57 62 59 63 65 64
REMARK SMILES IDX 58 65 60 66 61 67 62 68 63 69 5 70 6 71 7 72 8 73 9 74 10 75
REMARK SMILES IDX 13 76 11 77 12 78 14 79 15 80 16 81 17 82 22 83 18 84 23 85
REMARK SMILES IDX 21 86 20 87 19 88 24 89 27 90 25 91 28 92 26 93
REMARK H PARENT 85 22 53 33
REMARK Flexibility Score: inf
ROOT
ATOM      1  C   UNL A   1      31.325  31.878  26.970  1.00  0.00     0.275 C 
ENDROOT
BRANCH   1   2
ATOM      2  O   UNL A   1      32.046  33.115  27.113  1.00  0.00    -0.458 OA
BRANCH   2   3
ATOM      3  C   UNL A   1      33.066  33.472  27.934  1.00  0.00     0.338 C 
ATOM      4  O   UNL A   1      32.910  34.514  28.570  1.00  0.00    -0.246 OA
BRANCH   3   5
ATOM      5  C   UNL A   1      34.427  32.807  28.017  1.00  0.00     0.060 A 
ATOM      6  C   UNL A   1      35.671  33.442  28.139  1.00  0.00     0.016 A 
ATOM      7  C   UNL A   1      34.406  31.408  28.244  1.00  0.00     0.016 A 
ATOM      8  C   UNL A   1      36.769  32.756  28.717  1.00  0.00     0.010 A 
ATOM      9  C   UNL A   1      35.503  30.718  28.805  1.00  0.00     0.010 A 
ATOM     10  C   UNL A   1      36.662  31.414  29.157  1.00  0.00    -0.014 A 
BRANCH  10  11
ATOM     11  C   UNL A   1      37.861  30.776  29.785  1.00  0.00     0.031 A 
ATOM     12  C   UNL A   1      37.941  30.985  31.249  1.00  0.00     0.074 A 
ATOM     13  C   UNL A   1      38.801  29.999  29.183  1.00  0.00     0.049 A 
ATOM     14  N   UNL A   1      38.805  30.497  32.081  1.00  0.00    -0.248 NA
ATOM     15  C   UNL A   1      36.971  31.931  31.831  1.00  0.00     0.031 C 
ATOM     16  C   UNL A   1      39.025  29.881  27.758  1.00  0.00     0.029 A 
ATOM     17  N   UNL A   1      39.734  29.100  29.678  1.00  0.00    -0.354 N 
ATOM     18  C   UNL A   1      38.556  31.156  33.262  1.00  0.00     0.074 A 
ATOM     19  C   UNL A   1      37.424  32.030  33.066  1.00  0.00     0.031 C 
ATOM     20  C   UNL A   1      39.746  28.790  27.471  1.00  0.00     0.029 A 
ATOM     21  C   UNL A   1      40.351  28.327  28.697  1.00  0.00     0.049 A 
ATOM     22  H   UNL A   1      39.940  29.016  30.637  1.00  0.00     0.167 HD
ATOM     23  C   UNL A   1      39.271  31.084  34.395  1.00  0.00     0.034 A 
ATOM     24  C   UNL A   1      41.388  27.456  28.717  1.00  0.00     0.034 A 
ATOM     25  C   UNL A   1      40.441  30.278  34.547  1.00  0.00     0.049 A 
ATOM     26  C   UNL A   1      42.136  27.383  30.012  1.00  0.00     0.074 A 
ATOM     27  C   UNL A   1      41.220  30.136  35.676  1.00  0.00     0.029 A 
ATOM     28  N   UNL A   1      41.037  29.539  33.537  1.00  0.00    -0.354 N 
ATOM     29  N   UNL A   1      41.824  27.945  31.152  1.00  0.00    -0.248 NA
ATOM     30  C   UNL A   1      43.404  26.641  30.024  1.00  0.00     0.031 C 
ATOM     31  C   UNL A   1      42.324  29.360  35.334  1.00  0.00     0.029 A 
ATOM     32  C   UNL A   1      42.186  28.945  34.019  1.00  0.00     0.049 A 
ATOM     33  H   UNL A   1      40.695  29.453  32.618  1.00  0.00     0.167 HD
ATOM     34  C   UNL A   1      42.862  27.646  32.011  1.00  0.00     0.074 A 
ATOM     35  C   UNL A   1      43.782  26.793  31.284  1.00  0.00     0.031 C 
ATOM     36  C   UNL A   1      43.055  28.072  33.277  1.00  0.00     0.034 A 
BRANCH  23  37
ATOM     37  C   UNL A   1      38.855  31.995  35.494  1.00  0.00     0.023 A 
ATOM     38  C   UNL A   1      39.111  33.377  35.419  1.00  0.00     0.012 A 
ATOM     39  C   UNL A   1      38.211  31.450  36.615  1.00  0.00     0.148 A 
ATOM     40  C   UNL A   1      38.729  34.211  36.463  1.00  0.00     0.002 A 
ATOM     41  C   UNL A   1      37.771  32.294  37.615  1.00  0.00     0.091 A 
ATOM     42  F   UNL A   1      38.054  30.120  36.680  1.00  0.00    -0.205 F 
ATOM     43  C   UNL A   1      38.038  33.673  37.549  1.00  0.00     0.022 A 
BRANCH  41  44
ATOM     44  S   UNL A   1      36.809  31.700  39.003  1.00  0.00     0.127 S 
ATOM     45  O   UNL A   1      37.764  31.835  40.102  1.00  0.00    -0.237 OA
ATOM     46  O   UNL A   1      35.704  32.657  39.027  1.00  0.00    -0.237 OA
ATOM     47  O   UNL A   1      36.434  30.330  38.682  1.00  0.00    -0.744 OA
ENDBRANCH  41  44
ENDBRANCH  23  37
BRANCH  24  48
ATOM     48  C   UNL A   1      41.933  26.760  27.492  1.00  0.00     0.023 A 
ATOM     49  C   UNL A   1      42.458  27.513  26.418  1.00  0.00     0.012 A 
ATOM     50  C   UNL A   1      41.849  25.359  27.332  1.00  0.00     0.148 A 
ATOM     51  C   UNL A   1      42.844  26.897  25.219  1.00  0.00     0.002 A 
ATOM     52  C   UNL A   1      42.321  24.744  26.177  1.00  0.00     0.091 A 
ATOM     53  F   UNL A   1      41.273  24.640  28.305  1.00  0.00    -0.205 F 
ATOM     54  C   UNL A   1      42.793  25.511  25.105  1.00  0.00     0.022 A 
BRANCH  52  55
ATOM     55  S   UNL A   1      42.379  22.956  25.990  1.00  0.00     0.127 S 
ATOM     56  O   UNL A   1      43.219  22.568  27.121  1.00  0.00    -0.237 OA
ATOM     57  O   UNL A   1      40.967  22.594  26.124  1.00  0.00    -0.237 OA
ATOM     58  O   UNL A   1      42.952  22.714  24.674  1.00  0.00    -0.744 OA
ENDBRANCH  52  55
ENDBRANCH  24  48
BRANCH  36  59
ATOM     59  C   UNL A   1      44.260  27.545  33.987  1.00  0.00     0.023 A 
ATOM     60  C   UNL A   1      45.478  28.246  33.956  1.00  0.00     0.012 A 
ATOM     61  C   UNL A   1      44.138  26.368  34.746  1.00  0.00     0.148 A 
ATOM     62  C   UNL A   1      46.578  27.757  34.653  1.00  0.00     0.002 A 
ATOM     63  C   UNL A   1      45.215  25.925  35.490  1.00  0.00     0.091 A 
ATOM     64  F   UNL A   1      42.963  25.723  34.739  1.00  0.00    -0.205 F 
ATOM     65  C   UNL A   1      46.442  26.608  35.432  1.00  0.00     0.022 A 
BRANCH  63  66
ATOM     66  S   UNL A   1      45.096  24.516  36.588  1.00  0.00     0.127 S 
ATOM     67  O   UNL A   1      46.470  24.401  37.072  1.00  0.00    -0.237 OA
ATOM     68  O   UNL A   1      44.130  24.985  37.581  1.00  0.00    -0.237 OA
ATOM     69  O   UNL A   1      44.638  23.399  35.772  1.00  0.00    -0.744 OA
ENDBRANCH  63  66
ENDBRANCH  36  59
ENDBRANCH  10  11
ENDBRANCH   3   5
ENDBRANCH   2   3
ENDBRANCH   1   2
BRANCH   1  70
ATOM     70  C   UNL A   1      30.821  31.641  25.546  1.00  0.00     0.274 C 
BRANCH  70  71
ATOM     71  O   UNL A   1      31.104  30.307  25.135  1.00  0.00    -0.461 OA
BRANCH  71  72
ATOM     72  C   UNL A   1      30.375  29.762  24.118  1.00  0.00     0.328 C 
ATOM     73  O   UNL A   1      29.800  30.413  23.258  1.00  0.00    -0.250 OA
BRANCH  72  74
ATOM     74  C   UNL A   1      30.443  28.222  24.157  1.00  0.00     0.195 C 
ATOM     75  C   UNL A   1      30.899  27.652  22.871  1.00  0.00     0.039 C 
ATOM     76  N   UNL A   1      31.411  27.561  25.009  1.00  0.00    -0.327 N 
ATOM     77  C   UNL A   1      32.390  27.870  22.887  1.00  0.00     0.024 C 
ATOM     78  C   UNL A   1      32.717  27.531  24.334  1.00  0.00     0.120 C 
BRANCH  76  79
ATOM     79  C   UNL A   1      31.065  26.499  25.840  1.00  0.00     0.243 C 
ATOM     80  O   UNL A   1      31.581  26.359  26.948  1.00  0.00    -0.273 OA
BRANCH  79  81
ATOM     81  C   UNL A   1      30.153  25.392  25.285  1.00  0.00     0.228 C 
BRANCH  81  82
ATOM     82  N   UNL A   1      30.813  24.098  25.256  1.00  0.00    -0.273 N 
ATOM     83  C   UNL A   1      30.672  23.255  26.337  1.00  0.00     0.234 C 
ATOM     84  C   UNL A   1      31.633  23.643  24.241  1.00  0.00     0.234 C 
ATOM     85  O   UNL A   1      29.962  23.407  27.302  1.00  0.00    -0.274 OA
ATOM     86  C   UNL A   1      31.651  22.146  26.191  1.00  0.00     0.099 C 
ATOM     87  C   UNL A   1      32.089  22.217  24.573  1.00  0.00     0.099 C 
ATOM     88  O   UNL A   1      31.986  24.282  23.258  1.00  0.00    -0.274 OA
ATOM     89  C   UNL A   1      33.043  22.678  26.985  1.00  0.00     0.025 C 
ATOM     90  C   UNL A   1      33.952  22.141  24.615  1.00  0.00     0.025 C 
ATOM     91  C   UNL A   1      34.282  21.684  27.242  1.00  0.00    -0.027 C 
ATOM     92  C   UNL A   1      33.694  23.182  25.688  1.00  0.00     0.017 C 
ATOM     93  C   UNL A   1      34.882  21.381  26.031  1.00  0.00    -0.027 C 
ENDBRANCH  81  82
ENDBRANCH  79  81
ENDBRANCH  76  79
ENDBRANCH  72  74
ENDBRANCH  71  72
ENDBRANCH  70  71
ENDBRANCH   1  70
TORSDOF 17
ENDMDL
MODEL 3
REMARK VINA RESULT:     -12.5      5.222      8.313
REMARK SMILES O=C(OCCOC(=O)[C@H]1CCCN1C(=O)CN1C(=O)[C@@H]2[C@H](C1=O)[C@H]1C=C[C@@H]2C1)c1ccc(-c2c3nc(c(-c4cccc(S(=O)(=O)[O-])c4F)c4ccc([nH]4)c(-c4cccc(S(=O)(=O)[O-])c4F)c4nc(c(-c5cccc(S(=O)(=O)[O-])c5F)c5ccc2[nH]5)C=C4)C=C3)cc1
REMARK SMILES IDX 4 1 3 2 2 3 1 4 29 5 30 6 91 7 31 8 90 9 32 10 33 11 34 12
REMARK SMILES IDX 84 13 35 14 89 15 83 16 85 17 36 18 88 19 82 20 81 21 37 23
REMARK SMILES IDX 69 24 49 25 68 26 50 27 53 28 67 29 86 30 51 31 52 32 66 34
REMARK SMILES IDX 87 35 54 36 38 37 39 38 47 39 40 40 42 41 48 42 41 43 43 44
REMARK SMILES IDX 44 45 45 46 46 47 70 48 71 49 79 50 72 51 74 52 80 53 73 54
REMARK SMILES IDX 75 55 76 56 77 57 78 58 55 59 56 60 64 61 57 62 59 63 65 64
REMARK SMILES IDX 58 65 60 66 61 67 62 68 63 69 5 70 6 71 7 72 8 73 9 74 10 75
REMARK SMILES IDX 13 76 11 77 12 78 14 79 15 80 16 81 17 82 22 83 18 84 23 85
REMARK SMILES IDX 21 86 20 87 19 88 24 89 27 90 25 91 28 92 26 93
REMARK H PARENT 85 22 53 33
REMARK Flexibility Score: inf
ROOT
ATOM      1  C   UNL A   1      31.103  32.178  26.900  1.00  0.00     0.275 C 
ENDROOT
BRANCH   1   2
ATOM      2  O   UNL A   1      32.209  33.098  26.913  1.00  0.00    -0.458 OA
BRANCH   2   3
ATOM      3  C   UNL A   1      33.156  33.352  27.851  1.00  0.00     0.338 C 
ATOM      4  O   UNL A   1      32.932  34.300  28.604  1.00  0.00    -0.246 OA
BRANCH   3   5
ATOM      5  C   UNL A   1      34.520  32.695  27.953  1.00  0.00     0.060 A 
ATOM      6  C   UNL A   1      35.761  33.338  28.068  1.00  0.00     0.016 A 
ATOM      7  C   UNL A   1      34.505  31.300  28.205  1.00  0.00     0.016 A 
ATOM      8  C   UNL A   1      36.859  32.667  28.664  1.00  0.00     0.010 A 
ATOM      9  C   UNL A   1      35.602  30.627  28.784  1.00  0.00     0.010 A 
ATOM     10  C   UNL A   1      36.755  31.334  29.128  1.00  0.00    -0.014 A 
BRANCH  10  11
ATOM     11  C   UNL A   1      37.955  30.713  29.773  1.00  0.00     0.031 A 
ATOM     12  C   UNL A   1      38.049  30.984  31.226  1.00  0.00     0.074 A 
ATOM     13  C   UNL A   1      38.883  29.902  29.198  1.00  0.00     0.049 A 
ATOM     14  N   UNL A   1      38.916  30.524  32.072  1.00  0.00    -0.248 NA
ATOM     15  C   UNL A   1      37.091  31.962  31.775  1.00  0.00     0.031 C 
ATOM     16  C   UNL A   1      39.093  29.721  27.778  1.00  0.00     0.029 A 
ATOM     17  N   UNL A   1      39.812  29.017  29.724  1.00  0.00    -0.354 N 
ATOM     18  C   UNL A   1      38.682  31.236  33.225  1.00  0.00     0.074 A 
ATOM     19  C   UNL A   1      37.556  32.111  33.001  1.00  0.00     0.031 C 
ATOM     20  C   UNL A   1      39.804  28.613  27.532  1.00  0.00     0.029 A 
ATOM     21  C   UNL A   1      40.415  28.198  28.772  1.00  0.00     0.049 A 
ATOM     22  H   UNL A   1      40.026  28.973  30.683  1.00  0.00     0.167 HD
ATOM     23  C   UNL A   1      39.406  31.206  34.355  1.00  0.00     0.034 A 
ATOM     24  C   UNL A   1      41.445  27.320  28.821  1.00  0.00     0.034 A 
ATOM     25  C   UNL A   1      40.570  30.398  34.532  1.00  0.00     0.049 A 
ATOM     26  C   UNL A   1      42.202  27.296  30.112  1.00  0.00     0.074 A 
ATOM     27  C   UNL A   1      41.358  30.297  35.659  1.00  0.00     0.029 A 
ATOM     28  N   UNL A   1      41.152  29.611  33.550  1.00  0.00    -0.354 N 
ATOM     29  N   UNL A   1      41.905  27.908  31.230  1.00  0.00    -0.248 NA
ATOM     30  C   UNL A   1      43.464  26.544  30.146  1.00  0.00     0.031 C 
ATOM     31  C   UNL A   1      42.453  29.498  35.342  1.00  0.00     0.029 A 
ATOM     32  C   UNL A   1      42.299  29.027  34.047  1.00  0.00     0.049 A 
ATOM     33  H   UNL A   1      40.801  29.488  32.638  1.00  0.00     0.167 HD
ATOM     34  C   UNL A   1      42.948  27.638  32.092  1.00  0.00     0.074 A 
ATOM     35  C   UNL A   1      43.854  26.746  31.395  1.00  0.00     0.031 C 
ATOM     36  C   UNL A   1      43.155  28.116  33.337  1.00  0.00     0.034 A 
BRANCH  23  37
ATOM     37  C   UNL A   1      39.007  32.167  35.416  1.00  0.00     0.023 A 
ATOM     38  C   UNL A   1      38.051  31.813  36.387  1.00  0.00     0.012 A 
ATOM     39  C   UNL A   1      39.596  33.441  35.430  1.00  0.00     0.148 A 
ATOM     40  C   UNL A   1      37.680  32.731  37.363  1.00  0.00     0.002 A 
ATOM     41  C   UNL A   1      39.275  34.321  36.444  1.00  0.00     0.091 A 
ATOM     42  F   UNL A   1      40.446  33.763  34.444  1.00  0.00    -0.205 F 
ATOM     43  C   UNL A   1      38.309  33.975  37.405  1.00  0.00     0.022 A 
BRANCH  41  44
ATOM     44  S   UNL A   1      40.092  35.904  36.619  1.00  0.00     0.127 S 
ATOM     45  O   UNL A   1      39.476  36.419  37.841  1.00  0.00    -0.237 OA
ATOM     46  O   UNL A   1      41.490  35.500  36.758  1.00  0.00    -0.237 OA
ATOM     47  O   UNL A   1      39.783  36.659  35.413  1.00  0.00    -0.744 OA
ENDBRANCH  41  44
ENDBRANCH  23  37
BRANCH  24  48
ATOM     48  C   UNL A   1      41.973  26.566  27.623  1.00  0.00     0.023 A 
ATOM     49  C   UNL A   1      42.591  27.262  26.559  1.00  0.00     0.012 A 
ATOM     50  C   UNL A   1      41.785  25.174  27.475  1.00  0.00     0.148 A 
ATOM     51  C   UNL A   1      42.966  26.601  25.381  1.00  0.00     0.002 A 
ATOM     52  C   UNL A   1      42.245  24.508  26.343  1.00  0.00     0.091 A 
ATOM     53  F   UNL A   1      41.122  24.515  28.436  1.00  0.00    -0.205 F 
ATOM     54  C   UNL A   1      42.811  25.222  25.280  1.00  0.00     0.022 A 
BRANCH  52  55
ATOM     55  S   UNL A   1      42.169  22.719  26.178  1.00  0.00     0.127 S 
ATOM     56  O   UNL A   1      40.726  22.483  26.186  1.00  0.00    -0.237 OA
ATOM     57  O   UNL A   1      42.816  22.510  24.883  1.00  0.00    -0.237 OA
ATOM     58  O   UNL A   1      42.896  22.185  27.321  1.00  0.00    -0.744 OA
ENDBRANCH  52  55
ENDBRANCH  24  48
BRANCH  36  59
ATOM     59  C   UNL A   1      44.361  27.609  34.059  1.00  0.00     0.023 A 
ATOM     60  C   UNL A   1      45.581  28.306  34.001  1.00  0.00     0.012 A 
ATOM     61  C   UNL A   1      44.239  26.459  34.857  1.00  0.00     0.148 A 
ATOM     62  C   UNL A   1      46.682  27.838  34.709  1.00  0.00     0.002 A 
ATOM     63  C   UNL A   1      45.319  26.038  35.611  1.00  0.00     0.091 A 
ATOM     64  F   UNL A   1      43.063  25.816  34.876  1.00  0.00    -0.205 F 
ATOM     65  C   UNL A   1      46.547  26.715  35.526  1.00  0.00     0.022 A 
BRANCH  63  66
ATOM     66  S   UNL A   1      45.200  24.665  36.755  1.00  0.00     0.127 S 
ATOM     67  O   UNL A   1      44.160  25.132  37.669  1.00  0.00    -0.237 OA
ATOM     68  O   UNL A   1      44.799  23.569  35.874  1.00  0.00    -0.237 OA
ATOM     69  O   UNL A   1      46.520  24.515  37.353  1.00  0.00    -0.744 OA
ENDBRANCH  63  66
ENDBRANCH  36  59
ENDBRANCH  10  11
ENDBRANCH   3   5
ENDBRANCH   2   3
ENDBRANCH   1   2
BRANCH   1  70
ATOM     70  C   UNL A   1      31.139  31.215  25.713  1.00  0.00     0.274 C 
BRANCH  70  71
ATOM     71  O   UNL A   1      32.278  30.364  25.799  1.00  0.00    -0.461 OA
BRANCH  71  72
ATOM     72  C   UNL A   1      32.088  29.013  25.852  1.00  0.00     0.328 C 
ATOM     73  O   UNL A   1      32.026  28.367  26.888  1.00  0.00    -0.250 OA
BRANCH  72  74
ATOM     74  C   UNL A   1      31.885  28.431  24.439  1.00  0.00     0.195 C 
ATOM     75  C   UNL A   1      32.833  29.003  23.459  1.00  0.00     0.039 C 
ATOM     76  N   UNL A   1      32.172  27.034  24.184  1.00  0.00    -0.327 N 
ATOM     77  C   UNL A   1      34.124  28.277  23.738  1.00  0.00     0.024 C 
ATOM     78  C   UNL A   1      33.617  26.862  23.970  1.00  0.00     0.120 C 
BRANCH  76  79
ATOM     79  C   UNL A   1      31.292  26.210  23.486  1.00  0.00     0.243 C 
ATOM     80  O   UNL A   1      31.129  26.329  22.273  1.00  0.00    -0.273 OA
BRANCH  79  81
ATOM     81  C   UNL A   1      30.382  25.259  24.281  1.00  0.00     0.228 C 
BRANCH  81  82
ATOM     82  N   UNL A   1      31.124  24.164  24.885  1.00  0.00    -0.273 N 
ATOM     83  C   UNL A   1      31.529  24.278  26.197  1.00  0.00     0.234 C 
ATOM     84  C   UNL A   1      31.515  23.011  24.231  1.00  0.00     0.234 C 
ATOM     85  O   UNL A   1      31.253  25.155  26.979  1.00  0.00    -0.274 OA
ATOM     86  C   UNL A   1      32.492  23.181  26.481  1.00  0.00     0.099 C 
ATOM     87  C   UNL A   1      32.232  22.094  25.230  1.00  0.00     0.099 C 
ATOM     88  O   UNL A   1      31.366  22.770  23.040  1.00  0.00    -0.274 OA
ATOM     89  C   UNL A   1      34.011  23.821  26.120  1.00  0.00     0.025 C 
ATOM     90  C   UNL A   1      33.950  21.708  24.616  1.00  0.00     0.025 C 
ATOM     91  C   UNL A   1      35.357  23.023  26.490  1.00  0.00    -0.027 C 
ATOM     92  C   UNL A   1      34.022  23.220  24.705  1.00  0.00     0.017 C 
ATOM     93  C   UNL A   1      35.452  21.895  25.691  1.00  0.00    -0.027 C 
ENDBRANCH  81  82
ENDBRANCH  79  81
ENDBRANCH  76  79
ENDBRANCH  72  74
ENDBRANCH  71  72
ENDBRANCH  70  71
ENDBRANCH   1  70
TORSDOF 17
ENDMDL
