MODEL 1
REMARK VINA RESULT:     -11.8      0.000      0.000
REMARK SMILES CN(CCS(C)(=O)=O)S(=O)(=O)c1cc(C(=O)OCCOC(=O)c2ccc(-c3c4nc(c(-c5cccc(S(=O)(=O)[O-])c5F)c5ccc([nH]5)c(-c5cccc(S(=O)(=O)[O-])c5F)c5nc(c(-c6cccc(S(=O)(=O)[O-])c6F)c6ccc3[nH]6)C=C5)C=C4)cc2)ccc1F
REMARK SMILES IDX 18 1 17 2 15 3 16 4 14 5 12 6 13 7 88 8 87 9 89 10 86 11
REMARK SMILES IDX 9 12 10 13 11 14 2 15 1 16 3 17 4 18 5 19 6 20 7 21 8 22
REMARK SMILES IDX 19 23 20 24 21 25 22 26 23 27 24 28 85 29 25 30 84 31 26 32
REMARK SMILES IDX 27 33 28 34 78 35 29 36 83 37 77 38 79 39 30 40 82 41 76 42
REMARK SMILES IDX 75 43 31 45 63 46 43 47 62 48 44 49 47 50 61 51 80 52 45 53
REMARK SMILES IDX 46 54 60 56 81 57 48 58 32 59 33 60 41 61 34 62 36 63 42 64
REMARK SMILES IDX 35 65 37 66 38 67 39 68 40 69 64 70 65 71 73 72 66 73 68 74
REMARK SMILES IDX 74 75 67 76 69 77 70 78 71 79 72 80 49 81 50 82 58 83 51 84
REMARK SMILES IDX 53 85 59 86 52 87 54 88 55 89 56 90 57 91
REMARK H PARENT 79 44 47 55
REMARK Flexibility Score: inf
ROOT
ATOM      1  C   UNL A   1      35.444  20.901  25.276  1.00  0.00     0.275 C 
ENDROOT
BRANCH   1   2
ATOM      2  O   UNL A   1      35.246  21.981  24.338  1.00  0.00    -0.458 OA
BRANCH   2   3
ATOM      3  C   UNL A   1      34.990  23.193  24.883  1.00  0.00     0.338 C 
ATOM      4  O   UNL A   1      35.295  23.588  25.996  1.00  0.00    -0.246 OA
BRANCH   3   5
ATOM      5  C   UNL A   1      34.301  24.068  23.914  1.00  0.00     0.061 A 
ATOM      6  C   UNL A   1      33.346  26.249  23.430  1.00  0.00     0.119 A 
ATOM      7  C   UNL A   1      34.114  25.416  24.246  1.00  0.00     0.040 A 
ATOM      8  C   UNL A   1      32.792  25.740  22.264  1.00  0.00     0.143 A 
ATOM      9  C   UNL A   1      32.984  24.397  21.922  1.00  0.00     0.041 A 
ATOM     10  F   UNL A   1      32.093  26.510  21.424  1.00  0.00    -0.206 F 
ATOM     11  C   UNL A   1      33.737  23.554  22.747  1.00  0.00     0.019 A 
BRANCH   6  12
ATOM     12  S   UNL A   1      33.113  27.944  23.863  1.00  0.00     0.245 S 
ATOM     13  O   UNL A   1      33.393  28.791  22.735  1.00  0.00    -0.207 OA
ATOM     14  O   UNL A   1      33.807  28.115  25.127  1.00  0.00    -0.207 OA
BRANCH  12  15
ATOM     15  N   UNL A   1      31.438  28.118  24.190  1.00  0.00    -0.200 NA
ATOM     16  C   UNL A   1      31.071  27.571  25.533  1.00  0.00     0.124 C 
BRANCH  15  17
ATOM     17  C   UNL A   1      30.689  29.361  23.845  1.00  0.00     0.118 C 
BRANCH  17  18
ATOM     18  C   UNL A   1      30.100  29.484  22.456  1.00  0.00     0.153 C 
BRANCH  18  19
ATOM     19  S   UNL A   1      28.319  29.678  22.373  1.00  0.00     0.148 S 
ATOM     20  C   UNL A   1      27.885  31.075  23.379  1.00  0.00     0.158 C 
ATOM     21  O   UNL A   1      27.989  30.045  21.007  1.00  0.00    -0.229 OA
ATOM     22  O   UNL A   1      27.672  28.540  22.990  1.00  0.00    -0.229 OA
ENDBRANCH  18  19
ENDBRANCH  17  18
ENDBRANCH  15  17
ENDBRANCH  12  15
ENDBRANCH   6  12
ENDBRANCH   3   5
ENDBRANCH   2   3
ENDBRANCH   1   2
BRANCH   1  23
ATOM     23  C   UNL A   1      36.760  20.178  24.998  1.00  0.00     0.275 C 
BRANCH  23  24
ATOM     24  O   UNL A   1      37.829  21.140  24.960  1.00  0.00    -0.458 OA
BRANCH  24  25
ATOM     25  C   UNL A   1      38.909  20.859  25.727  1.00  0.00     0.338 C 
ATOM     26  O   UNL A   1      39.477  19.785  25.829  1.00  0.00    -0.246 OA
BRANCH  25  27
ATOM     27  C   UNL A   1      39.375  22.085  26.405  1.00  0.00     0.060 A 
ATOM     28  C   UNL A   1      38.761  23.298  26.115  1.00  0.00     0.016 A 
ATOM     29  C   UNL A   1      40.520  22.066  27.198  1.00  0.00     0.016 A 
ATOM     30  C   UNL A   1      39.384  24.494  26.464  1.00  0.00     0.010 A 
ATOM     31  C   UNL A   1      41.061  23.271  27.672  1.00  0.00     0.010 A 
ATOM     32  C   UNL A   1      40.546  24.510  27.250  1.00  0.00    -0.014 A 
BRANCH  32  33
ATOM     33  C   UNL A   1      41.235  25.807  27.554  1.00  0.00     0.031 A 
ATOM     34  C   UNL A   1      40.591  26.832  28.464  1.00  0.00     0.074 A 
ATOM     35  C   UNL A   1      42.470  26.067  27.067  1.00  0.00     0.049 A 
ATOM     36  N   UNL A   1      40.988  28.049  28.741  1.00  0.00    -0.248 NA
ATOM     37  C   UNL A   1      39.332  26.456  29.128  1.00  0.00     0.031 C 
ATOM     38  C   UNL A   1      43.233  25.186  26.183  1.00  0.00     0.029 A 
ATOM     39  N   UNL A   1      43.317  27.134  27.270  1.00  0.00    -0.354 N 
ATOM     40  C   UNL A   1      39.981  28.612  29.520  1.00  0.00     0.074 A 
ATOM     41  C   UNL A   1      38.964  27.599  29.688  1.00  0.00     0.031 C 
ATOM     42  C   UNL A   1      44.458  25.698  25.995  1.00  0.00     0.029 A 
ATOM     43  C   UNL A   1      44.541  26.998  26.653  1.00  0.00     0.049 A 
ATOM     44  H   UNL A   1      43.070  27.921  27.808  1.00  0.00     0.167 HD
ATOM     45  C   UNL A   1      39.912  29.852  30.061  1.00  0.00     0.034 A 
ATOM     46  C   UNL A   1      45.605  27.827  26.592  1.00  0.00     0.034 A 
ATOM     47  C   UNL A   1      40.975  30.819  30.014  1.00  0.00     0.049 A 
ATOM     48  C   UNL A   1      45.531  29.175  27.253  1.00  0.00     0.074 A 
ATOM     49  C   UNL A   1      41.004  32.084  30.576  1.00  0.00     0.029 A 
ATOM     50  N   UNL A   1      42.202  30.623  29.404  1.00  0.00    -0.354 N 
ATOM     51  N   UNL A   1      44.572  29.675  27.992  1.00  0.00    -0.248 NA
ATOM     52  C   UNL A   1      46.678  30.079  27.065  1.00  0.00     0.031 C 
ATOM     53  C   UNL A   1      42.251  32.655  30.303  1.00  0.00     0.029 A 
ATOM     54  C   UNL A   1      42.998  31.741  29.580  1.00  0.00     0.049 A 
ATOM     55  H   UNL A   1      42.468  29.810  28.918  1.00  0.00     0.167 HD
ATOM     56  C   UNL A   1      44.998  30.947  28.359  1.00  0.00     0.074 A 
ATOM     57  C   UNL A   1      46.319  31.128  27.794  1.00  0.00     0.031 C 
ATOM     58  C   UNL A   1      44.336  31.890  29.072  1.00  0.00     0.034 A 
BRANCH  45  59
ATOM     59  C   UNL A   1      38.656  30.245  30.795  1.00  0.00     0.023 A 
ATOM     60  C   UNL A   1      38.546  30.004  32.177  1.00  0.00     0.012 A 
ATOM     61  C   UNL A   1      37.634  30.955  30.131  1.00  0.00     0.148 A 
ATOM     62  C   UNL A   1      37.430  30.449  32.886  1.00  0.00     0.002 A 
ATOM     63  C   UNL A   1      36.545  31.432  30.852  1.00  0.00     0.091 A 
ATOM     64  F   UNL A   1      37.751  31.158  28.811  1.00  0.00    -0.205 F 
ATOM     65  C   UNL A   1      36.438  31.174  32.228  1.00  0.00     0.022 A 
BRANCH  63  66
ATOM     66  S   UNL A   1      35.264  32.449  30.107  1.00  0.00     0.127 S 
ATOM     67  O   UNL A   1      34.334  32.616  31.221  1.00  0.00    -0.237 OA
ATOM     68  O   UNL A   1      36.002  33.660  29.743  1.00  0.00    -0.237 OA
ATOM     69  O   UNL A   1      34.756  31.687  28.975  1.00  0.00    -0.744 OA
ENDBRANCH  63  66
ENDBRANCH  45  59
BRANCH  46  70
ATOM     70  C   UNL A   1      46.852  27.377  25.905  1.00  0.00     0.023 A 
ATOM     71  C   UNL A   1      47.701  26.458  26.552  1.00  0.00     0.012 A 
ATOM     72  C   UNL A   1      47.161  27.784  24.593  1.00  0.00     0.148 A 
ATOM     73  C   UNL A   1      48.830  25.953  25.905  1.00  0.00     0.002 A 
ATOM     74  C   UNL A   1      48.239  27.217  23.927  1.00  0.00     0.091 A 
ATOM     75  F   UNL A   1      46.366  28.689  24.005  1.00  0.00    -0.205 F 
ATOM     76  C   UNL A   1      49.087  26.315  24.586  1.00  0.00     0.022 A 
BRANCH  74  77
ATOM     77  S   UNL A   1      48.510  27.478  22.169  1.00  0.00     0.127 S 
ATOM     78  O   UNL A   1      47.273  28.141  21.767  1.00  0.00    -0.237 OA
ATOM     79  O   UNL A   1      49.699  28.332  22.169  1.00  0.00    -0.237 OA
ATOM     80  O   UNL A   1      48.736  26.151  21.614  1.00  0.00    -0.744 OA
ENDBRANCH  74  77
ENDBRANCH  46  70
BRANCH  58  81
ATOM     81  C   UNL A   1      45.009  33.216  29.303  1.00  0.00     0.023 A 
ATOM     82  C   UNL A   1      45.856  33.372  30.417  1.00  0.00     0.012 A 
ATOM     83  C   UNL A   1      44.925  34.246  28.345  1.00  0.00     0.148 A 
ATOM     84  C   UNL A   1      46.607  34.535  30.578  1.00  0.00     0.002 A 
ATOM     85  C   UNL A   1      45.706  35.386  28.491  1.00  0.00     0.091 A 
ATOM     86  F   UNL A   1      44.102  34.078  27.299  1.00  0.00    -0.205 F 
ATOM     87  C   UNL A   1      46.543  35.534  29.609  1.00  0.00     0.022 A 
BRANCH  85  88
ATOM     88  S   UNL A   1      45.765  36.687  27.254  1.00  0.00     0.127 S 
ATOM     89  O   UNL A   1      44.356  37.062  27.149  1.00  0.00    -0.237 OA
ATOM     90  O   UNL A   1      46.616  37.687  27.898  1.00  0.00    -0.237 OA
ATOM     91  O   UNL A   1      46.336  36.082  26.058  1.00  0.00    -0.744 OA
ENDBRANCH  85  88
ENDBRANCH  58  81
ENDBRANCH  32  33
ENDBRANCH  25  27
ENDBRANCH  24  25
ENDBRANCH  23  24
ENDBRANCH   1  23
TORSDOF 19
ENDMDL
MODEL 2
REMARK VINA RESULT:     -11.7      1.115      2.097
REMARK SMILES CN(CCS(C)(=O)=O)S(=O)(=O)c1cc(C(=O)OCCOC(=O)c2ccc(-c3c4nc(c(-c5cccc(S(=O)(=O)[O-])c5F)c5ccc([nH]5)c(-c5cccc(S(=O)(=O)[O-])c5F)c5nc(c(-c6cccc(S(=O)(=O)[O-])c6F)c6ccc3[nH]6)C=C5)C=C4)cc2)ccc1F
REMARK SMILES IDX 18 1 17 2 15 3 16 4 14 5 12 6 13 7 88 8 87 9 89 10 86 11
REMARK SMILES IDX 9 12 10 13 11 14 2 15 1 16 3 17 4 18 5 19 6 20 7 21 8 22
REMARK SMILES IDX 19 23 20 24 21 25 22 26 23 27 24 28 85 29 25 30 84 31 26 32
REMARK SMILES IDX 27 33 28 34 78 35 29 36 83 37 77 38 79 39 30 40 82 41 76 42
REMARK SMILES IDX 75 43 31 45 63 46 43 47 62 48 44 49 47 50 61 51 80 52 45 53
REMARK SMILES IDX 46 54 60 56 81 57 48 58 32 59 33 60 41 61 34 62 36 63 42 64
REMARK SMILES IDX 35 65 37 66 38 67 39 68 40 69 64 70 65 71 73 72 66 73 68 74
REMARK SMILES IDX 74 75 67 76 69 77 70 78 71 79 72 80 49 81 50 82 58 83 51 84
REMARK SMILES IDX 53 85 59 86 52 87 54 88 55 89 56 90 57 91
REMARK H PARENT 79 44 47 55
REMARK Flexibility Score: inf
ROOT
ATOM      1  C   UNL A   1      35.591  20.670  25.048  1.00  0.00     0.275 C 
ENDROOT
BRANCH   1   2
ATOM      2  O   UNL A   1      35.535  21.862  24.233  1.00  0.00    -0.458 OA
BRANCH   2   3
ATOM      3  C   UNL A   1      35.109  22.982  24.859  1.00  0.00     0.338 C 
ATOM      4  O   UNL A   1      35.323  23.319  26.012  1.00  0.00    -0.246 OA
BRANCH   3   5
ATOM      5  C   UNL A   1      34.345  23.842  23.933  1.00  0.00     0.061 A 
ATOM      6  C   UNL A   1      33.205  25.953  23.554  1.00  0.00     0.119 A 
ATOM      7  C   UNL A   1      34.043  25.150  24.331  1.00  0.00     0.040 A 
ATOM      8  C   UNL A   1      32.697  25.457  22.362  1.00  0.00     0.143 A 
ATOM      9  C   UNL A   1      33.005  24.155  21.954  1.00  0.00     0.041 A 
ATOM     10  F   UNL A   1      31.933  26.205  21.558  1.00  0.00    -0.206 F 
ATOM     11  C   UNL A   1      33.828  23.340  22.739  1.00  0.00     0.019 A 
BRANCH   6  12
ATOM     12  S   UNL A   1      32.826  27.598  24.070  1.00  0.00     0.245 S 
ATOM     13  O   UNL A   1      32.680  28.459  22.928  1.00  0.00    -0.207 OA
ATOM     14  O   UNL A   1      33.777  27.897  25.126  1.00  0.00    -0.207 OA
BRANCH  12  15
ATOM     15  N   UNL A   1      31.279  27.513  24.808  1.00  0.00    -0.200 NA
ATOM     16  C   UNL A   1      30.176  27.674  23.811  1.00  0.00     0.124 C 
BRANCH  15  17
ATOM     17  C   UNL A   1      30.962  26.515  25.870  1.00  0.00     0.118 C 
BRANCH  17  18
ATOM     18  C   UNL A   1      30.432  25.160  25.449  1.00  0.00     0.153 C 
BRANCH  18  19
ATOM     19  S   UNL A   1      30.904  23.777  26.488  1.00  0.00     0.148 S 
ATOM     20  C   UNL A   1      31.150  22.372  25.431  1.00  0.00     0.158 C 
ATOM     21  O   UNL A   1      32.204  24.089  27.056  1.00  0.00    -0.229 OA
ATOM     22  O   UNL A   1      29.804  23.419  27.358  1.00  0.00    -0.229 OA
ENDBRANCH  18  19
ENDBRANCH  17  18
ENDBRANCH  15  17
ENDBRANCH  12  15
ENDBRANCH   6  12
ENDBRANCH   3   5
ENDBRANCH   2   3
ENDBRANCH   1   2
BRANCH   1  23
ATOM     23  C   UNL A   1      36.979  20.036  24.983  1.00  0.00     0.275 C 
BRANCH  23  24
ATOM     24  O   UNL A   1      37.975  21.072  25.034  1.00  0.00    -0.458 OA
BRANCH  24  25
ATOM     25  C   UNL A   1      39.048  20.828  25.823  1.00  0.00     0.338 C 
ATOM     26  O   UNL A   1      39.633  19.766  25.958  1.00  0.00    -0.246 OA
BRANCH  25  27
ATOM     27  C   UNL A   1      39.482  22.076  26.480  1.00  0.00     0.060 A 
ATOM     28  C   UNL A   1      38.881  23.278  26.121  1.00  0.00     0.016 A 
ATOM     29  C   UNL A   1      40.590  22.086  27.325  1.00  0.00     0.016 A 
ATOM     30  C   UNL A   1      39.487  24.486  26.458  1.00  0.00     0.010 A 
ATOM     31  C   UNL A   1      41.108  23.308  27.782  1.00  0.00     0.010 A 
ATOM     32  C   UNL A   1      40.612  24.531  27.296  1.00  0.00    -0.014 A 
BRANCH  32  33
ATOM     33  C   UNL A   1      41.286  25.838  27.587  1.00  0.00     0.031 A 
ATOM     34  C   UNL A   1      40.631  26.864  28.488  1.00  0.00     0.074 A 
ATOM     35  C   UNL A   1      42.517  26.108  27.097  1.00  0.00     0.049 A 
ATOM     36  N   UNL A   1      41.013  28.088  28.754  1.00  0.00    -0.248 NA
ATOM     37  C   UNL A   1      39.376  26.480  29.156  1.00  0.00     0.031 C 
ATOM     38  C   UNL A   1      43.290  25.228  26.220  1.00  0.00     0.029 A 
ATOM     39  N   UNL A   1      43.351  27.188  27.289  1.00  0.00    -0.354 N 
ATOM     40  C   UNL A   1      40.000  28.646  29.528  1.00  0.00     0.074 A 
ATOM     41  C   UNL A   1      38.995  27.623  29.707  1.00  0.00     0.031 C 
ATOM     42  C   UNL A   1      44.508  25.753  26.027  1.00  0.00     0.029 A 
ATOM     43  C   UNL A   1      44.577  27.060  26.672  1.00  0.00     0.049 A 
ATOM     44  H   UNL A   1      43.096  27.976  27.820  1.00  0.00     0.167 HD
ATOM     45  C   UNL A   1      39.917  29.891  30.058  1.00  0.00     0.034 A 
ATOM     46  C   UNL A   1      45.631  27.901  26.602  1.00  0.00     0.034 A 
ATOM     47  C   UNL A   1      40.968  30.870  30.001  1.00  0.00     0.049 A 
ATOM     48  C   UNL A   1      45.541  29.255  27.251  1.00  0.00     0.074 A 
ATOM     49  C   UNL A   1      40.983  32.140  30.551  1.00  0.00     0.029 A 
ATOM     50  N   UNL A   1      42.197  30.682  29.392  1.00  0.00    -0.354 N 
ATOM     51  N   UNL A   1      44.577  29.750  27.987  1.00  0.00    -0.248 NA
ATOM     52  C   UNL A   1      46.677  30.169  27.054  1.00  0.00     0.031 C 
ATOM     53  C   UNL A   1      42.223  32.723  30.272  1.00  0.00     0.029 A 
ATOM     54  C   UNL A   1      42.980  31.811  29.557  1.00  0.00     0.049 A 
ATOM     55  H   UNL A   1      42.472  29.868  28.913  1.00  0.00     0.167 HD
ATOM     56  C   UNL A   1      44.988  31.029  28.342  1.00  0.00     0.074 A 
ATOM     57  C   UNL A   1      46.306  31.221  27.774  1.00  0.00     0.031 C 
ATOM     58  C   UNL A   1      44.316  31.972  29.046  1.00  0.00     0.034 A 
BRANCH  45  59
ATOM     59  C   UNL A   1      38.657  30.275  30.790  1.00  0.00     0.023 A 
ATOM     60  C   UNL A   1      38.544  30.029  32.171  1.00  0.00     0.012 A 
ATOM     61  C   UNL A   1      37.635  30.983  30.126  1.00  0.00     0.148 A 
ATOM     62  C   UNL A   1      37.424  30.466  32.878  1.00  0.00     0.002 A 
ATOM     63  C   UNL A   1      36.542  31.453  30.845  1.00  0.00     0.091 A 
ATOM     64  F   UNL A   1      37.755  31.192  28.806  1.00  0.00    -0.205 F 
ATOM     65  C   UNL A   1      36.431  31.189  32.219  1.00  0.00     0.022 A 
BRANCH  63  66
ATOM     66  S   UNL A   1      35.259  32.468  30.099  1.00  0.00     0.127 S 
ATOM     67  O   UNL A   1      36.015  33.653  29.698  1.00  0.00    -0.237 OA
ATOM     68  O   UNL A   1      34.806  31.630  28.988  1.00  0.00    -0.237 OA
ATOM     69  O   UNL A   1      34.263  32.683  31.140  1.00  0.00    -0.744 OA
ENDBRANCH  63  66
ENDBRANCH  45  59
BRANCH  46  70
ATOM     70  C   UNL A   1      46.882  27.460  25.919  1.00  0.00     0.023 A 
ATOM     71  C   UNL A   1      47.749  26.567  26.579  1.00  0.00     0.012 A 
ATOM     72  C   UNL A   1      47.179  27.848  24.598  1.00  0.00     0.148 A 
ATOM     73  C   UNL A   1      48.884  26.069  25.936  1.00  0.00     0.002 A 
ATOM     74  C   UNL A   1      48.264  27.286  23.937  1.00  0.00     0.091 A 
ATOM     75  F   UNL A   1      46.367  28.728  23.996  1.00  0.00    -0.205 F 
ATOM     76  C   UNL A   1      49.130  26.411  24.609  1.00  0.00     0.022 A 
BRANCH  74  77
ATOM     77  S   UNL A   1      48.523  27.519  22.174  1.00  0.00     0.127 S 
ATOM     78  O   UNL A   1      48.787  26.156  21.724  1.00  0.00    -0.237 OA
ATOM     79  O   UNL A   1      47.236  28.073  21.749  1.00  0.00    -0.237 OA
ATOM     80  O   UNL A   1      49.633  28.456  22.070  1.00  0.00    -0.744 OA
ENDBRANCH  74  77
ENDBRANCH  46  70
BRANCH  58  81
ATOM     81  C   UNL A   1      44.974  33.308  29.265  1.00  0.00     0.023 A 
ATOM     82  C   UNL A   1      45.799  33.491  30.390  1.00  0.00     0.012 A 
ATOM     83  C   UNL A   1      44.898  34.319  28.286  1.00  0.00     0.148 A 
ATOM     84  C   UNL A   1      46.537  34.664  30.543  1.00  0.00     0.002 A 
ATOM     85  C   UNL A   1      45.667  35.468  28.425  1.00  0.00     0.091 A 
ATOM     86  F   UNL A   1      44.096  34.124  27.229  1.00  0.00    -0.205 F 
ATOM     87  C   UNL A   1      46.482  35.644  29.555  1.00  0.00     0.022 A 
BRANCH  85  88
ATOM     88  S   UNL A   1      45.738  36.746  27.164  1.00  0.00     0.127 S 
ATOM     89  O   UNL A   1      46.661  37.707  27.767  1.00  0.00    -0.237 OA
ATOM     90  O   UNL A   1      46.279  36.018  26.017  1.00  0.00    -0.237 OA
ATOM     91  O   UNL A   1      44.372  37.222  26.994  1.00  0.00    -0.744 OA
ENDBRANCH  85  88
ENDBRANCH  58  81
ENDBRANCH  32  33
ENDBRANCH  25  27
ENDBRANCH  24  25
ENDBRANCH  23  24
ENDBRANCH   1  23
TORSDOF 19
ENDMDL
MODEL 3
REMARK VINA RESULT:     -11.6      1.641      7.685
REMARK SMILES CN(CCS(C)(=O)=O)S(=O)(=O)c1cc(C(=O)OCCOC(=O)c2ccc(-c3c4nc(c(-c5cccc(S(=O)(=O)[O-])c5F)c5ccc([nH]5)c(-c5cccc(S(=O)(=O)[O-])c5F)c5nc(c(-c6cccc(S(=O)(=O)[O-])c6F)c6ccc3[nH]6)C=C5)C=C4)cc2)ccc1F
REMARK SMILES IDX 18 1 17 2 15 3 16 4 14 5 12 6 13 7 88 8 87 9 89 10 86 11
REMARK SMILES IDX 9 12 10 13 11 14 2 15 1 16 3 17 4 18 5 19 6 20 7 21 8 22
REMARK SMILES IDX 19 23 20 24 21 25 22 26 23 27 24 28 85 29 25 30 84 31 26 32
REMARK SMILES IDX 27 33 28 34 78 35 29 36 83 37 77 38 79 39 30 40 82 41 76 42
REMARK SMILES IDX 75 43 31 45 63 46 43 47 62 48 44 49 47 50 61 51 80 52 45 53
REMARK SMILES IDX 46 54 60 56 81 57 48 58 32 59 33 60 41 61 34 62 36 63 42 64
REMARK SMILES IDX 35 65 37 66 38 67 39 68 40 69 64 70 65 71 73 72 66 73 68 74
REMARK SMILES IDX 74 75 67 76 69 77 70 78 71 79 72 80 49 81 50 82 58 83 51 84
REMARK SMILES IDX 53 85 59 86 52 87 54 88 55 89 56 90 57 91
REMARK H PARENT 79 44 47 55
REMARK Flexibility Score: inf
ROOT
ATOM      1  C   UNL A   1      35.932  20.832  25.521  1.00  0.00     0.275 C 
ENDROOT
BRANCH   1   2
ATOM      2  O   UNL A   1      35.014  21.110  24.441  1.00  0.00    -0.458 OA
BRANCH   2   3
ATOM      3  C   UNL A   1      35.115  22.340  23.887  1.00  0.00     0.338 C 
ATOM      4  O   UNL A   1      36.134  22.945  23.596  1.00  0.00    -0.246 OA
BRANCH   3   5
ATOM      5  C   UNL A   1      33.777  22.898  23.604  1.00  0.00     0.061 A 
ATOM      6  C   UNL A   1      32.463  24.720  22.679  1.00  0.00     0.119 A 
ATOM      7  C   UNL A   1      33.690  24.077  22.853  1.00  0.00     0.040 A 
ATOM      8  C   UNL A   1      31.317  24.164  23.230  1.00  0.00     0.143 A 
ATOM      9  C   UNL A   1      31.396  22.980  23.972  1.00  0.00     0.041 A 
ATOM     10  F   UNL A   1      30.111  24.713  23.048  1.00  0.00    -0.206 F 
ATOM     11  C   UNL A   1      32.627  22.343  24.165  1.00  0.00     0.019 A 
BRANCH   6  12
ATOM     12  S   UNL A   1      32.368  26.210  21.737  1.00  0.00     0.245 S 
ATOM     13  O   UNL A   1      31.584  26.001  20.550  1.00  0.00    -0.207 OA
ATOM     14  O   UNL A   1      33.731  26.704  21.665  1.00  0.00    -0.207 OA
BRANCH  12  15
ATOM     15  N   UNL A   1      31.488  27.321  22.704  1.00  0.00    -0.200 NA
ATOM     16  C   UNL A   1      32.390  28.155  23.557  1.00  0.00     0.124 C 
BRANCH  15  17
ATOM     17  C   UNL A   1      30.323  28.085  22.171  1.00  0.00     0.118 C 
BRANCH  17  18
ATOM     18  C   UNL A   1      29.154  28.352  23.096  1.00  0.00     0.153 C 
BRANCH  18  19
ATOM     19  S   UNL A   1      28.143  29.776  22.691  1.00  0.00     0.148 S 
ATOM     20  C   UNL A   1      28.880  31.194  23.465  1.00  0.00     0.158 C 
ATOM     21  O   UNL A   1      28.258  29.992  21.259  1.00  0.00    -0.229 OA
ATOM     22  O   UNL A   1      26.836  29.639  23.297  1.00  0.00    -0.229 OA
ENDBRANCH  18  19
ENDBRANCH  17  18
ENDBRANCH  15  17
ENDBRANCH  12  15
ENDBRANCH   6  12
ENDBRANCH   3   5
ENDBRANCH   2   3
ENDBRANCH   1   2
BRANCH   1  23
ATOM     23  C   UNL A   1      37.112  19.999  25.026  1.00  0.00     0.275 C 
BRANCH  23  24
ATOM     24  O   UNL A   1      38.280  20.835  24.944  1.00  0.00    -0.458 OA
BRANCH  24  25
ATOM     25  C   UNL A   1      39.245  20.601  25.863  1.00  0.00     0.338 C 
ATOM     26  O   UNL A   1      39.804  19.540  26.087  1.00  0.00    -0.246 OA
BRANCH  25  27
ATOM     27  C   UNL A   1      39.600  21.859  26.550  1.00  0.00     0.060 A 
ATOM     28  C   UNL A   1      38.947  23.034  26.196  1.00  0.00     0.016 A 
ATOM     29  C   UNL A   1      40.687  21.910  27.419  1.00  0.00     0.016 A 
ATOM     30  C   UNL A   1      39.482  24.266  26.565  1.00  0.00     0.010 A 
ATOM     31  C   UNL A   1      41.132  23.149  27.907  1.00  0.00     0.010 A 
ATOM     32  C   UNL A   1      40.586  24.353  27.428  1.00  0.00    -0.014 A 
BRANCH  32  33
ATOM     33  C   UNL A   1      41.185  25.688  27.755  1.00  0.00     0.031 A 
ATOM     34  C   UNL A   1      42.538  26.086  27.202  1.00  0.00     0.074 A 
ATOM     35  C   UNL A   1      40.510  26.588  28.504  1.00  0.00     0.049 A 
ATOM     36  N   UNL A   1      43.257  27.146  27.473  1.00  0.00    -0.248 NA
ATOM     37  C   UNL A   1      43.177  25.169  26.243  1.00  0.00     0.031 C 
ATOM     38  C   UNL A   1      39.195  26.368  29.108  1.00  0.00     0.029 A 
ATOM     39  N   UNL A   1      40.818  27.882  28.863  1.00  0.00    -0.354 N 
ATOM     40  C   UNL A   1      44.465  26.971  26.804  1.00  0.00     0.074 A 
ATOM     41  C   UNL A   1      44.377  25.713  26.099  1.00  0.00     0.031 C 
ATOM     42  C   UNL A   1      38.773  27.505  29.678  1.00  0.00     0.029 A 
ATOM     43  C   UNL A   1      39.825  28.512  29.582  1.00  0.00     0.049 A 
ATOM     44  H   UNL A   1      41.669  28.316  28.627  1.00  0.00     0.167 HD
ATOM     45  C   UNL A   1      45.547  27.788  26.765  1.00  0.00     0.034 A 
ATOM     46  C   UNL A   1      39.766  29.745  30.128  1.00  0.00     0.034 A 
ATOM     47  C   UNL A   1      45.595  29.100  27.351  1.00  0.00     0.049 A 
ATOM     48  C   UNL A   1      40.955  30.659  30.019  1.00  0.00     0.074 A 
ATOM     49  C   UNL A   1      46.636  30.011  27.318  1.00  0.00     0.029 A 
ATOM     50  N   UNL A   1      44.557  29.701  28.040  1.00  0.00    -0.354 N 
ATOM     51  N   UNL A   1      42.078  30.472  29.371  1.00  0.00    -0.248 NA
ATOM     52  C   UNL A   1      40.876  31.949  30.724  1.00  0.00     0.031 C 
ATOM     53  C   UNL A   1      46.228  31.166  27.992  1.00  0.00     0.029 A 
ATOM     54  C   UNL A   1      44.930  30.975  28.434  1.00  0.00     0.049 A 
ATOM     55  H   UNL A   1      43.684  29.286  28.223  1.00  0.00     0.167 HD
ATOM     56  C   UNL A   1      42.837  31.616  29.586  1.00  0.00     0.074 A 
ATOM     57  C   UNL A   1      42.032  32.510  30.392  1.00  0.00     0.031 C 
ATOM     58  C   UNL A   1      44.101  31.885  29.179  1.00  0.00     0.034 A 
BRANCH  45  59
ATOM     59  C   UNL A   1      46.774  27.315  26.031  1.00  0.00     0.023 A 
ATOM     60  C   UNL A   1      46.945  27.633  24.671  1.00  0.00     0.012 A 
ATOM     61  C   UNL A   1      47.809  26.654  26.724  1.00  0.00     0.148 A 
ATOM     62  C   UNL A   1      48.121  27.285  24.006  1.00  0.00     0.002 A 
ATOM     63  C   UNL A   1      48.995  26.348  26.066  1.00  0.00     0.091 A 
ATOM     64  F   UNL A   1      47.619  26.346  28.015  1.00  0.00    -0.205 F 
ATOM     65  C   UNL A   1      49.150  26.656  24.705  1.00  0.00     0.022 A 
BRANCH  63  66
ATOM     66  S   UNL A   1      50.407  25.619  26.907  1.00  0.00     0.127 S 
ATOM     67  O   UNL A   1      51.362  25.475  25.811  1.00  0.00    -0.237 OA
ATOM     68  O   UNL A   1      50.753  26.652  27.885  1.00  0.00    -0.237 OA
ATOM     69  O   UNL A   1      49.927  24.373  27.488  1.00  0.00    -0.744 OA
ENDBRANCH  63  66
ENDBRANCH  45  59
BRANCH  46  70
ATOM     70  C   UNL A   1      38.510  30.196  30.796  1.00  0.00     0.023 A 
ATOM     71  C   UNL A   1      38.356  29.994  32.181  1.00  0.00     0.012 A 
ATOM     72  C   UNL A   1      37.508  30.892  30.092  1.00  0.00     0.148 A 
ATOM     73  C   UNL A   1      37.231  30.479  32.851  1.00  0.00     0.002 A 
ATOM     74  C   UNL A   1      36.433  31.441  30.778  1.00  0.00     0.091 A 
ATOM     75  F   UNL A   1      37.650  31.042  28.767  1.00  0.00    -0.205 F 
ATOM     76  C   UNL A   1      36.281  31.221  32.155  1.00  0.00     0.022 A 
BRANCH  74  77
ATOM     77  S   UNL A   1      35.285  32.576  29.987  1.00  0.00     0.127 S 
ATOM     78  O   UNL A   1      34.356  32.873  31.074  1.00  0.00    -0.237 OA
ATOM     79  O   UNL A   1      36.166  33.682  29.606  1.00  0.00    -0.237 OA
ATOM     80  O   UNL A   1      34.736  31.841  28.856  1.00  0.00    -0.744 OA
ENDBRANCH  74  77
ENDBRANCH  46  70
BRANCH  58  81
ATOM     81  C   UNL A   1      44.719  33.197  29.580  1.00  0.00     0.023 A 
ATOM     82  C   UNL A   1      45.546  33.249  30.718  1.00  0.00     0.012 A 
ATOM     83  C   UNL A   1      44.606  34.331  28.751  1.00  0.00     0.148 A 
ATOM     84  C   UNL A   1      46.249  34.411  31.030  1.00  0.00     0.002 A 
ATOM     85  C   UNL A   1      45.341  35.474  29.046  1.00  0.00     0.091 A 
ATOM     86  F   UNL A   1      43.804  34.260  27.679  1.00  0.00    -0.205 F 
ATOM     87  C   UNL A   1      46.158  35.517  30.188  1.00  0.00     0.022 A 
BRANCH  85  88
ATOM     88  S   UNL A   1      45.364  36.916  27.975  1.00  0.00     0.127 S 
ATOM     89  O   UNL A   1      45.929  36.363  26.744  1.00  0.00    -0.237 OA
ATOM     90  O   UNL A   1      43.945  37.262  27.894  1.00  0.00    -0.237 OA
ATOM     91  O   UNL A   1      46.194  37.905  28.648  1.00  0.00    -0.744 OA
ENDBRANCH  85  88
ENDBRANCH  58  81
ENDBRANCH  32  33
ENDBRANCH  25  27
ENDBRANCH  24  25
ENDBRANCH  23  24
ENDBRANCH   1  23
TORSDOF 19
ENDMDL
