MODEL 1
REMARK VINA RESULT:     -10.4      0.000      0.000
REMARK SMILES CN(C)S(=O)(=O)c1ccc(-n2c(CCC(=O)OCCOC(=O)c3ccc(-c4c5nc(c(-c6cccc(S(=O)(=O)[O-])c6F)c6ccc([nH]6)c(-c6cccc(S(=O)(=O)[O-])c6F)c6nc(c(-c7cccc(S(=O)(=O)[O-])c7F)c7ccc4[nH]7)C=C6)C=C5)cc3)ccc2-c2ccc(F)cc2)cc1
REMARK SMILES IDX 18 1 17 2 15 3 16 4 14 5 13 6 12 7 11 8 88 9 86 10 87 11
REMARK SMILES IDX 10 12 7 13 8 14 97 15 9 16 96 17 4 18 5 19 6 20 2 21 1 22
REMARK SMILES IDX 3 23 89 24 90 25 95 26 91 27 94 28 92 29 93 30 19 31 20 32
REMARK SMILES IDX 21 33 22 34 23 35 24 36 85 37 25 38 84 39 26 40 27 41 28 42
REMARK SMILES IDX 78 43 29 44 83 45 77 46 79 47 30 48 82 49 76 50 75 51 31 53
REMARK SMILES IDX 63 54 43 55 62 56 44 57 47 58 61 59 80 60 45 61 46 62 60 64
REMARK SMILES IDX 81 65 48 66 32 67 33 68 41 69 34 70 36 71 42 72 35 73 37 74
REMARK SMILES IDX 38 75 39 76 40 77 64 78 65 79 73 80 66 81 68 82 74 83 67 84
REMARK SMILES IDX 69 85 70 86 71 87 72 88 49 89 50 90 58 91 51 92 53 93 59 94
REMARK SMILES IDX 52 95 54 96 55 97 56 98 57 99
REMARK H PARENT 79 52 47 63
REMARK Flexibility Score: inf
ROOT
ATOM      1  C   UNL A   1      41.417  20.309  26.061  1.00  0.00     0.274 C 
ENDROOT
BRANCH   1   2
ATOM      2  O   UNL A   1      42.828  20.092  26.349  1.00  0.00    -0.462 OA
BRANCH   2   3
ATOM      3  C   UNL A   1      43.699  20.348  25.332  1.00  0.00     0.306 C 
ATOM      4  O   UNL A   1      43.780  19.661  24.319  1.00  0.00    -0.252 OA
BRANCH   3   5
ATOM      5  C   UNL A   1      44.568  21.584  25.544  1.00  0.00     0.129 C 
BRANCH   5   6
ATOM      6  C   UNL A   1      44.303  22.502  26.747  1.00  0.00     0.066 C 
BRANCH   6   7
ATOM      7  C   UNL A   1      44.000  23.902  26.347  1.00  0.00     0.024 A 
ATOM      8  N   UNL A   1      44.343  25.052  27.055  1.00  0.00    -0.314 N 
ATOM      9  C   UNL A   1      44.203  26.126  26.151  1.00  0.00     0.053 A 
ATOM     10  C   UNL A   1      43.330  24.289  25.199  1.00  0.00     0.024 A 
ATOM     11  C   UNL A   1      43.454  25.679  25.079  1.00  0.00     0.029 A 
BRANCH   8  12
ATOM     12  C   UNL A   1      44.856  25.149  28.393  1.00  0.00     0.046 A 
ATOM     13  C   UNL A   1      45.896  25.396  31.857  1.00  0.00     0.082 A 
ATOM     14  C   UNL A   1      44.263  24.798  31.454  1.00  0.00     0.024 A 
ATOM     15  C   UNL A   1      47.030  25.904  30.561  1.00  0.00     0.024 A 
ATOM     16  C   UNL A   1      43.740  24.646  29.743  1.00  0.00     0.028 A 
ATOM     17  C   UNL A   1      46.548  25.726  28.821  1.00  0.00     0.028 A 
BRANCH  13  18
ATOM     18  S   UNL A   1      46.244  25.773  33.551  1.00  0.00     0.242 S 
ATOM     19  O   UNL A   1      45.151  26.604  34.014  1.00  0.00    -0.207 OA
ATOM     20  O   UNL A   1      47.602  26.275  33.573  1.00  0.00    -0.207 OA
BRANCH  18  21
ATOM     21  N   UNL A   1      46.171  24.281  34.353  1.00  0.00    -0.204 NA
ATOM     22  C   UNL A   1      47.485  23.779  34.827  1.00  0.00     0.124 C 
ATOM     23  C   UNL A   1      45.154  24.146  35.424  1.00  0.00     0.124 C 
ENDBRANCH  18  21
ENDBRANCH  13  18
ENDBRANCH   8  12
BRANCH   9  24
ATOM     24  C   UNL A   1      44.851  27.439  26.245  1.00  0.00    -0.001 A 
ATOM     25  C   UNL A   1      45.961  27.753  25.445  1.00  0.00     0.013 A 
ATOM     26  C   UNL A   1      44.346  28.406  27.130  1.00  0.00     0.013 A 
ATOM     27  C   UNL A   1      46.511  29.038  25.483  1.00  0.00     0.040 A 
ATOM     28  C   UNL A   1      44.900  29.686  27.169  1.00  0.00     0.040 A 
ATOM     29  C   UNL A   1      45.972  29.992  26.339  1.00  0.00     0.123 A 
ATOM     30  F   UNL A   1      46.491  31.227  26.364  1.00  0.00    -0.207 F 
ENDBRANCH   9  24
ENDBRANCH   6   7
ENDBRANCH   5   6
ENDBRANCH   3   5
ENDBRANCH   2   3
ENDBRANCH   1   2
BRANCH   1  31
ATOM     31  C   UNL A   1      40.523  21.272  27.129  1.00  0.00     0.275 C 
BRANCH  31  32
ATOM     32  O   UNL A   1      39.872  23.167  26.865  1.00  0.00    -0.458 OA
BRANCH  32  33
ATOM     33  C   UNL A   1      39.139  24.354  27.105  1.00  0.00     0.338 C 
ATOM     34  O   UNL A   1      37.982  24.624  26.778  1.00  0.00    -0.246 OA
BRANCH  33  35
ATOM     35  C   UNL A   1      39.785  25.269  28.034  1.00  0.00     0.060 A 
ATOM     36  C   UNL A   1      39.044  25.686  29.152  1.00  0.00     0.016 A 
ATOM     37  C   UNL A   1      40.854  25.994  27.540  1.00  0.00     0.016 A 
ATOM     38  C   UNL A   1      39.316  26.922  29.709  1.00  0.00     0.010 A 
ATOM     39  C   UNL A   1      41.094  27.240  28.066  1.00  0.00     0.010 A 
ATOM     40  C   UNL A   1      40.296  27.718  29.111  1.00  0.00    -0.014 A 
BRANCH  40  41
ATOM     41  C   UNL A   1      40.521  29.095  29.577  1.00  0.00     0.031 A 
ATOM     42  C   UNL A   1      39.352  30.018  29.226  1.00  0.00     0.074 A 
ATOM     43  C   UNL A   1      41.684  29.284  30.274  1.00  0.00     0.049 A 
ATOM     44  N   UNL A   1      39.286  31.315  29.187  1.00  0.00    -0.248 NA
ATOM     45  C   UNL A   1      38.075  29.403  28.759  1.00  0.00     0.031 C 
ATOM     46  C   UNL A   1      42.688  28.225  30.551  1.00  0.00     0.029 A 
ATOM     47  N   UNL A   1      42.256  30.367  30.907  1.00  0.00    -0.354 N 
ATOM     48  C   UNL A   1      37.928  31.642  28.966  1.00  0.00     0.074 A 
ATOM     49  C   UNL A   1      37.268  30.444  28.565  1.00  0.00     0.031 C 
ATOM     50  C   UNL A   1      43.747  28.724  31.223  1.00  0.00     0.029 A 
ATOM     51  C   UNL A   1      43.528  30.131  31.490  1.00  0.00     0.049 A 
ATOM     52  H   UNL A   1      41.813  31.244  30.950  1.00  0.00     0.167 HD
ATOM     53  C   UNL A   1      37.391  32.853  29.284  1.00  0.00     0.034 A 
ATOM     54  C   UNL A   1      44.360  31.012  32.129  1.00  0.00     0.034 A 
ATOM     55  C   UNL A   1      38.407  33.724  29.772  1.00  0.00     0.049 A 
ATOM     56  C   UNL A   1      43.582  32.248  32.267  1.00  0.00     0.074 A 
ATOM     57  C   UNL A   1      39.384  34.474  29.177  1.00  0.00     0.029 A 
ATOM     58  N   UNL A   1      38.643  33.653  31.122  1.00  0.00    -0.354 N 
ATOM     59  N   UNL A   1      42.635  32.420  33.138  1.00  0.00    -0.248 NA
ATOM     60  C   UNL A   1      43.804  33.338  31.313  1.00  0.00     0.031 C 
ATOM     61  C   UNL A   1      40.388  34.594  30.161  1.00  0.00     0.029 A 
ATOM     62  C   UNL A   1      39.964  33.955  31.331  1.00  0.00     0.049 A 
ATOM     63  H   UNL A   1      37.983  33.426  31.815  1.00  0.00     0.167 HD
ATOM     64  C   UNL A   1      41.933  33.467  32.599  1.00  0.00     0.074 A 
ATOM     65  C   UNL A   1      42.849  34.165  31.726  1.00  0.00     0.031 C 
ATOM     66  C   UNL A   1      40.582  33.399  32.510  1.00  0.00     0.034 A 
BRANCH  53  67
ATOM     67  C   UNL A   1      35.963  33.325  29.433  1.00  0.00     0.023 A 
ATOM     68  C   UNL A   1      35.267  33.555  28.215  1.00  0.00     0.012 A 
ATOM     69  C   UNL A   1      35.374  33.818  30.611  1.00  0.00     0.148 A 
ATOM     70  C   UNL A   1      34.114  34.334  28.145  1.00  0.00     0.002 A 
ATOM     71  C   UNL A   1      34.184  34.551  30.543  1.00  0.00     0.091 A 
ATOM     72  F   UNL A   1      36.001  33.668  31.782  1.00  0.00    -0.205 F 
ATOM     73  C   UNL A   1      33.578  34.842  29.313  1.00  0.00     0.022 A 
BRANCH  71  74
ATOM     74  S   UNL A   1      33.346  35.161  32.012  1.00  0.00     0.127 S 
ATOM     75  O   UNL A   1      34.235  36.230  32.453  1.00  0.00    -0.237 OA
ATOM     76  O   UNL A   1      32.066  35.624  31.467  1.00  0.00    -0.237 OA
ATOM     77  O   UNL A   1      33.223  34.006  32.892  1.00  0.00    -0.744 OA
ENDBRANCH  71  74
ENDBRANCH  53  67
BRANCH  54  78
ATOM     78  C   UNL A   1      45.782  31.043  32.636  1.00  0.00     0.023 A 
ATOM     79  C   UNL A   1      46.144  31.284  33.968  1.00  0.00     0.012 A 
ATOM     80  C   UNL A   1      46.862  30.748  31.746  1.00  0.00     0.148 A 
ATOM     81  C   UNL A   1      47.480  31.149  34.402  1.00  0.00     0.002 A 
ATOM     82  C   UNL A   1      48.157  30.508  32.192  1.00  0.00     0.091 A 
ATOM     83  F   UNL A   1      46.652  30.729  30.426  1.00  0.00    -0.205 F 
ATOM     84  C   UNL A   1      48.477  30.719  33.528  1.00  0.00     0.022 A 
BRANCH  82  85
ATOM     85  S   UNL A   1      49.411  29.784  31.114  1.00  0.00     0.127 S 
ATOM     86  O   UNL A   1      50.070  30.966  30.565  1.00  0.00    -0.237 OA
ATOM     87  O   UNL A   1      50.213  29.020  32.069  1.00  0.00    -0.237 OA
ATOM     88  O   UNL A   1      48.695  28.963  30.146  1.00  0.00    -0.744 OA
ENDBRANCH  82  85
ENDBRANCH  54  78
BRANCH  66  89
ATOM     89  C   UNL A   1      39.941  32.437  33.505  1.00  0.00     0.023 A 
ATOM     90  C   UNL A   1      39.617  31.154  33.024  1.00  0.00     0.012 A 
ATOM     91  C   UNL A   1      39.538  32.765  34.823  1.00  0.00     0.148 A 
ATOM     92  C   UNL A   1      38.914  30.235  33.808  1.00  0.00     0.002 A 
ATOM     93  C   UNL A   1      38.836  31.843  35.608  1.00  0.00     0.091 A 
ATOM     94  F   UNL A   1      39.829  33.978  35.299  1.00  0.00    -0.205 F 
ATOM     95  C   UNL A   1      38.525  30.577  35.097  1.00  0.00     0.022 A 
BRANCH  93  96
ATOM     96  S   UNL A   1      38.261  32.173  37.286  1.00  0.00     0.127 S 
ATOM     97  O   UNL A   1      37.544  30.944  37.628  1.00  0.00    -0.237 OA
ATOM     98  O   UNL A   1      39.514  32.352  38.019  1.00  0.00    -0.237 OA
ATOM     99  O   UNL A   1      37.425  33.361  37.207  1.00  0.00    -0.744 OA
ENDBRANCH  93  96
ENDBRANCH  66  89
ENDBRANCH  40  41
ENDBRANCH  33  35
ENDBRANCH  32  33
ENDBRANCH  31  32
ENDBRANCH   1  31
TORSDOF 20
ENDMDL
MODEL 2
REMARK VINA RESULT:      -9.5      7.706     13.794
REMARK SMILES CN(C)S(=O)(=O)c1ccc(-n2c(CCC(=O)OCCOC(=O)c3ccc(-c4c5nc(c(-c6cccc(S(=O)(=O)[O-])c6F)c6ccc([nH]6)c(-c6cccc(S(=O)(=O)[O-])c6F)c6nc(c(-c7cccc(S(=O)(=O)[O-])c7F)c7ccc4[nH]7)C=C6)C=C5)cc3)ccc2-c2ccc(F)cc2)cc1
REMARK SMILES IDX 18 1 17 2 15 3 16 4 14 5 13 6 12 7 11 8 88 9 86 10 87 11
REMARK SMILES IDX 10 12 7 13 8 14 97 15 9 16 96 17 4 18 5 19 6 20 2 21 1 22
REMARK SMILES IDX 3 23 89 24 90 25 95 26 91 27 94 28 92 29 93 30 19 31 20 32
REMARK SMILES IDX 21 33 22 34 23 35 24 36 85 37 25 38 84 39 26 40 27 41 28 42
REMARK SMILES IDX 78 43 29 44 83 45 77 46 79 47 30 48 82 49 76 50 75 51 31 53
REMARK SMILES IDX 63 54 43 55 62 56 44 57 47 58 61 59 80 60 45 61 46 62 60 64
REMARK SMILES IDX 81 65 48 66 32 67 33 68 41 69 34 70 36 71 42 72 35 73 37 74
REMARK SMILES IDX 38 75 39 76 40 77 64 78 65 79 73 80 66 81 68 82 74 83 67 84
REMARK SMILES IDX 69 85 70 86 71 87 72 88 49 89 50 90 58 91 51 92 53 93 59 94
REMARK SMILES IDX 52 95 54 96 55 97 56 98 57 99
REMARK H PARENT 79 52 47 63
REMARK Flexibility Score: inf
ROOT
ATOM      1  C   UNL A   1      43.461  40.147  26.028  1.00  0.00     0.274 C 
ENDROOT
BRANCH   1   2
ATOM      2  O   UNL A   1      42.896  41.471  25.811  1.00  0.00    -0.462 OA
BRANCH   2   3
ATOM      3  C   UNL A   1      41.653  41.514  25.254  1.00  0.00     0.306 C 
ATOM      4  O   UNL A   1      40.676  40.945  25.731  1.00  0.00    -0.252 OA
BRANCH   3   5
ATOM      5  C   UNL A   1      41.562  42.351  23.982  1.00  0.00     0.129 C 
BRANCH   5   6
ATOM      6  C   UNL A   1      41.962  41.733  22.634  1.00  0.00     0.066 C 
BRANCH   6   7
ATOM      7  C   UNL A   1      42.494  42.736  21.674  1.00  0.00     0.024 A 
ATOM      8  N   UNL A   1      43.685  43.447  21.802  1.00  0.00    -0.314 N 
ATOM      9  C   UNL A   1      43.967  43.976  20.525  1.00  0.00     0.053 A 
ATOM     10  C   UNL A   1      41.889  43.122  20.490  1.00  0.00     0.024 A 
ATOM     11  C   UNL A   1      42.809  43.900  19.774  1.00  0.00     0.029 A 
BRANCH   8  12
ATOM     12  C   UNL A   1      44.542  43.540  22.951  1.00  0.00     0.046 A 
ATOM     13  C   UNL A   1      46.666  44.042  25.846  1.00  0.00     0.082 A 
ATOM     14  C   UNL A   1      45.471  45.286  25.387  1.00  0.00     0.024 A 
ATOM     15  C   UNL A   1      46.849  42.545  24.871  1.00  0.00     0.024 A 
ATOM     16  C   UNL A   1      44.394  45.043  23.970  1.00  0.00     0.028 A 
ATOM     17  C   UNL A   1      45.749  42.250  23.458  1.00  0.00     0.028 A 
BRANCH  13  18
ATOM     18  S   UNL A   1      47.867  44.462  27.076  1.00  0.00     0.242 S 
ATOM     19  O   UNL A   1      47.440  45.726  27.643  1.00  0.00    -0.207 OA
ATOM     20  O   UNL A   1      49.155  44.355  26.424  1.00  0.00    -0.207 OA
BRANCH  18  21
ATOM     21  N   UNL A   1      47.719  43.256  28.259  1.00  0.00    -0.204 NA
ATOM     22  C   UNL A   1      48.741  43.328  29.333  1.00  0.00     0.124 C 
ATOM     23  C   UNL A   1      46.372  43.056  28.845  1.00  0.00     0.124 C 
ENDBRANCH  18  21
ENDBRANCH  13  18
ENDBRANCH   8  12
BRANCH   9  24
ATOM     24  C   UNL A   1      45.278  44.398  20.022  1.00  0.00    -0.001 A 
ATOM     25  C   UNL A   1      45.545  45.750  19.751  1.00  0.00     0.013 A 
ATOM     26  C   UNL A   1      46.290  43.445  19.823  1.00  0.00     0.013 A 
ATOM     27  C   UNL A   1      46.826  46.146  19.356  1.00  0.00     0.040 A 
ATOM     28  C   UNL A   1      47.567  43.843  19.424  1.00  0.00     0.040 A 
ATOM     29  C   UNL A   1      47.825  45.191  19.202  1.00  0.00     0.123 A 
ATOM     30  F   UNL A   1      49.055  45.573  18.837  1.00  0.00    -0.207 F 
ENDBRANCH   9  24
ENDBRANCH   6   7
ENDBRANCH   5   6
ENDBRANCH   3   5
ENDBRANCH   2   3
ENDBRANCH   1   2
BRANCH   1  31
ATOM     31  C   UNL A   1      43.072  39.338  27.464  1.00  0.00     0.275 C 
BRANCH  31  32
ATOM     32  O   UNL A   1      44.011  37.762  28.312  1.00  0.00    -0.458 OA
BRANCH  32  33
ATOM     33  C   UNL A   1      45.076  36.977  28.814  1.00  0.00     0.338 C 
ATOM     34  O   UNL A   1      46.241  37.312  29.038  1.00  0.00    -0.246 OA
BRANCH  33  35
ATOM     35  C   UNL A   1      44.663  35.674  29.315  1.00  0.00     0.060 A 
ATOM     36  C   UNL A   1      44.294  34.705  28.368  1.00  0.00     0.016 A 
ATOM     37  C   UNL A   1      44.238  35.628  30.630  1.00  0.00     0.016 A 
ATOM     38  C   UNL A   1      43.379  33.734  28.732  1.00  0.00     0.010 A 
ATOM     39  C   UNL A   1      43.296  34.691  30.977  1.00  0.00     0.010 A 
ATOM     40  C   UNL A   1      42.834  33.782  30.017  1.00  0.00    -0.014 A 
BRANCH  40  41
ATOM     41  C   UNL A   1      41.754  32.862  30.402  1.00  0.00     0.031 A 
ATOM     42  C   UNL A   1      42.294  31.517  30.895  1.00  0.00     0.074 A 
ATOM     43  C   UNL A   1      40.492  33.382  30.304  1.00  0.00     0.049 A 
ATOM     44  N   UNL A   1      41.698  30.371  31.034  1.00  0.00    -0.248 NA
ATOM     45  C   UNL A   1      43.750  31.404  31.202  1.00  0.00     0.031 C 
ATOM     46  C   UNL A   1      40.175  34.755  29.833  1.00  0.00     0.029 A 
ATOM     47  N   UNL A   1      39.232  32.900  30.589  1.00  0.00    -0.354 N 
ATOM     48  C   UNL A   1      42.619  29.516  31.682  1.00  0.00     0.074 A 
ATOM     49  C   UNL A   1      43.894  30.149  31.622  1.00  0.00     0.031 C 
ATOM     50  C   UNL A   1      38.842  34.964  29.807  1.00  0.00     0.029 A 
ATOM     51  C   UNL A   1      38.160  33.781  30.293  1.00  0.00     0.049 A 
ATOM     52  H   UNL A   1      39.086  32.006  30.972  1.00  0.00     0.167 HD
ATOM     53  C   UNL A   1      42.245  28.404  32.375  1.00  0.00     0.034 A 
ATOM     54  C   UNL A   1      36.812  33.569  30.412  1.00  0.00     0.034 A 
ATOM     55  C   UNL A   1      40.838  28.211  32.264  1.00  0.00     0.049 A 
ATOM     56  C   UNL A   1      36.683  32.282  31.103  1.00  0.00     0.074 A 
ATOM     57  C   UNL A   1      40.021  27.704  31.291  1.00  0.00     0.029 A 
ATOM     58  N   UNL A   1      40.080  28.859  33.206  1.00  0.00    -0.354 N 
ATOM     59  N   UNL A   1      36.880  32.114  32.375  1.00  0.00    -0.248 NA
ATOM     60  C   UNL A   1      36.405  31.077  30.316  1.00  0.00     0.031 C 
ATOM     61  C   UNL A   1      38.777  28.333  31.510  1.00  0.00     0.029 A 
ATOM     62  C   UNL A   1      38.870  29.159  32.635  1.00  0.00     0.049 A 
ATOM     63  H   UNL A   1      40.355  29.070  34.127  1.00  0.00     0.167 HD
ATOM     64  C   UNL A   1      37.105  30.764  32.456  1.00  0.00     0.074 A 
ATOM     65  C   UNL A   1      36.487  30.177  31.291  1.00  0.00     0.031 C 
ATOM     66  C   UNL A   1      38.162  30.297  33.167  1.00  0.00     0.034 A 
BRANCH  53  67
ATOM     67  C   UNL A   1      42.972  27.537  33.377  1.00  0.00     0.023 A 
ATOM     68  C   UNL A   1      43.684  26.436  32.826  1.00  0.00     0.012 A 
ATOM     69  C   UNL A   1      42.779  27.544  34.770  1.00  0.00     0.148 A 
ATOM     70  C   UNL A   1      44.080  25.341  33.590  1.00  0.00     0.002 A 
ATOM     71  C   UNL A   1      43.231  26.469  35.543  1.00  0.00     0.091 A 
ATOM     72  F   UNL A   1      42.083  28.532  35.341  1.00  0.00    -0.205 F 
ATOM     73  C   UNL A   1      43.842  25.354  34.952  1.00  0.00     0.022 A 
BRANCH  71  74
ATOM     74  S   UNL A   1      43.071  26.438  37.334  1.00  0.00     0.127 S 
ATOM     75  O   UNL A   1      41.624  26.410  37.513  1.00  0.00    -0.237 OA
ATOM     76  O   UNL A   1      43.749  25.186  37.682  1.00  0.00    -0.237 OA
ATOM     77  O   UNL A   1      43.767  27.629  37.801  1.00  0.00    -0.744 OA
ENDBRANCH  71  74
ENDBRANCH  53  67
BRANCH  54  78
ATOM     78  C   UNL A   1      35.529  34.248  29.993  1.00  0.00     0.023 A 
ATOM     79  C   UNL A   1      34.984  34.188  28.704  1.00  0.00     0.012 A 
ATOM     80  C   UNL A   1      34.751  34.958  30.961  1.00  0.00     0.148 A 
ATOM     81  C   UNL A   1      33.707  34.718  28.421  1.00  0.00     0.002 A 
ATOM     82  C   UNL A   1      33.452  35.384  30.712  1.00  0.00     0.091 A 
ATOM     83  F   UNL A   1      35.284  35.267  32.147  1.00  0.00    -0.205 F 
ATOM     84  C   UNL A   1      32.924  35.275  29.431  1.00  0.00     0.022 A 
BRANCH  82  85
ATOM     85  S   UNL A   1      32.366  35.940  32.041  1.00  0.00     0.127 S 
ATOM     86  O   UNL A   1      32.442  34.832  32.990  1.00  0.00    -0.237 OA
ATOM     87  O   UNL A   1      33.035  37.167  32.474  1.00  0.00    -0.237 OA
ATOM     88  O   UNL A   1      31.057  36.157  31.439  1.00  0.00    -0.744 OA
ENDBRANCH  82  85
ENDBRANCH  54  78
BRANCH  66  89
ATOM     89  C   UNL A   1      38.658  31.256  34.245  1.00  0.00     0.023 A 
ATOM     90  C   UNL A   1      37.824  31.431  35.366  1.00  0.00     0.012 A 
ATOM     91  C   UNL A   1      39.816  32.068  34.154  1.00  0.00     0.148 A 
ATOM     92  C   UNL A   1      38.115  32.377  36.352  1.00  0.00     0.002 A 
ATOM     93  C   UNL A   1      40.106  33.013  35.144  1.00  0.00     0.091 A 
ATOM     94  F   UNL A   1      40.617  31.924  33.097  1.00  0.00    -0.205 F 
ATOM     95  C   UNL A   1      39.254  33.166  36.243  1.00  0.00     0.022 A 
BRANCH  93  96
ATOM     96  S   UNL A   1      41.541  34.107  35.108  1.00  0.00     0.127 S 
ATOM     97  O   UNL A   1      42.593  33.240  34.576  1.00  0.00    -0.237 OA
ATOM     98  O   UNL A   1      41.114  35.157  34.183  1.00  0.00    -0.237 OA
ATOM     99  O   UNL A   1      41.753  34.550  36.478  1.00  0.00    -0.744 OA
ENDBRANCH  93  96
ENDBRANCH  66  89
ENDBRANCH  40  41
ENDBRANCH  33  35
ENDBRANCH  32  33
ENDBRANCH  31  32
ENDBRANCH   1  31
TORSDOF 20
ENDMDL
MODEL 3
REMARK VINA RESULT:      -9.3      9.632     15.558
REMARK SMILES CN(C)S(=O)(=O)c1ccc(-n2c(CCC(=O)OCCOC(=O)c3ccc(-c4c5nc(c(-c6cccc(S(=O)(=O)[O-])c6F)c6ccc([nH]6)c(-c6cccc(S(=O)(=O)[O-])c6F)c6nc(c(-c7cccc(S(=O)(=O)[O-])c7F)c7ccc4[nH]7)C=C6)C=C5)cc3)ccc2-c2ccc(F)cc2)cc1
REMARK SMILES IDX 18 1 17 2 15 3 16 4 14 5 13 6 12 7 11 8 88 9 86 10 87 11
REMARK SMILES IDX 10 12 7 13 8 14 97 15 9 16 96 17 4 18 5 19 6 20 2 21 1 22
REMARK SMILES IDX 3 23 89 24 90 25 95 26 91 27 94 28 92 29 93 30 19 31 20 32
REMARK SMILES IDX 21 33 22 34 23 35 24 36 85 37 25 38 84 39 26 40 27 41 28 42
REMARK SMILES IDX 78 43 29 44 83 45 77 46 79 47 30 48 82 49 76 50 75 51 31 53
REMARK SMILES IDX 63 54 43 55 62 56 44 57 47 58 61 59 80 60 45 61 46 62 60 64
REMARK SMILES IDX 81 65 48 66 32 67 33 68 41 69 34 70 36 71 42 72 35 73 37 74
REMARK SMILES IDX 38 75 39 76 40 77 64 78 65 79 73 80 66 81 68 82 74 83 67 84
REMARK SMILES IDX 69 85 70 86 71 87 72 88 49 89 50 90 58 91 51 92 53 93 59 94
REMARK SMILES IDX 52 95 54 96 55 97 56 98 57 99
REMARK H PARENT 79 52 47 63
REMARK Flexibility Score: inf
ROOT
ATOM      1  C   UNL A   1      44.661  41.734  27.101  1.00  0.00     0.274 C 
ENDROOT
BRANCH   1   2
ATOM      2  O   UNL A   1      44.115  42.743  26.204  1.00  0.00    -0.462 OA
BRANCH   2   3
ATOM      3  C   UNL A   1      43.835  42.335  24.934  1.00  0.00     0.306 C 
ATOM      4  O   UNL A   1      42.722  41.972  24.568  1.00  0.00    -0.252 OA
BRANCH   3   5
ATOM      5  C   UNL A   1      45.026  42.383  23.982  1.00  0.00     0.129 C 
BRANCH   5   6
ATOM      6  C   UNL A   1      44.815  42.808  22.521  1.00  0.00     0.066 C 
BRANCH   6   7
ATOM      7  C   UNL A   1      46.054  42.705  21.705  1.00  0.00     0.024 A 
ATOM      8  N   UNL A   1      46.576  43.694  20.873  1.00  0.00    -0.314 N 
ATOM      9  C   UNL A   1      47.911  43.322  20.611  1.00  0.00     0.053 A 
ATOM     10  C   UNL A   1      46.895  41.607  21.647  1.00  0.00     0.024 A 
ATOM     11  C   UNL A   1      48.054  41.992  20.959  1.00  0.00     0.029 A 
BRANCH   8  12
ATOM     12  C   UNL A   1      45.951  44.916  20.449  1.00  0.00     0.046 A 
ATOM     13  C   UNL A   1      44.358  47.894  19.133  1.00  0.00     0.082 A 
ATOM     14  C   UNL A   1      44.194  46.338  18.274  1.00  0.00     0.024 A 
ATOM     15  C   UNL A   1      45.329  48.010  20.640  1.00  0.00     0.024 A 
ATOM     16  C   UNL A   1      44.957  44.848  18.924  1.00  0.00     0.028 A 
ATOM     17  C   UNL A   1      46.078  46.516  21.345  1.00  0.00     0.028 A 
BRANCH  13  18
ATOM     18  S   UNL A   1      43.816  49.360  18.302  1.00  0.00     0.242 S 
ATOM     19  O   UNL A   1      43.885  50.428  19.280  1.00  0.00    -0.207 OA
ATOM     20  O   UNL A   1      42.552  49.019  17.684  1.00  0.00    -0.207 OA
BRANCH  18  21
ATOM     21  N   UNL A   1      44.984  49.640  17.106  1.00  0.00    -0.204 NA
ATOM     22  C   UNL A   1      45.071  51.053  16.659  1.00  0.00     0.124 C 
ATOM     23  C   UNL A   1      46.341  49.097  17.356  1.00  0.00     0.124 C 
ENDBRANCH  18  21
ENDBRANCH  13  18
ENDBRANCH   8  12
BRANCH   9  24
ATOM     24  C   UNL A   1      48.999  44.209  20.185  1.00  0.00    -0.001 A 
ATOM     25  C   UNL A   1      49.715  44.972  21.121  1.00  0.00     0.013 A 
ATOM     26  C   UNL A   1      49.347  44.285  18.827  1.00  0.00     0.013 A 
ATOM     27  C   UNL A   1      50.805  45.743  20.709  1.00  0.00     0.040 A 
ATOM     28  C   UNL A   1      50.433  45.061  18.417  1.00  0.00     0.040 A 
ATOM     29  C   UNL A   1      51.157  45.776  19.364  1.00  0.00     0.123 A 
ATOM     30  F   UNL A   1      52.210  46.504  18.973  1.00  0.00    -0.207 F 
ENDBRANCH   9  24
ENDBRANCH   6   7
ENDBRANCH   5   6
ENDBRANCH   3   5
ENDBRANCH   2   3
ENDBRANCH   1   2
BRANCH   1  31
ATOM     31  C   UNL A   1      44.057  40.156  26.991  1.00  0.00     0.275 C 
BRANCH  31  32
ATOM     32  O   UNL A   1      44.442  38.577  28.192  1.00  0.00    -0.458 OA
BRANCH  32  33
ATOM     33  C   UNL A   1      44.679  37.858  29.388  1.00  0.00     0.338 C 
ATOM     34  O   UNL A   1      44.837  38.292  30.530  1.00  0.00    -0.246 OA
BRANCH  33  35
ATOM     35  C   UNL A   1      44.500  36.419  29.256  1.00  0.00     0.060 A 
ATOM     36  C   UNL A   1      43.866  35.951  28.093  1.00  0.00     0.016 A 
ATOM     37  C   UNL A   1      44.541  35.684  30.426  1.00  0.00     0.016 A 
ATOM     38  C   UNL A   1      43.157  34.765  28.153  1.00  0.00     0.010 A 
ATOM     39  C   UNL A   1      43.800  34.530  30.497  1.00  0.00     0.010 A 
ATOM     40  C   UNL A   1      43.073  34.102  29.380  1.00  0.00    -0.014 A 
BRANCH  40  41
ATOM     41  C   UNL A   1      42.214  32.918  29.528  1.00  0.00     0.031 A 
ATOM     42  C   UNL A   1      42.929  31.634  29.101  1.00  0.00     0.074 A 
ATOM     43  C   UNL A   1      40.978  33.166  30.061  1.00  0.00     0.049 A 
ATOM     44  N   UNL A   1      42.450  30.464  28.801  1.00  0.00    -0.248 NA
ATOM     45  C   UNL A   1      44.406  31.677  28.892  1.00  0.00     0.031 C 
ATOM     46  C   UNL A   1      40.480  34.508  30.458  1.00  0.00     0.029 A 
ATOM     47  N   UNL A   1      39.904  32.371  30.400  1.00  0.00    -0.354 N 
ATOM     48  C   UNL A   1      43.560  29.603  28.642  1.00  0.00     0.074 A 
ATOM     49  C   UNL A   1      44.721  30.427  28.560  1.00  0.00     0.031 C 
ATOM     50  C   UNL A   1      39.211  34.440  30.913  1.00  0.00     0.029 A 
ATOM     51  C   UNL A   1      38.768  33.060  30.900  1.00  0.00     0.049 A 
ATOM     52  H   UNL A   1      39.923  31.393  30.301  1.00  0.00     0.167 HD
ATOM     53  C   UNL A   1      43.476  28.248  28.750  1.00  0.00     0.034 A 
ATOM     54  C   UNL A   1      37.547  32.558  31.264  1.00  0.00     0.034 A 
ATOM     55  C   UNL A   1      42.121  27.859  28.951  1.00  0.00     0.049 A 
ATOM     56  C   UNL A   1      37.698  31.100  31.213  1.00  0.00     0.074 A 
ATOM     57  C   UNL A   1      41.038  27.717  28.127  1.00  0.00     0.029 A 
ATOM     58  N   UNL A   1      41.706  27.829  30.259  1.00  0.00    -0.354 N 
ATOM     59  N   UNL A   1      38.318  30.399  32.113  1.00  0.00    -0.248 NA
ATOM     60  C   UNL A   1      37.207  30.374  30.038  1.00  0.00     0.031 C 
ATOM     61  C   UNL A   1      39.923  27.914  28.969  1.00  0.00     0.029 A 
ATOM     62  C   UNL A   1      40.367  28.119  30.279  1.00  0.00     0.049 A 
ATOM     63  H   UNL A   1      42.270  27.635  31.042  1.00  0.00     0.167 HD
ATOM     64  C   UNL A   1      38.597  29.241  31.434  1.00  0.00     0.074 A 
ATOM     65  C   UNL A   1      37.640  29.159  30.356  1.00  0.00     0.031 C 
ATOM     66  C   UNL A   1      39.845  28.713  31.486  1.00  0.00     0.034 A 
BRANCH  53  67
ATOM     67  C   UNL A   1      44.524  27.175  28.928  1.00  0.00     0.023 A 
ATOM     68  C   UNL A   1      45.233  27.213  30.161  1.00  0.00     0.012 A 
ATOM     69  C   UNL A   1      45.047  26.353  27.913  1.00  0.00     0.148 A 
ATOM     70  C   UNL A   1      46.456  26.572  30.343  1.00  0.00     0.002 A 
ATOM     71  C   UNL A   1      46.247  25.663  28.122  1.00  0.00     0.091 A 
ATOM     72  F   UNL A   1      44.448  26.306  26.720  1.00  0.00    -0.205 F 
ATOM     73  C   UNL A   1      46.969  25.804  29.315  1.00  0.00     0.022 A 
BRANCH  71  74
ATOM     74  S   UNL A   1      46.942  24.551  26.891  1.00  0.00     0.127 S 
ATOM     75  O   UNL A   1      45.933  23.500  26.821  1.00  0.00    -0.237 OA
ATOM     76  O   UNL A   1      47.007  25.408  25.704  1.00  0.00    -0.237 OA
ATOM     77  O   UNL A   1      48.249  24.172  27.412  1.00  0.00    -0.744 OA
ENDBRANCH  71  74
ENDBRANCH  53  67
BRANCH  54  78
ATOM     78  C   UNL A   1      36.179  33.089  31.621  1.00  0.00     0.023 A 
ATOM     79  C   UNL A   1      35.669  33.153  32.925  1.00  0.00     0.012 A 
ATOM     80  C   UNL A   1      35.338  33.634  30.600  1.00  0.00     0.148 A 
ATOM     81  C   UNL A   1      34.446  33.799  33.203  1.00  0.00     0.002 A 
ATOM     82  C   UNL A   1      34.190  34.364  30.886  1.00  0.00     0.091 A 
ATOM     83  F   UNL A   1      35.627  33.418  29.314  1.00  0.00    -0.205 F 
ATOM     84  C   UNL A   1      33.729  34.442  32.195  1.00  0.00     0.022 A 
BRANCH  82  85
ATOM     85  S   UNL A   1      33.354  35.346  29.623  1.00  0.00     0.127 S 
ATOM     86  O   UNL A   1      32.602  34.332  28.888  1.00  0.00    -0.237 OA
ATOM     87  O   UNL A   1      32.539  36.244  30.441  1.00  0.00    -0.237 OA
ATOM     88  O   UNL A   1      34.402  36.018  28.864  1.00  0.00    -0.744 OA
ENDBRANCH  82  85
ENDBRANCH  54  78
BRANCH  66  89
ATOM     89  C   UNL A   1      40.647  29.132  32.713  1.00  0.00     0.023 A 
ATOM     90  C   UNL A   1      41.195  30.430  32.698  1.00  0.00     0.012 A 
ATOM     91  C   UNL A   1      40.986  28.290  33.802  1.00  0.00     0.148 A 
ATOM     92  C   UNL A   1      42.050  30.875  33.708  1.00  0.00     0.002 A 
ATOM     93  C   UNL A   1      41.842  28.739  34.814  1.00  0.00     0.091 A 
ATOM     94  F   UNL A   1      40.485  27.054  33.835  1.00  0.00    -0.205 F 
ATOM     95  C   UNL A   1      42.373  30.033  34.765  1.00  0.00     0.022 A 
BRANCH  93  96
ATOM     96  S   UNL A   1      42.350  27.738  36.227  1.00  0.00     0.127 S 
ATOM     97  O   UNL A   1      43.244  28.639  36.955  1.00  0.00    -0.237 OA
ATOM     98  O   UNL A   1      41.080  27.484  36.906  1.00  0.00    -0.237 OA
ATOM     99  O   UNL A   1      42.996  26.554  35.679  1.00  0.00    -0.744 OA
ENDBRANCH  93  96
ENDBRANCH  66  89
ENDBRANCH  40  41
ENDBRANCH  33  35
ENDBRANCH  32  33
ENDBRANCH  31  32
ENDBRANCH   1  31
TORSDOF 20
ENDMDL
