MODEL 1
REMARK VINA RESULT:     -12.4      0.000      0.000
REMARK SMILES COc1ccccc1C(=O)Nc1sc2c(c1C(=O)OCCOC(=O)c1ccc(-c3c4nc(c(-c5cccc(S(=O)(=O)[O-])c5F)c5ccc([nH]5)c(-c5cccc(S(=O)(=O)[O-])c5F)c5nc(c(-c6cccc(S(=O)(=O)[O-])c6F)c6ccc3[nH]6)C=C5)C=C4)cc1)CCCC2
REMARK SMILES IDX 20 1 19 2 17 3 18 4 16 5 12 6 13 7 14 8 15 9 91 10 88 11
REMARK SMILES IDX 90 12 89 13 11 14 9 15 10 16 8 18 3 19 4 20 5 21 7 22 6 23
REMARK SMILES IDX 2 24 1 25 21 26 22 27 23 28 24 29 25 30 26 31 87 32 27 33
REMARK SMILES IDX 86 34 28 35 29 36 30 37 80 38 31 39 85 40 79 41 81 42 32 43
REMARK SMILES IDX 84 44 78 45 77 46 33 48 65 49 45 50 64 51 46 52 49 53 63 54
REMARK SMILES IDX 82 55 47 56 48 57 62 59 83 60 50 61 34 62 35 63 43 64 36 65
REMARK SMILES IDX 38 66 44 67 37 68 39 69 40 70 41 71 42 72 66 73 67 74 75 75
REMARK SMILES IDX 68 76 70 77 76 78 69 79 71 80 72 81 73 82 74 83 51 84 52 85
REMARK SMILES IDX 60 86 53 87 55 88 61 89 54 90 56 91 57 92 58 93 59 94
REMARK H PARENT 11 17 81 47 49 58
REMARK Flexibility Score: inf
ROOT
ATOM      1  C   UNL A   1      34.804  22.505  27.205  1.00  0.00     0.275 C 
ENDROOT
BRANCH   1   2
ATOM      2  O   UNL A   1      33.426  22.182  27.496  1.00  0.00    -0.458 OA
BRANCH   2   3
ATOM      3  C   UNL A   1      32.487  23.030  26.979  1.00  0.00     0.341 C 
ATOM      4  O   UNL A   1      31.502  23.410  27.597  1.00  0.00    -0.246 OA
BRANCH   3   5
ATOM      5  C   UNL A   1      32.739  23.404  25.587  1.00  0.00     0.098 A 
ATOM      6  C   UNL A   1      32.876  24.713  25.149  1.00  0.00     0.110 A 
ATOM      7  S   UNL A   1      33.134  24.858  23.479  1.00  0.00    -0.122 S 
ATOM      8  C   UNL A   1      32.796  23.209  23.257  1.00  0.00     0.011 A 
ATOM      9  C   UNL A   1      32.690  22.514  24.450  1.00  0.00    -0.017 A 
ATOM     10  C   UNL A   1      32.602  22.620  21.899  1.00  0.00     0.047 C 
ATOM     11  C   UNL A   1      32.371  21.048  24.488  1.00  0.00     0.038 C 
ATOM     12  C   UNL A   1      31.819  21.304  22.017  1.00  0.00     0.006 C 
ATOM     13  C   UNL A   1      32.426  20.398  23.098  1.00  0.00     0.005 C 
BRANCH   6  14
ATOM     14  N   UNL A   1      32.957  25.875  25.882  1.00  0.00    -0.313 N 
ATOM     15  C   UNL A   1      31.845  26.648  26.163  1.00  0.00     0.260 C 
ATOM     16  O   UNL A   1      31.680  27.089  27.299  1.00  0.00    -0.269 OA
ATOM     17  H   UNL A   1      33.836  26.164  26.219  1.00  0.00     0.171 HD
BRANCH  15  18
ATOM     18  C   UNL A   1      30.913  27.114  25.127  1.00  0.00     0.082 A 
ATOM     19  C   UNL A   1      31.110  28.229  24.309  1.00  0.00     0.131 A 
ATOM     20  C   UNL A   1      30.136  28.568  23.366  1.00  0.00     0.047 A 
ATOM     21  C   UNL A   1      29.027  27.742  23.164  1.00  0.00     0.004 A 
ATOM     22  C   UNL A   1      29.813  26.269  24.898  1.00  0.00     0.018 A 
ATOM     23  C   UNL A   1      28.877  26.579  23.915  1.00  0.00     0.001 A 
BRANCH  19  24
ATOM     24  O   UNL A   1      32.193  29.061  24.385  1.00  0.00    -0.496 OA
ATOM     25  C   UNL A   1      33.058  28.896  23.263  1.00  0.00     0.278 C 
ENDBRANCH  19  24
ENDBRANCH  15  18
ENDBRANCH   6  14
ENDBRANCH   3   5
ENDBRANCH   2   3
ENDBRANCH   1   2
BRANCH   1  26
ATOM     26  C   UNL A   1      35.453  21.431  26.335  1.00  0.00     0.275 C 
BRANCH  26  27
ATOM     27  O   UNL A   1      36.447  22.038  25.498  1.00  0.00    -0.458 OA
BRANCH  27  28
ATOM     28  C   UNL A   1      37.720  21.604  25.644  1.00  0.00     0.338 C 
ATOM     29  O   UNL A   1      38.185  20.542  25.266  1.00  0.00    -0.246 OA
BRANCH  28  30
ATOM     30  C   UNL A   1      38.519  22.665  26.289  1.00  0.00     0.060 A 
ATOM     31  C   UNL A   1      38.094  23.981  26.173  1.00  0.00     0.016 A 
ATOM     32  C   UNL A   1      39.738  22.387  26.906  1.00  0.00     0.016 A 
ATOM     33  C   UNL A   1      38.931  25.019  26.561  1.00  0.00     0.010 A 
ATOM     34  C   UNL A   1      40.517  23.440  27.419  1.00  0.00     0.010 A 
ATOM     35  C   UNL A   1      40.137  24.778  27.221  1.00  0.00    -0.014 A 
BRANCH  35  36
ATOM     36  C   UNL A   1      40.972  25.943  27.638  1.00  0.00     0.031 A 
ATOM     37  C   UNL A   1      40.410  26.982  28.572  1.00  0.00     0.074 A 
ATOM     38  C   UNL A   1      42.267  26.037  27.264  1.00  0.00     0.049 A 
ATOM     39  N   UNL A   1      40.918  28.133  28.930  1.00  0.00    -0.248 NA
ATOM     40  C   UNL A   1      39.107  26.685  29.188  1.00  0.00     0.031 C 
ATOM     41  C   UNL A   1      42.993  25.053  26.456  1.00  0.00     0.029 A 
ATOM     42  N   UNL A   1      43.220  26.990  27.542  1.00  0.00    -0.354 N 
ATOM     43  C   UNL A   1      39.958  28.738  29.734  1.00  0.00     0.074 A 
ATOM     44  C   UNL A   1      38.853  27.811  29.841  1.00  0.00     0.031 C 
ATOM     45  C   UNL A   1      44.280  25.411  26.366  1.00  0.00     0.029 A 
ATOM     46  C   UNL A   1      44.450  26.717  26.987  1.00  0.00     0.049 A 
ATOM     47  H   UNL A   1      43.039  27.791  28.086  1.00  0.00     0.167 HD
ATOM     48  C   UNL A   1      39.994  29.957  30.320  1.00  0.00     0.034 A 
ATOM     49  C   UNL A   1      45.579  27.452  26.928  1.00  0.00     0.034 A 
ATOM     50  C   UNL A   1      41.125  30.845  30.272  1.00  0.00     0.049 A 
ATOM     51  C   UNL A   1      45.572  28.829  27.526  1.00  0.00     0.074 A 
ATOM     52  C   UNL A   1      41.256  32.106  30.826  1.00  0.00     0.029 A 
ATOM     53  N   UNL A   1      42.326  30.561  29.638  1.00  0.00    -0.354 N 
ATOM     54  N   UNL A   1      44.645  29.411  28.246  1.00  0.00    -0.248 NA
ATOM     55  C   UNL A   1      46.758  29.662  27.282  1.00  0.00     0.031 C 
ATOM     56  C   UNL A   1      42.528  32.594  30.507  1.00  0.00     0.029 A 
ATOM     57  C   UNL A   1      43.197  31.630  29.771  1.00  0.00     0.049 A 
ATOM     58  H   UNL A   1      42.529  29.723  29.163  1.00  0.00     0.167 HD
ATOM     59  C   UNL A   1      45.131  30.678  28.541  1.00  0.00     0.074 A 
ATOM     60  C   UNL A   1      46.454  30.764  27.956  1.00  0.00     0.031 C 
ATOM     61  C   UNL A   1      44.524  31.689  29.210  1.00  0.00     0.034 A 
BRANCH  48  62
ATOM     62  C   UNL A   1      38.749  30.416  31.030  1.00  0.00     0.023 A 
ATOM     63  C   UNL A   1      38.575  30.166  32.405  1.00  0.00     0.012 A 
ATOM     64  C   UNL A   1      37.746  31.107  30.320  1.00  0.00     0.148 A 
ATOM     65  C   UNL A   1      37.405  30.562  33.055  1.00  0.00     0.002 A 
ATOM     66  C   UNL A   1      36.601  31.534  30.982  1.00  0.00     0.091 A 
ATOM     67  F   UNL A   1      37.914  31.310  29.006  1.00  0.00    -0.205 F 
ATOM     68  C   UNL A   1      36.423  31.253  32.346  1.00  0.00     0.022 A 
BRANCH  66  69
ATOM     69  S   UNL A   1      35.320  32.486  30.158  1.00  0.00     0.127 S 
ATOM     70  O   UNL A   1      34.367  32.703  31.245  1.00  0.00    -0.237 OA
ATOM     71  O   UNL A   1      36.044  33.684  29.734  1.00  0.00    -0.237 OA
ATOM     72  O   UNL A   1      34.850  31.648  29.063  1.00  0.00    -0.744 OA
ENDBRANCH  66  69
ENDBRANCH  48  62
BRANCH  49  73
ATOM     73  C   UNL A   1      46.790  26.910  26.243  1.00  0.00     0.023 A 
ATOM     74  C   UNL A   1      46.926  27.064  24.850  1.00  0.00     0.012 A 
ATOM     75  C   UNL A   1      47.829  26.290  26.967  1.00  0.00     0.148 A 
ATOM     76  C   UNL A   1      48.070  26.608  24.193  1.00  0.00     0.002 A 
ATOM     77  C   UNL A   1      48.993  25.900  26.317  1.00  0.00     0.091 A 
ATOM     78  F   UNL A   1      47.667  26.115  28.286  1.00  0.00    -0.205 F 
ATOM     79  C   UNL A   1      49.110  26.043  24.927  1.00  0.00     0.022 A 
BRANCH  77  80
ATOM     80  S   UNL A   1      50.436  25.301  27.207  1.00  0.00     0.127 S 
ATOM     81  O   UNL A   1      50.739  26.431  28.081  1.00  0.00    -0.237 OA
ATOM     82  O   UNL A   1      49.904  24.121  27.889  1.00  0.00    -0.237 OA
ATOM     83  O   UNL A   1      51.434  25.006  26.187  1.00  0.00    -0.744 OA
ENDBRANCH  77  80
ENDBRANCH  49  73
BRANCH  61  84
ATOM     84  C   UNL A   1      45.283  32.982  29.344  1.00  0.00     0.023 A 
ATOM     85  C   UNL A   1      46.203  33.137  30.399  1.00  0.00     0.012 A 
ATOM     86  C   UNL A   1      45.138  34.010  28.393  1.00  0.00     0.148 A 
ATOM     87  C   UNL A   1      46.950  34.308  30.521  1.00  0.00     0.002 A 
ATOM     88  C   UNL A   1      45.917  35.155  28.495  1.00  0.00     0.091 A 
ATOM     89  F   UNL A   1      44.241  33.849  27.409  1.00  0.00    -0.205 F 
ATOM     90  C   UNL A   1      46.816  35.311  29.563  1.00  0.00     0.022 A 
BRANCH  88  91
ATOM     91  S   UNL A   1      45.879  36.460  27.260  1.00  0.00     0.127 S 
ATOM     92  O   UNL A   1      44.599  37.104  27.549  1.00  0.00    -0.237 OA
ATOM     93  O   UNL A   1      47.056  37.255  27.611  1.00  0.00    -0.237 OA
ATOM     94  O   UNL A   1      45.965  35.792  25.968  1.00  0.00    -0.744 OA
ENDBRANCH  88  91
ENDBRANCH  61  84
ENDBRANCH  35  36
ENDBRANCH  28  30
ENDBRANCH  27  28
ENDBRANCH  26  27
ENDBRANCH   1  26
TORSDOF 17
ENDMDL
MODEL 2
REMARK VINA RESULT:     -12.2      4.995      9.766
REMARK SMILES COc1ccccc1C(=O)Nc1sc2c(c1C(=O)OCCOC(=O)c1ccc(-c3c4nc(c(-c5cccc(S(=O)(=O)[O-])c5F)c5ccc([nH]5)c(-c5cccc(S(=O)(=O)[O-])c5F)c5nc(c(-c6cccc(S(=O)(=O)[O-])c6F)c6ccc3[nH]6)C=C5)C=C4)cc1)CCCC2
REMARK SMILES IDX 20 1 19 2 17 3 18 4 16 5 12 6 13 7 14 8 15 9 91 10 88 11
REMARK SMILES IDX 90 12 89 13 11 14 9 15 10 16 8 18 3 19 4 20 5 21 7 22 6 23
REMARK SMILES IDX 2 24 1 25 21 26 22 27 23 28 24 29 25 30 26 31 87 32 27 33
REMARK SMILES IDX 86 34 28 35 29 36 30 37 80 38 31 39 85 40 79 41 81 42 32 43
REMARK SMILES IDX 84 44 78 45 77 46 33 48 65 49 45 50 64 51 46 52 49 53 63 54
REMARK SMILES IDX 82 55 47 56 48 57 62 59 83 60 50 61 34 62 35 63 43 64 36 65
REMARK SMILES IDX 38 66 44 67 37 68 39 69 40 70 41 71 42 72 66 73 67 74 75 75
REMARK SMILES IDX 68 76 70 77 76 78 69 79 71 80 72 81 73 82 74 83 51 84 52 85
REMARK SMILES IDX 60 86 53 87 55 88 61 89 54 90 56 91 57 92 58 93 59 94
REMARK H PARENT 11 17 81 47 49 58
REMARK Flexibility Score: inf
ROOT
ATOM      1  C   UNL A   1      31.750  28.714  27.360  1.00  0.00     0.275 C 
ENDROOT
BRANCH   1   2
ATOM      2  O   UNL A   1      31.017  27.888  26.429  1.00  0.00    -0.458 OA
BRANCH   2   3
ATOM      3  C   UNL A   1      31.403  26.579  26.355  1.00  0.00     0.341 C 
ATOM      4  O   UNL A   1      31.743  25.915  27.325  1.00  0.00    -0.246 OA
BRANCH   3   5
ATOM      5  C   UNL A   1      31.425  26.051  24.990  1.00  0.00     0.098 A 
ATOM      6  C   UNL A   1      31.026  24.767  24.650  1.00  0.00     0.110 A 
ATOM      7  S   UNL A   1      31.183  24.411  22.999  1.00  0.00    -0.122 S 
ATOM      8  C   UNL A   1      32.040  25.855  22.742  1.00  0.00     0.011 A 
ATOM      9  C   UNL A   1      32.031  26.691  23.846  1.00  0.00    -0.017 A 
ATOM     10  C   UNL A   1      32.748  26.133  21.458  1.00  0.00     0.047 C 
ATOM     11  C   UNL A   1      32.748  28.009  23.847  1.00  0.00     0.038 C 
ATOM     12  C   UNL A   1      33.826  27.203  21.688  1.00  0.00     0.006 C 
ATOM     13  C   UNL A   1      33.254  28.404  22.452  1.00  0.00     0.005 C 
BRANCH   6  14
ATOM     14  N   UNL A   1      30.415  23.808  25.425  1.00  0.00    -0.313 N 
ATOM     15  C   UNL A   1      31.135  22.948  26.235  1.00  0.00     0.260 C 
ATOM     16  O   UNL A   1      30.754  22.731  27.385  1.00  0.00    -0.269 OA
ATOM     17  H   UNL A   1      29.434  23.733  25.404  1.00  0.00     0.171 HD
BRANCH  15  18
ATOM     18  C   UNL A   1      32.261  22.141  25.744  1.00  0.00     0.082 A 
ATOM     19  C   UNL A   1      33.611  22.429  25.957  1.00  0.00     0.131 A 
ATOM     20  C   UNL A   1      34.585  21.579  25.427  1.00  0.00     0.047 A 
ATOM     21  C   UNL A   1      34.217  20.395  24.782  1.00  0.00     0.004 A 
ATOM     22  C   UNL A   1      31.896  20.935  25.123  1.00  0.00     0.018 A 
ATOM     23  C   UNL A   1      32.871  20.061  24.650  1.00  0.00     0.001 A 
BRANCH  19  24
ATOM     24  O   UNL A   1      34.069  23.527  26.633  1.00  0.00    -0.496 OA
ATOM     25  C   UNL A   1      34.580  24.515  25.740  1.00  0.00     0.278 C 
ENDBRANCH  19  24
ENDBRANCH  15  18
ENDBRANCH   6  14
ENDBRANCH   3   5
ENDBRANCH   2   3
ENDBRANCH   1   2
BRANCH   1  26
ATOM     26  C   UNL A   1      31.880  30.146  26.846  1.00  0.00     0.275 C 
BRANCH  26  27
ATOM     27  O   UNL A   1      33.269  30.456  26.656  1.00  0.00    -0.458 OA
BRANCH  27  28
ATOM     28  C   UNL A   1      33.764  31.504  27.355  1.00  0.00     0.338 C 
ATOM     29  O   UNL A   1      33.208  32.565  27.586  1.00  0.00    -0.246 OA
BRANCH  28  30
ATOM     30  C   UNL A   1      35.096  31.145  27.880  1.00  0.00     0.060 A 
ATOM     31  C   UNL A   1      35.314  29.844  28.309  1.00  0.00     0.016 A 
ATOM     32  C   UNL A   1      36.093  32.105  28.060  1.00  0.00     0.016 A 
ATOM     33  C   UNL A   1      36.466  29.528  29.018  1.00  0.00     0.010 A 
ATOM     34  C   UNL A   1      37.312  31.741  28.657  1.00  0.00     0.010 A 
ATOM     35  C   UNL A   1      37.501  30.450  29.177  1.00  0.00    -0.014 A 
BRANCH  35  36
ATOM     36  C   UNL A   1      38.725  30.032  29.923  1.00  0.00     0.031 A 
ATOM     37  C   UNL A   1      39.735  29.125  29.273  1.00  0.00     0.074 A 
ATOM     38  C   UNL A   1      38.994  30.532  31.150  1.00  0.00     0.049 A 
ATOM     39  N   UNL A   1      40.777  28.535  29.800  1.00  0.00    -0.248 NA
ATOM     40  C   UNL A   1      39.553  28.847  27.839  1.00  0.00     0.031 C 
ATOM     41  C   UNL A   1      38.173  31.510  31.868  1.00  0.00     0.029 A 
ATOM     42  N   UNL A   1      40.052  30.314  32.002  1.00  0.00    -0.354 N 
ATOM     43  C   UNL A   1      41.317  27.744  28.793  1.00  0.00     0.074 A 
ATOM     44  C   UNL A   1      40.509  27.958  27.611  1.00  0.00     0.031 C 
ATOM     45  C   UNL A   1      38.788  31.860  33.005  1.00  0.00     0.029 A 
ATOM     46  C   UNL A   1      39.975  31.035  33.172  1.00  0.00     0.049 A 
ATOM     47  H   UNL A   1      40.794  29.700  31.794  1.00  0.00     0.167 HD
ATOM     48  C   UNL A   1      42.382  26.911  28.852  1.00  0.00     0.034 A 
ATOM     49  C   UNL A   1      40.735  31.002  34.285  1.00  0.00     0.034 A 
ATOM     50  C   UNL A   1      43.226  26.757  30.007  1.00  0.00     0.049 A 
ATOM     51  C   UNL A   1      41.869  30.021  34.353  1.00  0.00     0.074 A 
ATOM     52  C   UNL A   1      44.324  25.931  30.168  1.00  0.00     0.029 A 
ATOM     53  N   UNL A   1      43.071  27.452  31.197  1.00  0.00    -0.354 N 
ATOM     54  N   UNL A   1      42.345  29.245  33.410  1.00  0.00    -0.248 NA
ATOM     55  C   UNL A   1      42.556  29.891  35.645  1.00  0.00     0.031 C 
ATOM     56  C   UNL A   1      44.818  26.109  31.465  1.00  0.00     0.029 A 
ATOM     57  C   UNL A   1      44.040  27.060  32.105  1.00  0.00     0.049 A 
ATOM     58  H   UNL A   1      42.373  28.124  31.371  1.00  0.00     0.167 HD
ATOM     59  C   UNL A   1      43.386  28.533  33.993  1.00  0.00     0.074 A 
ATOM     60  C   UNL A   1      43.497  28.999  35.360  1.00  0.00     0.031 C 
ATOM     61  C   UNL A   1      44.159  27.558  33.453  1.00  0.00     0.034 A 
BRANCH  48  62
ATOM     62  C   UNL A   1      42.664  26.068  27.636  1.00  0.00     0.023 A 
ATOM     63  C   UNL A   1      43.394  26.596  26.554  1.00  0.00     0.012 A 
ATOM     64  C   UNL A   1      42.202  24.738  27.577  1.00  0.00     0.148 A 
ATOM     65  C   UNL A   1      43.626  25.825  25.413  1.00  0.00     0.002 A 
ATOM     66  C   UNL A   1      42.471  23.963  26.455  1.00  0.00     0.091 A 
ATOM     67  F   UNL A   1      41.483  24.262  28.604  1.00  0.00    -0.205 F 
ATOM     68  C   UNL A   1      43.173  24.508  25.368  1.00  0.00     0.022 A 
BRANCH  66  69
ATOM     69  S   UNL A   1      41.980  22.239  26.345  1.00  0.00     0.127 S 
ATOM     70  O   UNL A   1      40.527  22.351  26.237  1.00  0.00    -0.237 OA
ATOM     71  O   UNL A   1      42.650  21.800  25.120  1.00  0.00    -0.237 OA
ATOM     72  O   UNL A   1      42.477  21.609  27.560  1.00  0.00    -0.744 OA
ENDBRANCH  66  69
ENDBRANCH  48  62
BRANCH  49  73
ATOM     73  C   UNL A   1      40.418  31.900  35.434  1.00  0.00     0.023 A 
ATOM     74  C   UNL A   1      41.188  33.062  35.639  1.00  0.00     0.012 A 
ATOM     75  C   UNL A   1      39.332  31.640  36.295  1.00  0.00     0.148 A 
ATOM     76  C   UNL A   1      40.882  33.943  36.678  1.00  0.00     0.002 A 
ATOM     77  C   UNL A   1      38.992  32.555  37.284  1.00  0.00     0.091 A 
ATOM     78  F   UNL A   1      38.634  30.510  36.112  1.00  0.00    -0.205 F 
ATOM     79  C   UNL A   1      39.776  33.700  37.487  1.00  0.00     0.022 A 
BRANCH  77  80
ATOM     80  S   UNL A   1      37.499  32.393  38.272  1.00  0.00     0.127 S 
ATOM     81  O   UNL A   1      37.871  33.100  39.494  1.00  0.00    -0.237 OA
ATOM     82  O   UNL A   1      36.510  33.080  37.441  1.00  0.00    -0.237 OA
ATOM     83  O   UNL A   1      37.274  30.961  38.413  1.00  0.00    -0.744 OA
ENDBRANCH  77  80
ENDBRANCH  49  73
BRANCH  61  84
ATOM     84  C   UNL A   1      45.195  26.926  34.344  1.00  0.00     0.023 A 
ATOM     85  C   UNL A   1      46.493  27.470  34.390  1.00  0.00     0.012 A 
ATOM     86  C   UNL A   1      44.867  25.843  35.181  1.00  0.00     0.148 A 
ATOM     87  C   UNL A   1      47.458  26.930  35.238  1.00  0.00     0.002 A 
ATOM     88  C   UNL A   1      45.820  25.337  36.056  1.00  0.00     0.091 A 
ATOM     89  F   UNL A   1      43.631  25.327  35.106  1.00  0.00    -0.205 F 
ATOM     90  C   UNL A   1      47.119  25.872  36.079  1.00  0.00     0.022 A 
BRANCH  88  91
ATOM     91  S   UNL A   1      45.449  24.037  37.239  1.00  0.00     0.127 S 
ATOM     92  O   UNL A   1      44.414  24.667  38.058  1.00  0.00    -0.237 OA
ATOM     93  O   UNL A   1      44.972  22.957  36.375  1.00  0.00    -0.237 OA
ATOM     94  O   UNL A   1      46.701  23.751  37.927  1.00  0.00    -0.744 OA
ENDBRANCH  88  91
ENDBRANCH  61  84
ENDBRANCH  35  36
ENDBRANCH  28  30
ENDBRANCH  27  28
ENDBRANCH  26  27
ENDBRANCH   1  26
TORSDOF 17
ENDMDL
MODEL 3
REMARK VINA RESULT:     -12.1      4.690      9.439
REMARK SMILES COc1ccccc1C(=O)Nc1sc2c(c1C(=O)OCCOC(=O)c1ccc(-c3c4nc(c(-c5cccc(S(=O)(=O)[O-])c5F)c5ccc([nH]5)c(-c5cccc(S(=O)(=O)[O-])c5F)c5nc(c(-c6cccc(S(=O)(=O)[O-])c6F)c6ccc3[nH]6)C=C5)C=C4)cc1)CCCC2
REMARK SMILES IDX 20 1 19 2 17 3 18 4 16 5 12 6 13 7 14 8 15 9 91 10 88 11
REMARK SMILES IDX 90 12 89 13 11 14 9 15 10 16 8 18 3 19 4 20 5 21 7 22 6 23
REMARK SMILES IDX 2 24 1 25 21 26 22 27 23 28 24 29 25 30 26 31 87 32 27 33
REMARK SMILES IDX 86 34 28 35 29 36 30 37 80 38 31 39 85 40 79 41 81 42 32 43
REMARK SMILES IDX 84 44 78 45 77 46 33 48 65 49 45 50 64 51 46 52 49 53 63 54
REMARK SMILES IDX 82 55 47 56 48 57 62 59 83 60 50 61 34 62 35 63 43 64 36 65
REMARK SMILES IDX 38 66 44 67 37 68 39 69 40 70 41 71 42 72 66 73 67 74 75 75
REMARK SMILES IDX 68 76 70 77 76 78 69 79 71 80 72 81 73 82 74 83 51 84 52 85
REMARK SMILES IDX 60 86 53 87 55 88 61 89 54 90 56 91 57 92 58 93 59 94
REMARK H PARENT 11 17 81 47 49 58
REMARK Flexibility Score: inf
ROOT
ATOM      1  C   UNL A   1      31.651  27.423  26.595  1.00  0.00     0.275 C 
ENDROOT
BRANCH   1   2
ATOM      2  O   UNL A   1      31.619  26.840  25.275  1.00  0.00    -0.458 OA
BRANCH   2   3
ATOM      3  C   UNL A   1      31.120  25.570  25.190  1.00  0.00     0.341 C 
ATOM      4  O   UNL A   1      30.009  25.250  25.590  1.00  0.00    -0.246 OA
BRANCH   3   5
ATOM      5  C   UNL A   1      32.062  24.606  24.621  1.00  0.00     0.098 A 
ATOM      6  C   UNL A   1      32.078  24.233  23.286  1.00  0.00     0.110 A 
ATOM      7  S   UNL A   1      33.259  23.076  22.907  1.00  0.00    -0.122 S 
ATOM      8  C   UNL A   1      33.593  22.839  24.555  1.00  0.00     0.011 A 
ATOM      9  C   UNL A   1      32.968  23.767  25.371  1.00  0.00    -0.017 A 
ATOM     10  C   UNL A   1      34.446  21.711  25.031  1.00  0.00     0.047 C 
ATOM     11  C   UNL A   1      33.106  23.728  26.865  1.00  0.00     0.038 C 
ATOM     12  C   UNL A   1      34.152  21.435  26.513  1.00  0.00     0.006 C 
ATOM     13  C   UNL A   1      34.180  22.734  27.330  1.00  0.00     0.005 C 
BRANCH   6  14
ATOM     14  N   UNL A   1      31.371  24.754  22.226  1.00  0.00    -0.313 N 
ATOM     15  C   UNL A   1      31.866  25.785  21.448  1.00  0.00     0.260 C 
ATOM     16  O   UNL A   1      31.772  25.724  20.222  1.00  0.00    -0.269 OA
ATOM     17  H   UNL A   1      30.486  24.380  22.014  1.00  0.00     0.171 HD
BRANCH  15  18
ATOM     18  C   UNL A   1      32.365  27.047  22.013  1.00  0.00     0.082 A 
ATOM     19  C   UNL A   1      31.578  28.162  22.312  1.00  0.00     0.131 A 
ATOM     20  C   UNL A   1      32.183  29.305  22.841  1.00  0.00     0.047 A 
ATOM     21  C   UNL A   1      33.541  29.300  23.171  1.00  0.00     0.004 A 
ATOM     22  C   UNL A   1      33.722  27.036  22.375  1.00  0.00     0.018 A 
ATOM     23  C   UNL A   1      34.307  28.157  22.959  1.00  0.00     0.001 A 
BRANCH  19  24
ATOM     24  O   UNL A   1      30.231  28.239  22.088  1.00  0.00    -0.496 OA
ATOM     25  C   UNL A   1      29.587  29.072  23.051  1.00  0.00     0.278 C 
ENDBRANCH  19  24
ENDBRANCH  15  18
ENDBRANCH   6  14
ENDBRANCH   3   5
ENDBRANCH   2   3
ENDBRANCH   1   2
BRANCH   1  26
ATOM     26  C   UNL A   1      31.398  28.929  26.542  1.00  0.00     0.275 C 
BRANCH  26  27
ATOM     27  O   UNL A   1      32.611  29.597  26.164  1.00  0.00    -0.458 OA
BRANCH  27  28
ATOM     28  C   UNL A   1      32.913  30.739  26.826  1.00  0.00     0.338 C 
ATOM     29  O   UNL A   1      32.202  31.720  26.966  1.00  0.00    -0.246 OA
BRANCH  28  30
ATOM     30  C   UNL A   1      34.249  30.601  27.438  1.00  0.00     0.060 A 
ATOM     31  C   UNL A   1      34.763  29.327  27.633  1.00  0.00     0.016 A 
ATOM     32  C   UNL A   1      34.947  31.706  27.924  1.00  0.00     0.016 A 
ATOM     33  C   UNL A   1      35.901  29.147  28.409  1.00  0.00     0.010 A 
ATOM     34  C   UNL A   1      36.170  31.521  28.591  1.00  0.00     0.010 A 
ATOM     35  C   UNL A   1      36.647  30.230  28.873  1.00  0.00    -0.014 A 
BRANCH  35  36
ATOM     36  C   UNL A   1      37.878  29.962  29.675  1.00  0.00     0.031 A 
ATOM     37  C   UNL A   1      39.015  29.178  29.078  1.00  0.00     0.074 A 
ATOM     38  C   UNL A   1      38.031  30.495  30.908  1.00  0.00     0.049 A 
ATOM     39  N   UNL A   1      40.095  28.717  29.655  1.00  0.00    -0.248 NA
ATOM     40  C   UNL A   1      38.931  28.876  27.640  1.00  0.00     0.031 C 
ATOM     41  C   UNL A   1      37.070  31.372  31.581  1.00  0.00     0.029 A 
ATOM     42  N   UNL A   1      39.069  30.406  31.807  1.00  0.00    -0.354 N 
ATOM     43  C   UNL A   1      40.768  27.992  28.678  1.00  0.00     0.074 A 
ATOM     44  C   UNL A   1      39.994  28.105  27.461  1.00  0.00     0.031 C 
ATOM     45  C   UNL A   1      37.589  31.796  32.741  1.00  0.00     0.029 A 
ATOM     46  C   UNL A   1      38.857  31.117  32.967  1.00  0.00     0.049 A 
ATOM     47  H   UNL A   1      39.887  29.883  31.637  1.00  0.00     0.167 HD
ATOM     48  C   UNL A   1      41.920  27.291  28.790  1.00  0.00     0.034 A 
ATOM     49  C   UNL A   1      39.566  31.177  34.112  1.00  0.00     0.034 A 
ATOM     50  C   UNL A   1      42.725  27.241  29.982  1.00  0.00     0.049 A 
ATOM     51  C   UNL A   1      40.803  30.337  34.237  1.00  0.00     0.074 A 
ATOM     52  C   UNL A   1      43.904  26.552  30.198  1.00  0.00     0.029 A 
ATOM     53  N   UNL A   1      42.436  27.917  31.158  1.00  0.00    -0.354 N 
ATOM     54  N   UNL A   1      41.408  29.620  33.322  1.00  0.00    -0.248 NA
ATOM     55  C   UNL A   1      41.443  30.294  35.558  1.00  0.00     0.031 C 
ATOM     56  C   UNL A   1      44.316  26.791  31.513  1.00  0.00     0.029 A 
ATOM     57  C   UNL A   1      43.405  27.646  32.111  1.00  0.00     0.049 A 
ATOM     58  H   UNL A   1      41.657  28.503  31.296  1.00  0.00     0.167 HD
ATOM     59  C   UNL A   1      42.499  29.037  33.956  1.00  0.00     0.074 A 
ATOM     60  C   UNL A   1      42.494  29.519  35.323  1.00  0.00     0.031 C 
ATOM     61  C   UNL A   1      43.404  28.159  33.458  1.00  0.00     0.034 A 
BRANCH  48  62
ATOM     62  C   UNL A   1      42.353  26.483  27.596  1.00  0.00     0.023 A 
ATOM     63  C   UNL A   1      43.085  27.083  26.554  1.00  0.00     0.012 A 
ATOM     64  C   UNL A   1      42.030  25.114  27.515  1.00  0.00     0.148 A 
ATOM     65  C   UNL A   1      43.457  26.342  25.431  1.00  0.00     0.002 A 
ATOM     66  C   UNL A   1      42.438  24.372  26.413  1.00  0.00     0.091 A 
ATOM     67  F   UNL A   1      41.306  24.566  28.502  1.00  0.00    -0.205 F 
ATOM     68  C   UNL A   1      43.141  24.986  25.364  1.00  0.00     0.022 A 
BRANCH  66  69
ATOM     69  S   UNL A   1      42.128  22.608  26.281  1.00  0.00     0.127 S 
ATOM     70  O   UNL A   1      42.670  22.309  24.957  1.00  0.00    -0.237 OA
ATOM     71  O   UNL A   1      42.910  22.068  27.395  1.00  0.00    -0.237 OA
ATOM     72  O   UNL A   1      40.688  22.448  26.426  1.00  0.00    -0.744 OA
ENDBRANCH  66  69
ENDBRANCH  48  62
BRANCH  49  73
ATOM     73  C   UNL A   1      39.095  32.036  35.238  1.00  0.00     0.023 A 
ATOM     74  C   UNL A   1      38.162  31.522  36.159  1.00  0.00     0.012 A 
ATOM     75  C   UNL A   1      39.600  33.338  35.432  1.00  0.00     0.148 A 
ATOM     76  C   UNL A   1      37.742  32.288  37.248  1.00  0.00     0.002 A 
ATOM     77  C   UNL A   1      39.229  34.069  36.555  1.00  0.00     0.091 A 
ATOM     78  F   UNL A   1      40.457  33.828  34.525  1.00  0.00    -0.205 F 
ATOM     79  C   UNL A   1      38.288  33.552  37.456  1.00  0.00     0.022 A 
BRANCH  77  80
ATOM     80  S   UNL A   1      39.995  35.640  36.975  1.00  0.00     0.127 S 
ATOM     81  O   UNL A   1      39.629  36.467  35.828  1.00  0.00    -0.237 OA
ATOM     82  O   UNL A   1      39.315  35.985  38.224  1.00  0.00    -0.237 OA
ATOM     83  O   UNL A   1      41.417  35.359  37.124  1.00  0.00    -0.744 OA
ENDBRANCH  77  80
ENDBRANCH  49  73
BRANCH  61  84
ATOM     84  C   UNL A   1      44.467  27.656  34.399  1.00  0.00     0.023 A 
ATOM     85  C   UNL A   1      45.662  28.387  34.546  1.00  0.00     0.012 A 
ATOM     86  C   UNL A   1      44.256  26.506  35.182  1.00  0.00     0.148 A 
ATOM     87  C   UNL A   1      46.644  27.967  35.441  1.00  0.00     0.002 A 
ATOM     88  C   UNL A   1      45.220  26.117  36.105  1.00  0.00     0.091 A 
ATOM     89  F   UNL A   1      43.120  25.814  35.011  1.00  0.00    -0.205 F 
ATOM     90  C   UNL A   1      46.418  26.839  36.229  1.00  0.00     0.022 A 
BRANCH  88  91
ATOM     91  S   UNL A   1      44.979  24.733  37.224  1.00  0.00     0.127 S 
ATOM     92  O   UNL A   1      46.261  24.691  37.926  1.00  0.00    -0.237 OA
ATOM     93  O   UNL A   1      43.851  25.185  38.040  1.00  0.00    -0.237 OA
ATOM     94  O   UNL A   1      44.690  23.581  36.381  1.00  0.00    -0.744 OA
ENDBRANCH  88  91
ENDBRANCH  61  84
ENDBRANCH  35  36
ENDBRANCH  28  30
ENDBRANCH  27  28
ENDBRANCH  26  27
ENDBRANCH   1  26
TORSDOF 17
ENDMDL
